@<TRIPOS>MOLECULE
NONAME
56 58 1 0 0 
SMALL
USER_CHARGES


@<TRIPOS>ATOM
  1 O        4.9910    -1.0550    -0.5780 O.2   1 <1>  -0.5700 
  2 C        3.7790    -1.0030    -0.4710 C.2   1 <1>   0.5440 
  3 N        3.1290    -0.1120    -1.2930 N.am  1 <1>  -0.6600 
  4 C        3.0770    -1.7790     0.5360 C.ar  1 <1>   0.0860 
  5 C        3.5600     0.0710    -2.7200 C.3   1 <1>   0.1400 
  6 C        2.3440     1.0060    -0.7130 C.3   1 <1>   0.1400 
  7 C        1.7400    -2.1310     0.4220 C.ar  1 <1>  -0.1500 
  8 C        3.7010    -2.2250     1.6920 C.ar  1 <1>  -0.1500 
  9 C        4.8250     0.9470    -2.8800 C.3   1 <1>   0.3430 
 10 C        3.2870     2.0740    -0.1410 C.3   1 <1>  -0.1600 
 11 C        1.1170    -2.8550     1.4220 C.ar  1 <1>   0.1670 
 12 C        2.9960    -2.9450     2.6380 C.ar  1 <1>   0.1660 
 13 N        5.2470     1.5720    -1.5870 N.4   1 <1>  -0.9590 
 14 C        4.3090     2.6400    -1.1330 C.3   1 <1>   0.3430 
 15 N        1.7190    -3.2580     2.5240 N.ar  1 <1>  -0.6200 
 16 C       -0.3430    -3.2360     1.2970 C.3   1 <1>  -0.0970 
 17 C        3.6810    -3.4280     3.8990 C.3   1 <1>  -0.0970 
 18 C        6.6800     1.9550    -1.5870 C.3   1 <1>   0.3430 
 19 C        7.1830     2.0510    -0.1470 C.3   1 <1>  -0.1600 
 20 C        8.7000     2.2800    -0.1000 C.3   1 <1>   0.0960 
 21 N        9.1440     2.3700     1.3040 N.pl3 1 <1>   0.0480 
 22 C        9.3620     3.4700     2.0680 C.2   1 <1>   0.0060 
 23 C        9.3860     1.3310     2.1230 C.2   1 <1>  -0.3020 
 24 N        9.7120     3.1960     3.2810 N.2   1 <1>  -0.5650 
 25 C        9.2170     4.8940     1.5690 C.3   1 <1>  -0.0600 
 26 C        9.7310     1.8520     3.3190 C.2   1 <1>   0.0770 
 27 H        2.7530     0.5010    -3.2870 H     1 <1>   0.0800 
 28 H        3.7610    -0.8970    -3.1480 H     1 <1>   0.0800 
 29 H        1.7090     0.6340     0.0740 H     1 <1>   0.0800 
 30 H        1.7060     1.4340    -1.4690 H     1 <1>   0.0800 
 31 H        1.1860    -1.8430    -0.4520 H     1 <1>   0.1500 
 32 H        4.7420    -2.0090     1.8470 H     1 <1>   0.1500 
 33 H        4.6560     1.7020    -3.6290 H     1 <1>   0.0800 
 34 H        5.6160     0.3080    -3.2350 H     1 <1>   0.0800 
 35 H        3.8000     1.6800     0.7190 H     1 <1>   0.0800 
 36 H        2.6820     2.8900     0.2120 H     1 <1>   0.0800 
 37 H        5.1450     0.7720    -0.9240 H     1 <1>   0.4500 
 38 H        4.8620     3.4240    -0.6430 H     1 <1>   0.0800 
 39 H        3.8020     3.0730    -1.9800 H     1 <1>   0.0800 
 40 H       -0.7650    -2.8790     0.3770 H     1 <1>   0.0800 
 41 H       -0.8940    -2.8190     2.1200 H     1 <1>   0.0800 
 42 H       -0.4360    -4.3060     1.3300 H     1 <1>   0.0800 
 43 H        4.7110    -3.1270     3.9250 H     1 <1>   0.0800 
 44 H        3.6300    -4.5010     3.9440 H     1 <1>   0.0800 
 45 H        3.1770    -3.0240     4.7580 H     1 <1>   0.0800 
 46 H        6.8180     2.8930    -2.1010 H     1 <1>   0.0800 
 47 H        7.2500     1.1960    -2.1010 H     1 <1>   0.0800 
 48 H        6.9620     1.1300     0.3650 H     1 <1>   0.0800 
 49 H        6.6970     2.8640     0.3620 H     1 <1>   0.0800 
 50 H        8.9670     3.1900    -0.6080 H     1 <1>   0.0800 
 51 H        9.2210     1.4620    -0.5670 H     1 <1>   0.0800 
 52 H        9.3060     0.3010     1.8270 H     1 <1>   0.1500 
 53 H        8.2160     5.0690     1.2250 H     1 <1>   0.0800 
 54 H        9.9140     5.0800     0.7730 H     1 <1>   0.0800 
 55 H        9.4270     5.5790     2.3720 H     1 <1>   0.0800 
 56 H        9.9980     1.3260     4.2210 H     1 <1>   0.1500 
@<TRIPOS>BOND
  1   1   2  2   
  2   2   3  am  
  3   2   4  1   
  4   3   5  1   
  5   3   6  1   
  6   4   7  ar  
  7   4   8  ar  
  8   5   9  1   
  9   5  27  1   
 10   5  28  1   
 11   6  10  1   
 12   6  29  1   
 13   6  30  1   
 14   7  11  ar  
 15   7  31  1   
 16   8  12  ar  
 17   8  32  1   
 18   9  13  1   
 19   9  33  1   
 20   9  34  1   
 21  10  14  1   
 22  10  35  1   
 23  10  36  1   
 24  11  15  ar  
 25  11  16  1   
 26  12  15  ar  
 27  12  17  1   
 28  13  14  1   
 29  13  18  1   
 30  13  37  1   
 31  14  38  1   
 32  14  39  1   
 33  16  40  1   
 34  16  41  1   
 35  16  42  1   
 36  17  43  1   
 37  17  44  1   
 38  17  45  1   
 39  18  19  1   
 40  18  46  1   
 41  18  47  1   
 42  19  20  1   
 43  19  48  1   
 44  19  49  1   
 45  20  21  1   
 46  20  50  1   
 47  20  51  1   
 48  21  22  1   
 49  21  23  1   
 50  22  24  2   
 51  22  25  1   
 52  23  26  2   
 53  23  52  1   
 54  24  26  1   
 55  25  53  1   
 56  25  54  1   
 57  25  55  1   
 58  26  56  1   
@<TRIPOS>SUBSTRUCTURE
  1 ****   1 GROUP 4 **** **** 0

# MOE 2024.06 (io_trps.svl 2023.06)
