@<TRIPOS>MOLECULE
NONAME
46 48 1 0 0 
SMALL
USER_CHARGES


@<TRIPOS>ATOM
  1 O       -0.9140     2.9230     1.7100 O.2   1 <1>  -0.5700 
  2 C       -1.5340     2.5470     0.7420 C.2   1 <1>   0.5690 
  3 N       -0.9270     2.4000    -0.4750 N.am  1 <1>  -0.6600 
  4 C       -3.0220     2.2870     0.9100 C.3   1 <1>  -0.0990 
  5 C       -1.6430     2.0460    -1.7320 C.3   1 <1>   0.1400 
  6 C        0.5530     2.6110    -0.6230 C.3   1 <1>   0.2010 
  7 C       -3.6570     1.5600    -0.2840 C.3   1 <1>  -0.1600 
  8 C       -3.1620     2.1920    -1.5880 C.3   1 <1>  -0.1600 
  9 C        0.9410     4.0850    -0.7070 C.2   1 <1>   0.5690 
 10 O        1.4290     4.4970    -1.7340 O.2   1 <1>  -0.5700 
 11 N        0.7100     4.8640     0.3920 N.am  1 <1>  -0.4940 
 12 C        0.8510     6.2560     0.6070 C.2   1 <1>  -0.0880 
 13 N        1.8800     7.0770     0.2290 N.pl3 1 <1>   0.3140 
 14 C       -0.0370     7.0300     1.2740 C.2   1 <1>  -0.1810 
 15 N        1.6410     8.3560     0.6350 N.2   1 <1>  -0.7070 
 16 C        3.1540     6.6920    -0.4600 C.3   1 <1>   0.1760 
 17 C        0.5040     8.3080     1.2510 C.2   1 <1>   0.1390 
 18 C       -1.3540     6.6400     1.9200 C.3   1 <1>  -0.0590 
 19 C        3.9400     5.6010     0.2890 C.3   1 <1>  -0.1600 
 20 C        4.1630     7.8360    -0.6280 C.3   1 <1>  -0.1600 
 21 C        5.4310     5.9270     0.1230 C.3   1 <1>  -0.1600 
 22 C        5.5010     7.1290    -0.8170 C.3   1 <1>  -0.1600 
 23 H       -3.5020     3.2390     1.0420 H     1 <1>   0.0800 
 24 H       -3.1760     1.7140     1.8060 H     1 <1>   0.0800 
 25 H       -1.4060     1.0260    -1.9840 H     1 <1>   0.0800 
 26 H       -1.3000     2.6800    -2.5330 H     1 <1>   0.0800 
 27 H        0.9050     2.1080    -1.5050 H     1 <1>   0.0800 
 28 H        1.0570     2.1760     0.2220 H     1 <1>   0.0800 
 29 H       -4.7300     1.6230    -0.2220 H     1 <1>   0.0800 
 30 H       -3.3790     0.5200    -0.2620 H     1 <1>   0.0800 
 31 H       -3.6420     1.7210    -2.4280 H     1 <1>   0.0800 
 32 H       -3.4200     3.2370    -1.6100 H     1 <1>   0.0800 
 33 H        0.1670     4.3720     1.1190 H     1 <1>   0.3700 
 34 H        2.9080     6.3390    -1.4430 H     1 <1>   0.0800 
 35 H        0.0390     9.1730     1.6940 H     1 <1>   0.1500 
 36 H       -1.6170     5.6290     1.6680 H     1 <1>   0.0800 
 37 H       -2.1360     7.2930     1.5770 H     1 <1>   0.0800 
 38 H       -1.2740     6.7210     2.9880 H     1 <1>   0.0800 
 39 H        3.7180     4.6360    -0.1280 H     1 <1>   0.0800 
 40 H        3.6850     5.6050     1.3350 H     1 <1>   0.0800 
 41 H        4.2110     8.4270     0.2710 H     1 <1>   0.0800 
 42 H        3.9150     8.4660    -1.4630 H     1 <1>   0.0800 
 43 H        5.9810     5.0900    -0.2720 H     1 <1>   0.0800 
 44 H        5.8450     6.1970     1.0800 H     1 <1>   0.0800 
 45 H        6.3340     7.7730    -0.5920 H     1 <1>   0.0800 
 46 H        5.5830     6.7870    -1.8350 H     1 <1>   0.0800 
@<TRIPOS>BOND
  1   1   2  2   
  2   2   3  am  
  3   2   4  1   
  4   3   5  1   
  5   3   6  1   
  6   4   7  1   
  7   4  23  1   
  8   4  24  1   
  9   5   8  1   
 10   5  25  1   
 11   5  26  1   
 12   6   9  1   
 13   6  27  1   
 14   6  28  1   
 15   7   8  1   
 16   7  29  1   
 17   7  30  1   
 18   8  31  1   
 19   8  32  1   
 20   9  10  2   
 21   9  11  am  
 22  11  12  1   
 23  11  33  1   
 24  12  13  1   
 25  12  14  2   
 26  13  15  1   
 27  13  16  1   
 28  14  17  1   
 29  14  18  1   
 30  15  17  2   
 31  16  19  1   
 32  16  20  1   
 33  16  34  1   
 34  17  35  1   
 35  18  36  1   
 36  18  37  1   
 37  18  38  1   
 38  19  21  1   
 39  19  39  1   
 40  19  40  1   
 41  20  22  1   
 42  20  41  1   
 43  20  42  1   
 44  21  22  1   
 45  21  43  1   
 46  21  44  1   
 47  22  45  1   
 48  22  46  1   
@<TRIPOS>SUBSTRUCTURE
  1 ****  11 GROUP 4 **** **** 0

# MOE 2024.06 (io_trps.svl 2023.06)
