@<TRIPOS>MOLECULE
NONAME
34 35 1 0 0 
SMALL
USER_CHARGES


@<TRIPOS>ATOM
  1 O        0.3970     1.4450     2.0980 O.co2 1 <1>  -0.9000 
  2 C       -0.1370     1.6300     1.0010 C.2   1 <1>   0.9060 
  3 O        0.3090     1.1160    -0.0380 O.co2 1 <1>  -0.9000 
  4 C       -1.5090     2.3650     0.9560 C.3   1 <1>   0.4600 
  5 N       -2.5890     1.7020     0.1220 N.4   1 <1>  -0.8970 
  6 C       -1.4500     3.8320     0.5160 C.ar  1 <1>  -0.1430 
  7 C       -2.5760     0.1950     0.1570 C.3   1 <1>   0.4720 
  8 C       -2.2650     1.6040    -1.3470 C.3   1 <1>   0.4720 
  9 C       -2.2780     4.7860     1.1040 C.ar  1 <1>  -0.1430 
 10 C       -0.5770     4.2210    -0.4930 C.ar  1 <1>  -0.1500 
 11 C       -2.9790     0.2230    -1.3440 C.3   1 <1>   0.2580 
 12 C       -2.2290     6.0980     0.6590 C.ar  1 <1>  -0.1500 
 13 C       -3.2330     4.4370     2.2390 C.3   1 <1>  -0.0960 
 14 C       -0.5280     5.5320    -0.9310 C.ar  1 <1>  -0.1430 
 15 O       -4.3720     0.3240    -1.5220 O.3   1 <1>  -0.6580 
 16 C       -1.3640     6.4690    -0.3530 C.ar  1 <1>  -0.1500 
 17 C        0.4360     5.9350    -2.0320 C.3   1 <1>  -0.0970 
 18 H       -1.8340     2.3530     1.9790 H     1 <1>   0.0800 
 19 H       -3.5240     2.0920     0.2440 H     1 <1>   0.4500 
 20 H       -3.3270    -0.2110     0.8100 H     1 <1>   0.0000 
 21 H       -1.5910    -0.2020     0.3150 H     1 <1>   0.0000 
 22 H       -1.2130     1.5330    -1.5380 H     1 <1>   0.0000 
 23 H       -2.7650     2.3570    -1.9300 H     1 <1>   0.0000 
 24 H        0.0840     3.5000    -0.9480 H     1 <1>   0.1500 
 25 H       -2.5530    -0.5460    -1.9620 H     1 <1>   0.0000 
 26 H       -2.8620     6.8470     1.1010 H     1 <1>   0.1500 
 27 H       -3.9500     3.7040     1.9190 H     1 <1>   0.0800 
 28 H       -3.7710     5.3080     2.5680 H     1 <1>   0.0800 
 29 H       -2.6820     4.0540     3.0790 H     1 <1>   0.0800 
 30 H       -4.6050     0.2350    -2.4690 H     1 <1>   0.4000 
 31 H       -1.3400     7.4930    -0.6830 H     1 <1>   0.1500 
 32 H        1.3150     5.3170    -2.0050 H     1 <1>   0.0800 
 33 H        0.7400     6.9590    -1.9090 H     1 <1>   0.0800 
 34 H       -0.0370     5.8250    -2.9910 H     1 <1>   0.0800 
@<TRIPOS>BOND
  1   1   2  ar  
  2   2   3  ar  
  3   2   4  1   
  4   4   5  1   
  5   4   6  1   
  6   4  18  1   
  7   5   7  1   
  8   5   8  1   
  9   5  19  1   
 10   6   9  ar  
 11   6  10  ar  
 12   7  11  1   
 13   7  20  1   
 14   7  21  1   
 15   8  11  1   
 16   8  22  1   
 17   8  23  1   
 18   9  12  ar  
 19   9  13  1   
 20  10  14  ar  
 21  10  24  1   
 22  11  15  1   
 23  11  25  1   
 24  12  16  ar  
 25  12  26  1   
 26  13  27  1   
 27  13  28  1   
 28  13  29  1   
 29  14  16  ar  
 30  14  17  1   
 31  15  30  1   
 32  16  31  1   
 33  17  32  1   
 34  17  33  1   
 35  17  34  1   
@<TRIPOS>SUBSTRUCTURE
  1 ****   6 GROUP 4 **** **** 0

# MOE 2024.06 (io_trps.svl 2023.06)
