@<TRIPOS>MOLECULE
NONAME
40 42 1 0 0 
SMALL
USER_CHARGES


@<TRIPOS>ATOM
  1 CL      -3.4440     0.4190    -2.2710 Cl    1 <1>  -0.1770 
  2 C       -3.0900    -0.6220    -0.9180 C.ar  1 <1>   0.1770 
  3 C       -2.7220    -0.0610     0.2880 C.ar  1 <1>  -0.1500 
  4 C       -3.1890    -1.9910    -1.0770 C.ar  1 <1>  -0.1500 
  5 C       -2.4510    -0.9120     1.3410 C.ar  1 <1>   0.1770 
  6 C       -2.9310    -2.8520    -0.0110 C.ar  1 <1>   0.0860 
  7 CL      -1.9810    -0.2380     2.8790 Cl    1 <1>  -0.1770 
  8 C       -2.5480    -2.2840     1.2040 C.ar  1 <1>  -0.1500 
  9 C       -3.0520    -4.2900    -0.1530 C.2   1 <1>   0.5440 
 10 O       -2.0890    -4.9830     0.1110 O.2   1 <1>  -0.5700 
 11 N       -4.2240    -4.8920    -0.5670 N.am  1 <1>  -0.6600 
 12 C       -5.5420    -4.1890    -0.5050 C.3   1 <1>   0.2200 
 13 C       -4.2170    -6.3470    -0.9170 C.3   1 <1>   0.0600 
 14 C       -6.6140    -4.9300     0.2920 C.3   1 <1>  -0.1600 
 15 C       -6.1720    -3.9720    -1.8780 C.3   1 <1>  -0.1600 
 16 C       -7.9360    -4.3220    -0.1940 C.3   1 <1>  -0.0800 
 17 C       -7.6560    -3.7190    -1.5830 C.3   1 <1>  -0.0800 
 18 C       -8.4410    -3.1690     0.6850 C.3   1 <1>  -0.1600 
 19 C       -8.0150    -2.2290    -1.4890 C.3   1 <1>  -0.1600 
 20 C       -8.9600    -2.1360    -0.3020 C.3   1 <1>   0.2000 
 21 O       -8.9080    -0.8770     0.2530 O.3   1 <1>  -0.6800 
 22 H       -2.6460     1.0050     0.4040 H     1 <1>   0.1500 
 23 H       -3.4650    -2.3960    -2.0340 H     1 <1>   0.1500 
 24 H       -2.3230    -2.9230     2.0400 H     1 <1>   0.1500 
 25 H       -5.4220    -3.2250    -0.0420 H     1 <1>   0.0800 
 26 H       -4.9700    -6.5710    -1.6500 H     1 <1>   0.0800 
 27 H       -4.3970    -6.9310    -0.0310 H     1 <1>   0.0800 
 28 H       -3.2590    -6.6260    -1.3210 H     1 <1>   0.0800 
 29 H       -6.6210    -5.9750     0.0450 H     1 <1>   0.0800 
 30 H       -6.4720    -4.8180     1.3520 H     1 <1>   0.0800 
 31 H       -5.7170    -3.1550    -2.4080 H     1 <1>   0.0800 
 32 H       -6.0870    -4.8630    -2.4710 H     1 <1>   0.0800 
 33 H       -8.6990    -5.0810    -0.2660 H     1 <1>   0.0800 
 34 H       -8.2760    -4.1950    -2.3250 H     1 <1>   0.0800 
 35 H       -7.6290    -2.7510     1.2550 H     1 <1>   0.0800 
 36 H       -9.2190    -3.4950     1.3520 H     1 <1>   0.0800 
 37 H       -8.4880    -1.8820    -2.3900 H     1 <1>   0.0800 
 38 H       -7.1330    -1.6430    -1.2970 H     1 <1>   0.0800 
 39 H       -9.9750    -2.3520    -0.5940 H     1 <1>   0.0800 
 40 H       -7.9950    -0.6670     0.5210 H     1 <1>   0.4000 
@<TRIPOS>BOND
  1   1   2  1   
  2   2   3  ar  
  3   2   4  ar  
  4   3   5  ar  
  5   3  22  1   
  6   4   6  ar  
  7   4  23  1   
  8   5   7  1   
  9   5   8  ar  
 10   6   8  ar  
 11   6   9  1   
 12   8  24  1   
 13   9  10  2   
 14   9  11  am  
 15  11  12  1   
 16  11  13  1   
 17  12  14  1   
 18  12  15  1   
 19  12  25  1   
 20  13  26  1   
 21  13  27  1   
 22  13  28  1   
 23  14  16  1   
 24  14  29  1   
 25  14  30  1   
 26  15  17  1   
 27  15  31  1   
 28  15  32  1   
 29  16  17  1   
 30  16  18  1   
 31  16  33  1   
 32  17  19  1   
 33  17  34  1   
 34  18  20  1   
 35  18  35  1   
 36  18  36  1   
 37  19  20  1   
 38  19  37  1   
 39  19  38  1   
 40  20  21  1   
 41  20  39  1   
 42  21  40  1   
@<TRIPOS>SUBSTRUCTURE
  1 ****  12 GROUP 4 **** **** 0

# MOE 2024.06 (io_trps.svl 2023.06)
