@<TRIPOS>MOLECULE
NONAME
55 56 1 0 0 
SMALL
USER_CHARGES


@<TRIPOS>ATOM
  1 F       -0.7010    -0.3330    -0.7140 F     1 <1>  -0.1900 
  2 C       -1.9220     0.1050    -0.5450 C.ar  1 <1>   0.1900 
  3 C       -2.2840     0.8910     0.5560 C.ar  1 <1>   0.0830 
  4 C       -2.8410    -0.2470    -1.5150 C.ar  1 <1>  -0.1500 
  5 O       -1.4740     1.3030     1.5730 O.3   1 <1>  -0.3630 
  6 C       -3.6030     1.3060     0.6420 C.ar  1 <1>  -0.1500 
  7 C       -4.1490     0.1850    -1.3970 C.ar  1 <1>  -0.1500 
  8 C       -0.1120     0.9460     1.6650 C.3   1 <1>   0.0400 
  9 C       -4.5600     0.9660    -0.3150 C.ar  1 <1>   0.0530 
 10 C       -5.9180     1.4310    -0.1860 C.2   1 <1>   0.0870 
 11 O       -6.1350     2.6620     0.2010 O.3   1 <1>  -0.0190 
 12 C       -7.1380     0.8580    -0.3900 C.2   1 <1>  -0.0860 
 13 N       -7.4030     2.9650     0.2610 N.2   1 <1>  -0.4100 
 14 C       -8.0290     1.8980    -0.0920 C.2   1 <1>   0.3720 
 15 C       -7.5010    -0.4720    -0.7790 C.2   1 <1>   0.7160 
 16 N       -9.4310     1.8300    -0.1540 N.pl3 1 <1>  -0.8210 
 17 O       -6.6850    -1.3730    -0.8540 O.2   1 <1>  -0.5700 
 18 N       -8.7980    -0.7770    -1.0550 N.am  1 <1>  -0.7300 
 19 C      -10.0760     2.1210     1.1570 C.3   1 <1>   0.1290 
 20 C       -9.9910     2.7050    -1.2220 C.3   1 <1>   0.1290 
 21 C       -9.3240    -2.1040    -1.4270 C.3   1 <1>   0.1400 
 22 C       -9.4560    -2.9830    -0.1730 C.3   1 <1>  -0.0800 
 23 C       -9.6490    -4.4420    -0.6110 C.3   1 <1>   0.3430 
 24 C      -10.5950    -2.4850     0.7410 C.3   1 <1>  -0.2400 
 25 N       -9.6700    -5.3720     0.5600 N.4   1 <1>  -0.9590 
 26 C       -8.3130    -5.5210     1.1780 C.3   1 <1>   0.2630 
 27 C      -10.2130    -6.7080     0.1650 C.3   1 <1>   0.2630 
 28 H       -2.5340    -0.8520    -2.3490 H     1 <1>   0.1500 
 29 H       -3.8930     1.9120     1.4820 H     1 <1>   0.1500 
 30 H       -4.8630    -0.0860    -2.1550 H     1 <1>   0.1500 
 31 H        0.2880     1.3820     2.5620 H     1 <1>   0.0800 
 32 H        0.4100     1.3330     0.8080 H     1 <1>   0.0800 
 33 H       -0.0330    -0.1250     1.7140 H     1 <1>   0.0800 
 34 H       -9.4670    -0.0130    -0.8640 H     1 <1>   0.3700 
 35 H       -9.6250     1.5190     1.9280 H     1 <1>   0.0800 
 36 H      -11.1270     1.8960     1.1110 H     1 <1>   0.0800 
 37 H       -9.9470     3.1600     1.4130 H     1 <1>   0.0800 
 38 H       -9.4970     2.5040    -2.1580 H     1 <1>   0.0800 
 39 H       -9.8420     3.7420    -0.9700 H     1 <1>   0.0800 
 40 H      -11.0440     2.5180    -1.3400 H     1 <1>   0.0800 
 41 H       -8.6340    -2.5540    -2.1230 H     1 <1>   0.0800 
 42 H      -10.2740    -1.9880    -1.9210 H     1 <1>   0.0800 
 43 H       -8.5230    -2.9130     0.3570 H     1 <1>   0.0800 
 44 H       -8.8530    -4.7250    -1.2820 H     1 <1>   0.0800 
 45 H      -10.5810    -4.5180    -1.1480 H     1 <1>   0.0800 
 46 H      -11.5480    -2.5650     0.2470 H     1 <1>   0.0800 
 47 H      -10.4380    -1.4510     0.9980 H     1 <1>   0.0800 
 48 H      -10.6310    -3.0390     1.6610 H     1 <1>   0.0800 
 49 H      -10.3010    -4.9580     1.2630 H     1 <1>   0.4500 
 50 H       -7.6130    -5.9150     0.4580 H     1 <1>   0.0800 
 51 H       -8.3560    -6.1940     2.0190 H     1 <1>   0.0800 
 52 H       -7.9480    -4.5680     1.5250 H     1 <1>   0.0800 
 53 H       -9.5800    -7.1650    -0.5780 H     1 <1>   0.0800 
 54 H      -11.2050    -6.6030    -0.2440 H     1 <1>   0.0800 
 55 H      -10.2640    -7.3590     1.0230 H     1 <1>   0.0800 
@<TRIPOS>BOND
  1   1   2  1   
  2   2   3  ar  
  3   2   4  ar  
  4   3   5  1   
  5   3   6  ar  
  6   4   7  ar  
  7   4  28  1   
  8   5   8  1   
  9   6   9  ar  
 10   6  29  1   
 11   7   9  ar  
 12   7  30  1   
 13   8  31  1   
 14   8  32  1   
 15   8  33  1   
 16   9  10  1   
 17  10  11  1   
 18  10  12  2   
 19  11  13  1   
 20  12  14  1   
 21  12  15  1   
 22  13  14  2   
 23  14  16  1   
 24  15  17  2   
 25  15  18  am  
 26  16  19  1   
 27  16  20  1   
 28  18  21  1   
 29  18  34  1   
 30  19  35  1   
 31  19  36  1   
 32  19  37  1   
 33  20  38  1   
 34  20  39  1   
 35  20  40  1   
 36  21  22  1   
 37  21  41  1   
 38  21  42  1   
 39  22  23  1   
 40  22  24  1   
 41  22  43  1   
 42  23  25  1   
 43  23  44  1   
 44  23  45  1   
 45  24  46  1   
 46  24  47  1   
 47  24  48  1   
 48  25  26  1   
 49  25  27  1   
 50  25  49  1   
 51  26  50  1   
 52  26  51  1   
 53  26  52  1   
 54  27  53  1   
 55  27  54  1   
 56  27  55  1   
@<TRIPOS>SUBSTRUCTURE
  1 ****  15 GROUP 4 **** **** 0

# MOE 2024.06 (io_trps.svl 2023.06)
