@<TRIPOS>MOLECULE
NONAME
43 45 1 0 0 
SMALL
USER_CHARGES


@<TRIPOS>ATOM
  1 F       -0.9400    -0.0290     0.1210 F     1 <1>  -0.3400 
  2 C       -1.8350     0.9520     0.1010 C.3   1 <1>   1.1640 
  3 F       -2.5950     0.7410    -0.9660 F     1 <1>  -0.3400 
  4 F       -2.6150     0.7720     1.1580 F     1 <1>  -0.3400 
  5 C       -1.1950     2.3460     0.0880 C.ar  1 <1>  -0.1440 
  6 C        0.1430     2.5650     0.3500 C.ar  1 <1>  -0.1500 
  7 C       -1.9410     3.4820    -0.1850 C.ar  1 <1>  -0.1500 
  8 C        0.6660     3.8530     0.3270 C.ar  1 <1>   0.4100 
  9 C       -1.3370     4.7280    -0.1850 C.ar  1 <1>   0.1660 
 10 N       -0.0550     4.9330     0.0610 N.ar  1 <1>  -0.6200 
 11 N        2.0060     4.0630     0.5810 N.pl3 1 <1>  -0.8380 
 12 C       -2.1620     5.9640    -0.4800 C.3   1 <1>  -0.0970 
 13 C        2.4260     5.0640     1.6160 C.3   1 <1>   0.2090 
 14 C        3.0490     3.4270    -0.2690 C.3   1 <1>   0.2090 
 15 C        3.3040     6.2570     1.1280 C.3   1 <1>   0.4230 
 16 C        3.7750     4.4700    -1.1400 C.3   1 <1>  -0.0800 
 17 N        3.0370     6.7790    -0.2740 N.4   1 <1>  -0.9590 
 18 C        4.8130     5.9910     1.3330 C.3   1 <1>   0.1200 
 19 C        5.2100     4.7570    -0.6680 C.3   1 <1>   0.1200 
 20 C        2.9210     5.7320    -1.3470 C.3   1 <1>   0.3430 
 21 C        1.7860     7.5950    -0.2800 C.3   1 <1>   0.2630 
 22 O        5.2700     4.8250     0.7200 O.3   1 <1>  -0.5600 
 23 H        0.8050     1.7520     0.5860 H     1 <1>   0.1500 
 24 H       -2.9940     3.3950    -0.3950 H     1 <1>   0.1500 
 25 H       -3.1910     5.7110    -0.6570 H     1 <1>   0.0800 
 26 H       -1.7740     6.4580    -1.3510 H     1 <1>   0.0800 
 27 H       -2.1140     6.6370     0.3560 H     1 <1>   0.0800 
 28 H        1.5410     5.4730     2.0710 H     1 <1>   0.0800 
 29 H        2.9500     4.5410     2.3970 H     1 <1>   0.0800 
 30 H        3.7440     2.8850     0.3530 H     1 <1>   0.0800 
 31 H        2.5750     2.7080    -0.9170 H     1 <1>   0.0800 
 32 H        3.0850     7.0640     1.8050 H     1 <1>   0.0800 
 33 H        3.8730     4.0230    -2.1130 H     1 <1>   0.0800 
 34 H        3.8250     7.3860    -0.5240 H     1 <1>   0.4500 
 35 H        5.0050     5.8720     2.3850 H     1 <1>   0.0800 
 36 H        5.4040     6.8180     0.9840 H     1 <1>   0.0800 
 37 H        5.6130     5.6610    -1.0930 H     1 <1>   0.0800 
 38 H        5.8470     3.9390    -0.9570 H     1 <1>   0.0800 
 39 H        1.8910     5.4190    -1.4250 H     1 <1>   0.0800 
 40 H        3.1850     6.1770    -2.2910 H     1 <1>   0.0800 
 41 H        0.9470     6.9970     0.0340 H     1 <1>   0.0800 
 42 H        1.5850     7.9690    -1.2700 H     1 <1>   0.0800 
 43 H        1.8780     8.4320     0.3920 H     1 <1>   0.0800 
@<TRIPOS>BOND
  1   1   2  1   
  2   2   3  1   
  3   2   4  1   
  4   2   5  1   
  5   5   6  ar  
  6   5   7  ar  
  7   6   8  ar  
  8   6  23  1   
  9   7   9  ar  
 10   7  24  1   
 11   8  10  ar  
 12   8  11  1   
 13   9  10  ar  
 14   9  12  1   
 15  11  13  1   
 16  11  14  1   
 17  12  25  1   
 18  12  26  1   
 19  12  27  1   
 20  13  15  1   
 21  13  28  1   
 22  13  29  1   
 23  14  16  1   
 24  14  30  1   
 25  14  31  1   
 26  15  17  1   
 27  15  18  1   
 28  15  32  1   
 29  16  19  1   
 30  16  20  1   
 31  16  33  1   
 32  17  20  1   
 33  17  21  1   
 34  17  34  1   
 35  18  22  1   
 36  18  35  1   
 37  18  36  1   
 38  19  22  1   
 39  19  37  1   
 40  19  38  1   
 41  20  39  1   
 42  20  40  1   
 43  21  41  1   
 44  21  42  1   
 45  21  43  1   
@<TRIPOS>SUBSTRUCTURE
  1 ****   8 GROUP 4 **** **** 0

# MOE 2024.06 (io_trps.svl 2023.06)
