@<TRIPOS>MOLECULE
NONAME
49 51 1 0 0 
SMALL
USER_CHARGES


@<TRIPOS>ATOM
  1 S        2.6900    -0.2350    -0.3190 S.3   1 <1>  -0.0800 
  2 C        2.8880     0.6050     1.2120 C.2   1 <1>  -0.1400 
  3 C        1.1630    -0.9230     0.2020 C.2   1 <1>  -0.1100 
  4 C        1.8460     0.3470     2.0240 C.2   1 <1>  -0.1500 
  5 C        4.1330     1.4590     1.4220 C.3   1 <1>   0.0810 
  6 C        0.8640    -0.5210     1.4500 C.2   1 <1>  -0.1500 
  7 C        4.0810     2.7860     0.6690 C.2   1 <1>   0.5690 
  8 O        3.6640     3.7370     1.2920 O.2   1 <1>  -0.5700 
  9 N        4.5170     2.9300    -0.6310 N.am  1 <1>  -0.6600 
 10 C        5.1510     1.8420    -1.4500 C.3   1 <1>   0.1400 
 11 C        4.5360     4.2800    -1.2580 C.3   1 <1>   0.1400 
 12 C        6.5830     2.1770    -1.9070 C.3   1 <1>   0.1400 
 13 C        5.7660     5.0770    -0.7930 C.3   1 <1>  -0.1600 
 14 N        7.2710     3.0830    -0.9430 N.am  1 <1>  -0.6600 
 15 C        7.1210     4.5290    -1.2650 C.3   1 <1>   0.1400 
 16 C        7.7500     2.5820     0.2430 C.2   1 <1>   0.5690 
 17 O        7.7400     1.3900     0.4620 O.2   1 <1>  -0.5700 
 18 C        8.2680     3.4860     1.3570 C.3   1 <1>   0.0820 
 19 C        9.5080     4.2950     0.9880 C.2   1 <1>  -0.1810 
 20 C       10.6750     3.8010     0.4060 C.2   1 <1>   0.1080 
 21 C        9.7350     5.6210     1.1420 C.2   1 <1>  -0.3320 
 22 N       11.5530     4.7310     0.2040 N.2   1 <1>  -0.7070 
 23 C       10.9460     2.3600     0.0310 C.3   1 <1>  -0.0590 
 24 N       10.9750     5.8530     0.6620 N.pl3 1 <1>   0.3000 
 25 C        8.8620     6.7220     1.7230 C.3   1 <1>  -0.0600 
 26 H        0.6450    -1.5620    -0.4910 H     1 <1>   0.1500 
 27 H        1.7180     0.7380     3.0190 H     1 <1>   0.1500 
 28 H        5.0180     0.9060     1.1770 H     1 <1>   0.0800 
 29 H        4.2030     1.6890     2.4680 H     1 <1>   0.0800 
 30 H       -0.0170    -0.7990     2.0030 H     1 <1>   0.1500 
 31 H        4.5390     1.6490    -2.3140 H     1 <1>   0.0800 
 32 H        5.1990     0.9250    -0.8970 H     1 <1>   0.0800 
 33 H        3.6430     4.8100    -0.9710 H     1 <1>   0.0800 
 34 H        4.5300     4.1890    -2.3310 H     1 <1>   0.0800 
 35 H        6.5480     2.6370    -2.8780 H     1 <1>   0.0800 
 36 H        7.1440     1.2640    -2.0090 H     1 <1>   0.0800 
 37 H        5.7570     5.1430     0.2800 H     1 <1>   0.0800 
 38 H        5.6710     6.0810    -1.1630 H     1 <1>   0.0800 
 39 H        7.9140     5.0960    -0.8160 H     1 <1>   0.0800 
 40 H        7.2110     4.6620    -2.3290 H     1 <1>   0.0800 
 41 H        8.5100     2.8730     2.2050 H     1 <1>   0.0800 
 42 H        7.4710     4.1360     1.6560 H     1 <1>   0.0800 
 43 H       10.5870     1.7020     0.8000 H     1 <1>   0.0800 
 44 H       12.0020     2.2080    -0.0900 H     1 <1>   0.0800 
 45 H       10.4520     2.1290    -0.8940 H     1 <1>   0.0800 
 46 H       11.4560     6.7600     0.6360 H     1 <1>   0.2700 
 47 H        7.9220     6.3300     2.0650 H     1 <1>   0.0800 
 48 H        8.6660     7.4710     0.9760 H     1 <1>   0.0800 
 49 H        9.3590     7.1830     2.5580 H     1 <1>   0.0800 
@<TRIPOS>BOND
  1   1   2  1   
  2   1   3  1   
  3   2   4  2   
  4   2   5  1   
  5   3   6  2   
  6   3  26  1   
  7   4   6  1   
  8   4  27  1   
  9   5   7  1   
 10   5  28  1   
 11   5  29  1   
 12   6  30  1   
 13   7   8  2   
 14   7   9  am  
 15   9  10  1   
 16   9  11  1   
 17  10  12  1   
 18  10  31  1   
 19  10  32  1   
 20  11  13  1   
 21  11  33  1   
 22  11  34  1   
 23  12  14  1   
 24  12  35  1   
 25  12  36  1   
 26  13  15  1   
 27  13  37  1   
 28  13  38  1   
 29  14  15  1   
 30  14  16  am  
 31  15  39  1   
 32  15  40  1   
 33  16  17  2   
 34  16  18  1   
 35  18  19  1   
 36  18  41  1   
 37  18  42  1   
 38  19  20  1   
 39  19  21  2   
 40  20  22  2   
 41  20  23  1   
 42  21  24  1   
 43  21  25  1   
 44  22  24  1   
 45  23  43  1   
 46  23  44  1   
 47  23  45  1   
 48  24  46  1   
 49  25  47  1   
 50  25  48  1   
 51  25  49  1   
@<TRIPOS>SUBSTRUCTURE
  1 ****  16 GROUP 4 **** **** 0

# MOE 2024.06 (io_trps.svl 2023.06)
