@<TRIPOS>MOLECULE
NONAME
50 53 1 0 0 
SMALL
USER_CHARGES


@<TRIPOS>ATOM
  1 O       -2.3720     0.5660     2.1960 O.2   1 <1>  -0.5700 
  2 C       -2.2820     1.0440     1.0920 C.2   1 <1>   0.5690 
  3 N       -2.3560     0.2790    -0.0420 N.am  1 <1>  -0.6600 
  4 C       -2.0520     2.5420     1.0110 C.3   1 <1>  -0.0990 
  5 C       -2.4680    -1.2180     0.0720 C.3   1 <1>   0.3640 
  6 C       -2.3880     0.8450    -1.4290 C.3   1 <1>   0.1400 
  7 C       -0.5530     2.8590     0.9650 C.3   1 <1>  -0.0170 
  8 C       -1.0920    -1.9020     0.0240 C.ar  1 <1>  -0.1440 
  9 C       -3.4280    -1.8380    -0.9940 C.3   1 <1>   0.2000 
 10 C       -2.5490    -0.2380    -2.5040 C.3   1 <1>   0.1200 
 11 C       -0.3300     4.3500     0.7760 C.ar  1 <1>  -0.1440 
 12 C        0.0630    -1.2940    -0.4570 C.ar  1 <1>  -0.1500 
 13 C       -1.0030    -3.2050     0.4960 C.ar  1 <1>  -0.1500 
 14 O       -3.6140    -1.0620    -2.1580 O.3   1 <1>  -0.5600 
 15 C       -4.8220    -2.0910    -0.4090 C.3   1 <1>   0.1200 
 16 C       -0.1240     4.8670    -0.4990 C.ar  1 <1>  -0.1500 
 17 C       -0.3350     5.2010     1.8810 C.ar  1 <1>  -0.1500 
 18 C        1.2670    -1.9760    -0.4810 C.ar  1 <1>  -0.1500 
 19 C        0.1990    -3.8910     0.4740 C.ar  1 <1>  -0.1500 
 20 O       -4.7790    -3.1530     0.4910 O.3   1 <1>  -0.6800 
 21 C        0.0710     6.2280    -0.6280 C.ar  1 <1>   0.0820 
 22 C       -0.1370     6.5680     1.7320 C.ar  1 <1>  -0.1500 
 23 C        1.3360    -3.2770    -0.0180 C.ar  1 <1>  -0.1500 
 24 O        0.2850     6.9320    -1.7440 O.3   1 <1>  -0.3630 
 25 C        0.0660     7.0550     0.4570 C.ar  1 <1>   0.0820 
 26 C        0.4300     8.2940    -1.3450 C.3   1 <1>   0.4000 
 27 O        0.2770     8.3190     0.0730 O.3   1 <1>  -0.3620 
 28 H       -2.5490     2.9600     0.1570 H     1 <1>   0.0800 
 29 H       -2.4810     2.9990     1.8830 H     1 <1>   0.0800 
 30 H       -2.8750    -1.4550     1.0410 H     1 <1>   0.0800 
 31 H       -3.2200     1.5230    -1.5110 H     1 <1>   0.0800 
 32 H       -1.4850     1.3980    -1.6170 H     1 <1>   0.0800 
 33 H       -0.0870     2.3190     0.1610 H     1 <1>   0.0800 
 34 H       -0.0910     2.5330     1.8820 H     1 <1>   0.0800 
 35 H       -3.0280    -2.7800    -1.3230 H     1 <1>   0.0800 
 36 H       -1.6600    -0.8360    -2.6070 H     1 <1>   0.0800 
 37 H       -2.7750     0.2120    -3.4550 H     1 <1>   0.0800 
 38 H        0.0470    -0.2820    -0.8130 H     1 <1>   0.1500 
 39 H       -1.8760    -3.6960     0.8920 H     1 <1>   0.1500 
 40 H       -5.5220    -2.3420    -1.1870 H     1 <1>   0.0800 
 41 H       -5.1670    -1.2190     0.1200 H     1 <1>   0.0800 
 42 H       -0.1130     4.2430    -1.3730 H     1 <1>   0.1500 
 43 H       -0.4950     4.7980     2.8670 H     1 <1>   0.1500 
 44 H        2.1520    -1.4940    -0.8570 H     1 <1>   0.1500 
 45 H        0.2500    -4.9000     0.8430 H     1 <1>   0.1500 
 46 H       -4.7810    -4.0080     0.0170 H     1 <1>   0.4000 
 47 H       -0.1380     7.2350     2.5740 H     1 <1>   0.1500 
 48 H        2.2720    -3.8080    -0.0350 H     1 <1>   0.1500 
 49 H        1.4120     8.6450    -1.6080 H     1 <1>   0.0800 
 50 H       -0.3410     8.8890    -1.8020 H     1 <1>   0.0800 
@<TRIPOS>BOND
  1   1   2  2   
  2   2   3  am  
  3   2   4  1   
  4   3   5  1   
  5   3   6  1   
  6   4   7  1   
  7   4  28  1   
  8   4  29  1   
  9   5   8  1   
 10   5   9  1   
 11   5  30  1   
 12   6  10  1   
 13   6  31  1   
 14   6  32  1   
 15   7  11  1   
 16   7  33  1   
 17   7  34  1   
 18   8  12  ar  
 19   8  13  ar  
 20   9  14  1   
 21   9  15  1   
 22   9  35  1   
 23  10  14  1   
 24  10  36  1   
 25  10  37  1   
 26  11  16  ar  
 27  11  17  ar  
 28  12  18  ar  
 29  12  38  1   
 30  13  19  ar  
 31  13  39  1   
 32  15  20  1   
 33  15  40  1   
 34  15  41  1   
 35  16  21  ar  
 36  16  42  1   
 37  17  22  ar  
 38  17  43  1   
 39  18  23  ar  
 40  18  44  1   
 41  19  23  ar  
 42  19  45  1   
 43  20  46  1   
 44  21  24  1   
 45  21  25  ar  
 46  22  25  ar  
 47  22  47  1   
 48  23  48  1   
 49  24  26  1   
 50  25  27  1   
 51  26  27  1   
 52  26  49  1   
 53  26  50  1   
@<TRIPOS>SUBSTRUCTURE
  1 ****   2 GROUP 4 **** **** 0

# MOE 2024.06 (io_trps.svl 2023.06)
