@<TRIPOS>MOLECULE
NONAME
46 48 1 0 0 
SMALL
USER_CHARGES


@<TRIPOS>ATOM
  1 F        0.6130    -0.8380     0.1730 F     1 <1>  -0.1900 
  2 C        0.3720    -2.1080     0.3580 C.ar  1 <1>   0.1900 
  3 C        1.0630    -3.0500    -0.3900 C.ar  1 <1>  -0.1440 
  4 C       -0.5720    -2.4590     1.3030 C.ar  1 <1>  -0.1500 
  5 C        0.7790    -4.3890    -0.1710 C.ar  1 <1>  -0.1500 
  6 C        2.1080    -2.6280    -1.4140 C.3   1 <1>  -0.0960 
  7 C       -0.8450    -3.8000     1.5090 C.ar  1 <1>  -0.1500 
  8 C       -0.1760    -4.7670     0.7670 C.ar  1 <1>  -0.1440 
  9 C       -0.4830    -6.2370     0.9680 C.3   1 <1>   0.4870 
 10 N       -1.3630    -6.6700    -0.1480 N.4   1 <1>  -0.9590 
 11 C       -1.4060    -8.1640    -0.2550 C.3   1 <1>   0.5660 
 12 C       -2.7370    -6.0780    -0.0530 C.3   1 <1>   0.3430 
 13 C       -0.0110    -8.6400    -0.6400 C.ar  1 <1>  -0.1430 
 14 C       -2.4740    -8.6830    -1.2560 C.3   1 <1>   0.2000 
 15 C       -3.6660    -6.6350    -1.1450 C.3   1 <1>   0.1200 
 16 C        0.6110    -8.2100    -1.8080 C.ar  1 <1>  -0.1500 
 17 C        0.6580    -9.5170     0.2010 C.ar  1 <1>  -0.1500 
 18 O       -3.7070    -8.0290    -1.0710 O.3   1 <1>  -0.5600 
 19 C       -2.6910   -10.1940    -1.0710 C.3   1 <1>   0.1200 
 20 C        1.8880    -8.6440    -2.1170 C.ar  1 <1>  -0.1500 
 21 C        1.9350    -9.9480    -0.1100 C.ar  1 <1>  -0.1500 
 22 O       -2.8380   -10.4980     0.2810 O.3   1 <1>  -0.6800 
 23 C        2.5510    -9.5100    -1.2680 C.ar  1 <1>  -0.1500 
 24 H       -1.0750    -1.6910     1.8650 H     1 <1>   0.1500 
 25 H        1.3140    -5.1360    -0.7350 H     1 <1>   0.1500 
 26 H        2.5630    -3.4810    -1.8840 H     1 <1>   0.0800 
 27 H        2.8790    -2.0520    -0.9330 H     1 <1>   0.0800 
 28 H        1.6520    -2.0190    -2.1740 H     1 <1>   0.0800 
 29 H       -1.5750    -4.0730     2.2520 H     1 <1>   0.1500 
 30 H       -0.9670    -6.3970     1.9170 H     1 <1>   0.0800 
 31 H        0.4420    -6.7920     0.9560 H     1 <1>   0.0800 
 32 H       -0.9190    -6.3260    -1.0030 H     1 <1>   0.4500 
 33 H       -1.6510    -8.5720     0.7120 H     1 <1>   0.0800 
 34 H       -3.1690    -6.3060     0.9070 H     1 <1>   0.0800 
 35 H       -2.6810    -5.0050    -0.1460 H     1 <1>   0.0800 
 36 H       -2.1610    -8.5010    -2.2690 H     1 <1>   0.0800 
 37 H       -3.3380    -6.3430    -2.1280 H     1 <1>   0.0800 
 38 H       -4.6690    -6.2720    -0.9960 H     1 <1>   0.0800 
 39 H        0.1210    -7.5440    -2.4960 H     1 <1>   0.1500 
 40 H        0.1940    -9.8800     1.1050 H     1 <1>   0.1500 
 41 H       -1.8440   -10.7480    -1.4420 H     1 <1>   0.0800 
 42 H       -3.5760   -10.5090    -1.5980 H     1 <1>   0.0800 
 43 H        2.3710    -8.3130    -3.0220 H     1 <1>   0.1500 
 44 H        2.4510   -10.6300     0.5460 H     1 <1>   0.1500 
 45 H       -3.2140   -11.3970     0.3920 H     1 <1>   0.4000 
 46 H        3.5450    -9.8490    -1.5090 H     1 <1>   0.1500 
@<TRIPOS>BOND
  1   1   2  1   
  2   2   3  ar  
  3   2   4  ar  
  4   3   5  ar  
  5   3   6  1   
  6   4   7  ar  
  7   4  24  1   
  8   5   8  ar  
  9   5  25  1   
 10   6  26  1   
 11   6  27  1   
 12   6  28  1   
 13   7   8  ar  
 14   7  29  1   
 15   8   9  1   
 16   9  10  1   
 17   9  30  1   
 18   9  31  1   
 19  10  11  1   
 20  10  12  1   
 21  10  32  1   
 22  11  13  1   
 23  11  14  1   
 24  11  33  1   
 25  12  15  1   
 26  12  34  1   
 27  12  35  1   
 28  13  16  ar  
 29  13  17  ar  
 30  14  18  1   
 31  14  19  1   
 32  14  36  1   
 33  15  18  1   
 34  15  37  1   
 35  15  38  1   
 36  16  20  ar  
 37  16  39  1   
 38  17  21  ar  
 39  17  40  1   
 40  19  22  1   
 41  19  41  1   
 42  19  42  1   
 43  20  23  ar  
 44  20  43  1   
 45  21  23  ar  
 46  21  44  1   
 47  22  45  1   
 48  23  46  1   
@<TRIPOS>SUBSTRUCTURE
  1 ****  10 GROUP 4 **** **** 0

# MOE 2024.06 (io_trps.svl 2023.06)
