@<TRIPOS>MOLECULE
NONAME
53 55 1 0 0 
SMALL
USER_CHARGES


@<TRIPOS>ATOM
  1 F       -0.4750    -1.6370     1.7080 F     1 <1>  -0.1900 
  2 C       -1.7110    -1.8500     1.3170 C.ar  1 <1>   0.1900 
  3 C       -2.4580    -0.9270     0.5910 C.ar  1 <1>   0.3920 
  4 C       -2.2920    -3.0500     1.6390 C.ar  1 <1>   0.1600 
  5 O       -2.0380     0.2960     0.1930 O.3   1 <1>  -0.3630 
  6 N       -3.6920    -1.2080     0.2300 N.ar  1 <1>  -0.6200 
  7 N       -3.5280    -3.3430     1.2800 N.ar  1 <1>  -0.6200 
  8 C       -0.7810     0.8560     0.5040 C.3   1 <1>   0.0400 
  9 C       -4.1530    -2.3840     0.6010 C.ar  1 <1>   0.7200 
 10 N       -5.4250    -2.6100     0.2080 N.pl3 1 <1>  -0.8690 
 11 C       -6.4180    -3.3340     1.0630 C.3   1 <1>   0.2090 
 12 C       -7.0330    -4.6180     0.4170 C.3   1 <1>   0.5030 
 13 N       -6.0020    -5.6450     0.0340 N.4   1 <1>  -0.9590 
 14 C       -8.0140    -5.2680     1.4210 C.3   1 <1>  -0.1600 
 15 C       -7.8610    -4.2390    -0.8350 C.3   1 <1>  -0.1600 
 16 C       -5.1780    -6.2010     1.1630 C.3   1 <1>   0.3430 
 17 C       -5.0780    -5.2800    -1.0950 C.3   1 <1>   0.3430 
 18 C       -8.7520    -6.4940     0.8480 C.3   1 <1>  -0.1600 
 19 C       -8.5940    -5.4380    -1.4680 C.3   1 <1>  -0.1600 
 20 C       -4.2260    -7.3230     0.6800 C.3   1 <1>   0.1100 
 21 C       -4.3180    -6.5260    -1.6100 C.3   1 <1>   0.1100 
 22 C       -9.5010    -6.1320    -0.4420 C.3   1 <1>  -0.1600 
 23 N       -4.4910    -7.7040    -0.7250 N.3   1 <1>  -0.8100 
 24 C       -3.6390    -8.8210    -1.1520 C.3   1 <1>   0.0300 
 25 H       -1.7270    -3.7750     2.1990 H     1 <1>   0.1500 
 26 H       -0.7430     1.8440     0.0810 H     1 <1>   0.0800 
 27 H       -0.0070     0.2470     0.0720 H     1 <1>   0.0800 
 28 H       -0.6760     0.9150     1.5730 H     1 <1>   0.0800 
 29 H       -5.7860    -1.7570    -0.2320 H     1 <1>   0.4000 
 30 H       -7.2180    -2.6510     1.2920 H     1 <1>   0.0800 
 31 H       -5.9660    -3.5970     2.0040 H     1 <1>   0.0800 
 32 H       -6.5090    -6.4620    -0.3300 H     1 <1>   0.4500 
 33 H       -8.7570    -4.5370     1.6910 H     1 <1>   0.0800 
 34 H       -7.5150    -5.5340     2.3340 H     1 <1>   0.0800 
 35 H       -7.2500    -3.7500    -1.5710 H     1 <1>   0.0800 
 36 H       -8.6040    -3.5170    -0.5450 H     1 <1>   0.0800 
 37 H       -5.8240    -6.6150     1.9170 H     1 <1>   0.0800 
 38 H       -4.5980    -5.4200     1.6220 H     1 <1>   0.0800 
 39 H       -4.3620    -4.5510    -0.7590 H     1 <1>   0.0800 
 40 H       -5.6230    -4.8470    -1.9150 H     1 <1>   0.0800 
 41 H       -9.4620    -6.8550     1.5740 H     1 <1>   0.0800 
 42 H       -8.0630    -7.2970     0.6530 H     1 <1>   0.0800 
 43 H       -7.8890    -6.1480    -1.8640 H     1 <1>   0.0800 
 44 H       -9.1960    -5.0950    -2.2920 H     1 <1>   0.0800 
 45 H       -4.3500    -8.1820     1.3170 H     1 <1>   0.0800 
 46 H       -3.2070    -6.9870     0.7810 H     1 <1>   0.0800 
 47 H       -3.2730    -6.2800    -1.7020 H     1 <1>   0.0800 
 48 H       -4.6790    -6.7730    -2.5940 H     1 <1>   0.0800 
 49 H      -10.3200    -5.4760    -0.1990 H     1 <1>   0.0800 
 50 H       -9.9230    -7.0220    -0.8770 H     1 <1>   0.0800 
 51 H       -3.8140    -9.6780    -0.5230 H     1 <1>   0.0800 
 52 H       -2.5980    -8.5510    -1.0940 H     1 <1>   0.0800 
 53 H       -3.8740    -9.0950    -2.1660 H     1 <1>   0.0800 
@<TRIPOS>BOND
  1   1   2  1   
  2   2   3  ar  
  3   2   4  ar  
  4   3   5  1   
  5   3   6  ar  
  6   4   7  ar  
  7   4  25  1   
  8   5   8  1   
  9   6   9  ar  
 10   7   9  ar  
 11   8  26  1   
 12   8  27  1   
 13   8  28  1   
 14   9  10  1   
 15  10  11  1   
 16  10  29  1   
 17  11  12  1   
 18  11  30  1   
 19  11  31  1   
 20  12  13  1   
 21  12  14  1   
 22  12  15  1   
 23  13  16  1   
 24  13  17  1   
 25  13  32  1   
 26  14  18  1   
 27  14  33  1   
 28  14  34  1   
 29  15  19  1   
 30  15  35  1   
 31  15  36  1   
 32  16  20  1   
 33  16  37  1   
 34  16  38  1   
 35  17  21  1   
 36  17  39  1   
 37  17  40  1   
 38  18  22  1   
 39  18  41  1   
 40  18  42  1   
 41  19  22  1   
 42  19  43  1   
 43  19  44  1   
 44  20  23  1   
 45  20  45  1   
 46  20  46  1   
 47  21  23  1   
 48  21  47  1   
 49  21  48  1   
 50  22  49  1   
 51  22  50  1   
 52  23  24  1   
 53  24  51  1   
 54  24  52  1   
 55  24  53  1   
@<TRIPOS>SUBSTRUCTURE
  1 ****  10 GROUP 4 **** **** 0

# MOE 2024.06 (io_trps.svl 2023.06)
