@<TRIPOS>MOLECULE
NONAME
55 58 1 0 0 
SMALL
USER_CHARGES


@<TRIPOS>ATOM
  1 O        0.7880    -1.1440    -2.9320 O.2   1 <1>  -0.5700 
  2 C        0.0870    -0.1740    -2.7540 C.2   1 <1>   0.5690 
  3 N       -1.2770    -0.2510    -2.8590 N.am  1 <1>  -0.6600 
  4 C        0.7640     1.1340    -2.3260 C.3   1 <1>   0.1710 
  5 C       -2.2180     0.8910    -2.7610 C.3   1 <1>   0.1400 
  6 C       -1.9730    -1.4780    -2.4080 C.3   1 <1>   0.1400 
  7 N        0.3490     1.6100    -0.9690 N.3   1 <1>  -0.8100 
  8 C       -3.0990     0.5300    -1.5720 C.3   1 <1>   0.2000 
  9 C       -3.2360    -1.0000    -1.6700 C.3   1 <1>  -0.0800 
 10 C        0.9020     2.9520    -0.7120 C.3   1 <1>   0.2530 
 11 C        0.7840     0.6480     0.0650 C.3   1 <1>   0.0300 
 12 O       -2.4290     0.9000    -0.4120 O.3   1 <1>  -0.6800 
 13 C       -3.4610    -1.7020    -0.3130 C.3   1 <1>  -0.0170 
 14 C        0.4050     3.5160     0.6120 C.ar  1 <1>  -0.1440 
 15 C       -3.7580    -3.2070    -0.3500 C.ar  1 <1>  -0.1440 
 16 C        1.2740     3.9170     1.6090 C.ar  1 <1>  -0.1500 
 17 C       -0.9400     3.6560     0.8880 C.ar  1 <1>  -0.1500 
 18 C       -3.7980    -3.9400     0.8620 C.ar  1 <1>   0.0000 
 19 C       -4.0010    -3.9030    -1.5010 C.ar  1 <1>  -0.1500 
 20 C        0.7680     4.4220     2.7950 C.ar  1 <1>   0.1600 
 21 C       -1.3420     4.1700     2.1090 C.ar  1 <1>   0.1600 
 22 C       -4.0630    -5.3300     0.7920 C.ar  1 <1>   0.3100 
 23 C       -3.5960    -3.3740     2.1440 C.ar  1 <1>  -0.1500 
 24 C       -4.2570    -5.2790    -1.4590 C.ar  1 <1>   0.1600 
 25 N       -0.5190     4.5590     3.0700 N.ar  1 <1>  -0.6200 
 26 N       -4.2900    -5.9830    -0.3740 N.ar  1 <1>  -0.6200 
 27 C       -4.0990    -6.0790     1.9790 C.ar  1 <1>  -0.1500 
 28 C       -3.6390    -4.1310     3.2820 C.ar  1 <1>  -0.1500 
 29 C       -3.8930    -5.5020     3.2030 C.ar  1 <1>  -0.1500 
 30 H        0.5240     1.8810    -3.0610 H     1 <1>   0.0800 
 31 H        1.8300     0.9850    -2.3460 H     1 <1>   0.0800 
 32 H       -1.7340     1.8410    -2.6230 H     1 <1>   0.0800 
 33 H       -2.8120     0.9260    -3.6570 H     1 <1>   0.0800 
 34 H       -2.2210    -2.0880    -3.2590 H     1 <1>   0.0800 
 35 H       -1.3310    -2.0410    -1.7500 H     1 <1>   0.0800 
 36 H       -4.0490     1.0350    -1.5850 H     1 <1>   0.0800 
 37 H       -4.0820    -1.1940    -2.3030 H     1 <1>   0.0800 
 38 H        1.9790     2.9080    -0.7110 H     1 <1>   0.0800 
 39 H        0.5960     3.6210    -1.4980 H     1 <1>   0.0800 
 40 H        0.4340     0.9580     1.0360 H     1 <1>   0.0800 
 41 H        1.8580     0.5740     0.0880 H     1 <1>   0.0800 
 42 H        0.3750    -0.3290    -0.1320 H     1 <1>   0.0800 
 43 H       -1.4570     0.9910    -0.5990 H     1 <1>   0.4000 
 44 H       -4.2760    -1.2130     0.1910 H     1 <1>   0.0800 
 45 H       -2.5770    -1.5540     0.2830 H     1 <1>   0.0800 
 46 H        2.3370     3.8420     1.4770 H     1 <1>   0.1500 
 47 H       -1.6780     3.3630     0.1650 H     1 <1>   0.1500 
 48 H       -4.0090    -3.4440    -2.4690 H     1 <1>   0.1500 
 49 H        1.4600     4.7300     3.5600 H     1 <1>   0.1500 
 50 H       -2.3960     4.2630     2.3050 H     1 <1>   0.1500 
 51 H       -3.4040    -2.3210     2.2350 H     1 <1>   0.1500 
 52 H       -4.4390    -5.7840    -2.3930 H     1 <1>   0.1500 
 53 H       -4.2970    -7.1310     1.8920 H     1 <1>   0.1500 
 54 H       -3.4810    -3.6840     4.2490 H     1 <1>   0.1500 
 55 H       -3.9240    -6.0890     4.1050 H     1 <1>   0.1500 
@<TRIPOS>BOND
  1   1   2  2   
  2   2   3  am  
  3   2   4  1   
  4   3   5  1   
  5   3   6  1   
  6   4   7  1   
  7   4  30  1   
  8   4  31  1   
  9   5   8  1   
 10   5  32  1   
 11   5  33  1   
 12   6   9  1   
 13   6  34  1   
 14   6  35  1   
 15   7  10  1   
 16   7  11  1   
 17   8   9  1   
 18   8  12  1   
 19   8  36  1   
 20   9  13  1   
 21   9  37  1   
 22  10  14  1   
 23  10  38  1   
 24  10  39  1   
 25  11  40  1   
 26  11  41  1   
 27  11  42  1   
 28  12  43  1   
 29  13  15  1   
 30  13  44  1   
 31  13  45  1   
 32  14  16  ar  
 33  14  17  ar  
 34  15  18  ar  
 35  15  19  ar  
 36  16  20  ar  
 37  16  46  1   
 38  17  21  ar  
 39  17  47  1   
 40  18  22  ar  
 41  18  23  ar  
 42  19  24  ar  
 43  19  48  1   
 44  20  25  ar  
 45  20  49  1   
 46  21  25  ar  
 47  21  50  1   
 48  22  26  ar  
 49  22  27  ar  
 50  23  28  ar  
 51  23  51  1   
 52  24  26  ar  
 53  24  52  1   
 54  27  29  ar  
 55  27  53  1   
 56  28  29  ar  
 57  28  54  1   
 58  29  55  1   
@<TRIPOS>SUBSTRUCTURE
  1 ****  12 GROUP 4 **** **** 0

# MOE 2024.06 (io_trps.svl 2023.06)
