@<TRIPOS>MOLECULE
NONAME
57 60 1 0 0 
SMALL
USER_CHARGES


@<TRIPOS>ATOM
  1 O        0.3930     0.9010     1.0320 O.2   1 <1>  -0.5700 
  2 C        0.4120     2.0560     0.6730 C.2   1 <1>   0.5690 
  3 N       -0.6830     2.8710     0.8110 N.am  1 <1>  -0.6600 
  4 C        1.6960     2.5950     0.0580 C.3   1 <1>  -0.0990 
  5 C       -1.9860     2.3380     1.3080 C.3   1 <1>   0.1400 
  6 C       -0.7630     4.3000     0.4000 C.3   1 <1>   0.1400 
  7 C        2.7560     1.5140    -0.2300 C.3   1 <1>  -0.0990 
  8 C       -3.0450     2.3930     0.1890 C.3   1 <1>   0.0000 
  9 C       -1.7830     4.4440    -0.7350 C.3   1 <1>  -0.1600 
 10 C        4.0260     2.1240    -0.7850 C.2   1 <1>   0.5690 
 11 C       -4.3870     1.8260     0.6920 C.3   1 <1>   0.2000 
 12 C       -3.1530     3.8500    -0.3500 C.3   1 <1>  -0.1600 
 13 C       -2.7220     1.4110    -0.9520 C.3   1 <1>  -0.1600 
 14 O        3.9760     2.6450    -1.8700 O.2   1 <1>  -0.5700 
 15 N        5.1510     2.0500    -0.0100 N.am  1 <1>  -0.5470 
 16 O       -5.1470     2.7580     1.3750 O.3   1 <1>  -0.6800 
 17 C       -5.1380     1.3330    -0.5440 C.3   1 <1>  -0.1600 
 18 C       -4.0650     1.0780    -1.6100 C.3   1 <1>  -0.1600 
 19 C        6.4590     2.5250    -0.2000 C.ar  1 <1>   0.1170 
 20 C        7.4490     2.0780     0.6720 C.ar  1 <1>  -0.1500 
 21 C        6.8150     3.4260    -1.2050 C.ar  1 <1>  -0.1500 
 22 C        8.7490     2.5250     0.5310 C.ar  1 <1>  -0.1440 
 23 C        8.1200     3.8700    -1.3420 C.ar  1 <1>  -0.1500 
 24 C        9.0810     3.4090    -0.4630 C.ar  1 <1>  -0.1440 
 25 C        9.9530     2.1620     1.3640 C.3   1 <1>  -0.0170 
 26 C       10.5480     3.7550    -0.4260 C.3   1 <1>  -0.0170 
 27 C       11.0130     3.1890     0.9270 C.3   1 <1>  -0.1600 
 28 H        1.4550     3.0820    -0.8690 H     1 <1>   0.0800 
 29 H        2.1090     3.3250     0.7300 H     1 <1>   0.0800 
 30 H       -1.8740     1.3250     1.6570 H     1 <1>   0.0800 
 31 H       -2.3140     2.9330     2.1430 H     1 <1>   0.0800 
 32 H       -1.0800     4.8850     1.2460 H     1 <1>   0.0800 
 33 H        0.1930     4.6760     0.0820 H     1 <1>   0.0800 
 34 H        2.3670     0.8190    -0.9530 H     1 <1>   0.0800 
 35 H        2.9730     0.9680     0.6690 H     1 <1>   0.0800 
 36 H       -1.9010     5.4870    -0.9700 H     1 <1>   0.0800 
 37 H       -1.3980     3.9620    -1.6150 H     1 <1>   0.0800 
 38 H       -4.2090     0.9950     1.3550 H     1 <1>   0.0800 
 39 H       -3.8130     3.8930    -1.1980 H     1 <1>   0.0800 
 40 H       -3.5650     4.4820     0.4160 H     1 <1>   0.0800 
 41 H       -2.0120     1.7950    -1.6610 H     1 <1>   0.0800 
 42 H       -2.3110     0.5070    -0.5340 H     1 <1>   0.0800 
 43 H        5.0270     1.5350     0.8580 H     1 <1>   0.3700 
 44 H       -5.3810     3.4890     0.7740 H     1 <1>   0.4000 
 45 H       -5.6710     0.4270    -0.3140 H     1 <1>   0.0800 
 46 H       -5.8310     2.0750    -0.9000 H     1 <1>   0.0800 
 47 H       -4.0820     0.0570    -1.9520 H     1 <1>   0.0800 
 48 H       -4.2300     1.7270    -2.4530 H     1 <1>   0.0800 
 49 H        7.2100     1.3840     1.4550 H     1 <1>   0.1500 
 50 H        6.0740     3.7920    -1.8900 H     1 <1>   0.1500 
 51 H        8.3810     4.5620    -2.1220 H     1 <1>   0.1500 
 52 H        9.7440     2.2330     2.4170 H     1 <1>   0.0800 
 53 H       10.2690     1.1630     1.1190 H     1 <1>   0.0800 
 54 H       11.0520     3.2610    -1.2390 H     1 <1>   0.0800 
 55 H       10.7060     4.8170    -0.4870 H     1 <1>   0.0800 
 56 H       11.0340     3.9900     1.6460 H     1 <1>   0.0800 
 57 H       11.9930     2.7500     0.8620 H     1 <1>   0.0800 
@<TRIPOS>BOND
  1   1   2  2   
  2   2   3  am  
  3   2   4  1   
  4   3   5  1   
  5   3   6  1   
  6   4   7  1   
  7   4  28  1   
  8   4  29  1   
  9   5   8  1   
 10   5  30  1   
 11   5  31  1   
 12   6   9  1   
 13   6  32  1   
 14   6  33  1   
 15   7  10  1   
 16   7  34  1   
 17   7  35  1   
 18   8  11  1   
 19   8  12  1   
 20   8  13  1   
 21   9  12  1   
 22   9  36  1   
 23   9  37  1   
 24  10  14  2   
 25  10  15  am  
 26  11  16  1   
 27  11  17  1   
 28  11  38  1   
 29  12  39  1   
 30  12  40  1   
 31  13  18  1   
 32  13  41  1   
 33  13  42  1   
 34  15  19  1   
 35  15  43  1   
 36  16  44  1   
 37  17  18  1   
 38  17  45  1   
 39  17  46  1   
 40  18  47  1   
 41  18  48  1   
 42  19  20  ar  
 43  19  21  ar  
 44  20  22  ar  
 45  20  49  1   
 46  21  23  ar  
 47  21  50  1   
 48  22  24  ar  
 49  22  25  1   
 50  23  24  ar  
 51  23  51  1   
 52  24  26  1   
 53  25  27  1   
 54  25  52  1   
 55  25  53  1   
 56  26  27  1   
 57  26  54  1   
 58  26  55  1   
 59  27  56  1   
 60  27  57  1   
@<TRIPOS>SUBSTRUCTURE
  1 ****   4 GROUP 4 **** **** 0

# MOE 2024.06 (io_trps.svl 2023.06)
