@<TRIPOS>MOLECULE
NONAME
46 49 1 0 0 
SMALL
USER_CHARGES


@<TRIPOS>ATOM
  1 O       -0.2030     0.9650     0.7790 O.3   1 <1>  -0.2800 
  2 C       -1.0710     0.2610     0.0810 C.ar  1 <1>   0.1400 
  3 C        0.1500     1.9680    -0.0110 C.2   1 <1>   0.2980 
  4 C       -1.2140     0.8800    -1.1360 C.ar  1 <1>   0.2270 
  5 C       -1.7640    -0.8950     0.4120 C.ar  1 <1>  -0.1500 
  6 N       -0.4130     1.9800    -1.1620 N.2   1 <1>  -0.5650 
  7 C        1.1650     2.9690     0.5350 C.3   1 <1>   0.1000 
  8 C       -2.0790     0.3480    -2.0850 C.ar  1 <1>  -0.1500 
  9 C       -2.6230    -1.4240    -0.5320 C.ar  1 <1>  -0.1500 
 10 C        1.3000     4.2100    -0.3640 C.3   1 <1>  -0.1600 
 11 C        2.5360     2.3000     0.7170 C.3   1 <1>  -0.1600 
 12 C       -2.7800    -0.8040    -1.7770 C.ar  1 <1>  -0.1500 
 13 C        2.3480     5.1870     0.1690 C.3   1 <1>   0.2090 
 14 C        3.5850     3.2870     1.2320 C.3   1 <1>   0.2090 
 15 N        3.6450     4.4780     0.3390 N.pl3 1 <1>  -0.8380 
 16 C        4.6650     4.6470    -0.5370 C.ar  1 <1>   0.4100 
 17 N        4.9720     3.5970    -1.2750 N.ar  1 <1>  -0.6200 
 18 C        5.3510     5.8840    -0.6600 C.ar  1 <1>  -0.1430 
 19 C        5.8960     3.7420    -2.1920 C.ar  1 <1>   0.7710 
 20 C        6.3030     5.9790    -1.6260 C.ar  1 <1>   0.2110 
 21 C        5.0260     7.0410     0.2930 C.3   1 <1>  -0.0160 
 22 N        6.5560     4.8920    -2.3950 N.ar  1 <1>  -0.1790 
 23 N        6.1590     2.6730    -2.9370 N.pl3 1 <1>  -0.9000 
 24 C        6.1060     8.1270     0.3820 C.3   1 <1>  -0.2400 
 25 H       -1.6230    -1.3490     1.3760 H     1 <1>   0.1500 
 26 H        0.8110     3.2900     1.4990 H     1 <1>   0.0800 
 27 H       -2.1820     0.8420    -3.0340 H     1 <1>   0.1500 
 28 H       -3.1800    -2.3200    -0.3150 H     1 <1>   0.1500 
 29 H        0.3500     4.7090    -0.4340 H     1 <1>   0.0800 
 30 H        1.5840     3.9080    -1.3570 H     1 <1>   0.0800 
 31 H        2.8680     1.8990    -0.2250 H     1 <1>   0.0800 
 32 H        2.4520     1.4810     1.4090 H     1 <1>   0.0800 
 33 H       -3.4550    -1.2320    -2.4980 H     1 <1>   0.1500 
 34 H        2.0340     5.5900     1.1170 H     1 <1>   0.0800 
 35 H        2.4550     5.9990    -0.5300 H     1 <1>   0.0800 
 36 H        4.5480     2.8060     1.2700 H     1 <1>   0.0800 
 37 H        3.3320     3.6050     2.2290 H     1 <1>   0.0800 
 38 H        6.8750     6.8730    -1.8090 H     1 <1>   0.1500 
 39 H        4.8830     6.6420     1.2840 H     1 <1>   0.0800 
 40 H        4.0990     7.5000    -0.0040 H     1 <1>   0.0800 
 41 H        7.2510     4.9000    -3.1340 H     1 <1>   0.4570 
 42 H        6.8280     2.5630    -3.7000 H     1 <1>   0.4000 
 43 H        5.6100     1.8280    -2.7430 H     1 <1>   0.4000 
 44 H        7.0550     7.7010     0.6570 H     1 <1>   0.0800 
 45 H        5.8320     8.8420     1.1390 H     1 <1>   0.0800 
 46 H        6.2020     8.6580    -0.5480 H     1 <1>   0.0800 
@<TRIPOS>BOND
  1   1   2  1   
  2   1   3  1   
  3   2   4  ar  
  4   2   5  ar  
  5   3   6  2   
  6   3   7  1   
  7   4   6  1   
  8   4   8  ar  
  9   5   9  ar  
 10   5  25  1   
 11   7  10  1   
 12   7  11  1   
 13   7  26  1   
 14   8  12  ar  
 15   8  27  1   
 16   9  12  ar  
 17   9  28  1   
 18  10  13  1   
 19  10  29  1   
 20  10  30  1   
 21  11  14  1   
 22  11  31  1   
 23  11  32  1   
 24  12  33  1   
 25  13  15  1   
 26  13  34  1   
 27  13  35  1   
 28  14  15  1   
 29  14  36  1   
 30  14  37  1   
 31  15  16  1   
 32  16  17  ar  
 33  16  18  ar  
 34  17  19  ar  
 35  18  20  ar  
 36  18  21  1   
 37  19  22  ar  
 38  19  23  1   
 39  20  22  ar  
 40  20  38  1   
 41  21  24  1   
 42  21  39  1   
 43  21  40  1   
 44  22  41  1   
 45  23  42  1   
 46  23  43  1   
 47  24  44  1   
 48  24  45  1   
 49  24  46  1   
@<TRIPOS>SUBSTRUCTURE
  1 ****  11 GROUP 4 **** **** 0

# MOE 2024.06 (io_trps.svl 2023.06)
