@<TRIPOS>MOLECULE
NONAME
48 50 1 0 0 
SMALL
USER_CHARGES


@<TRIPOS>ATOM
  1 O       -0.0320    -0.1920    -0.1990 O.2   1 <1>  -0.5700 
  2 C        1.0640    -0.6180     0.1320 C.2   1 <1>   0.7160 
  3 N        2.1280     0.2310     0.3070 N.am  1 <1>  -0.4940 
  4 C        1.3080    -2.0290     0.3640 C.2   1 <1>   0.2030 
  5 C        2.2540     1.6330     0.1640 C.2   1 <1>  -0.0880 
  6 N        2.4730    -2.5440     0.7280 N.2   1 <1>  -0.7070 
  7 C        0.3500    -3.0420     0.2360 C.2   1 <1>  -0.1500 
  8 N        3.3830     2.3560     0.4220 N.pl3 1 <1>   0.3140 
  9 C        1.3200     2.5250    -0.2410 C.2   1 <1>  -0.1500 
 10 N        2.2550    -3.8650     0.8280 N.pl3 1 <1>   0.3000 
 11 C        0.9820    -4.1940     0.5350 C.2   1 <1>  -0.3320 
 12 N        3.1780     3.6790     0.1940 N.2   1 <1>  -0.7070 
 13 C        4.7030     1.8800     0.9300 C.3   1 <1>   0.2710 
 14 C        1.9490     3.7610    -0.2010 C.2   1 <1>   0.1080 
 15 C        0.4290    -5.6100     0.5710 C.3   1 <1>   0.0200 
 16 C        5.3290     0.8230     0.0000 C.3   1 <1>  -0.1950 
 17 C        4.5940     1.3560     2.3690 C.3   1 <1>  -0.2400 
 18 C        1.3040     5.0760    -0.5690 C.3   1 <1>  -0.0590 
 19 C        0.7230    -6.4020    -0.7180 C.3   1 <1>  -0.0800 
 20 C        6.8110     0.7770    -0.2120 C.3   1 <1>  -0.2000 
 21 C        5.9020     1.2090    -1.3270 C.3   1 <1>  -0.2000 
 22 C        0.0070    -7.7580    -0.6760 C.3   1 <1>  -0.2400 
 23 C        2.2240    -6.6260    -0.9500 C.3   1 <1>  -0.2400 
 24 H        2.9610    -0.2990     0.5750 H     1 <1>   0.3700 
 25 H       -0.6760    -2.8820    -0.0480 H     1 <1>   0.1500 
 26 H        0.3040     2.3330    -0.5330 H     1 <1>   0.1500 
 27 H        2.9920    -4.5300     1.0950 H     1 <1>   0.2700 
 28 H        5.3500     2.7400     0.9390 H     1 <1>   0.0800 
 29 H       -0.6380    -5.5470     0.6980 H     1 <1>   0.0800 
 30 H        0.8210    -6.1340     1.4250 H     1 <1>   0.0800 
 31 H        4.8400    -0.1330     0.0640 H     1 <1>   0.1000 
 32 H        3.9690     0.4830     2.4180 H     1 <1>   0.0800 
 33 H        4.1860     2.1210     3.0050 H     1 <1>   0.0800 
 34 H        5.5710     1.0950     2.7340 H     1 <1>   0.0800 
 35 H        0.2840     4.9230    -0.8680 H     1 <1>   0.0800 
 36 H        1.8470     5.5250    -1.3800 H     1 <1>   0.0800 
 37 H        1.3290     5.7360     0.2770 H     1 <1>   0.0800 
 38 H        0.3310    -5.8420    -1.5520 H     1 <1>   0.0800 
 39 H        7.2960    -0.1810    -0.2870 H     1 <1>   0.1000 
 40 H        7.4390     1.5210     0.2480 H     1 <1>   0.1000 
 41 H        5.8840     2.2470    -1.6160 H     1 <1>   0.1000 
 42 H        5.7490     0.5490    -2.1640 H     1 <1>   0.1000 
 43 H        0.3700    -8.3560     0.1410 H     1 <1>   0.0800 
 44 H        0.1710    -8.2960    -1.5930 H     1 <1>   0.0800 
 45 H       -1.0540    -7.6200    -0.5560 H     1 <1>   0.0800 
 46 H        2.6740    -7.1120    -0.1020 H     1 <1>   0.0800 
 47 H        2.7250    -5.6920    -1.1290 H     1 <1>   0.0800 
 48 H        2.3760    -7.2450    -1.8170 H     1 <1>   0.0800 
@<TRIPOS>BOND
  1   1   2  2   
  2   2   3  am  
  3   2   4  1   
  4   3   5  1   
  5   3  24  1   
  6   4   6  2   
  7   4   7  1   
  8   5   8  1   
  9   5   9  2   
 10   6  10  1   
 11   7  11  2   
 12   7  25  1   
 13   8  12  1   
 14   8  13  1   
 15   9  14  1   
 16   9  26  1   
 17  10  11  1   
 18  10  27  1   
 19  11  15  1   
 20  12  14  2   
 21  13  16  1   
 22  13  17  1   
 23  13  28  1   
 24  14  18  1   
 25  15  19  1   
 26  15  29  1   
 27  15  30  1   
 28  16  20  1   
 29  16  21  1   
 30  16  31  1   
 31  17  32  1   
 32  17  33  1   
 33  17  34  1   
 34  18  35  1   
 35  18  36  1   
 36  18  37  1   
 37  19  22  1   
 38  19  23  1   
 39  19  38  1   
 40  20  21  1   
 41  20  39  1   
 42  20  40  1   
 43  21  41  1   
 44  21  42  1   
 45  22  43  1   
 46  22  44  1   
 47  22  45  1   
 48  23  46  1   
 49  23  47  1   
 50  23  48  1   
@<TRIPOS>SUBSTRUCTURE
  1 ****   3 GROUP 4 **** **** 0

# MOE 2024.06 (io_trps.svl 2023.06)
