@<TRIPOS>MOLECULE
NONAME
43 45 1 0 0 
SMALL
USER_CHARGES


@<TRIPOS>ATOM
  1 N        0.3490     0.9250     0.8880 N.ar  1 <1>  -0.6200 
  2 C       -0.0250     1.5560    -0.2150 C.ar  1 <1>   0.2020 
  3 C       -0.5370     0.0780     1.3930 C.ar  1 <1>   0.1600 
  4 C       -1.2510     1.3750    -0.8380 C.ar  1 <1>  -0.1500 
  5 C        0.9790     2.5280    -0.7990 C.3   1 <1>   0.1080 
  6 C       -1.7840    -0.1710     0.8470 C.ar  1 <1>  -0.1500 
  7 C       -2.1610     0.4900    -0.3010 C.ar  1 <1>  -0.1500 
  8 C        2.4010     1.9370    -0.8880 C.3   1 <1>   0.4720 
  9 C        1.5420     3.5030     0.2550 C.3   1 <1>   0.4720 
 10 N        2.9280     3.1790    -0.2320 N.4   1 <1>  -0.8970 
 11 C        3.5100     4.2020    -1.1290 C.3   1 <1>   0.5240 
 12 C        3.7350     5.4480    -0.3080 C.2   1 <1>  -0.1810 
 13 C        4.7560     5.6400     0.6180 C.2   1 <1>   0.1080 
 14 C        3.0180     6.5960    -0.2800 C.2   1 <1>  -0.3320 
 15 N        4.6760     6.7930     1.1880 N.2   1 <1>  -0.7070 
 16 C        5.8690     4.6790     0.9810 C.3   1 <1>  -0.0590 
 17 N        3.6130     7.4000     0.6350 N.pl3 1 <1>   0.3140 
 18 C        1.7870     7.0000    -1.0800 C.3   1 <1>  -0.0600 
 19 C        3.2290     8.7700     1.0420 C.3   1 <1>   0.0960 
 20 C        3.8930     9.8230     0.1450 C.3   1 <1>  -0.2400 
 21 H       -0.2570    -0.4480     2.2920 H     1 <1>   0.1500 
 22 H       -1.5040     1.9140    -1.7340 H     1 <1>   0.1500 
 23 H        0.6670     3.0200    -1.7040 H     1 <1>   0.0000 
 24 H       -2.4490    -0.8750     1.3160 H     1 <1>   0.1500 
 25 H       -3.1240     0.3220    -0.7550 H     1 <1>   0.1500 
 26 H        2.7670     1.8230    -1.8930 H     1 <1>   0.0000 
 27 H        2.5550     1.0780    -0.2610 H     1 <1>   0.0000 
 28 H        1.4050     3.1700     1.2680 H     1 <1>   0.0000 
 29 H        1.2750     4.5300     0.0870 H     1 <1>   0.0000 
 30 H        3.5290     2.9880     0.5750 H     1 <1>   0.4500 
 31 H        2.8380     4.4200    -1.9420 H     1 <1>   0.0800 
 32 H        4.4470     3.8590    -1.5350 H     1 <1>   0.0800 
 33 H        6.0190     3.9410     0.2170 H     1 <1>   0.0800 
 34 H        5.6410     4.1970     1.9130 H     1 <1>   0.0800 
 35 H        6.7840     5.2320     1.1030 H     1 <1>   0.0800 
 36 H        1.4950     6.2260    -1.7650 H     1 <1>   0.0800 
 37 H        1.9930     7.8900    -1.6490 H     1 <1>   0.0800 
 38 H        0.9620     7.2000    -0.4180 H     1 <1>   0.0800 
 39 H        3.5430     8.9140     2.0610 H     1 <1>   0.0800 
 40 H        2.1600     8.8610     1.0010 H     1 <1>   0.0800 
 41 H        4.9640     9.7330     0.2060 H     1 <1>   0.0800 
 42 H        3.6140    10.8080     0.4710 H     1 <1>   0.0800 
 43 H        3.5850     9.6990    -0.8780 H     1 <1>   0.0800 
@<TRIPOS>BOND
  1   1   2  ar  
  2   1   3  ar  
  3   2   4  ar  
  4   2   5  1   
  5   3   6  ar  
  6   3  21  1   
  7   4   7  ar  
  8   4  22  1   
  9   5   8  1   
 10   5   9  1   
 11   5  23  1   
 12   6   7  ar  
 13   6  24  1   
 14   7  25  1   
 15   8  10  1   
 16   8  26  1   
 17   8  27  1   
 18   9  10  1   
 19   9  28  1   
 20   9  29  1   
 21  10  11  1   
 22  10  30  1   
 23  11  12  1   
 24  11  31  1   
 25  11  32  1   
 26  12  13  1   
 27  12  14  2   
 28  13  15  2   
 29  13  16  1   
 30  14  17  1   
 31  14  18  1   
 32  15  17  1   
 33  16  33  1   
 34  16  34  1   
 35  16  35  1   
 36  17  19  1   
 37  18  36  1   
 38  18  37  1   
 39  18  38  1   
 40  19  20  1   
 41  19  39  1   
 42  19  40  1   
 43  20  41  1   
 44  20  42  1   
 45  20  43  1   
@<TRIPOS>SUBSTRUCTURE
  1 ****   9 GROUP 4 **** **** 0

# MOE 2024.06 (io_trps.svl 2023.06)
