@<TRIPOS>MOLECULE
NONAME
56 58 1 0 0 
SMALL
USER_CHARGES


@<TRIPOS>ATOM
  1 O       -0.1260    -0.3290    -0.7240 O.2   1 <1>  -0.5700 
  2 C       -0.2250    -1.3870    -0.1490 C.2   1 <1>   0.5690 
  3 N        0.7700    -1.8710     0.6460 N.am  1 <1>  -0.7300 
  4 C       -1.5400    -2.1650    -0.3360 C.3   1 <1>   0.4040 
  5 C        2.0430    -1.1510     0.9200 C.3   1 <1>   0.1400 
  6 N       -2.7160    -1.2690    -0.6530 N.4   1 <1>  -0.9590 
  7 C        3.1840    -1.7600     0.1060 C.3   1 <1>  -0.0170 
  8 C       -3.0680    -0.4000     0.5100 C.3   1 <1>   0.3430 
  9 C       -3.8800    -2.0160    -1.2080 C.3   1 <1>   0.3430 
 10 C        4.4890    -1.0580     0.4410 C.ar  1 <1>  -0.1430 
 11 C       -4.1690     0.5700     0.1070 C.3   1 <1>  -0.1600 
 12 C       -4.9940    -1.0430    -1.5840 C.3   1 <1>  -0.1600 
 13 C        4.8360     0.1160    -0.2100 C.ar  1 <1>  -0.1500 
 14 C        5.3400    -1.5790     1.4040 C.ar  1 <1>  -0.1500 
 15 C       -5.4200    -0.1810    -0.3900 C.3   1 <1>   0.2800 
 16 C        6.0200     0.7630     0.0980 C.ar  1 <1>  -0.1500 
 17 C        6.5240    -0.9330     1.7130 C.ar  1 <1>  -0.1500 
 18 O       -6.3260     0.7400    -0.9100 O.3   1 <1>  -0.5600 
 19 C       -6.1450    -1.0580     0.6630 C.3   1 <1>  -0.1600 
 20 C        6.8650     0.2390     1.0600 C.ar  1 <1>  -0.1500 
 21 C       -6.9650     1.6090    -0.0160 C.3   1 <1>   0.1200 
 22 C       -6.9480    -0.2630     1.6950 C.3   1 <1>   0.2800 
 23 C       -7.7870     0.8080     0.9970 C.3   1 <1>  -0.1600 
 24 O       -6.0590     0.3460     2.5480 O.3   1 <1>  -0.6800 
 25 C       -7.8120    -1.1750     2.5640 C.3   1 <1>  -0.2400 
 26 H        0.7040    -2.7840     1.1060 H     1 <1>   0.3700 
 27 H       -1.7430    -2.7300     0.5570 H     1 <1>   0.0800 
 28 H       -1.3920    -2.8570    -1.1460 H     1 <1>   0.0800 
 29 H        2.2720    -1.2140     1.9710 H     1 <1>   0.0800 
 30 H        1.9420    -0.1080     0.6670 H     1 <1>   0.0800 
 31 H       -2.3650    -0.6180    -1.3780 H     1 <1>   0.4500 
 32 H        2.9790    -1.6460    -0.9440 H     1 <1>   0.0800 
 33 H        3.2750    -2.8080     0.3240 H     1 <1>   0.0800 
 34 H       -2.2030     0.1620     0.8260 H     1 <1>   0.0800 
 35 H       -3.4050    -1.0010     1.3390 H     1 <1>   0.0800 
 36 H       -4.2490    -2.7150    -0.4750 H     1 <1>   0.0800 
 37 H       -3.5810    -2.5680    -2.0840 H     1 <1>   0.0800 
 38 H       -3.8010     1.2170    -0.6690 H     1 <1>   0.0800 
 39 H       -4.3860     1.1870     0.9560 H     1 <1>   0.0800 
 40 H       -5.8380    -1.5990    -1.9520 H     1 <1>   0.0800 
 41 H       -4.6530    -0.4100    -2.3850 H     1 <1>   0.0800 
 42 H        4.1870     0.5340    -0.9600 H     1 <1>   0.1500 
 43 H        5.0890    -2.4890     1.9190 H     1 <1>   0.1500 
 44 H        6.2840     1.6730    -0.4110 H     1 <1>   0.1500 
 45 H        7.1820    -1.3410     2.4600 H     1 <1>   0.1500 
 46 H       -5.4620    -1.7100     1.1730 H     1 <1>   0.0800 
 47 H       -6.8410    -1.6870     0.1390 H     1 <1>   0.0800 
 48 H        7.7860     0.7410     1.3000 H     1 <1>   0.1500 
 49 H       -7.6100     2.2490    -0.5930 H     1 <1>   0.0800 
 50 H       -6.2310     2.2250     0.4730 H     1 <1>   0.0800 
 51 H       -8.5920     0.3360     0.4620 H     1 <1>   0.0800 
 52 H       -8.2290     1.4710     1.7180 H     1 <1>   0.0800 
 53 H       -6.5540     0.7890     3.2640 H     1 <1>   0.4000 
 54 H       -8.5210    -1.7040     1.9530 H     1 <1>   0.0800 
 55 H       -8.3620    -0.6030     3.2900 H     1 <1>   0.0800 
 56 H       -7.2020    -1.9010     3.0730 H     1 <1>   0.0800 
@<TRIPOS>BOND
  1   1   2  2   
  2   2   3  am  
  3   2   4  1   
  4   3   5  1   
  5   3  26  1   
  6   4   6  1   
  7   4  27  1   
  8   4  28  1   
  9   5   7  1   
 10   5  29  1   
 11   5  30  1   
 12   6   8  1   
 13   6   9  1   
 14   6  31  1   
 15   7  10  1   
 16   7  32  1   
 17   7  33  1   
 18   8  11  1   
 19   8  34  1   
 20   8  35  1   
 21   9  12  1   
 22   9  36  1   
 23   9  37  1   
 24  10  13  ar  
 25  10  14  ar  
 26  11  15  1   
 27  11  38  1   
 28  11  39  1   
 29  12  15  1   
 30  12  40  1   
 31  12  41  1   
 32  13  16  ar  
 33  13  42  1   
 34  14  17  ar  
 35  14  43  1   
 36  15  18  1   
 37  15  19  1   
 38  16  20  ar  
 39  16  44  1   
 40  17  20  ar  
 41  17  45  1   
 42  18  21  1   
 43  19  22  1   
 44  19  46  1   
 45  19  47  1   
 46  20  48  1   
 47  21  23  1   
 48  21  49  1   
 49  21  50  1   
 50  22  23  1   
 51  22  24  1   
 52  22  25  1   
 53  23  51  1   
 54  23  52  1   
 55  24  53  1   
 56  25  54  1   
 57  25  55  1   
 58  25  56  1   
@<TRIPOS>SUBSTRUCTURE
  1 ****   2 GROUP 4 **** **** 0

# MOE 2024.06 (io_trps.svl 2023.06)
