@<TRIPOS>MOLECULE
Untitled Document
59 62 1 0 0 
SMALL
USER_CHARGES


@<TRIPOS>ATOM
  1 F        5.3870     1.1430     4.5760 F     1 <1>  -0.1900 
  2 C        5.9780     0.8210     3.4540 C.ar  1 <1>   0.1900 
  3 C        5.2360     0.8110     2.2880 C.ar  1 <1>  -0.1500 
  4 C        7.3220     0.5020     3.4770 C.ar  1 <1>  -0.1500 
  5 C        5.8690     0.4700     1.1060 C.ar  1 <1>  -0.1500 
  6 C        7.9420     0.1630     2.2870 C.ar  1 <1>  -0.1500 
  7 C        7.2220     0.1450     1.0920 C.ar  1 <1>   0.1000 
  8 N        7.8290    -0.1890    -0.1130 N.pl3 1 <1>  -0.8380 
  9 C        8.2430    -1.6200    -0.2330 C.3   1 <1>   0.2090 
 10 C        8.8890     0.7660    -0.5600 C.3   1 <1>   0.2090 
 11 C        8.7470    -1.9380    -1.6560 C.3   1 <1>   0.3430 
 12 C        9.4310     0.4250    -1.9650 C.3   1 <1>   0.3430 
 13 N        9.8560    -1.0150    -2.0760 N.4   1 <1>  -0.9590 
 14 C       10.4380    -1.3640    -3.3910 C.3   1 <1>   0.3430 
 15 C       11.8120    -0.7140    -3.5960 C.3   1 <1>  -0.1600 
 16 C       12.8530    -1.0780    -2.5260 C.3   1 <1>   0.1400 
 17 N       12.8760    -0.0620    -1.4310 N.am  1 <1>  -0.6600 
 18 C       12.3460    -0.3010    -0.1810 C.2   1 <1>   0.7160 
 19 C       13.9030     1.0070    -1.5780 C.3   1 <1>   0.1400 
 20 O       11.6970    -1.3210    -0.0120 O.2   1 <1>  -0.5700 
 21 C       12.4800     0.6650     0.8840 C.2   1 <1>  -0.0860 
 22 C       13.2800     2.4040    -1.6680 C.3   1 <1>  -0.1600 
 23 C       12.5530     2.0370     0.8040 C.2   1 <1>  -0.3320 
 24 C       12.5510     0.3650     2.2560 C.2   1 <1>  -0.1500 
 25 C       12.4510     2.8730    -0.4610 C.3   1 <1>   0.3800 
 26 N       12.6810     2.5680     2.0480 N.pl3 1 <1>   0.0480 
 27 C       12.6750     1.5350     2.9280 C.2   1 <1>  -0.3020 
 28 O       11.1190     2.8360    -0.7950 O.3   1 <1>  -0.6800 
 29 C       12.7980     3.9880     2.4340 C.3   1 <1>   0.0160 
 30 H        4.1910     1.0650     2.3110 H     1 <1>   0.1500 
 31 H        7.8640     0.5200     4.4050 H     1 <1>   0.1500 
 32 H        5.3220     0.4550     0.1820 H     1 <1>   0.1500 
 33 H        8.9870    -0.0880     2.2850 H     1 <1>   0.1500 
 34 H        7.4000    -2.2490    -0.0040 H     1 <1>   0.0800 
 35 H        9.0210    -1.8350     0.4800 H     1 <1>   0.0800 
 36 H        9.7010     0.7540     0.1450 H     1 <1>   0.0800 
 37 H        8.4810     1.7620    -0.5740 H     1 <1>   0.0800 
 38 H        7.9180    -1.8460    -2.3390 H     1 <1>   0.0800 
 39 H        9.0920    -2.9580    -1.6810 H     1 <1>   0.0800 
 40 H       10.2680     1.0700    -2.1750 H     1 <1>   0.0800 
 41 H        8.6590     0.6340    -2.6860 H     1 <1>   0.0800 
 42 H       10.6040    -1.1420    -1.3650 H     1 <1>   0.4500 
 43 H        9.7680    -1.0600    -4.1790 H     1 <1>   0.0800 
 44 H       10.5560    -2.4340    -3.4500 H     1 <1>   0.0800 
 45 H       11.7240     0.3540    -3.6930 H     1 <1>   0.0800 
 46 H       12.1810    -1.0760    -4.5390 H     1 <1>   0.0800 
 47 H       13.8280    -1.1220    -2.9820 H     1 <1>   0.0800 
 48 H       12.6570    -2.0610    -2.1280 H     1 <1>   0.0800 
 49 H       14.4920     0.8360    -2.4630 H     1 <1>   0.0800 
 50 H       14.5790     0.9680    -0.7390 H     1 <1>   0.0800 
 51 H       12.7080     2.4920    -2.5730 H     1 <1>   0.0800 
 52 H       14.1020     3.0900    -1.7600 H     1 <1>   0.0800 
 53 H       12.5130    -0.6310     2.6640 H     1 <1>   0.1500 
 54 H       12.6920     3.9030    -0.2570 H     1 <1>   0.0800 
 55 H       12.7590     1.6820     3.9910 H     1 <1>   0.1500 
 56 H       10.6210     3.0770     0.0100 H     1 <1>   0.4000 
 57 H       11.9460     4.5310     2.0680 H     1 <1>   0.0800 
 58 H       13.6990     4.3970     2.0170 H     1 <1>   0.0800 
 59 H       12.8350     4.0670     3.5050 H     1 <1>   0.0800 
@<TRIPOS>BOND
  1   1   2  1   
  2   2   3  ar  
  3   2   4  ar  
  4   3   5  ar  
  5   3  30  1   
  6   4   6  ar  
  7   4  31  1   
  8   5   7  ar  
  9   5  32  1   
 10   6   7  ar  
 11   6  33  1   
 12   7   8  1   
 13   8   9  1   
 14   8  10  1   
 15   9  11  1   
 16   9  34  1   
 17   9  35  1   
 18  10  12  1   
 19  10  36  1   
 20  10  37  1   
 21  11  13  1   
 22  11  38  1   
 23  11  39  1   
 24  12  13  1   
 25  12  40  1   
 26  12  41  1   
 27  13  14  1   
 28  13  42  1   
 29  14  15  1   
 30  14  43  1   
 31  14  44  1   
 32  15  16  1   
 33  15  45  1   
 34  15  46  1   
 35  16  17  1   
 36  16  47  1   
 37  16  48  1   
 38  17  18  am  
 39  17  19  1   
 40  18  20  2   
 41  18  21  1   
 42  19  22  1   
 43  19  49  1   
 44  19  50  1   
 45  21  23  2   
 46  21  24  1   
 47  22  25  1   
 48  22  51  1   
 49  22  52  1   
 50  23  25  1   
 51  23  26  1   
 52  24  27  2   
 53  24  53  1   
 54  25  28  1   
 55  25  54  1   
 56  26  27  1   
 57  26  29  1   
 58  27  55  1   
 59  28  56  1   
 60  29  57  1   
 61  29  58  1   
 62  29  59  1   
@<TRIPOS>SUBSTRUCTURE
  1 ****  10 GROUP 4 **** **** 0

# MOE 2024.06 (io_trps.svl 2023.06)
