@<TRIPOS>MOLECULE
NONAME
45 47 1 0 0 
SMALL
USER_CHARGES


@<TRIPOS>ATOM
  1 S        0.5730    -0.4810    -1.0410 S.o2  1 <1>   1.3330 
  2 O        1.9400    -0.9520    -0.9820 O.2   1 <1>  -0.6500 
  3 O       -0.1760    -0.6240    -2.2680 O.2   1 <1>  -0.6500 
  4 N       -0.3090    -1.2840     0.1700 N.am  1 <1>  -0.8490 
  5 C        0.5200     1.2420    -0.5230 C.3   1 <1>  -0.0550 
  6 C        0.1270    -2.6740     0.3460 C.3   1 <1>   0.1160 
  7 C       -1.7610    -1.2460    -0.0420 C.3   1 <1>   0.1160 
  8 C        1.4970     1.6940     0.5870 C.3   1 <1>  -0.0800 
  9 C        2.9670     1.6550     0.1600 C.3   1 <1>   0.2200 
 10 C        1.4750     0.9050     1.9030 C.3   1 <1>   0.1200 
 11 N        3.5330     3.0190     0.2500 N.am  1 <1>  -0.7300 
 12 C        3.6060     0.7460     1.2080 C.3   1 <1>   0.1200 
 13 O        2.7970     0.8800     2.3310 O.3   1 <1>  -0.5600 
 14 C        3.4500     3.9530    -0.7350 C.2   1 <1>   0.7150 
 15 O        2.8790     3.6630    -1.7670 O.2   1 <1>  -0.5700 
 16 C        4.0160     5.2600    -0.5420 C.2   1 <1>  -0.2370 
 17 N        4.2840     5.8050     0.6930 N.pl3 1 <1>   0.0330 
 18 C        4.3700     6.1850    -1.4820 C.2   1 <1>  -0.1500 
 19 C        4.8100     7.0570     0.5300 C.ar  1 <1>  -0.1520 
 20 C        4.8770     7.3240    -0.8320 C.ar  1 <1>   0.0000 
 21 C        5.2390     8.0000     1.4680 C.ar  1 <1>  -0.1500 
 22 C        5.3830     8.5520    -1.2730 C.ar  1 <1>  -0.1500 
 23 C        5.7340     9.2030     1.0230 C.ar  1 <1>  -0.1500 
 24 C        5.8070     9.4790    -0.3490 C.ar  1 <1>  -0.1500 
 25 H        0.7230     1.8500    -1.3850 H     1 <1>   0.0800 
 26 H       -0.4790     1.4760    -0.2140 H     1 <1>   0.0800 
 27 H       -0.4450    -3.1500     1.1230 H     1 <1>   0.0800 
 28 H        1.1660    -2.7020     0.6290 H     1 <1>   0.0800 
 29 H        0.0040    -3.2230    -0.5730 H     1 <1>   0.0800 
 30 H       -2.2690    -1.6830     0.8010 H     1 <1>   0.0800 
 31 H       -2.0260    -1.7930    -0.9320 H     1 <1>   0.0800 
 32 H       -2.0960    -0.2290    -0.1500 H     1 <1>   0.0800 
 33 H        1.2300     2.7080     0.8310 H     1 <1>   0.0800 
 34 H        3.1180     1.2640    -0.8330 H     1 <1>   0.0800 
 35 H        1.1640    -0.1150     1.7780 H     1 <1>   0.0800 
 36 H        0.8710     1.3780     2.6580 H     1 <1>   0.0800 
 37 H        4.0420     3.2140     1.1090 H     1 <1>   0.3700 
 38 H        4.6170     1.0220     1.4490 H     1 <1>   0.0800 
 39 H        3.5710    -0.2830     0.8940 H     1 <1>   0.0800 
 40 H        4.0690     5.3810     1.6000 H     1 <1>   0.2700 
 41 H        4.2830     6.0850    -2.5500 H     1 <1>   0.1500 
 42 H        5.1800     7.7810     2.5200 H     1 <1>   0.1500 
 43 H        5.4310     8.7490    -2.3280 H     1 <1>   0.1500 
 44 H        6.0720     9.9460     1.7230 H     1 <1>   0.1500 
 45 H        6.1980    10.4280    -0.6720 H     1 <1>   0.1500 
@<TRIPOS>BOND
  1   1   2  2   
  2   1   3  2   
  3   1   4  am  
  4   1   5  1   
  5   4   6  1   
  6   4   7  1   
  7   5   8  1   
  8   5  25  1   
  9   5  26  1   
 10   6  27  1   
 11   6  28  1   
 12   6  29  1   
 13   7  30  1   
 14   7  31  1   
 15   7  32  1   
 16   8   9  1   
 17   8  10  1   
 18   8  33  1   
 19   9  11  1   
 20   9  12  1   
 21   9  34  1   
 22  10  13  1   
 23  10  35  1   
 24  10  36  1   
 25  11  14  am  
 26  11  37  1   
 27  12  13  1   
 28  12  38  1   
 29  12  39  1   
 30  14  15  2   
 31  14  16  1   
 32  16  17  1   
 33  16  18  2   
 34  17  19  1   
 35  17  40  1   
 36  18  20  1   
 37  18  41  1   
 38  19  20  ar  
 39  19  21  ar  
 40  20  22  ar  
 41  21  23  ar  
 42  21  42  1   
 43  22  24  ar  
 44  22  43  1   
 45  23  24  ar  
 46  23  44  1   
 47  24  45  1   
@<TRIPOS>SUBSTRUCTURE
  1 ****  11 GROUP 4 **** **** 0

# MOE 2024.06 (io_trps.svl 2023.06)
