@<TRIPOS>MOLECULE
NONAME
49 51 1 0 0 
SMALL
USER_CHARGES


@<TRIPOS>ATOM
  1 O        0.8510    -0.1590     2.1230 O.2   1 <1>  -0.5700 
  2 C        1.1050    -0.6970     1.0620 C.2   1 <1>   0.7150 
  3 N        1.5330     0.0250    -0.0100 N.am  1 <1>  -0.4930 
  4 C        1.0090    -2.1280     0.9470 C.2   1 <1>  -0.2370 
  5 C        1.7190     1.4200    -0.1660 C.2   1 <1>   0.0630 
  6 N        1.0170    -2.8890     2.0900 N.pl3 1 <1>   0.0330 
  7 C        0.9080    -2.9860    -0.1190 C.2   1 <1>  -0.1810 
  8 C        0.9050     2.4820     0.2430 C.2   1 <1>   0.1080 
  9 C        2.7580     2.0080    -0.8000 C.2   1 <1>  -0.3320 
 10 C        0.9530    -4.2130     1.7580 C.ar  1 <1>  -0.1520 
 11 C        0.8870    -4.3070     0.3740 C.ar  1 <1>   0.0000 
 12 C        0.7980    -2.6750    -1.6030 C.3   1 <1>  -0.0590 
 13 N        1.3910     3.6320    -0.1030 N.2   1 <1>  -0.7070 
 14 C       -0.4070     2.3740     0.9880 C.3   1 <1>  -0.0590 
 15 N        2.5390     3.3470    -0.7410 N.pl3 1 <1>   0.3140 
 16 C        3.9720     1.3680    -1.4590 C.3   1 <1>  -0.0600 
 17 C        0.9460    -5.3540     2.5640 C.ar  1 <1>  -0.1500 
 18 C        0.8170    -5.5710    -0.2270 C.ar  1 <1>  -0.1500 
 19 C        3.3940     4.4270    -1.2750 C.3   1 <1>   0.0960 
 20 C        0.8760    -6.5870     1.9600 C.ar  1 <1>  -0.1500 
 21 C        0.8110    -6.7040     0.5650 C.ar  1 <1>   0.0830 
 22 C        4.4340     4.8700    -0.2350 C.3   1 <1>  -0.1600 
 23 O        0.7450    -7.9750     0.0800 O.3   1 <1>  -0.3630 
 24 C        5.3360     5.9810    -0.7830 C.3   1 <1>  -0.2400 
 25 C        0.6580    -8.2090    -1.3080 C.3   1 <1>   0.0400 
 26 H        1.9060    -0.5420    -0.7630 H     1 <1>   0.3700 
 27 H        1.0460    -2.5000     3.0390 H     1 <1>   0.2700 
 28 H        0.4690    -1.6660    -1.7680 H     1 <1>   0.0800 
 29 H        0.0770    -3.3310    -2.0570 H     1 <1>   0.0800 
 30 H        1.7490    -2.8260    -2.0810 H     1 <1>   0.0800 
 31 H       -0.9300     1.4830     0.6960 H     1 <1>   0.0800 
 32 H       -1.0210     3.2280     0.7690 H     1 <1>   0.0800 
 33 H       -0.2160     2.3430     2.0440 H     1 <1>   0.0800 
 34 H        3.9530     0.3000    -1.3360 H     1 <1>   0.0800 
 35 H        4.8750     1.7400    -1.0110 H     1 <1>   0.0800 
 36 H        3.9840     1.5910    -2.5110 H     1 <1>   0.0800 
 37 H        0.9960    -5.2610     3.6340 H     1 <1>   0.1500 
 38 H        0.7700    -5.6190    -1.2960 H     1 <1>   0.1500 
 39 H        2.7590     5.2550    -1.5320 H     1 <1>   0.0800 
 40 H        3.8780     4.0780    -2.1670 H     1 <1>   0.0800 
 41 H        0.8690    -7.4880     2.5470 H     1 <1>   0.1500 
 42 H        5.0410     4.0290     0.0510 H     1 <1>   0.0800 
 43 H        3.9200     5.2300     0.6410 H     1 <1>   0.0800 
 44 H        5.8740     5.6410    -1.6510 H     1 <1>   0.0800 
 45 H        6.0490     6.2770    -0.0340 H     1 <1>   0.0800 
 46 H        4.7500     6.8430    -1.0530 H     1 <1>   0.0800 
 47 H        0.6090    -9.2710    -1.4640 H     1 <1>   0.0800 
 48 H        1.5350    -7.8090    -1.7850 H     1 <1>   0.0800 
 49 H       -0.2350    -7.7420    -1.6840 H     1 <1>   0.0800 
@<TRIPOS>BOND
  1   1   2  2   
  2   2   3  am  
  3   2   4  1   
  4   3   5  1   
  5   3  26  1   
  6   4   6  1   
  7   4   7  2   
  8   5   8  1   
  9   5   9  2   
 10   6  10  1   
 11   6  27  1   
 12   7  11  1   
 13   7  12  1   
 14   8  13  2   
 15   8  14  1   
 16   9  15  1   
 17   9  16  1   
 18  10  11  ar  
 19  10  17  ar  
 20  11  18  ar  
 21  12  28  1   
 22  12  29  1   
 23  12  30  1   
 24  13  15  1   
 25  14  31  1   
 26  14  32  1   
 27  14  33  1   
 28  15  19  1   
 29  16  34  1   
 30  16  35  1   
 31  16  36  1   
 32  17  20  ar  
 33  17  37  1   
 34  18  21  ar  
 35  18  38  1   
 36  19  22  1   
 37  19  39  1   
 38  19  40  1   
 39  20  21  ar  
 40  20  41  1   
 41  21  23  1   
 42  22  24  1   
 43  22  42  1   
 44  22  43  1   
 45  23  25  1   
 46  24  44  1   
 47  24  45  1   
 48  24  46  1   
 49  25  47  1   
 50  25  48  1   
 51  25  49  1   
@<TRIPOS>SUBSTRUCTURE
  1 ****   2 GROUP 4 **** **** 0

# MOE 2024.06 (io_trps.svl 2023.06)
