@<TRIPOS>MOLECULE
NONAME
54 57 1 0 0 
SMALL
USER_CHARGES


@<TRIPOS>ATOM
  1 O        0.0200    -0.6850     0.5540 O.2   1 <1>  -0.5700 
  2 C        0.1340    -1.8710     0.2830 C.2   1 <1>   0.5440 
  3 N       -0.7680    -2.7970     0.7910 N.am  1 <1>  -0.2980 
  4 C        1.1770    -2.3630    -0.5690 C.ar  1 <1>   0.0860 
  5 N       -0.7190    -4.1320     0.5510 N.2   1 <1>  -0.5120 
  6 C       -1.8570    -2.3290     1.6810 C.3   1 <1>   0.0600 
  7 C        1.2260    -3.7430    -0.8310 C.ar  1 <1>   0.0860 
  8 C        2.1250    -1.5120    -1.1460 C.ar  1 <1>  -0.1500 
  9 C        0.2340    -4.6030    -0.2160 C.2   1 <1>   0.3640 
 10 C        2.2340    -4.2040    -1.6950 C.ar  1 <1>  -0.1500 
 11 C        3.1070    -1.9950    -1.9810 C.ar  1 <1>  -0.1500 
 12 C        0.2900    -6.0340    -0.4630 C.2   1 <1>   0.6300 
 13 C        3.1580    -3.3510    -2.2570 C.ar  1 <1>  -0.1500 
 14 O        1.3050    -6.6600    -0.1970 O.2   1 <1>  -0.5700 
 15 N       -0.7800    -6.7460    -0.9880 N.am  1 <1>  -0.6600 
 16 C       -2.0690    -6.1190    -1.4140 C.3   1 <1>   0.1400 
 17 C       -0.9300    -8.2170    -0.7680 C.3   1 <1>   0.1400 
 18 C       -3.1760    -6.4730    -0.4070 C.3   1 <1>   0.2950 
 19 C       -2.1230    -8.5010     0.1760 C.3   1 <1>   0.2000 
 20 O       -3.2800    -7.8650    -0.2920 O.3   1 <1>  -0.5600 
 21 C       -4.5380    -5.9350    -0.8540 C.3   1 <1>  -0.1950 
 22 C       -2.4580    -9.9940     0.2910 C.3   1 <1>  -0.1600 
 23 C       -4.9370    -4.5240    -0.5530 C.3   1 <1>  -0.2000 
 24 C       -5.6280    -5.6670     0.1350 C.3   1 <1>  -0.2000 
 25 C       -1.3330   -10.8170     0.9400 C.3   1 <1>  -0.1600 
 26 C       -1.7570   -12.2800     1.1190 C.3   1 <1>  -0.1600 
 27 C       -0.6380   -13.1030     1.7630 C.3   1 <1>  -0.2400 
 28 H       -1.4310    -1.8450     2.5420 H     1 <1>   0.0800 
 29 H       -2.4570    -3.1610     2.0020 H     1 <1>   0.0800 
 30 H       -2.4750    -1.6260     1.1510 H     1 <1>   0.0800 
 31 H        2.0790    -0.4570    -0.9300 H     1 <1>   0.1500 
 32 H        2.3100    -5.2490    -1.9380 H     1 <1>   0.1500 
 33 H        3.8310    -1.3280    -2.4180 H     1 <1>   0.1500 
 34 H        3.9240    -3.7330    -2.9120 H     1 <1>   0.1500 
 35 H       -1.9810    -5.0520    -1.4950 H     1 <1>   0.0800 
 36 H       -2.3430    -6.4970    -2.3830 H     1 <1>   0.0800 
 37 H       -1.0970    -8.7020    -1.7130 H     1 <1>   0.0800 
 38 H       -0.0320    -8.6280    -0.3420 H     1 <1>   0.0800 
 39 H       -2.9300    -6.0700     0.5610 H     1 <1>   0.0800 
 40 H       -1.9050    -8.1120     1.1560 H     1 <1>   0.0800 
 41 H       -4.8320    -6.3320    -1.8100 H     1 <1>   0.1000 
 42 H       -3.3460   -10.0900     0.8900 H     1 <1>   0.0800 
 43 H       -2.6700   -10.3850    -0.6890 H     1 <1>   0.0800 
 44 H       -4.2760    -3.9010     0.0250 H     1 <1>   0.1000 
 45 H       -5.4800    -3.9680    -1.2990 H     1 <1>   0.1000 
 46 H       -6.6380    -5.9130    -0.1410 H     1 <1>   0.1000 
 47 H       -5.4310    -5.8490     1.1780 H     1 <1>   0.1000 
 48 H       -0.4490   -10.7830     0.3280 H     1 <1>   0.0800 
 49 H       -1.0920   -10.3980     1.9030 H     1 <1>   0.0800 
 50 H       -2.6350   -12.3290     1.7400 H     1 <1>   0.0800 
 51 H       -2.0030   -12.7050     0.1600 H     1 <1>   0.0800 
 52 H       -0.3900   -12.7070     2.7320 H     1 <1>   0.0800 
 53 H        0.2430   -13.0880     1.1460 H     1 <1>   0.0800 
 54 H       -0.9550   -14.1240     1.8820 H     1 <1>   0.0800 
@<TRIPOS>BOND
  1   1   2  2   
  2   2   3  am  
  3   2   4  1   
  4   3   5  1   
  5   3   6  1   
  6   4   7  ar  
  7   4   8  ar  
  8   5   9  2   
  9   6  28  1   
 10   6  29  1   
 11   6  30  1   
 12   7   9  1   
 13   7  10  ar  
 14   8  11  ar  
 15   8  31  1   
 16   9  12  1   
 17  10  13  ar  
 18  10  32  1   
 19  11  13  ar  
 20  11  33  1   
 21  12  14  2   
 22  12  15  am  
 23  13  34  1   
 24  15  16  1   
 25  15  17  1   
 26  16  18  1   
 27  16  35  1   
 28  16  36  1   
 29  17  19  1   
 30  17  37  1   
 31  17  38  1   
 32  18  20  1   
 33  18  21  1   
 34  18  39  1   
 35  19  20  1   
 36  19  22  1   
 37  19  40  1   
 38  21  23  1   
 39  21  24  1   
 40  21  41  1   
 41  22  25  1   
 42  22  42  1   
 43  22  43  1   
 44  23  24  1   
 45  23  44  1   
 46  23  45  1   
 47  24  46  1   
 48  24  47  1   
 49  25  26  1   
 50  25  48  1   
 51  25  49  1   
 52  26  27  1   
 53  26  50  1   
 54  26  51  1   
 55  27  52  1   
 56  27  53  1   
 57  27  54  1   
@<TRIPOS>SUBSTRUCTURE
  1 ****  12 GROUP 4 **** **** 0

# MOE 2024.06 (io_trps.svl 2023.06)
