@<TRIPOS>MOLECULE
NONAME
50 52 1 0 0 
SMALL
USER_CHARGES


@<TRIPOS>ATOM
  1 F       -0.9920    -0.9860    -0.2850 F     1 <1>  -0.1900 
  2 C       -0.8980    -2.2880    -0.2390 C.ar  1 <1>   0.1900 
  3 C       -1.3590    -3.0290    -1.3090 C.ar  1 <1>  -0.1500 
  4 C       -0.3390    -2.8760     0.8800 C.ar  1 <1>  -0.1500 
  5 C       -1.2560    -4.4090    -1.2540 C.ar  1 <1>  -0.1500 
  6 C       -0.2420    -4.2570     0.9240 C.ar  1 <1>  -0.1500 
  7 C       -0.6980    -5.0260    -0.1400 C.ar  1 <1>  -0.1440 
  8 C       -0.5960    -6.5420    -0.0900 C.3   1 <1>  -0.0160 
  9 C       -1.9050    -7.1430     0.4200 C.3   1 <1>   0.1400 
 10 N       -1.7920    -8.6210     0.4920 N.am  1 <1>  -0.7300 
 11 C       -2.2580    -9.4780    -0.4570 C.2   1 <1>   0.5690 
 12 O       -2.8110    -9.0800    -1.4550 O.2   1 <1>  -0.5700 
 13 C       -2.0910   -10.9930    -0.2560 C.3   1 <1>   0.1710 
 14 N       -3.3140   -11.7330     0.1840 N.3   1 <1>  -0.8100 
 15 C       -4.3870   -11.6170    -0.8340 C.3   1 <1>   0.2780 
 16 C       -3.7580   -11.2870     1.5150 C.3   1 <1>   0.0300 
 17 C       -5.5730   -12.5440    -0.5520 C.2   1 <1>   0.1820 
 18 N       -5.4400   -13.9060    -0.3380 N.pl3 1 <1>  -0.6290 
 19 C       -6.8870   -12.2410    -0.4680 C.2   1 <1>   0.1820 
 20 C       -6.6790   -14.4020    -0.1300 C.cat 1 <1>   0.7910 
 21 C       -4.3370   -14.7280    -0.2740 C.2   1 <1>   0.2290 
 22 N       -7.5670   -13.3980    -0.2080 N.pl3 1 <1>  -0.7000 
 23 C       -7.6240   -10.9220    -0.6130 C.3   1 <1>  -0.0720 
 24 C       -6.8670   -15.7710     0.1250 C.2   1 <1>  -0.1410 
 25 C       -4.4970   -16.0610    -0.0240 C.2   1 <1>  -0.1500 
 26 C       -5.7820   -16.6050     0.1770 C.2   1 <1>  -0.1500 
 27 H       -1.7870    -2.5350    -2.1630 H     1 <1>   0.1500 
 28 H        0.0090    -2.2650     1.6920 H     1 <1>   0.1500 
 29 H       -1.6110    -5.0000    -2.0810 H     1 <1>   0.1500 
 30 H        0.1920    -4.7280     1.7890 H     1 <1>   0.1500 
 31 H        0.2140    -6.8290     0.5570 H     1 <1>   0.0800 
 32 H       -0.3910    -6.9190    -1.0770 H     1 <1>   0.0800 
 33 H       -2.7070    -6.8700    -0.2470 H     1 <1>   0.0800 
 34 H       -2.1350    -6.7520     1.3960 H     1 <1>   0.0800 
 35 H       -1.3120    -8.9850     1.3170 H     1 <1>   0.3700 
 36 H       -1.3090   -11.1610     0.4620 H     1 <1>   0.0800 
 37 H       -1.7520   -11.4090    -1.1880 H     1 <1>   0.0800 
 38 H       -3.9840   -11.8760    -1.7980 H     1 <1>   0.0800 
 39 H       -4.7310   -10.5990    -0.8870 H     1 <1>   0.0800 
 40 H       -2.9480   -11.3720     2.2200 H     1 <1>   0.0800 
 41 H       -4.5660   -11.9060     1.8650 H     1 <1>   0.0800 
 42 H       -4.0890   -10.2620     1.4860 H     1 <1>   0.0800 
 43 H       -3.3630   -14.2860    -0.4210 H     1 <1>   0.1500 
 44 H       -8.5760   -13.5000    -0.0880 H     1 <1>   0.4500 
 45 H       -6.9420   -10.1180    -0.8160 H     1 <1>   0.0800 
 46 H       -8.1550   -10.6970     0.2950 H     1 <1>   0.0800 
 47 H       -8.3290   -10.9820    -1.4220 H     1 <1>   0.0800 
 48 H       -7.8660   -16.1360     0.2750 H     1 <1>   0.1500 
 49 H       -3.6430   -16.7150     0.0260 H     1 <1>   0.1500 
 50 H       -5.8850   -17.6610     0.3700 H     1 <1>   0.1500 
@<TRIPOS>BOND
  1   1   2  1   
  2   2   3  ar  
  3   2   4  ar  
  4   3   5  ar  
  5   3  27  1   
  6   4   6  ar  
  7   4  28  1   
  8   5   7  ar  
  9   5  29  1   
 10   6   7  ar  
 11   6  30  1   
 12   7   8  1   
 13   8   9  1   
 14   8  31  1   
 15   8  32  1   
 16   9  10  1   
 17   9  33  1   
 18   9  34  1   
 19  10  11  am  
 20  10  35  1   
 21  11  12  2   
 22  11  13  1   
 23  13  14  1   
 24  13  36  1   
 25  13  37  1   
 26  14  15  1   
 27  14  16  1   
 28  15  17  1   
 29  15  38  1   
 30  15  39  1   
 31  16  40  1   
 32  16  41  1   
 33  16  42  1   
 34  17  18  1   
 35  17  19  2   
 36  18  20  ar  
 37  18  21  1   
 38  19  22  1   
 39  19  23  1   
 40  20  22  ar  
 41  20  24  1   
 42  21  25  2   
 43  21  43  1   
 44  22  44  1   
 45  23  45  1   
 46  23  46  1   
 47  23  47  1   
 48  24  26  2   
 49  24  48  1   
 50  25  26  1   
 51  25  49  1   
 52  26  50  1   
@<TRIPOS>SUBSTRUCTURE
  1 ****  11 GROUP 4 **** **** 0

# MOE 2024.06 (io_trps.svl 2023.06)
