@<TRIPOS>MOLECULE
NONAME
49 51 1 0 0 
SMALL
USER_CHARGES


@<TRIPOS>ATOM
  1 O        2.7180    -1.4790    -1.9270 O.2   1 <1>  -0.5700 
  2 C        2.0980    -1.8440    -0.9400 C.2   1 <1>   0.5440 
  3 N        1.3300    -0.8890    -0.2980 N.am  1 <1>  -0.6600 
  4 C        2.2270    -3.2370    -0.5000 C.ar  1 <1>   0.3960 
  5 C        0.5750    -1.0710     0.9630 C.3   1 <1>   0.1400 
  6 C        1.1970     0.4980    -0.7960 C.3   1 <1>   0.1400 
  7 N        1.2410    -3.8530     0.1770 N.ar  1 <1>  -0.6200 
  8 C        3.4130    -3.9100    -0.8190 C.ar  1 <1>   0.1600 
  9 C        0.1860     0.3400     1.3900 C.3   1 <1>  -0.1600 
 10 C        0.1290     1.1330     0.0880 C.3   1 <1>  -0.1600 
 11 C        1.5110    -5.1000     0.4920 C.ar  1 <1>   0.4100 
 12 N        3.7050    -5.1650    -0.4990 N.ar  1 <1>  -0.6200 
 13 N        0.4990    -5.7240     1.1630 N.pl3 1 <1>  -0.8690 
 14 C        2.7220    -5.7310     0.1680 C.ar  1 <1>   0.1600 
 15 C       -0.1300    -6.9090     0.5670 C.3   1 <1>   0.4330 
 16 C       -1.6210    -6.6160     0.4380 C.ar  1 <1>  -0.1430 
 17 C        0.1710    -8.1290     1.4490 C.3   1 <1>  -0.1600 
 18 C       -2.4060    -6.3690     1.5580 C.ar  1 <1>  -0.1500 
 19 C       -2.2130    -6.5820    -0.8170 C.ar  1 <1>  -0.1500 
 20 C       -0.4380    -9.4300     0.9010 C.3   1 <1>  -0.2400 
 21 C       -3.7560    -6.1000     1.4220 C.ar  1 <1>  -0.1500 
 22 C       -3.5640    -6.3130    -0.9560 C.ar  1 <1>  -0.1500 
 23 C       -4.3450    -6.0700     0.1700 C.ar  1 <1>   0.0820 
 24 O       -5.6730    -5.8000     0.1250 O.3   1 <1>  -0.3620 
 25 C       -6.3690    -5.7420    -1.1000 C.3   1 <1>   0.0400 
 26 H        1.1760    -1.5600     1.7110 H     1 <1>   0.0800 
 27 H       -0.3060    -1.6570     0.7620 H     1 <1>   0.0800 
 28 H        0.9120     0.5050    -1.8350 H     1 <1>   0.0800 
 29 H        2.1400     1.0030    -0.6780 H     1 <1>   0.0800 
 30 H        4.1650    -3.3720    -1.3710 H     1 <1>   0.1500 
 31 H        0.9570     0.7360     2.0270 H     1 <1>   0.0800 
 32 H       -0.7490     0.3520     1.9210 H     1 <1>   0.0800 
 33 H       -0.8310     1.0020    -0.3790 H     1 <1>   0.0800 
 34 H        0.3070     2.1830     0.2370 H     1 <1>   0.0800 
 35 H       -0.2430    -5.0470     1.3610 H     1 <1>   0.4000 
 36 H        2.8570    -6.7460     0.4880 H     1 <1>   0.1500 
 37 H        0.2830    -7.0790    -0.4140 H     1 <1>   0.0800 
 38 H       -0.2040    -7.9570     2.4410 H     1 <1>   0.0800 
 39 H        1.2370    -8.2520     1.5170 H     1 <1>   0.0800 
 40 H       -1.9700    -6.3830     2.5420 H     1 <1>   0.1500 
 41 H       -1.6240    -6.7630    -1.6990 H     1 <1>   0.1500 
 42 H       -1.5120    -9.3630     0.8700 H     1 <1>   0.0800 
 43 H       -0.1710   -10.2560     1.5370 H     1 <1>   0.0800 
 44 H       -0.0740    -9.6310    -0.0910 H     1 <1>   0.0800 
 45 H       -4.3640    -5.9120     2.2890 H     1 <1>   0.1500 
 46 H       -3.9870    -6.2940    -1.9410 H     1 <1>   0.1500 
 47 H       -7.3980    -5.5160    -0.8890 H     1 <1>   0.0800 
 48 H       -6.2960    -6.6970    -1.5880 H     1 <1>   0.0800 
 49 H       -5.9410    -4.9640    -1.7080 H     1 <1>   0.0800 
@<TRIPOS>BOND
  1   1   2  2   
  2   2   3  am  
  3   2   4  1   
  4   3   5  1   
  5   3   6  1   
  6   4   7  ar  
  7   4   8  ar  
  8   5   9  1   
  9   5  26  1   
 10   5  27  1   
 11   6  10  1   
 12   6  28  1   
 13   6  29  1   
 14   7  11  ar  
 15   8  12  ar  
 16   8  30  1   
 17   9  10  1   
 18   9  31  1   
 19   9  32  1   
 20  10  33  1   
 21  10  34  1   
 22  11  13  1   
 23  11  14  ar  
 24  12  14  ar  
 25  13  15  1   
 26  13  35  1   
 27  14  36  1   
 28  15  16  1   
 29  15  17  1   
 30  15  37  1   
 31  16  18  ar  
 32  16  19  ar  
 33  17  20  1   
 34  17  38  1   
 35  17  39  1   
 36  18  21  ar  
 37  18  40  1   
 38  19  22  ar  
 39  19  41  1   
 40  20  42  1   
 41  20  43  1   
 42  20  44  1   
 43  21  23  ar  
 44  21  45  1   
 45  22  23  ar  
 46  22  46  1   
 47  23  24  1   
 48  24  25  1   
 49  25  47  1   
 50  25  48  1   
 51  25  49  1   
@<TRIPOS>SUBSTRUCTURE
  1 ****   7 GROUP 4 **** **** 0

# MOE 2024.06 (io_trps.svl 2023.06)
