@<TRIPOS>MOLECULE
NONAME
49 51 1 0 0 
SMALL
USER_CHARGES


@<TRIPOS>ATOM
  1 O        1.7920     2.2090     0.9110 O.co2 1 <1>  -0.9000 
  2 C        1.2370     2.4380    -0.1690 C.2   1 <1>   0.9060 
  3 O        1.9010     2.5650    -1.2040 O.co2 1 <1>  -0.9000 
  4 C       -0.2380     2.8680    -0.1560 C.3   1 <1>   0.0380 
  5 C       -1.2620     1.7470     0.0990 C.ar  1 <1>  -0.1440 
  6 C       -0.2660     3.9260     0.9360 C.3   1 <1>   0.3430 
  7 C       -0.5950     3.7160    -1.3870 C.3   1 <1>  -0.1600 
  8 C       -0.8710     0.4140     0.1290 C.ar  1 <1>  -0.1500 
  9 C       -2.6060     2.0450     0.3060 C.ar  1 <1>  -0.1500 
 10 N        0.2990     5.1680     0.3160 N.4   1 <1>  -0.9590 
 11 C        0.1890     5.0030    -1.1690 C.3   1 <1>   0.3430 
 12 C       -1.7930    -0.5920     0.3600 C.ar  1 <1>  -0.1500 
 13 C       -3.5290     1.0400     0.5370 C.ar  1 <1>  -0.1500 
 14 C        1.7340     5.3170     0.7050 C.3   1 <1>   0.5240 
 15 C       -3.1240    -0.2810     0.5650 C.ar  1 <1>  -0.1500 
 16 C        2.2360     6.6170     0.1180 C.2   1 <1>  -0.1810 
 17 C        3.0860     6.7180    -0.9780 C.2   1 <1>   0.1080 
 18 C        1.9830     7.8950     0.4870 C.2   1 <1>  -0.3320 
 19 N        3.3280     7.9500    -1.2850 N.2   1 <1>  -0.7070 
 20 C        3.6920     5.5720    -1.7670 C.3   1 <1>  -0.0590 
 21 N        2.6620     8.6850    -0.3790 N.pl3 1 <1>   0.3140 
 22 C        1.1350     8.4220     1.6360 C.3   1 <1>  -0.0600 
 23 C        2.7320    10.1630    -0.4070 C.3   1 <1>   0.0960 
 24 C        3.8740    10.6810     0.4760 C.3   1 <1>  -0.2400 
 25 H        0.2970     3.6090     1.8010 H     1 <1>   0.0800 
 26 H       -1.2860     4.1000     1.2310 H     1 <1>   0.0800 
 27 H       -1.6440     3.9400    -1.4300 H     1 <1>   0.0800 
 28 H       -0.3080     3.2320    -2.3050 H     1 <1>   0.0800 
 29 H        0.1590     0.1340    -0.0230 H     1 <1>   0.1500 
 30 H       -2.9560     3.0600     0.2870 H     1 <1>   0.1500 
 31 H       -0.1840     6.0170     0.6160 H     1 <1>   0.4500 
 32 H       -0.2910     5.8490    -1.6310 H     1 <1>   0.0800 
 33 H        1.1720     4.8790    -1.5970 H     1 <1>   0.0800 
 34 H       -1.4680    -1.6180     0.3810 H     1 <1>   0.1500 
 35 H       -4.5660     1.2840     0.6940 H     1 <1>   0.1500 
 36 H        2.3220     4.4920     0.3360 H     1 <1>   0.0800 
 37 H        1.8290     5.3420     1.7770 H     1 <1>   0.0800 
 38 H       -3.8390    -1.0640     0.7440 H     1 <1>   0.1500 
 39 H        3.7280     4.6670    -1.1890 H     1 <1>   0.0800 
 40 H        4.6940     5.8290    -2.0560 H     1 <1>   0.0800 
 41 H        3.1150     5.3940    -2.6550 H     1 <1>   0.0800 
 42 H        0.7340     7.6140     2.2190 H     1 <1>   0.0800 
 43 H        0.3190     9.0120     1.2570 H     1 <1>   0.0800 
 44 H        1.7340     9.0370     2.2840 H     1 <1>   0.0800 
 45 H        1.7920    10.5630    -0.0790 H     1 <1>   0.0800 
 46 H        2.8950    10.4680    -1.4250 H     1 <1>   0.0800 
 47 H        3.7240    10.3890     1.5000 H     1 <1>   0.0800 
 48 H        3.9170    11.7540     0.4260 H     1 <1>   0.0800 
 49 H        4.8130    10.2850     0.1290 H     1 <1>   0.0800 
@<TRIPOS>BOND
  1   1   2  ar  
  2   2   3  ar  
  3   2   4  1   
  4   4   5  1   
  5   4   6  1   
  6   4   7  1   
  7   5   8  ar  
  8   5   9  ar  
  9   6  10  1   
 10   6  25  1   
 11   6  26  1   
 12   7  11  1   
 13   7  27  1   
 14   7  28  1   
 15   8  12  ar  
 16   8  29  1   
 17   9  13  ar  
 18   9  30  1   
 19  10  11  1   
 20  10  14  1   
 21  10  31  1   
 22  11  32  1   
 23  11  33  1   
 24  12  15  ar  
 25  12  34  1   
 26  13  15  ar  
 27  13  35  1   
 28  14  16  1   
 29  14  36  1   
 30  14  37  1   
 31  15  38  1   
 32  16  17  1   
 33  16  18  2   
 34  17  19  2   
 35  17  20  1   
 36  18  21  1   
 37  18  22  1   
 38  19  21  1   
 39  20  39  1   
 40  20  40  1   
 41  20  41  1   
 42  21  23  1   
 43  22  42  1   
 44  22  43  1   
 45  22  44  1   
 46  23  24  1   
 47  23  45  1   
 48  23  46  1   
 49  24  47  1   
 50  24  48  1   
 51  24  49  1   
@<TRIPOS>SUBSTRUCTURE
  1 ****  10 GROUP 4 **** **** 0

# MOE 2024.06 (io_trps.svl 2023.06)
