@<TRIPOS>MOLECULE
NONAME
56 60 1 0 0 
SMALL
USER_CHARGES


@<TRIPOS>ATOM
  1 S       -0.8780    -0.7340     0.9030 S.o2  1 <1>   1.3330 
  2 O        0.2000    -0.2460     1.7300 O.2   1 <1>  -0.6500 
  3 O       -1.7340    -1.8040     1.3530 O.2   1 <1>  -0.6500 
  4 N       -0.2160    -1.3210    -0.5180 N.am  1 <1>  -0.9140 
  5 C       -1.8610     0.6380     0.3420 C.3   1 <1>  -0.1350 
  6 C        1.1060    -1.9310    -0.3880 C.3   1 <1>   0.1960 
  7 C        1.0960    -3.2050     0.4810 C.3   1 <1>  -0.0800 
  8 C        0.3100    -4.3480    -0.1820 C.3   1 <1>   0.2000 
  9 C        2.4720    -3.8880     0.6650 C.3   1 <1>  -0.0800 
 10 O        1.3030    -4.9450    -0.9280 O.3   1 <1>  -0.5600 
 11 C       -0.0160    -5.4580     0.8260 C.3   1 <1>  -0.1600 
 12 C        2.2060    -5.2660     0.0690 C.3   1 <1>   0.2800 
 13 C        3.6950    -3.3840    -0.1170 C.3   1 <1>   0.1400 
 14 C        1.3490    -6.1360     0.9890 C.3   1 <1>  -0.1600 
 15 C        3.5400    -5.7900    -0.4620 C.3   1 <1>   0.1400 
 16 N        4.4410    -4.6040    -0.5070 N.am  1 <1>  -0.6600 
 17 C        5.8140    -4.7160    -0.5120 C.2   1 <1>   0.7150 
 18 O        6.2980    -5.8300    -0.4080 O.2   1 <1>  -0.5700 
 19 C        6.6590    -3.5540    -0.6360 C.2   1 <1>  -0.0450 
 20 S        8.2540    -3.5780     0.1130 S.3   1 <1>  -0.0800 
 21 C        6.5000    -2.3490    -1.2430 C.2   1 <1>  -0.1500 
 22 C        8.6400    -1.9410    -0.4030 C.2   1 <1>  -0.0130 
 23 C        7.5940    -1.4520    -1.1190 C.2   1 <1>  -0.1810 
 24 C        9.9150    -1.3930    -0.0140 C.ar  1 <1>   0.0530 
 25 C        7.5270    -0.0870    -1.7800 C.3   1 <1>  -0.0590 
 26 C       10.0110    -0.1210     0.5480 C.ar  1 <1>  -0.1500 
 27 C       11.0950    -2.1160    -0.1830 C.ar  1 <1>  -0.1500 
 28 C       11.2330     0.4120     0.9170 C.ar  1 <1>  -0.1500 
 29 C       12.3200    -1.5890     0.1850 C.ar  1 <1>  -0.1500 
 30 C       12.3910    -0.3220     0.7350 C.ar  1 <1>  -0.1500 
 31 H       -0.8660    -2.0450    -0.8180 H     1 <1>   0.4200 
 32 H       -1.2340     1.3720    -0.1250 H     1 <1>   0.0800 
 33 H       -2.3640     1.0930     1.1730 H     1 <1>   0.0800 
 34 H       -2.5940     0.3060    -0.3660 H     1 <1>   0.0800 
 35 H        1.4490    -2.1810    -1.3780 H     1 <1>   0.0800 
 36 H        1.7900    -1.2100     0.0290 H     1 <1>   0.0800 
 37 H        0.6900    -2.9810     1.4500 H     1 <1>   0.0800 
 38 H       -0.5200    -4.0510    -0.7990 H     1 <1>   0.0800 
 39 H        2.7330    -3.9730     1.7050 H     1 <1>   0.0800 
 40 H       -0.4000    -5.0600     1.7490 H     1 <1>   0.0800 
 41 H       -0.7350    -6.1370     0.4040 H     1 <1>   0.0800 
 42 H        4.2970    -2.7310     0.4930 H     1 <1>   0.0800 
 43 H        3.4140    -2.8770    -1.0210 H     1 <1>   0.0800 
 44 H        1.3230    -7.1480     0.6260 H     1 <1>   0.0800 
 45 H        1.7050    -6.1230     2.0040 H     1 <1>   0.0800 
 46 H        3.4230    -6.2240    -1.4390 H     1 <1>   0.0800 
 47 H        3.9460    -6.5210     0.2160 H     1 <1>   0.0800 
 48 H        5.6220    -2.0690    -1.7980 H     1 <1>   0.1500 
 49 H        7.2540    -0.1950    -2.8140 H     1 <1>   0.0800 
 50 H        8.4800     0.4080    -1.7360 H     1 <1>   0.0800 
 51 H        6.7940     0.5260    -1.2870 H     1 <1>   0.0800 
 52 H        9.1140     0.4500     0.7010 H     1 <1>   0.1500 
 53 H       11.0470    -3.1010    -0.6120 H     1 <1>   0.1500 
 54 H       11.2840     1.3970     1.3480 H     1 <1>   0.1500 
 55 H       13.2170    -2.1660     0.0440 H     1 <1>   0.1500 
 56 H       13.3430     0.0900     1.0220 H     1 <1>   0.1500 
@<TRIPOS>BOND
  1   1   2  2   
  2   1   3  2   
  3   1   4  am  
  4   1   5  1   
  5   4   6  1   
  6   4  31  1   
  7   5  32  1   
  8   5  33  1   
  9   5  34  1   
 10   6   7  1   
 11   6  35  1   
 12   6  36  1   
 13   7   8  1   
 14   7   9  1   
 15   7  37  1   
 16   8  10  1   
 17   8  11  1   
 18   8  38  1   
 19   9  12  1   
 20   9  13  1   
 21   9  39  1   
 22  10  12  1   
 23  11  14  1   
 24  11  40  1   
 25  11  41  1   
 26  12  14  1   
 27  12  15  1   
 28  13  16  1   
 29  13  42  1   
 30  13  43  1   
 31  14  44  1   
 32  14  45  1   
 33  15  16  1   
 34  15  46  1   
 35  15  47  1   
 36  16  17  am  
 37  17  18  2   
 38  17  19  1   
 39  19  20  1   
 40  19  21  2   
 41  20  22  1   
 42  21  23  1   
 43  21  48  1   
 44  22  23  2   
 45  22  24  1   
 46  23  25  1   
 47  24  26  ar  
 48  24  27  ar  
 49  25  49  1   
 50  25  50  1   
 51  25  51  1   
 52  26  28  ar  
 53  26  52  1   
 54  27  29  ar  
 55  27  53  1   
 56  28  30  ar  
 57  28  54  1   
 58  29  30  ar  
 59  29  55  1   
 60  30  56  1   
@<TRIPOS>SUBSTRUCTURE
  1 ****  13 GROUP 4 **** **** 0

# MOE 2024.06 (io_trps.svl 2023.06)
