@<TRIPOS>MOLECULE
NONAME
56 59 1 0 0 
SMALL
USER_CHARGES


@<TRIPOS>ATOM
  1 O        2.9650     3.3530    -0.6390 O.2   1 <1>  -0.5700 
  2 C        3.2860     2.2890    -0.1440 C.2   1 <1>   0.5440 
  3 N        2.3040     1.4380     0.3240 N.am  1 <1>  -0.6600 
  4 C        4.6950     1.9560    -0.0660 C.ar  1 <1>   0.0860 
  5 C        0.8740     1.8540     0.3930 C.3   1 <1>   0.1400 
  6 C        2.5340    -0.0010     0.6360 C.3   1 <1>   0.1400 
  7 C        5.3130     1.6740     1.1510 C.ar  1 <1>  -0.1500 
  8 C        5.4840     1.9220    -1.2130 C.ar  1 <1>  -0.1500 
  9 C        0.0390     0.9980    -0.5640 C.3   1 <1>  -0.1600 
 10 C        1.7090    -0.8750    -0.3150 C.3   1 <1>  -0.1600 
 11 C        6.6590     1.3620     1.2200 C.ar  1 <1>  -0.1500 
 12 C        6.8300     1.6140    -1.1510 C.ar  1 <1>  -0.1500 
 13 C        0.2210    -0.5010    -0.2850 C.3   1 <1>  -0.1600 
 14 C        7.4290     1.3300     0.0680 C.ar  1 <1>  -0.1430 
 15 C        8.9150     1.0150     0.1400 C.3   1 <1>   0.3530 
 16 N        9.6370     2.2410     0.5310 N.pl3 1 <1>  -0.8690 
 17 C        9.7290     3.2500    -0.3850 C.ar  1 <1>   0.4100 
 18 N        9.0280     4.3110    -0.0570 N.ar  1 <1>  -0.6200 
 19 C       10.4780     3.1540    -1.5680 C.ar  1 <1>   0.1600 
 20 C        9.0570     5.2830    -0.9850 C.ar  1 <1>   0.3960 
 21 N       10.5440     4.0930    -2.4890 N.ar  1 <1>  -0.6200 
 22 C        8.2870     6.5130    -0.8090 C.2   1 <1>   0.5440 
 23 C        9.8150     5.1510    -2.1530 C.ar  1 <1>   0.1600 
 24 O        8.7550     7.5700    -1.2030 O.2   1 <1>  -0.5700 
 25 N        7.0240     6.5440    -0.2490 N.am  1 <1>  -0.6600 
 26 C        6.2020     5.3600     0.0970 C.3   1 <1>   0.1400 
 27 C        6.2570     7.7930    -0.0580 C.3   1 <1>   0.1400 
 28 C        4.7910     5.9050     0.2770 C.3   1 <1>  -0.1600 
 29 C        4.9880     7.3660     0.6700 C.3   1 <1>  -0.1600 
 30 H        0.7640     2.8940     0.1370 H     1 <1>   0.0800 
 31 H        0.5220     1.7240     1.4020 H     1 <1>   0.0800 
 32 H        2.2380    -0.1890     1.6540 H     1 <1>   0.0800 
 33 H        3.5730    -0.2600     0.5350 H     1 <1>   0.0800 
 34 H        4.7240     1.7070     2.0520 H     1 <1>   0.1500 
 35 H        5.0270     2.1500    -2.1600 H     1 <1>   0.1500 
 36 H        0.3380     1.2210    -1.5730 H     1 <1>   0.0800 
 37 H       -0.9980     1.2630    -0.4630 H     1 <1>   0.0800 
 38 H        1.8270    -1.9080    -0.0420 H     1 <1>   0.0800 
 39 H        2.0920    -0.7540    -1.3140 H     1 <1>   0.0800 
 40 H        7.1060     1.1520     2.1760 H     1 <1>   0.1500 
 41 H        7.4130     1.6070    -2.0570 H     1 <1>   0.1500 
 42 H       -0.3140    -1.0750    -1.0220 H     1 <1>   0.0800 
 43 H       -0.1890    -0.7360     0.6820 H     1 <1>   0.0800 
 44 H        9.2720     0.6620    -0.8130 H     1 <1>   0.0800 
 45 H        9.0940     0.2460     0.8720 H     1 <1>   0.0800 
 46 H        9.2050     2.6270     1.3750 H     1 <1>   0.4000 
 47 H       11.0370     2.2520    -1.7310 H     1 <1>   0.1500 
 48 H        9.8100     5.9740    -2.8470 H     1 <1>   0.1500 
 49 H        6.5610     4.9370     1.0200 H     1 <1>   0.0800 
 50 H        6.2390     4.6160    -0.6800 H     1 <1>   0.0800 
 51 H        6.0210     8.2090    -1.0220 H     1 <1>   0.0800 
 52 H        6.8270     8.5060     0.5140 H     1 <1>   0.0800 
 53 H        4.2380     5.3480     1.0120 H     1 <1>   0.0800 
 54 H        4.2720     5.8430    -0.6630 H     1 <1>   0.0800 
 55 H        4.1460     7.9800     0.4010 H     1 <1>   0.0800 
 56 H        5.1520     7.4400     1.7310 H     1 <1>   0.0800 
@<TRIPOS>BOND
  1   1   2  2   
  2   2   3  am  
  3   2   4  1   
  4   3   5  1   
  5   3   6  1   
  6   4   7  ar  
  7   4   8  ar  
  8   5   9  1   
  9   5  30  1   
 10   5  31  1   
 11   6  10  1   
 12   6  32  1   
 13   6  33  1   
 14   7  11  ar  
 15   7  34  1   
 16   8  12  ar  
 17   8  35  1   
 18   9  13  1   
 19   9  36  1   
 20   9  37  1   
 21  10  13  1   
 22  10  38  1   
 23  10  39  1   
 24  11  14  ar  
 25  11  40  1   
 26  12  14  ar  
 27  12  41  1   
 28  13  42  1   
 29  13  43  1   
 30  14  15  1   
 31  15  16  1   
 32  15  44  1   
 33  15  45  1   
 34  16  17  1   
 35  16  46  1   
 36  17  18  ar  
 37  17  19  ar  
 38  18  20  ar  
 39  19  21  ar  
 40  19  47  1   
 41  20  22  1   
 42  20  23  ar  
 43  21  23  ar  
 44  22  24  2   
 45  22  25  am  
 46  23  48  1   
 47  25  26  1   
 48  25  27  1   
 49  26  28  1   
 50  26  49  1   
 51  26  50  1   
 52  27  29  1   
 53  27  51  1   
 54  27  52  1   
 55  28  29  1   
 56  28  53  1   
 57  28  54  1   
 58  29  55  1   
 59  29  56  1   
@<TRIPOS>SUBSTRUCTURE
  1 ****   8 GROUP 4 **** **** 0

# MOE 2024.06 (io_trps.svl 2023.06)
