@<TRIPOS>MOLECULE
NONAME
57 61 1 0 0 
SMALL
USER_CHARGES


@<TRIPOS>ATOM
  1 O       -2.7830    -0.4630     0.7890 O.2   1 <1>  -0.5700 
  2 C       -2.2300    -1.1400    -0.0510 C.2   1 <1>   0.7800 
  3 O       -2.2030    -0.7890    -1.3270 O.3   1 <1>  -0.4300 
  4 N       -1.6400    -2.3360     0.1550 N.am  1 <1>  -0.6600 
  5 C       -1.5970    -1.7990    -2.1140 C.3   1 <1>   0.1200 
  6 C       -1.2310    -2.9150    -1.1270 C.3   1 <1>   0.1400 
  7 C       -1.7820    -3.1750     1.3850 C.3   1 <1>   0.2010 
  8 C       -2.7770    -4.3260     1.2140 C.2   1 <1>   0.5690 
  9 O       -2.3330    -5.4250     0.9680 O.2   1 <1>  -0.5700 
 10 N       -4.1250    -4.1120     1.3150 N.am  1 <1>  -0.6600 
 11 C       -5.1290    -5.1480     0.9570 C.3   1 <1>   0.1400 
 12 C       -4.7880    -2.7970     1.4980 C.3   1 <1>   0.1400 
 13 C       -6.4620    -4.4050     0.8840 C.3   1 <1>   0.2800 
 14 C       -6.2850    -3.1030     1.6590 C.3   1 <1>  -0.0800 
 15 O       -6.7520    -3.9140    -0.3770 O.3   1 <1>  -0.5600 
 16 C       -7.7650    -5.1220     1.2400 C.3   1 <1>  -0.1600 
 17 C       -7.3240    -2.1940     0.9650 C.3   1 <1>  -0.0800 
 18 C       -7.8720    -3.1600    -0.0980 C.3   1 <1>   0.2000 
 19 C       -8.7850    -4.2170     0.5380 C.3   1 <1>  -0.1600 
 20 C       -6.7720    -0.8980     0.3480 C.3   1 <1>   0.1400 
 21 N       -7.8700    -0.1010    -0.2490 N.am  1 <1>  -0.7300 
 22 C       -8.7410     0.6900     0.4430 C.2   1 <1>   0.7160 
 23 O       -8.6900     0.6840     1.6570 O.2   1 <1>  -0.5700 
 24 C       -9.6950     1.5020    -0.2780 C.2   1 <1>  -0.0860 
 25 C      -10.4840     2.5310     0.1470 C.2   1 <1>  -0.0400 
 26 C      -10.0180     1.3750    -1.6480 C.2   1 <1>  -0.1500 
 27 O      -11.2160     3.0020    -0.8330 O.3   1 <1>  -0.2800 
 28 C      -10.6410     3.1890     1.5040 C.3   1 <1>  -0.0600 
 29 C      -10.9440     2.3150    -1.9180 C.2   1 <1>  -0.0400 
 30 C      -11.6690     2.6670    -3.1970 C.3   1 <1>  -0.0600 
 31 H       -2.3040    -2.1360    -2.8520 H     1 <1>   0.0800 
 32 H       -0.7250    -1.3880    -2.5910 H     1 <1>   0.0800 
 33 H       -0.1740    -3.1190    -1.1370 H     1 <1>   0.0800 
 34 H       -1.7820    -3.8150    -1.3400 H     1 <1>   0.0800 
 35 H       -0.8220    -3.5880     1.6340 H     1 <1>   0.0800 
 36 H       -2.0940    -2.5570     2.2070 H     1 <1>   0.0800 
 37 H       -4.8920    -5.6160     0.0180 H     1 <1>   0.0800 
 38 H       -5.1550    -5.8880     1.7370 H     1 <1>   0.0800 
 39 H       -4.4000    -2.2720     2.3540 H     1 <1>   0.0800 
 40 H       -4.6070    -2.2230     0.6100 H     1 <1>   0.0800 
 41 H       -6.5090    -3.2450     2.7010 H     1 <1>   0.0800 
 42 H       -7.7730    -6.1110     0.8180 H     1 <1>   0.0800 
 43 H       -7.9160    -5.1760     2.3030 H     1 <1>   0.0800 
 44 H       -8.0980    -1.9320     1.6660 H     1 <1>   0.0800 
 45 H       -8.2690    -2.6970    -0.9850 H     1 <1>   0.0800 
 46 H       -9.4940    -3.7790     1.2180 H     1 <1>   0.0800 
 47 H       -9.3120    -4.7550    -0.2300 H     1 <1>   0.0800 
 48 H       -6.0540    -1.1230    -0.4210 H     1 <1>   0.0800 
 49 H       -6.2850    -0.3110     1.1100 H     1 <1>   0.0800 
 50 H       -7.8360     0.0070    -1.2620 H     1 <1>   0.3700 
 51 H       -9.5980     0.6570    -2.3270 H     1 <1>   0.1500 
 52 H       -9.9750     2.7590     2.2280 H     1 <1>   0.0800 
 53 H      -11.6510     3.0670     1.8490 H     1 <1>   0.0800 
 54 H      -10.4270     4.2390     1.4220 H     1 <1>   0.0800 
 55 H      -11.3490     2.0240    -3.9970 H     1 <1>   0.0800 
 56 H      -11.4610     3.6880    -3.4620 H     1 <1>   0.0800 
 57 H      -12.7280     2.5520    -3.0560 H     1 <1>   0.0800 
@<TRIPOS>BOND
  1   1   2  2   
  2   2   3  1   
  3   2   4  am  
  4   3   5  1   
  5   4   6  1   
  6   4   7  1   
  7   5   6  1   
  8   5  31  1   
  9   5  32  1   
 10   6  33  1   
 11   6  34  1   
 12   7   8  1   
 13   7  35  1   
 14   7  36  1   
 15   8   9  2   
 16   8  10  am  
 17  10  11  1   
 18  10  12  1   
 19  11  13  1   
 20  11  37  1   
 21  11  38  1   
 22  12  14  1   
 23  12  39  1   
 24  12  40  1   
 25  13  14  1   
 26  13  15  1   
 27  13  16  1   
 28  14  17  1   
 29  14  41  1   
 30  15  18  1   
 31  16  19  1   
 32  16  42  1   
 33  16  43  1   
 34  17  18  1   
 35  17  20  1   
 36  17  44  1   
 37  18  19  1   
 38  18  45  1   
 39  19  46  1   
 40  19  47  1   
 41  20  21  1   
 42  20  48  1   
 43  20  49  1   
 44  21  22  am  
 45  21  50  1   
 46  22  23  2   
 47  22  24  1   
 48  24  25  2   
 49  24  26  1   
 50  25  27  1   
 51  25  28  1   
 52  26  29  2   
 53  26  51  1   
 54  27  29  1   
 55  28  52  1   
 56  28  53  1   
 57  28  54  1   
 58  29  30  1   
 59  30  55  1   
 60  30  56  1   
 61  30  57  1   
@<TRIPOS>SUBSTRUCTURE
  1 ****  20 GROUP 4 **** **** 0

# MOE 2024.06 (io_trps.svl 2023.06)
