@<TRIPOS>MOLECULE
NONAME
46 48 1 0 0 
SMALL
USER_CHARGES


@<TRIPOS>ATOM
  1 F        0.1570     1.0740     2.2150 F     1 <1>  -0.3400 
  2 C        1.2640     0.9080     1.4990 C.3   1 <1>   1.1640 
  3 F        1.1100    -0.2350     0.8420 F     1 <1>  -0.3400 
  4 F        2.2420     0.7050     2.3750 F     1 <1>  -0.3400 
  5 C        1.5200     2.0870     0.5500 C.ar  1 <1>  -0.1440 
  6 C        2.7340     2.7650     0.5380 C.ar  1 <1>  -0.1500 
  7 C        0.5220     2.4980    -0.3290 C.ar  1 <1>  -0.1500 
  8 C        2.9610     3.8290    -0.3220 C.ar  1 <1>   0.1000 
  9 C        0.7350     3.5590    -1.1930 C.ar  1 <1>  -0.1500 
 10 N        4.1890     4.4740    -0.2960 N.pl3 1 <1>  -0.8380 
 11 C        1.9480     4.2190    -1.1890 C.ar  1 <1>  -0.1500 
 12 C        4.1900     5.8720     0.2300 C.3   1 <1>   0.2090 
 13 C        5.0310     4.3500    -1.5210 C.3   1 <1>   0.2090 
 14 C        5.6270     6.3880     0.4380 C.3   1 <1>   0.1100 
 15 C        6.4530     4.8890    -1.2730 C.3   1 <1>   0.1100 
 16 N        6.4450     6.2920    -0.7980 N.3   1 <1>  -0.8100 
 17 C        7.8220     6.7720    -0.5660 C.3   1 <1>   0.2480 
 18 C        7.8530     8.2770    -0.3090 C.2   1 <1>  -0.0380 
 19 N        7.0020     9.0520    -1.0520 N.pl3 1 <1>  -0.6000 
 20 C        8.6710     8.8700     0.6020 C.2   1 <1>  -0.1360 
 21 C        6.9600    10.4230    -0.9050 C.2   1 <1>  -0.0500 
 22 C        8.6740    10.2760     0.8000 C.2   1 <1>   0.5410 
 23 C        7.7730    11.0530    -0.0130 C.2   1 <1>   0.0910 
 24 O        9.4340    10.7520     1.6470 O.2   1 <1>  -0.5700 
 25 O        7.6700    12.4200     0.0710 O.3   1 <1>  -0.3570 
 26 C        8.8530    13.1820     0.1960 C.3   1 <1>   0.0400 
 27 H        3.5370     2.4850     1.1970 H     1 <1>   0.1500 
 28 H       -0.4300     1.9920    -0.3450 H     1 <1>   0.1500 
 29 H       -0.0440     3.8680    -1.8680 H     1 <1>   0.1500 
 30 H        2.1160     5.0430    -1.8570 H     1 <1>   0.1500 
 31 H        3.6610     5.8980     1.1660 H     1 <1>   0.0800 
 32 H        3.6800     6.5180    -0.4620 H     1 <1>   0.0800 
 33 H        4.5800     4.9010    -2.3280 H     1 <1>   0.0800 
 34 H        5.0840     3.3140    -1.8090 H     1 <1>   0.0800 
 35 H        6.0850     5.8140     1.2260 H     1 <1>   0.0800 
 36 H        5.5760     7.4130     0.7600 H     1 <1>   0.0800 
 37 H        7.0080     4.8270    -2.1930 H     1 <1>   0.0800 
 38 H        6.9350     4.2580    -0.5460 H     1 <1>   0.0800 
 39 H        8.4110     6.5770    -1.4460 H     1 <1>   0.0800 
 40 H        8.2670     6.2420     0.2590 H     1 <1>   0.0800 
 41 H        6.3480     8.5460    -1.6720 H     1 <1>   0.4000 
 42 H        9.3510     8.3060     1.2090 H     1 <1>   0.1500 
 43 H        6.2650    10.9750    -1.5150 H     1 <1>   0.1500 
 44 H        8.6310    14.1950    -0.0880 H     1 <1>   0.0800 
 45 H        9.6090    12.7750    -0.4530 H     1 <1>   0.0800 
 46 H        9.1790    13.1580     1.2200 H     1 <1>   0.0800 
@<TRIPOS>BOND
  1   1   2  1   
  2   2   3  1   
  3   2   4  1   
  4   2   5  1   
  5   5   6  ar  
  6   5   7  ar  
  7   6   8  ar  
  8   6  27  1   
  9   7   9  ar  
 10   7  28  1   
 11   8  10  1   
 12   8  11  ar  
 13   9  11  ar  
 14   9  29  1   
 15  10  12  1   
 16  10  13  1   
 17  11  30  1   
 18  12  14  1   
 19  12  31  1   
 20  12  32  1   
 21  13  15  1   
 22  13  33  1   
 23  13  34  1   
 24  14  16  1   
 25  14  35  1   
 26  14  36  1   
 27  15  16  1   
 28  15  37  1   
 29  15  38  1   
 30  16  17  1   
 31  17  18  1   
 32  17  39  1   
 33  17  40  1   
 34  18  19  1   
 35  18  20  2   
 36  19  21  1   
 37  19  41  1   
 38  20  22  1   
 39  20  42  1   
 40  21  23  2   
 41  21  43  1   
 42  22  23  1   
 43  22  24  2   
 44  23  25  1   
 45  25  26  1   
 46  26  44  1   
 47  26  45  1   
 48  26  46  1   
@<TRIPOS>SUBSTRUCTURE
  1 ****  12 GROUP 4 **** **** 0

# MOE 2024.06 (io_trps.svl 2023.06)
