@<TRIPOS>MOLECULE
NONAME
50 53 1 0 0 
SMALL
USER_CHARGES


@<TRIPOS>ATOM
  1 F       -1.3660    -0.3430    -1.8090 F     1 <1>  -0.1900 
  2 C       -2.2560     0.4220    -1.2400 C.ar  1 <1>   0.1900 
  3 C       -3.2340    -0.1380    -0.4670 C.ar  1 <1>  -0.1500 
  4 C       -2.1650     1.7970    -1.4510 C.ar  1 <1>  -0.1500 
  5 C       -4.2040     0.6840     0.1490 C.ar  1 <1>   0.0000 
  6 C       -3.0970     2.6070    -0.8570 C.ar  1 <1>  -0.1500 
  7 C       -4.1270     2.0830    -0.0530 C.ar  1 <1>   0.3100 
  8 C       -5.2590     0.1880     0.9540 C.ar  1 <1>   0.0860 
  9 N       -5.0060     2.9550     0.4920 N.ar  1 <1>  -0.6200 
 10 C       -5.4460    -1.2250     1.1900 C.2   1 <1>   0.5440 
 11 C       -6.1130     1.1140     1.4950 C.ar  1 <1>  -0.1500 
 12 C       -5.9500     2.4770     1.2390 C.ar  1 <1>   0.1670 
 13 O       -4.5960    -1.8660     1.7780 O.2   1 <1>  -0.5700 
 14 N       -6.5790    -1.8670     0.7520 N.am  1 <1>  -0.6600 
 15 C       -6.9100     3.4750     1.8520 C.3   1 <1>  -0.0970 
 16 C       -7.5200    -1.3360    -0.2680 C.3   1 <1>   0.1400 
 17 C       -6.8380    -3.3080     0.9730 C.3   1 <1>   0.1400 
 18 C       -8.4310    -2.5120    -0.6500 C.3   1 <1>   0.2000 
 19 C       -7.6150    -3.7520    -0.2670 C.3   1 <1>  -0.0800 
 20 O       -9.5950    -2.4810     0.1270 O.3   1 <1>  -0.5600 
 21 C       -8.4450    -5.0290    -0.0480 C.3   1 <1>   0.0200 
 22 C      -10.6340    -1.7100    -0.3900 C.3   1 <1>   0.0400 
 23 C       -7.5890    -6.2680     0.1550 C.2   1 <1>  -0.0400 
 24 O       -8.1780    -7.4000     0.4330 O.3   1 <1>  -0.0190 
 25 C       -6.2660    -6.4990     0.1090 C.2   1 <1>  -0.1500 
 26 N       -7.3250    -8.3730     0.5780 N.2   1 <1>  -0.4100 
 27 C       -6.1640    -7.8580     0.3900 C.2   1 <1>   0.1080 
 28 C       -4.8670    -8.6320     0.4660 C.3   1 <1>  -0.0590 
 29 H       -3.2540    -1.2040    -0.3280 H     1 <1>   0.1500 
 30 H       -1.3740     2.1880    -2.0670 H     1 <1>   0.1500 
 31 H       -3.0660     3.6730    -0.9890 H     1 <1>   0.1500 
 32 H       -6.9200     0.7880     2.1260 H     1 <1>   0.1500 
 33 H       -7.6530     2.9860     2.4550 H     1 <1>   0.0800 
 34 H       -7.4020     4.0260     1.0710 H     1 <1>   0.0800 
 35 H       -6.3630     4.1650     2.4680 H     1 <1>   0.0800 
 36 H       -8.0880    -0.5110     0.1250 H     1 <1>   0.0800 
 37 H       -6.9580    -1.0150    -1.1270 H     1 <1>   0.0800 
 38 H       -5.9210    -3.8580     1.0940 H     1 <1>   0.0800 
 39 H       -7.4410    -3.4180     1.8580 H     1 <1>   0.0800 
 40 H       -8.6970    -2.5130    -1.6940 H     1 <1>   0.0800 
 41 H       -6.9040    -3.9310    -1.0550 H     1 <1>   0.0800 
 42 H       -9.0790    -5.1930    -0.9010 H     1 <1>   0.0800 
 43 H       -9.0820    -4.9070     0.8120 H     1 <1>   0.0800 
 44 H      -11.4550    -1.7510     0.3040 H     1 <1>   0.0800 
 45 H      -10.9420    -2.1190    -1.3370 H     1 <1>   0.0800 
 46 H      -10.3080    -0.6910    -0.5030 H     1 <1>   0.0800 
 47 H       -5.4470    -5.8340    -0.0920 H     1 <1>   0.1500 
 48 H       -4.2420    -8.2190     1.2350 H     1 <1>   0.0800 
 49 H       -4.3540    -8.5780    -0.4770 H     1 <1>   0.0800 
 50 H       -5.0680    -9.6630     0.6950 H     1 <1>   0.0800 
@<TRIPOS>BOND
  1   1   2  1   
  2   2   3  ar  
  3   2   4  ar  
  4   3   5  ar  
  5   3  29  1   
  6   4   6  ar  
  7   4  30  1   
  8   5   7  ar  
  9   5   8  ar  
 10   6   7  ar  
 11   6  31  1   
 12   7   9  ar  
 13   8  10  1   
 14   8  11  ar  
 15   9  12  ar  
 16  10  13  2   
 17  10  14  am  
 18  11  12  ar  
 19  11  32  1   
 20  12  15  1   
 21  14  16  1   
 22  14  17  1   
 23  15  33  1   
 24  15  34  1   
 25  15  35  1   
 26  16  18  1   
 27  16  36  1   
 28  16  37  1   
 29  17  19  1   
 30  17  38  1   
 31  17  39  1   
 32  18  19  1   
 33  18  20  1   
 34  18  40  1   
 35  19  21  1   
 36  19  41  1   
 37  20  22  1   
 38  21  23  1   
 39  21  42  1   
 40  21  43  1   
 41  22  44  1   
 42  22  45  1   
 43  22  46  1   
 44  23  24  1   
 45  23  25  2   
 46  24  26  1   
 47  25  27  1   
 48  25  47  1   
 49  26  27  2   
 50  27  28  1   
 51  28  48  1   
 52  28  49  1   
 53  28  50  1   
@<TRIPOS>SUBSTRUCTURE
  1 ****  14 GROUP 4 **** **** 0

# MOE 2024.06 (io_trps.svl 2023.06)
