@<TRIPOS>MOLECULE
NONAME
54 56 1 0 0 
SMALL
USER_CHARGES


@<TRIPOS>ATOM
  1 O       -0.3760    -1.3110     1.2020 O.2   1 <1>  -0.5700 
  2 C        0.8090    -1.5130     1.0790 C.2   1 <1>   0.5690 
  3 N        1.3030    -2.4730     0.2300 N.am  1 <1>  -0.6600 
  4 C        1.7490    -0.6700     1.9250 C.3   1 <1>  -0.0990 
  5 C        2.7560    -2.6780    -0.0300 C.3   1 <1>   0.1400 
  6 C        0.3860    -3.3140    -0.5820 C.3   1 <1>   0.1400 
  7 C        3.1940    -0.6520     1.4100 C.3   1 <1>  -0.1600 
  8 C        3.6300    -2.0800     1.0760 C.3   1 <1>  -0.1600 
  9 C        0.2220    -4.6880     0.0720 C.3   1 <1>  -0.1600 
 10 C       -0.8540    -5.5250    -0.6460 C.3   1 <1>  -0.0990 
 11 C       -1.0370    -6.9320    -0.0830 C.2   1 <1>   0.5690 
 12 O       -0.1980    -7.3650     0.6690 O.2   1 <1>  -0.5700 
 13 N       -2.1230    -7.6780    -0.4550 N.am  1 <1>  -0.6600 
 14 C       -2.3010    -9.0710     0.0860 C.3   1 <1>   0.3640 
 15 C       -3.2100    -7.1780    -1.3550 C.3   1 <1>   0.1400 
 16 C       -1.7330   -10.1430    -0.8620 C.ar  1 <1>  -0.1440 
 17 C       -3.7930    -9.3710     0.4420 C.3   1 <1>   0.2000 
 18 C       -4.3150    -8.2200    -1.5760 C.3   1 <1>   0.1200 
 19 C       -1.5840   -11.4330    -0.3670 C.ar  1 <1>  -0.1500 
 20 C       -1.3490    -9.8930    -2.1760 C.ar  1 <1>  -0.1500 
 21 O       -4.7540    -8.6950    -0.3430 O.3   1 <1>  -0.5600 
 22 C       -4.0940    -9.0140     1.9020 C.3   1 <1>   0.1200 
 23 C       -1.0890   -12.4500    -1.1640 C.ar  1 <1>  -0.1500 
 24 C       -0.8540   -10.9090    -2.9760 C.ar  1 <1>  -0.1500 
 25 O       -3.4970    -9.9390     2.7550 O.3   1 <1>  -0.6800 
 26 C       -0.7270   -12.1900    -2.4720 C.ar  1 <1>  -0.1500 
 27 H        1.3690     0.3350     1.9680 H     1 <1>   0.0800 
 28 H        1.7290    -1.0710     2.9210 H     1 <1>   0.0800 
 29 H        2.9650    -3.7310    -0.1130 H     1 <1>   0.0800 
 30 H        3.0010    -2.2130    -0.9700 H     1 <1>   0.0800 
 31 H       -0.5750    -2.8340    -0.6560 H     1 <1>   0.0800 
 32 H        0.7780    -3.4180    -1.5790 H     1 <1>   0.0800 
 33 H        3.2530    -0.0420     0.5250 H     1 <1>   0.0800 
 34 H        3.8430    -0.2280     2.1570 H     1 <1>   0.0800 
 35 H        3.5610    -2.7000     1.9530 H     1 <1>   0.0800 
 36 H        4.6560    -2.0840     0.7540 H     1 <1>   0.0800 
 37 H        1.1600    -5.2140     0.0470 H     1 <1>   0.0800 
 38 H       -0.0680    -4.5590     1.1010 H     1 <1>   0.0800 
 39 H       -0.5950    -5.6180    -1.6840 H     1 <1>   0.0800 
 40 H       -1.7870    -4.9970    -0.5720 H     1 <1>   0.0800 
 41 H       -1.7340    -9.1610     0.9970 H     1 <1>   0.0800 
 42 H       -3.6570    -6.3030    -0.9150 H     1 <1>   0.0800 
 43 H       -2.7900    -6.8990    -2.3060 H     1 <1>   0.0800 
 44 H       -3.9860   -10.4200     0.3090 H     1 <1>   0.0800 
 45 H       -3.9700    -9.0500    -2.1680 H     1 <1>   0.0800 
 46 H       -5.1560    -7.7700    -2.0730 H     1 <1>   0.0800 
 47 H       -1.8500   -11.6540     0.6530 H     1 <1>   0.1500 
 48 H       -1.4210    -8.9080    -2.5940 H     1 <1>   0.1500 
 49 H       -5.1540    -9.0270     2.0870 H     1 <1>   0.0800 
 50 H       -3.6980    -8.0410     2.1360 H     1 <1>   0.0800 
 51 H       -0.9830   -13.4440    -0.7640 H     1 <1>   0.1500 
 52 H       -0.5640   -10.7010    -3.9910 H     1 <1>   0.1500 
 53 H       -4.0280   -10.7590     2.8020 H     1 <1>   0.4000 
 54 H       -0.3420   -12.9790    -3.0930 H     1 <1>   0.1500 
@<TRIPOS>BOND
  1   1   2  2   
  2   2   3  am  
  3   2   4  1   
  4   3   5  1   
  5   3   6  1   
  6   4   7  1   
  7   4  27  1   
  8   4  28  1   
  9   5   8  1   
 10   5  29  1   
 11   5  30  1   
 12   6   9  1   
 13   6  31  1   
 14   6  32  1   
 15   7   8  1   
 16   7  33  1   
 17   7  34  1   
 18   8  35  1   
 19   8  36  1   
 20   9  10  1   
 21   9  37  1   
 22   9  38  1   
 23  10  11  1   
 24  10  39  1   
 25  10  40  1   
 26  11  12  2   
 27  11  13  am  
 28  13  14  1   
 29  13  15  1   
 30  14  16  1   
 31  14  17  1   
 32  14  41  1   
 33  15  18  1   
 34  15  42  1   
 35  15  43  1   
 36  16  19  ar  
 37  16  20  ar  
 38  17  21  1   
 39  17  22  1   
 40  17  44  1   
 41  18  21  1   
 42  18  45  1   
 43  18  46  1   
 44  19  23  ar  
 45  19  47  1   
 46  20  24  ar  
 47  20  48  1   
 48  22  25  1   
 49  22  49  1   
 50  22  50  1   
 51  23  26  ar  
 52  23  51  1   
 53  24  26  ar  
 54  24  52  1   
 55  25  53  1   
 56  26  54  1   
@<TRIPOS>SUBSTRUCTURE
  1 ****  11 GROUP 4 **** **** 0

# MOE 2024.06 (io_trps.svl 2023.06)
