@<TRIPOS>MOLECULE
NONAME
55 58 1 0 0 
SMALL
USER_CHARGES


@<TRIPOS>ATOM
  1 O       -1.6340     0.9690     2.6200 O.2   1 <1>  -0.5700 
  2 C       -2.0920     1.1340     1.5050 C.2   1 <1>   0.5440 
  3 N       -2.8710     0.1530     0.9340 N.am  1 <1>  -0.6600 
  4 C       -1.8330     2.3680     0.7990 C.ar  1 <1>   0.0860 
  5 C       -3.2440     0.1810    -0.5220 C.3   1 <1>   0.1400 
  6 C       -3.4560    -0.9610     1.7410 C.3   1 <1>   0.1400 
  7 C       -0.5390     2.7360     0.3620 C.ar  1 <1>   0.0000 
  8 C       -2.8520     3.2340     0.5100 C.ar  1 <1>  -0.1500 
  9 C       -4.0970    -1.0270    -0.9260 C.3   1 <1>   0.2000 
 10 C       -4.9630    -1.0060     1.4810 C.3   1 <1>  -0.1600 
 11 C       -0.4090     3.9460    -0.3520 C.ar  1 <1>   0.3100 
 12 C        0.6190     1.9620     0.5930 C.ar  1 <1>  -0.1500 
 13 C       -2.6420     4.4130    -0.2170 C.ar  1 <1>   0.3100 
 14 O       -4.5000    -0.9120    -2.2450 O.3   1 <1>  -0.6800 
 15 C       -5.3240    -1.3010    -0.0150 C.3   1 <1>  -0.1060 
 16 N       -1.4520     4.7600    -0.6300 N.ar  1 <1>  -0.6200 
 17 C        0.8650     4.3270    -0.8050 C.ar  1 <1>  -0.1500 
 18 C        1.8470     2.3610     0.1380 C.ar  1 <1>  -0.1500 
 19 C       -3.7680     5.2690    -0.5210 C.ar  1 <1>   0.0000 
 20 C       -5.5910    -2.7970    -0.2670 C.2   1 <1>   0.9060 
 21 C       -6.6220    -0.5010    -0.3750 C.3   1 <1>  -0.1600 
 22 C        1.9730     3.5580    -0.5710 C.ar  1 <1>  -0.1500 
 23 C       -3.6730     6.6530    -0.3720 C.ar  1 <1>   0.1600 
 24 C       -4.9820     4.7650    -0.9720 C.ar  1 <1>  -0.1500 
 25 O       -5.4350    -3.6280     0.6340 O.co2 1 <1>  -0.9000 
 26 O       -5.8940    -3.1420    -1.4200 O.co2 1 <1>  -0.9000 
 27 C       -6.4890     1.0290    -0.5020 C.3   1 <1>  -0.1600 
 28 N       -4.6420     7.5270    -0.6010 N.ar  1 <1>  -0.6200 
 29 C       -6.0010     5.6570    -1.2210 C.ar  1 <1>  -0.1500 
 30 C       -7.8630     1.6860    -0.6640 C.3   1 <1>  -0.2400 
 31 C       -5.7840     7.0090    -1.0210 C.ar  1 <1>   0.1600 
 32 H       -3.7910     1.0780    -0.7320 H     1 <1>   0.0800 
 33 H       -2.3460     0.1790    -1.1130 H     1 <1>   0.0800 
 34 H       -3.0030    -1.8980     1.4620 H     1 <1>   0.0800 
 35 H       -3.2780    -0.8030     2.7910 H     1 <1>   0.0800 
 36 H       -3.8470     3.0070     0.8460 H     1 <1>   0.1500 
 37 H       -3.4480    -1.8870    -0.8910 H     1 <1>   0.0800 
 38 H       -5.4080    -1.7420     2.1260 H     1 <1>   0.0800 
 39 H       -5.3640    -0.0640     1.8000 H     1 <1>   0.0800 
 40 H        0.5320     1.0390     1.1430 H     1 <1>   0.1500 
 41 H       -5.0880    -1.7010    -2.4000 H     1 <1>   0.4000 
 42 H        0.9420     5.2510    -1.3470 H     1 <1>   0.1500 
 43 H        2.7230     1.7620     0.3210 H     1 <1>   0.1500 
 44 H       -7.0100    -0.8700    -1.3100 H     1 <1>   0.0800 
 45 H       -7.3650    -0.7330     0.3690 H     1 <1>   0.0800 
 46 H        2.9430     3.8630    -0.9240 H     1 <1>   0.1500 
 47 H       -2.7310     7.0540    -0.0390 H     1 <1>   0.1500 
 48 H       -5.1240     3.7100    -1.1300 H     1 <1>   0.1500 
 49 H       -6.0030     1.4460     0.3600 H     1 <1>   0.0800 
 50 H       -5.8990     1.2570    -1.3710 H     1 <1>   0.0800 
 51 H       -6.9580     5.3130    -1.5710 H     1 <1>   0.1500 
 52 H       -8.4760     1.4860     0.1970 H     1 <1>   0.0800 
 53 H       -8.3580     1.3000    -1.5380 H     1 <1>   0.0800 
 54 H       -7.7550     2.7500    -0.7710 H     1 <1>   0.0800 
 55 H       -6.5870     7.6990    -1.2180 H     1 <1>   0.1500 
@<TRIPOS>BOND
  1   1   2  2   
  2   2   3  am  
  3   2   4  1   
  4   3   5  1   
  5   3   6  1   
  6   4   7  ar  
  7   4   8  ar  
  8   5   9  1   
  9   5  32  1   
 10   5  33  1   
 11   6  10  1   
 12   6  34  1   
 13   6  35  1   
 14   7  11  ar  
 15   7  12  ar  
 16   8  13  ar  
 17   8  36  1   
 18   9  14  1   
 19   9  15  1   
 20   9  37  1   
 21  10  15  1   
 22  10  38  1   
 23  10  39  1   
 24  11  16  ar  
 25  11  17  ar  
 26  12  18  ar  
 27  12  40  1   
 28  13  16  ar  
 29  13  19  1   
 30  14  41  1   
 31  15  20  1   
 32  15  21  1   
 33  17  22  ar  
 34  17  42  1   
 35  18  22  ar  
 36  18  43  1   
 37  19  23  ar  
 38  19  24  ar  
 39  20  25  ar  
 40  20  26  ar  
 41  21  27  1   
 42  21  44  1   
 43  21  45  1   
 44  22  46  1   
 45  23  28  ar  
 46  23  47  1   
 47  24  29  ar  
 48  24  48  1   
 49  27  30  1   
 50  27  49  1   
 51  27  50  1   
 52  28  31  ar  
 53  29  31  ar  
 54  29  51  1   
 55  30  52  1   
 56  30  53  1   
 57  30  54  1   
 58  31  55  1   
@<TRIPOS>SUBSTRUCTURE
  1 ****   8 GROUP 4 **** **** 0

# MOE 2024.06 (io_trps.svl 2023.06)
