@<TRIPOS>MOLECULE
NONAME
57 58 1 0 0 
SMALL
USER_CHARGES


@<TRIPOS>ATOM
  1 O       -4.2180     2.6620     0.3000 O.2   1 <1>  -0.5700 
  2 C       -3.4500     1.7840    -0.0410 C.2   1 <1>   0.5690 
  3 N       -4.0120     0.6400    -0.5890 N.am  1 <1>  -0.6600 
  4 C       -1.9160     2.0410     0.1760 C.3   1 <1>   0.3410 
  5 C       -3.3100    -0.5830    -1.1120 C.3   1 <1>   0.3210 
  6 C       -5.5050     0.5570    -0.7110 C.3   1 <1>   0.1400 
  7 O       -1.7820     3.2720     0.9020 O.3   1 <1>  -0.3630 
  8 C       -1.2590     0.9480     1.0430 C.3   1 <1>  -0.2400 
  9 C       -1.1850     2.2120    -1.1720 C.3   1 <1>  -0.2400 
 10 C       -3.4220    -1.7930    -0.1770 C.2   1 <1>   0.0460 
 11 C       -6.1510     0.3840     0.6790 C.3   1 <1>   0.3430 
 12 C       -0.5870     3.8410     1.1970 C.ar  1 <1>   0.0820 
 13 N       -4.6030    -2.1710     0.3660 N.2   1 <1>  -0.5650 
 14 C       -2.4340    -2.6420     0.2020 C.2   1 <1>  -0.3320 
 15 N       -7.3850     1.2200     0.8840 N.4   1 <1>  -0.9590 
 16 C       -0.0260     4.7630     0.3250 C.ar  1 <1>  -0.1500 
 17 C        0.0470     3.5450     2.3930 C.ar  1 <1>  -0.1500 
 18 C       -4.3090    -3.2230     1.0590 C.2   1 <1>   0.0360 
 19 N       -3.0070    -3.5590     1.0040 N.pl3 1 <1>   0.0330 
 20 C       -0.9530    -2.7010    -0.1390 C.3   1 <1>  -0.0600 
 21 C       -7.0300     2.6740     0.9710 C.3   1 <1>   0.2630 
 22 C       -8.0830     0.7850     2.1290 C.3   1 <1>   0.2630 
 23 C        1.1890     5.3580     0.6240 C.ar  1 <1>  -0.1440 
 24 C        1.2600     4.1360     2.6950 C.ar  1 <1>  -0.1500 
 25 C        1.8310     5.0350     1.8090 C.ar  1 <1>  -0.1500 
 26 C        1.8120     6.3560    -0.3340 C.3   1 <1>  -0.0970 
 27 H       -2.2770    -0.3830    -1.2970 H     1 <1>   0.0800 
 28 H       -3.7440    -0.8520    -2.0590 H     1 <1>   0.0800 
 29 H       -5.7830    -0.2770    -1.3320 H     1 <1>   0.0800 
 30 H       -5.8580     1.4550    -1.1850 H     1 <1>   0.0800 
 31 H       -1.7350     0.9150     2.0060 H     1 <1>   0.0800 
 32 H       -0.2090     1.1400     1.1690 H     1 <1>   0.0800 
 33 H       -1.3470    -0.0180     0.6000 H     1 <1>   0.0800 
 34 H       -1.5860     3.0640    -1.6920 H     1 <1>   0.0800 
 35 H       -1.3040     1.3590    -1.8070 H     1 <1>   0.0800 
 36 H       -0.1300     2.3520    -1.0200 H     1 <1>   0.0800 
 37 H       -5.4210     0.6450     1.4270 H     1 <1>   0.0800 
 38 H       -6.3950    -0.6570     0.8090 H     1 <1>   0.0800 
 39 H       -8.0140     1.0750     0.0810 H     1 <1>   0.4500 
 40 H       -0.5470     5.0110    -0.5800 H     1 <1>   0.1500 
 41 H       -0.4100     2.8600     3.0830 H     1 <1>   0.1500 
 42 H       -5.0190    -3.7960     1.6300 H     1 <1>   0.1500 
 43 H       -2.5560    -4.3550     1.4670 H     1 <1>   0.2700 
 44 H       -0.6850    -1.9400    -0.8490 H     1 <1>   0.0800 
 45 H       -0.7110    -3.6580    -0.5690 H     1 <1>   0.0800 
 46 H       -0.3620    -2.5630     0.7490 H     1 <1>   0.0800 
 47 H       -6.3210     2.8390     1.7670 H     1 <1>   0.0800 
 48 H       -7.9090     3.2690     1.1590 H     1 <1>   0.0800 
 49 H       -6.5770     3.0090     0.0520 H     1 <1>   0.0800 
 50 H       -7.4400     0.9230     2.9830 H     1 <1>   0.0800 
 51 H       -8.3500    -0.2570     2.0630 H     1 <1>   0.0800 
 52 H       -8.9810     1.3620     2.2750 H     1 <1>   0.0800 
 53 H        1.7590     3.9010     3.6190 H     1 <1>   0.1500 
 54 H        2.7760     5.4880     2.0510 H     1 <1>   0.1500 
 55 H        1.0600     6.8020    -0.9600 H     1 <1>   0.0800 
 56 H        2.5340     5.8600    -0.9580 H     1 <1>   0.0800 
 57 H        2.3050     7.1400     0.2130 H     1 <1>   0.0800 
@<TRIPOS>BOND
  1   1   2  2   
  2   2   3  am  
  3   2   4  1   
  4   3   5  1   
  5   3   6  1   
  6   4   7  1   
  7   4   8  1   
  8   4   9  1   
  9   5  10  1   
 10   5  27  1   
 11   5  28  1   
 12   6  11  1   
 13   6  29  1   
 14   6  30  1   
 15   7  12  1   
 16   8  31  1   
 17   8  32  1   
 18   8  33  1   
 19   9  34  1   
 20   9  35  1   
 21   9  36  1   
 22  10  13  1   
 23  10  14  2   
 24  11  15  1   
 25  11  37  1   
 26  11  38  1   
 27  12  16  ar  
 28  12  17  ar  
 29  13  18  2   
 30  14  19  1   
 31  14  20  1   
 32  15  21  1   
 33  15  22  1   
 34  15  39  1   
 35  16  23  ar  
 36  16  40  1   
 37  17  24  ar  
 38  17  41  1   
 39  18  19  1   
 40  18  42  1   
 41  19  43  1   
 42  20  44  1   
 43  20  45  1   
 44  20  46  1   
 45  21  47  1   
 46  21  48  1   
 47  21  49  1   
 48  22  50  1   
 49  22  51  1   
 50  22  52  1   
 51  23  25  ar  
 52  23  26  1   
 53  24  25  ar  
 54  24  53  1   
 55  25  54  1   
 56  26  55  1   
 57  26  56  1   
 58  26  57  1   
@<TRIPOS>SUBSTRUCTURE
  1 ****   4 GROUP 4 **** **** 0

# MOE 2024.06 (io_trps.svl 2023.06)
