@<TRIPOS>MOLECULE
NONAME
53 55 1 0 0 
SMALL
USER_CHARGES


@<TRIPOS>ATOM
  1 O        1.9340    -1.0420     2.6350 O.2   1 <1>  -0.5700 
  2 C        2.2450    -1.4450     1.5310 C.2   1 <1>   0.5440 
  3 N        2.6750    -0.5430     0.5770 N.am  1 <1>  -0.6600 
  4 C        2.1440    -2.8620     1.2510 C.ar  1 <1>   0.0860 
  5 C        2.7230    -0.8390    -0.8830 C.3   1 <1>   0.1400 
  6 C        2.9450     0.8830     0.9170 C.3   1 <1>   0.1400 
  7 C        0.9640    -3.5630     1.4130 C.ar  1 <1>  -0.1500 
  8 C        3.2210    -3.6180     0.8090 C.ar  1 <1>  -0.1500 
  9 C        1.7180     0.0510    -1.6220 C.3   1 <1>  -0.1600 
 10 C        1.9400     1.7850     0.1950 C.3   1 <1>  -0.1600 
 11 C        0.8900    -4.9160     1.1180 C.ar  1 <1>   0.4100 
 12 C        3.0590    -4.9620     0.5450 C.ar  1 <1>   0.1600 
 13 C        1.9450     1.5390    -1.3200 C.3   1 <1>  -0.1600 
 14 N        1.9230    -5.6220     0.6790 N.ar  1 <1>  -0.6200 
 15 N       -0.3040    -5.5710     1.2890 N.pl3 1 <1>  -0.8690 
 16 C       -0.6220    -6.8280     0.5950 C.3   1 <1>   0.4330 
 17 C       -2.0820    -6.7460     0.1520 C.ar  1 <1>  -0.1430 
 18 C       -0.3520    -8.0050     1.5440 C.3   1 <1>  -0.1600 
 19 C       -3.1060    -6.5860     1.0780 C.ar  1 <1>  -0.1500 
 20 C       -2.4030    -6.8260    -1.1960 C.ar  1 <1>  -0.1500 
 21 C       -0.6690    -9.3730     0.9190 C.3   1 <1>  -0.2400 
 22 C       -4.4230    -6.5110     0.6620 C.ar  1 <1>  -0.1500 
 23 C       -3.7200    -6.7510    -1.6160 C.ar  1 <1>  -0.1500 
 24 C       -4.7410    -6.5920    -0.6830 C.ar  1 <1>   0.0830 
 25 O       -6.0560    -6.5090    -1.0070 O.3   1 <1>  -0.3630 
 26 C       -6.4870    -6.5880    -2.3480 C.3   1 <1>   0.0400 
 27 H        2.4870    -1.8690    -1.0800 H     1 <1>   0.0800 
 28 H        3.7180    -0.6450    -1.2460 H     1 <1>   0.0800 
 29 H        3.9460     1.1310     0.6090 H     1 <1>   0.0800 
 30 H        2.8780     1.0440     1.9800 H     1 <1>   0.0800 
 31 H        0.0940    -3.0510     1.7780 H     1 <1>   0.1500 
 32 H        4.1800    -3.1490     0.6790 H     1 <1>   0.1500 
 33 H        0.7220    -0.2300    -1.3250 H     1 <1>   0.0800 
 34 H        1.8030    -0.1190    -2.6810 H     1 <1>   0.0800 
 35 H        2.1780     2.8150     0.3970 H     1 <1>   0.0800 
 36 H        0.9590     1.5930     0.5940 H     1 <1>   0.0800 
 37 H        3.9090    -5.5290     0.2040 H     1 <1>   0.1500 
 38 H        1.1730     2.1270    -1.7870 H     1 <1>   0.0800 
 39 H        2.8920     1.8470    -1.7280 H     1 <1>   0.0800 
 40 H       -1.1320    -4.9760     1.3320 H     1 <1>   0.4000 
 41 H        0.0050    -6.9310    -0.2750 H     1 <1>   0.0800 
 42 H       -0.9310    -7.8830     2.4410 H     1 <1>   0.0800 
 43 H        0.6890    -7.9820     1.8160 H     1 <1>   0.0800 
 44 H       -2.8800    -6.5210     2.1280 H     1 <1>   0.1500 
 45 H       -1.6240    -6.9460    -1.9290 H     1 <1>   0.1500 
 46 H       -1.7150    -9.4480     0.6770 H     1 <1>   0.0800 
 47 H       -0.4230   -10.1580     1.6120 H     1 <1>   0.0800 
 48 H       -0.0930    -9.5170     0.0210 H     1 <1>   0.0800 
 49 H       -5.2140    -6.3890     1.3790 H     1 <1>   0.1500 
 50 H       -3.9310    -6.8170    -2.6660 H     1 <1>   0.1500 
 51 H       -7.5580    -6.4990    -2.3590 H     1 <1>   0.0800 
 52 H       -6.1940    -7.5400    -2.7530 H     1 <1>   0.0800 
 53 H       -6.0470    -5.7780    -2.9030 H     1 <1>   0.0800 
@<TRIPOS>BOND
  1   1   2  2   
  2   2   3  am  
  3   2   4  1   
  4   3   5  1   
  5   3   6  1   
  6   4   7  ar  
  7   4   8  ar  
  8   5   9  1   
  9   5  27  1   
 10   5  28  1   
 11   6  10  1   
 12   6  29  1   
 13   6  30  1   
 14   7  11  ar  
 15   7  31  1   
 16   8  12  ar  
 17   8  32  1   
 18   9  13  1   
 19   9  33  1   
 20   9  34  1   
 21  10  13  1   
 22  10  35  1   
 23  10  36  1   
 24  11  14  ar  
 25  11  15  1   
 26  12  14  ar  
 27  12  37  1   
 28  13  38  1   
 29  13  39  1   
 30  15  16  1   
 31  15  40  1   
 32  16  17  1   
 33  16  18  1   
 34  16  41  1   
 35  17  19  ar  
 36  17  20  ar  
 37  18  21  1   
 38  18  42  1   
 39  18  43  1   
 40  19  22  ar  
 41  19  44  1   
 42  20  23  ar  
 43  20  45  1   
 44  21  46  1   
 45  21  47  1   
 46  21  48  1   
 47  22  24  ar  
 48  22  49  1   
 49  23  24  ar  
 50  23  50  1   
 51  24  25  1   
 52  25  26  1   
 53  26  51  1   
 54  26  52  1   
 55  26  53  1   
@<TRIPOS>SUBSTRUCTURE
  1 ****  11 GROUP 4 **** **** 0

# MOE 2024.06 (io_trps.svl 2023.06)
