@<TRIPOS>MOLECULE
NONAME
45 47 1 0 0 
SMALL
USER_CHARGES


@<TRIPOS>ATOM
  1 O       -0.5590    -0.3970    -2.0270 O.2   1 <1>  -0.5700 
  2 C       -0.5820    -0.1100    -0.8560 C.2   1 <1>   0.5690 
  3 N       -0.9920    -0.9850     0.0910 N.am  1 <1>  -0.7300 
  4 C       -0.1780     1.2800    -0.4370 C.3   1 <1>  -0.0990 
  5 C       -1.4490    -2.3690    -0.1710 C.3   1 <1>   0.2200 
  6 C       -1.1180     2.3030    -1.0790 C.3   1 <1>   0.0960 
  7 C       -2.9620    -2.4830    -0.0380 C.3   1 <1>  -0.0800 
  8 C       -1.0020    -3.2590     0.9800 C.3   1 <1>   0.1200 
  9 N       -0.8580     3.6450    -0.5370 N.pl3 1 <1>   0.3140 
 10 C       -3.1640    -2.6760     1.4700 C.3   1 <1>   0.1200 
 11 C       -3.7810    -1.3280    -0.6440 C.3   1 <1>  -0.0170 
 12 O       -1.9150    -3.0120     2.0050 O.3   1 <1>  -0.5600 
 13 N       -1.2790     3.9990     0.6910 N.2   1 <1>  -0.7070 
 14 C       -0.1920     4.6520    -1.1350 C.2   1 <1>  -0.3020 
 15 C       -5.2730    -1.5890    -0.5090 C.ar  1 <1>  -0.1440 
 16 C       -0.8740     5.2200     0.8430 C.2   1 <1>   0.1080 
 17 C       -0.1840     5.6870    -0.2700 C.2   1 <1>  -0.1500 
 18 C       -6.0340    -0.9950     0.4780 C.ar  1 <1>  -0.1500 
 19 C       -5.9430    -2.4350    -1.3680 C.ar  1 <1>  -0.1500 
 20 C       -1.1410     6.0110     2.1020 C.3   1 <1>  -0.0590 
 21 C       -7.3880    -1.2730     0.5580 C.ar  1 <1>   0.1600 
 22 C       -7.3010    -2.6460    -1.2010 C.ar  1 <1>   0.1600 
 23 N       -8.0400    -2.0870    -0.2560 N.ar  1 <1>  -0.6200 
 24 H       -1.0250    -0.7200     1.0790 H     1 <1>   0.3700 
 25 H       -0.2250     1.3630     0.6340 H     1 <1>   0.0800 
 26 H        0.8320     1.4590    -0.7560 H     1 <1>   0.0800 
 27 H       -1.0860    -2.7180    -1.1240 H     1 <1>   0.0800 
 28 H       -2.1400     2.0520    -0.8630 H     1 <1>   0.0800 
 29 H       -0.9840     2.3190    -2.1450 H     1 <1>   0.0800 
 30 H       -3.2650    -3.3960    -0.5200 H     1 <1>   0.0800 
 31 H       -0.0040    -3.0380     1.3180 H     1 <1>   0.0800 
 32 H       -1.0780    -4.2990     0.7130 H     1 <1>   0.0800 
 33 H       -3.8610    -3.4690     1.6810 H     1 <1>   0.0800 
 34 H       -3.4890    -1.7690     1.9490 H     1 <1>   0.0800 
 35 H       -3.5300    -1.2200    -1.6850 H     1 <1>   0.0800 
 36 H       -3.5410    -0.3990    -0.1570 H     1 <1>   0.0800 
 37 H        0.2300     4.5770    -2.1200 H     1 <1>   0.1500 
 38 H        0.2500     6.6630    -0.3880 H     1 <1>   0.1500 
 39 H       -5.5900    -0.3180     1.1840 H     1 <1>   0.1500 
 40 H       -5.4220    -2.9320    -2.1660 H     1 <1>   0.1500 
 41 H       -0.6970     6.9860     2.0350 H     1 <1>   0.0800 
 42 H       -0.7270     5.4900     2.9450 H     1 <1>   0.0800 
 43 H       -2.2010     6.1130     2.2410 H     1 <1>   0.0800 
 44 H       -7.9660    -0.8010     1.3340 H     1 <1>   0.1500 
 45 H       -7.8080    -3.3100    -1.8810 H     1 <1>   0.1500 
@<TRIPOS>BOND
  1   1   2  2   
  2   2   3  am  
  3   2   4  1   
  4   3   5  1   
  5   3  24  1   
  6   4   6  1   
  7   4  25  1   
  8   4  26  1   
  9   5   7  1   
 10   5   8  1   
 11   5  27  1   
 12   6   9  1   
 13   6  28  1   
 14   6  29  1   
 15   7  10  1   
 16   7  11  1   
 17   7  30  1   
 18   8  12  1   
 19   8  31  1   
 20   8  32  1   
 21   9  13  1   
 22   9  14  1   
 23  10  12  1   
 24  10  33  1   
 25  10  34  1   
 26  11  15  1   
 27  11  35  1   
 28  11  36  1   
 29  13  16  2   
 30  14  17  2   
 31  14  37  1   
 32  15  18  ar  
 33  15  19  ar  
 34  16  17  1   
 35  16  20  1   
 36  17  38  1   
 37  18  21  ar  
 38  18  39  1   
 39  19  22  ar  
 40  19  40  1   
 41  20  41  1   
 42  20  42  1   
 43  20  43  1   
 44  21  23  ar  
 45  21  44  1   
 46  22  23  ar  
 47  22  45  1   
@<TRIPOS>SUBSTRUCTURE
  1 ****  11 GROUP 4 **** **** 0

# MOE 2024.06 (io_trps.svl 2023.06)
