@<TRIPOS>MOLECULE
NONAME
47 48 1 0 0 
SMALL
USER_CHARGES


@<TRIPOS>ATOM
  1 S        1.0740     1.4330    -0.0710 S.o2  1 <1>   1.4470 
  2 O       -0.0370     2.3470    -0.1590 O.2   1 <1>  -0.6500 
  3 O        2.3230     1.8810     0.5080 O.2   1 <1>  -0.6500 
  4 N        1.3950     1.0380    -1.6690 N.am  1 <1>  -0.9140 
  5 C        0.5620    -0.1460     0.6620 C.ar  1 <1>  -0.0090 
  6 C        2.4870     1.8220    -2.2840 C.3   1 <1>   0.2570 
  7 C       -0.7610    -0.3670     1.0430 C.ar  1 <1>  -0.1500 
  8 C        1.4840    -1.1730     0.8460 C.ar  1 <1>  -0.1500 
  9 C        2.2400     3.3370    -2.3660 C.2   1 <1>   0.5690 
 10 C       -1.1690    -1.5720     1.5960 C.ar  1 <1>  -0.1440 
 11 C        1.1040    -2.3860     1.3950 C.ar  1 <1>  -0.1500 
 12 O        1.8040     3.7940    -3.3950 O.2   1 <1>  -0.5700 
 13 N        2.5030     4.1200    -1.2850 N.am  1 <1>  -0.7300 
 14 C       -0.2150    -2.5640     1.7610 C.ar  1 <1>   0.1900 
 15 C       -2.6180    -1.7920     2.0070 C.3   1 <1>  -0.0970 
 16 C        2.1930     5.5590    -1.1860 C.3   1 <1>   0.1400 
 17 F       -0.5620    -3.7120     2.2780 F     1 <1>  -0.1900 
 18 C        3.3990     6.2920    -0.6050 C.3   1 <1>  -0.1600 
 19 C        3.1230     7.7900    -0.5250 C.3   1 <1>   0.2090 
 20 N        4.3030     8.4650     0.0540 N.pl3 1 <1>  -0.8690 
 21 C        4.1240     9.4630     1.0150 C.ar  1 <1>   0.1000 
 22 C        4.8740     9.4920     2.1950 C.ar  1 <1>   0.1600 
 23 C        3.1970    10.4740     0.8270 C.ar  1 <1>  -0.1500 
 24 N        4.7670    10.3920     3.1610 N.ar  1 <1>  -0.6200 
 25 C        3.0700    11.4230     1.8170 C.ar  1 <1>  -0.1500 
 26 C        3.8650    11.3370     2.9480 C.ar  1 <1>   0.1600 
 27 H        0.5380     1.3140    -2.1520 H     1 <1>   0.4200 
 28 H        2.6350     1.4650    -3.2880 H     1 <1>   0.0800 
 29 H        3.4040     1.6480    -1.7490 H     1 <1>   0.0800 
 30 H       -1.4810     0.4220     0.9040 H     1 <1>   0.1500 
 31 H        2.5100    -1.0210     0.5560 H     1 <1>   0.1500 
 32 H        1.8140    -3.1810     1.5390 H     1 <1>   0.1500 
 33 H        2.7440     3.6550    -0.3970 H     1 <1>   0.3700 
 34 H       -3.2170    -0.9240     1.7960 H     1 <1>   0.0800 
 35 H       -2.6720    -1.9970     3.0620 H     1 <1>   0.0800 
 36 H       -3.0280    -2.6300     1.4720 H     1 <1>   0.0800 
 37 H        1.3320     5.6890    -0.5510 H     1 <1>   0.0800 
 38 H        1.9590     5.9490    -2.1630 H     1 <1>   0.0800 
 39 H        4.2510     6.1240    -1.2400 H     1 <1>   0.0800 
 40 H        3.6010     5.9150     0.3820 H     1 <1>   0.0800 
 41 H        2.2570     7.9730     0.0910 H     1 <1>   0.0800 
 42 H        2.9380     8.1870    -1.5100 H     1 <1>   0.0800 
 43 H        5.0660     7.8070     0.2450 H     1 <1>   0.4000 
 44 H        5.6020     8.7160     2.3400 H     1 <1>   0.1500 
 45 H        2.6050    10.5150    -0.0680 H     1 <1>   0.1500 
 46 H        2.3630    12.2260     1.7170 H     1 <1>   0.1500 
 47 H        3.7560    12.0850     3.7150 H     1 <1>   0.1500 
@<TRIPOS>BOND
  1   1   2  2   
  2   1   3  2   
  3   1   4  am  
  4   1   5  1   
  5   4   6  1   
  6   4  27  1   
  7   5   7  ar  
  8   5   8  ar  
  9   6   9  1   
 10   6  28  1   
 11   6  29  1   
 12   7  10  ar  
 13   7  30  1   
 14   8  11  ar  
 15   8  31  1   
 16   9  12  2   
 17   9  13  am  
 18  10  14  ar  
 19  10  15  1   
 20  11  14  ar  
 21  11  32  1   
 22  13  16  1   
 23  13  33  1   
 24  14  17  1   
 25  15  34  1   
 26  15  35  1   
 27  15  36  1   
 28  16  18  1   
 29  16  37  1   
 30  16  38  1   
 31  18  19  1   
 32  18  39  1   
 33  18  40  1   
 34  19  20  1   
 35  19  41  1   
 36  19  42  1   
 37  20  21  1   
 38  20  43  1   
 39  21  22  ar  
 40  21  23  ar  
 41  22  24  ar  
 42  22  44  1   
 43  23  25  ar  
 44  23  45  1   
 45  24  26  ar  
 46  25  26  ar  
 47  25  46  1   
 48  26  47  1   
@<TRIPOS>SUBSTRUCTURE
  1 ****  13 GROUP 4 **** **** 0

# MOE 2024.06 (io_trps.svl 2023.06)
