@<TRIPOS>MOLECULE
NONAME
52 56 1 0 0 
SMALL
USER_CHARGES


@<TRIPOS>ATOM
  1 O        1.1690     0.1650     0.5110 O.3   1 <1>  -0.3630 
  2 C        0.5740    -1.0200     0.7200 C.ar  1 <1>   0.7020 
  3 C        2.1250     0.3850    -0.5000 C.3   1 <1>   0.2000 
  4 N        0.8630    -2.0280    -0.1020 N.ar  1 <1>  -0.6200 
  5 N       -0.2540    -1.0370     1.7550 N.ar  1 <1>  -0.6200 
  6 C        3.4940    -0.1080    -0.0140 C.3   1 <1>  -0.1600 
  7 C        2.1450     1.8880    -0.7850 C.3   1 <1>  -0.1600 
  8 C        0.2470    -3.1590     0.1560 C.ar  1 <1>   0.1600 
  9 C       -0.8520    -2.1820     1.9850 C.ar  1 <1>   0.1600 
 10 C        4.6060     0.3010    -0.9800 C.3   1 <1>   0.2090 
 11 C        3.2780     2.2300    -1.7500 C.3   1 <1>   0.2090 
 12 C       -0.6330    -3.2900     1.2030 C.ar  1 <1>  -0.1500 
 13 N        4.5810     1.7920    -1.1510 N.pl3 1 <1>  -0.8380 
 14 C        5.5930     2.6120    -0.7790 C.ar  1 <1>   0.4610 
 15 N        5.3540     3.9150    -0.6220 N.ar  1 <1>  -0.1790 
 16 C        6.9220     2.1840    -0.5190 C.ar  1 <1>  -0.1500 
 17 C        6.2850     4.8530    -0.2180 C.ar  1 <1>   0.3610 
 18 C        7.9000     3.0420    -0.1140 C.ar  1 <1>  -0.1430 
 19 C        7.6010     4.4280     0.0540 C.ar  1 <1>   0.0000 
 20 C        5.9260     6.1990    -0.0770 C.ar  1 <1>  -0.1500 
 21 C        9.3110     2.5290     0.1500 C.3   1 <1>  -0.0970 
 22 C        8.5340     5.3950     0.4710 C.ar  1 <1>  -0.1500 
 23 C        6.8660     7.1090     0.3320 C.ar  1 <1>  -0.1430 
 24 C        8.1570     6.7070     0.6030 C.ar  1 <1>  -0.1430 
 25 C        6.7050     8.5960     0.5480 C.3   1 <1>  -0.0170 
 26 C        9.0110     7.8770     1.0300 C.3   1 <1>  -0.0170 
 27 C        8.1530     9.0980     0.6610 C.3   1 <1>  -0.1600 
 28 H        1.8240    -0.1410    -1.3910 H     1 <1>   0.0800 
 29 H        3.4840    -1.1800     0.0690 H     1 <1>   0.0800 
 30 H        3.7060     0.3040     0.9570 H     1 <1>   0.0800 
 31 H        2.2770     2.4310     0.1330 H     1 <1>   0.0800 
 32 H        1.2050     2.1740    -1.2220 H     1 <1>   0.0800 
 33 H        0.4480    -4.0020    -0.4840 H     1 <1>   0.1500 
 34 H       -1.5330    -2.2350     2.8180 H     1 <1>   0.1500 
 35 H        4.4560    -0.1750    -1.9360 H     1 <1>   0.0800 
 36 H        5.5390    -0.0500    -0.5820 H     1 <1>   0.0800 
 37 H        3.2690     3.2820    -1.9710 H     1 <1>   0.0800 
 38 H        3.1250     1.7090    -2.6820 H     1 <1>   0.0800 
 39 H       -1.1290    -4.2200     1.4030 H     1 <1>   0.1500 
 40 H        4.3990     4.2200    -0.7560 H     1 <1>   0.4570 
 41 H        7.1620     1.1500    -0.6650 H     1 <1>   0.1500 
 42 H        4.9240     6.5290    -0.2840 H     1 <1>   0.1500 
 43 H        9.3810     1.4700    -0.0260 H     1 <1>   0.0800 
 44 H        9.5900     2.7170     1.1720 H     1 <1>   0.0800 
 45 H       10.0140     3.0210    -0.5000 H     1 <1>   0.0800 
 46 H        9.5500     5.1160     0.6900 H     1 <1>   0.1500 
 47 H        6.1740     8.7720     1.4680 H     1 <1>   0.0800 
 48 H        6.1880     9.0690    -0.2690 H     1 <1>   0.0800 
 49 H        9.9580     7.8900     0.5200 H     1 <1>   0.0800 
 50 H        9.1700     7.8350     2.0940 H     1 <1>   0.0800 
 51 H        8.2490     9.8890     1.3850 H     1 <1>   0.0800 
 52 H        8.4700     9.4650    -0.3000 H     1 <1>   0.0800 
@<TRIPOS>BOND
  1   1   2  1   
  2   1   3  1   
  3   2   4  ar  
  4   2   5  ar  
  5   3   6  1   
  6   3   7  1   
  7   3  28  1   
  8   4   8  ar  
  9   5   9  ar  
 10   6  10  1   
 11   6  29  1   
 12   6  30  1   
 13   7  11  1   
 14   7  31  1   
 15   7  32  1   
 16   8  12  ar  
 17   8  33  1   
 18   9  12  ar  
 19   9  34  1   
 20  10  13  1   
 21  10  35  1   
 22  10  36  1   
 23  11  13  1   
 24  11  37  1   
 25  11  38  1   
 26  12  39  1   
 27  13  14  1   
 28  14  15  ar  
 29  14  16  ar  
 30  15  17  ar  
 31  15  40  1   
 32  16  18  ar  
 33  16  41  1   
 34  17  19  ar  
 35  17  20  ar  
 36  18  19  ar  
 37  18  21  1   
 38  19  22  ar  
 39  20  23  ar  
 40  20  42  1   
 41  21  43  1   
 42  21  44  1   
 43  21  45  1   
 44  22  24  ar  
 45  22  46  1   
 46  23  24  ar  
 47  23  25  1   
 48  24  26  1   
 49  25  27  1   
 50  25  47  1   
 51  25  48  1   
 52  26  27  1   
 53  26  49  1   
 54  26  50  1   
 55  27  51  1   
 56  27  52  1   
@<TRIPOS>SUBSTRUCTURE
  1 ****  14 GROUP 4 **** **** 0

# MOE 2024.06 (io_trps.svl 2023.06)
