@<TRIPOS>MOLECULE
NONAME
53 56 1 0 0 
SMALL
USER_CHARGES


@<TRIPOS>ATOM
  1 O       -0.3550     0.8770    -1.0630 O.2   1 <1>  -0.5700 
  2 C       -0.3800     2.0740    -0.9040 C.2   1 <1>   0.5690 
  3 N       -1.4670     2.7470    -0.4140 N.am  1 <1>  -0.5090 
  4 C        0.8650     2.8600    -1.3110 C.3   1 <1>   0.1810 
  5 C       -1.5090     4.2430    -0.3560 C.3   1 <1>   0.3640 
  6 C       -2.6790     2.0430     0.0780 C.3   1 <1>   0.0490 
  7 O        0.9300     4.1400    -0.7240 O.3   1 <1>  -0.5600 
  8 C       -2.7380     4.7600    -1.1040 C.ar  1 <1>  -0.1440 
  9 C       -0.2360     4.9250    -0.9320 C.3   1 <1>   0.2610 
 10 C       -3.1490     2.2920     1.4790 C.3   1 <1>  -0.2000 
 11 C       -2.5370     0.9770     1.1190 C.3   1 <1>  -0.2000 
 12 C       -3.0780     4.2650    -2.3570 C.ar  1 <1>   0.1600 
 13 C       -3.5320     5.7450    -0.5480 C.ar  1 <1>  -0.1500 
 14 C       -0.0240     6.3420    -0.3630 C.2   1 <1>   0.5690 
 15 N       -4.1050     4.6740    -3.0830 N.ar  1 <1>  -0.6200 
 16 C       -4.6120     6.1760    -1.2870 C.ar  1 <1>  -0.1500 
 17 O       -0.7160     6.7160     0.5560 O.2   1 <1>  -0.5700 
 18 N        0.9690     7.1680    -0.8470 N.am  1 <1>  -0.6600 
 19 C       -4.8490     5.6180    -2.5310 C.ar  1 <1>   0.1600 
 20 C        2.0780     6.7250    -1.7460 C.3   1 <1>   0.1400 
 21 C        1.1230     8.5510    -0.3220 C.3   1 <1>   0.1400 
 22 C        3.3030     6.2310    -0.9440 C.3   1 <1>   0.3430 
 23 C        1.8940     8.5430     1.0040 C.3   1 <1>  -0.1600 
 24 N        3.8020     7.2080     0.0910 N.4   1 <1>  -0.9590 
 25 C        2.8310     7.3510     1.2190 C.3   1 <1>   0.3430 
 26 C        5.1330     6.7720     0.6130 C.3   1 <1>   0.2630 
 27 H        0.8830     2.9670    -2.3810 H     1 <1>   0.0800 
 28 H        1.7370     2.3130    -1.0030 H     1 <1>   0.0800 
 29 H       -1.6010     4.5070     0.6820 H     1 <1>   0.0800 
 30 H       -3.4170     1.8970    -0.6940 H     1 <1>   0.1000 
 31 H       -0.3630     5.0280    -1.9950 H     1 <1>   0.0800 
 32 H       -2.5910     2.9370     2.1340 H     1 <1>   0.1000 
 33 H       -4.2070     2.3220     1.6710 H     1 <1>   0.1000 
 34 H       -3.1720     0.1120     1.0540 H     1 <1>   0.1000 
 35 H       -1.5500     0.7380     1.4760 H     1 <1>   0.1000 
 36 H       -2.4770     3.4860    -2.7930 H     1 <1>   0.1500 
 37 H       -3.3240     6.1680     0.4210 H     1 <1>   0.1500 
 38 H       -5.2660     6.9400    -0.9060 H     1 <1>   0.1500 
 39 H       -5.6950     5.9650    -3.1010 H     1 <1>   0.1500 
 40 H        1.7400     5.9330    -2.3900 H     1 <1>   0.0800 
 41 H        2.3710     7.5380    -2.3870 H     1 <1>   0.0800 
 42 H        1.6380     9.1580    -1.0470 H     1 <1>   0.0800 
 43 H        0.1500     8.9920    -0.1720 H     1 <1>   0.0800 
 44 H        4.0940     6.0180    -1.6440 H     1 <1>   0.0800 
 45 H        3.0420     5.3030    -0.4620 H     1 <1>   0.0800 
 46 H        1.1670     8.5220     1.7980 H     1 <1>   0.0800 
 47 H        2.4340     9.4660     1.1130 H     1 <1>   0.0800 
 48 H        3.9040     8.1330    -0.3470 H     1 <1>   0.4500 
 49 H        2.2460     6.4490     1.3130 H     1 <1>   0.0800 
 50 H        3.3600     7.4980     2.1470 H     1 <1>   0.0800 
 51 H        5.0500     5.8090     1.0920 H     1 <1>   0.0800 
 52 H        5.5040     7.4840     1.3330 H     1 <1>   0.0800 
 53 H        5.8450     6.6970    -0.1920 H     1 <1>   0.0800 
@<TRIPOS>BOND
  1   1   2  2   
  2   2   3  am  
  3   2   4  1   
  4   3   5  1   
  5   3   6  1   
  6   4   7  1   
  7   4  27  1   
  8   4  28  1   
  9   5   8  1   
 10   5   9  1   
 11   5  29  1   
 12   6  10  1   
 13   6  11  1   
 14   6  30  1   
 15   7   9  1   
 16   8  12  ar  
 17   8  13  ar  
 18   9  14  1   
 19   9  31  1   
 20  10  11  1   
 21  10  32  1   
 22  10  33  1   
 23  11  34  1   
 24  11  35  1   
 25  12  15  ar  
 26  12  36  1   
 27  13  16  ar  
 28  13  37  1   
 29  14  17  2   
 30  14  18  am  
 31  15  19  ar  
 32  16  19  ar  
 33  16  38  1   
 34  18  20  1   
 35  18  21  1   
 36  19  39  1   
 37  20  22  1   
 38  20  40  1   
 39  20  41  1   
 40  21  23  1   
 41  21  42  1   
 42  21  43  1   
 43  22  24  1   
 44  22  44  1   
 45  22  45  1   
 46  23  25  1   
 47  23  46  1   
 48  23  47  1   
 49  24  25  1   
 50  24  26  1   
 51  24  48  1   
 52  25  49  1   
 53  25  50  1   
 54  26  51  1   
 55  26  52  1   
 56  26  53  1   
@<TRIPOS>SUBSTRUCTURE
  1 ****   9 GROUP 4 **** **** 0

# MOE 2024.06 (io_trps.svl 2023.06)
