@<TRIPOS>MOLECULE
NONAME
45 48 1 0 0 
SMALL
USER_CHARGES


@<TRIPOS>ATOM
  1 S       -0.4580     0.4620    -0.1150 S.3   1 <1>  -0.0800 
  2 C       -0.4870    -1.1930     0.3860 C.2   1 <1>   0.4620 
  3 C        1.2110     0.5340     0.3820 C.2   1 <1>   0.3250 
  4 N        0.6490    -1.5740     0.8550 N.2   1 <1>  -0.3380 
  5 N       -1.6410    -1.9240     0.2490 N.pl3 1 <1>  -0.8220 
  6 N        1.5990    -0.6020     0.8490 N.2   1 <1>  -0.3380 
  7 C        1.9620     1.7610     0.2380 C.ar  1 <1>   0.0530 
  8 C       -2.8860    -1.4790    -0.4250 C.3   1 <1>   0.2090 
  9 C       -1.7480    -3.3440     0.6370 C.3   1 <1>   0.2090 
 10 C        3.3070     1.8020     0.6150 C.ar  1 <1>  -0.1500 
 11 C        1.4130     2.9450    -0.2680 C.ar  1 <1>  -0.1500 
 12 C       -3.8080    -2.7100    -0.4450 C.3   1 <1>   0.2000 
 13 C       -2.8520    -3.8960    -0.2660 C.3   1 <1>  -0.0800 
 14 C        4.0640     2.9520     0.4950 C.ar  1 <1>  -0.1500 
 15 C        2.1650     4.0980    -0.3910 C.ar  1 <1>  -0.1500 
 16 O       -4.6900    -2.6760     0.6440 O.3   1 <1>  -0.5600 
 17 C       -3.5090    -5.1780     0.2790 C.3   1 <1>   0.0200 
 18 C        3.4940     4.1060    -0.0100 C.ar  1 <1>  -0.1500 
 19 C       -5.8540    -1.9360     0.4460 C.3   1 <1>   0.0400 
 20 C       -2.5770    -6.3780     0.2710 C.2   1 <1>  -0.0400 
 21 O       -2.9950    -7.5000     0.7950 O.3   1 <1>  -0.0190 
 22 C       -1.3300    -6.5820    -0.1840 C.2   1 <1>  -0.1500 
 23 N       -2.0980    -8.4400     0.7180 N.2   1 <1>  -0.4100 
 24 C       -1.0830    -7.9150     0.1330 C.2   1 <1>   0.1080 
 25 C        0.2030    -8.6520    -0.1650 C.3   1 <1>  -0.0590 
 26 H       -3.3320    -0.6560     0.1030 H     1 <1>   0.0800 
 27 H       -2.6490    -1.1830    -1.4320 H     1 <1>   0.0800 
 28 H       -0.8120    -3.8570     0.4970 H     1 <1>   0.0800 
 29 H       -2.0400    -3.4010     1.6720 H     1 <1>   0.0800 
 30 H        3.7680     0.9120     1.0100 H     1 <1>   0.1500 
 31 H        0.3830     2.9790    -0.5740 H     1 <1>   0.1500 
 32 H       -4.3750    -2.7880    -1.3570 H     1 <1>   0.0800 
 33 H       -2.4140    -4.1100    -1.2250 H     1 <1>   0.0800 
 34 H        5.0980     2.9490     0.7940 H     1 <1>   0.1500 
 35 H        1.7170     4.9950    -0.7840 H     1 <1>   0.1500 
 36 H       -4.3720    -5.4160    -0.3180 H     1 <1>   0.0800 
 37 H       -3.8480    -5.0130     1.2870 H     1 <1>   0.0800 
 38 H        4.0800     5.0030    -0.1050 H     1 <1>   0.1500 
 39 H       -6.4350    -1.9830     1.3500 H     1 <1>   0.0800 
 40 H       -6.4160    -2.3660    -0.3660 H     1 <1>   0.0800 
 41 H       -5.6020    -0.9120     0.2330 H     1 <1>   0.0800 
 42 H       -0.6490    -5.9160    -0.6800 H     1 <1>   0.1500 
 43 H        0.4250    -8.5910    -1.2140 H     1 <1>   0.0800 
 44 H        0.1060    -9.6860     0.1120 H     1 <1>   0.0800 
 45 H        1.0100    -8.2150     0.3940 H     1 <1>   0.0800 
@<TRIPOS>BOND
  1   1   2  1   
  2   1   3  1   
  3   2   4  2   
  4   2   5  1   
  5   3   6  2   
  6   3   7  1   
  7   4   6  1   
  8   5   8  1   
  9   5   9  1   
 10   7  10  ar  
 11   7  11  ar  
 12   8  12  1   
 13   8  26  1   
 14   8  27  1   
 15   9  13  1   
 16   9  28  1   
 17   9  29  1   
 18  10  14  ar  
 19  10  30  1   
 20  11  15  ar  
 21  11  31  1   
 22  12  13  1   
 23  12  16  1   
 24  12  32  1   
 25  13  17  1   
 26  13  33  1   
 27  14  18  ar  
 28  14  34  1   
 29  15  18  ar  
 30  15  35  1   
 31  16  19  1   
 32  17  20  1   
 33  17  36  1   
 34  17  37  1   
 35  18  38  1   
 36  19  39  1   
 37  19  40  1   
 38  19  41  1   
 39  20  21  1   
 40  20  22  2   
 41  21  23  1   
 42  22  24  1   
 43  22  42  1   
 44  23  24  2   
 45  24  25  1   
 46  25  43  1   
 47  25  44  1   
 48  25  45  1   
@<TRIPOS>SUBSTRUCTURE
  1 ****   5 GROUP 4 **** **** 0

# MOE 2024.06 (io_trps.svl 2023.06)
