@<TRIPOS>MOLECULE
NONAME
51 53 1 0 0 
SMALL
USER_CHARGES


@<TRIPOS>ATOM
  1 F       -0.1000     0.7640    -0.4600 F     1 <1>  -0.1900 
  2 C       -1.3810     0.9590    -0.2780 C.ar  1 <1>   0.1900 
  3 C       -2.0700     2.0040    -0.9040 C.ar  1 <1>   0.0830 
  4 C       -2.0230     0.0770     0.5710 C.ar  1 <1>  -0.1500 
  5 O       -1.5520     2.9340    -1.7570 O.3   1 <1>  -0.3630 
  6 C       -3.4250     2.1270    -0.6450 C.ar  1 <1>  -0.1500 
  7 C       -3.3760     0.2300     0.8080 C.ar  1 <1>  -0.1500 
  8 C       -0.2010     2.9370    -2.1640 C.3   1 <1>   0.0400 
  9 C       -4.1080     1.2530     0.2030 C.ar  1 <1>   0.0530 
 10 C       -5.5170     1.4270     0.4470 C.2   1 <1>   0.0870 
 11 O       -5.9870     2.6340     0.6380 O.3   1 <1>  -0.0190 
 12 C       -6.5730     0.5700     0.5400 C.2   1 <1>  -0.0860 
 13 N       -7.2720     2.6540     0.8640 N.2   1 <1>  -0.4100 
 14 C       -7.6500     1.4260     0.8140 C.2   1 <1>   0.3720 
 15 C       -6.6480    -0.8520     0.3840 C.2   1 <1>   0.7160 
 16 N       -8.9870     1.0410     1.0080 N.pl3 1 <1>  -0.8210 
 17 O       -5.6960    -1.5110     0.0120 O.2   1 <1>  -0.5700 
 18 N       -7.8110    -1.5050     0.6370 N.am  1 <1>  -0.7300 
 19 C       -9.8840     1.5410    -0.0710 C.3   1 <1>   0.1290 
 20 C       -9.5060     1.4250     2.3510 C.3   1 <1>   0.1290 
 21 C       -8.0560    -2.9510     0.5040 C.3   1 <1>   0.2200 
 22 C       -8.2220    -3.3250    -0.9800 C.3   1 <1>   0.1400 
 23 C       -9.3050    -3.3020     1.3100 C.3   1 <1>  -0.1600 
 24 N       -8.8610    -4.6610    -1.1880 N.am  1 <1>  -0.6600 
 25 C       -9.5720    -4.8110     1.2150 C.3   1 <1>  -0.0990 
 26 C       -9.5380    -5.3440    -0.2080 C.2   1 <1>   0.5690 
 27 C       -8.7800    -5.1730    -2.5840 C.3   1 <1>   0.0600 
 28 O      -10.1130    -6.3840    -0.4220 O.2   1 <1>  -0.5700 
 29 H       -1.4690    -0.7180     1.0370 H     1 <1>   0.1500 
 30 H       -3.9650     2.9270    -1.1190 H     1 <1>   0.1500 
 31 H       -3.8740    -0.4560     1.4710 H     1 <1>   0.1500 
 32 H       -0.0600     3.7540    -2.8480 H     1 <1>   0.0800 
 33 H        0.0190     2.0070    -2.6570 H     1 <1>   0.0800 
 34 H        0.4250     3.0740    -1.3000 H     1 <1>   0.0800 
 35 H       -8.6120    -0.8970     0.8650 H     1 <1>   0.3700 
 36 H       -9.4810     1.2780    -1.0340 H     1 <1>   0.0800 
 37 H       -9.9720     2.6130    -0.0150 H     1 <1>   0.0800 
 38 H      -10.8610     1.1000     0.0270 H     1 <1>   0.0800 
 39 H       -8.8210     1.0960     3.1150 H     1 <1>   0.0800 
 40 H      -10.4630     0.9640     2.5230 H     1 <1>   0.0800 
 41 H       -9.6090     2.4950     2.4190 H     1 <1>   0.0800 
 42 H       -7.2070    -3.4840     0.9010 H     1 <1>   0.0800 
 43 H       -7.2500    -3.3210    -1.4440 H     1 <1>   0.0800 
 44 H       -8.8340    -2.5850    -1.4630 H     1 <1>   0.0800 
 45 H      -10.1520    -2.7710     0.9110 H     1 <1>   0.0800 
 46 H       -9.1710    -3.0270     2.3410 H     1 <1>   0.0800 
 47 H      -10.5320    -5.0350     1.6430 H     1 <1>   0.0800 
 48 H       -8.8290    -5.3450     1.7780 H     1 <1>   0.0800 
 49 H       -7.7490    -5.2790    -2.8730 H     1 <1>   0.0800 
 50 H       -9.2680    -4.4870    -3.2530 H     1 <1>   0.0800 
 51 H       -9.2580    -6.1340    -2.6690 H     1 <1>   0.0800 
@<TRIPOS>BOND
  1   1   2  1   
  2   2   3  ar  
  3   2   4  ar  
  4   3   5  1   
  5   3   6  ar  
  6   4   7  ar  
  7   4  29  1   
  8   5   8  1   
  9   6   9  ar  
 10   6  30  1   
 11   7   9  ar  
 12   7  31  1   
 13   8  32  1   
 14   8  33  1   
 15   8  34  1   
 16   9  10  1   
 17  10  11  1   
 18  10  12  2   
 19  11  13  1   
 20  12  14  1   
 21  12  15  1   
 22  13  14  2   
 23  14  16  1   
 24  15  17  2   
 25  15  18  am  
 26  16  19  1   
 27  16  20  1   
 28  18  21  1   
 29  18  35  1   
 30  19  36  1   
 31  19  37  1   
 32  19  38  1   
 33  20  39  1   
 34  20  40  1   
 35  20  41  1   
 36  21  22  1   
 37  21  23  1   
 38  21  42  1   
 39  22  24  1   
 40  22  43  1   
 41  22  44  1   
 42  23  25  1   
 43  23  45  1   
 44  23  46  1   
 45  24  26  am  
 46  24  27  1   
 47  25  26  1   
 48  25  47  1   
 49  25  48  1   
 50  26  28  2   
 51  27  49  1   
 52  27  50  1   
 53  27  51  1   
@<TRIPOS>SUBSTRUCTURE
  1 ****  15 GROUP 4 **** **** 0

# MOE 2024.06 (io_trps.svl 2023.06)
