@<TRIPOS>MOLECULE
NONAME
52 53 1 0 0 
SMALL
USER_CHARGES


@<TRIPOS>ATOM
  1 S        0.5010     0.1800    -0.3030 S.o2  1 <1>   1.3330 
  2 O        1.2360    -0.4860    -1.3550 O.2   1 <1>  -0.6500 
  3 O        1.0670     0.2470     1.0260 O.2   1 <1>  -0.6500 
  4 N       -1.0280    -0.5460    -0.1800 N.am  1 <1>  -0.8490 
  5 C        0.1200     1.8360    -0.8700 C.3   1 <1>  -0.0550 
  6 C       -0.9620    -2.0020    -0.3380 C.3   1 <1>   0.1160 
  7 C       -1.7370    -0.2110     1.0590 C.3   1 <1>   0.1160 
  8 C        1.3790     2.6830    -1.1440 C.3   1 <1>  -0.0800 
  9 C        1.1030     4.0480    -1.7730 C.3   1 <1>   0.2000 
 10 C        2.2090     3.0010     0.1120 C.3   1 <1>   0.1100 
 11 O        0.0120     4.6230    -1.1450 O.3   1 <1>  -0.6800 
 12 C        2.3330     4.8400    -1.3540 C.3   1 <1>   0.1100 
 13 N        2.5550     4.4320     0.0440 N.3   1 <1>  -0.8100 
 14 C        3.9530     4.6950     0.4970 C.3   1 <1>   0.1710 
 15 C        4.3240     6.1790     0.5910 C.2   1 <1>   0.5690 
 16 O        5.4620     6.5210     0.3740 O.2   1 <1>  -0.5700 
 17 N        3.3510     7.0700     0.9110 N.am  1 <1>  -0.7300 
 18 C        3.5320     8.5310     1.0620 C.3   1 <1>   0.1400 
 19 C        3.1350     9.2410    -0.2320 C.3   1 <1>  -0.0170 
 20 C        3.3240    10.7430    -0.0890 C.ar  1 <1>  -0.1440 
 21 C        4.5840    11.3000    -0.2780 C.ar  1 <1>  -0.1500 
 22 C        2.2460    11.5590     0.2330 C.ar  1 <1>  -0.1500 
 23 C        4.7710    12.6650    -0.1470 C.ar  1 <1>  -0.1500 
 24 C        2.4210    12.9270     0.3670 C.ar  1 <1>  -0.1500 
 25 C        3.6840    13.4540     0.1730 C.ar  1 <1>   0.1900 
 26 F        3.8540    14.7430     0.2990 F     1 <1>  -0.1900 
 27 H       -0.4480     1.7660    -1.7780 H     1 <1>   0.0800 
 28 H       -0.4920     2.3290    -0.1420 H     1 <1>   0.0800 
 29 H       -1.9480    -2.4300    -0.2740 H     1 <1>   0.0800 
 30 H       -0.3360    -2.4340     0.4250 H     1 <1>   0.0800 
 31 H       -0.5510    -2.2500    -1.3030 H     1 <1>   0.0800 
 32 H       -2.7290    -0.6290     1.0420 H     1 <1>   0.0800 
 33 H       -1.8210     0.8570     1.1620 H     1 <1>   0.0800 
 34 H       -1.2070    -0.6000     1.9140 H     1 <1>   0.0800 
 35 H        2.0130     2.1360    -1.8210 H     1 <1>   0.0800 
 36 H        0.9320     4.0210    -2.8350 H     1 <1>   0.0800 
 37 H        3.0920     2.3810     0.1310 H     1 <1>   0.0800 
 38 H        1.6460     2.8230     1.0130 H     1 <1>   0.0800 
 39 H        0.3030     4.8280    -0.2310 H     1 <1>   0.4000 
 40 H        2.1770     5.9020    -1.4440 H     1 <1>   0.0800 
 41 H        3.1710     4.5490    -1.9650 H     1 <1>   0.0800 
 42 H        4.0880     4.2700     1.4750 H     1 <1>   0.0800 
 43 H        4.6490     4.2130    -0.1680 H     1 <1>   0.0800 
 44 H        2.4030     6.6940     1.0020 H     1 <1>   0.3700 
 45 H        2.9300     8.8850     1.8800 H     1 <1>   0.0800 
 46 H        4.5650     8.7430     1.2860 H     1 <1>   0.0800 
 47 H        3.7500     8.8800    -1.0380 H     1 <1>   0.0800 
 48 H        2.1090     9.0230    -0.4660 H     1 <1>   0.0800 
 49 H        5.4210    10.6700    -0.5270 H     1 <1>   0.1500 
 50 H        1.2680    11.1350     0.3810 H     1 <1>   0.1500 
 51 H        5.7390    13.1120    -0.2900 H     1 <1>   0.1500 
 52 H        1.6000    13.5740     0.6150 H     1 <1>   0.1500 
@<TRIPOS>BOND
  1   1   2  2   
  2   1   3  2   
  3   1   4  am  
  4   1   5  1   
  5   4   6  1   
  6   4   7  1   
  7   5   8  1   
  8   5  27  1   
  9   5  28  1   
 10   6  29  1   
 11   6  30  1   
 12   6  31  1   
 13   7  32  1   
 14   7  33  1   
 15   7  34  1   
 16   8   9  1   
 17   8  10  1   
 18   8  35  1   
 19   9  11  1   
 20   9  12  1   
 21   9  36  1   
 22  10  13  1   
 23  10  37  1   
 24  10  38  1   
 25  11  39  1   
 26  12  13  1   
 27  12  40  1   
 28  12  41  1   
 29  13  14  1   
 30  14  15  1   
 31  14  42  1   
 32  14  43  1   
 33  15  16  2   
 34  15  17  am  
 35  17  18  1   
 36  17  44  1   
 37  18  19  1   
 38  18  45  1   
 39  18  46  1   
 40  19  20  1   
 41  19  47  1   
 42  19  48  1   
 43  20  21  ar  
 44  20  22  ar  
 45  21  23  ar  
 46  21  49  1   
 47  22  24  ar  
 48  22  50  1   
 49  23  25  ar  
 50  23  51  1   
 51  24  25  ar  
 52  24  52  1   
 53  25  26  1   
@<TRIPOS>SUBSTRUCTURE
  1 ****  13 GROUP 4 **** **** 0

# MOE 2024.06 (io_trps.svl 2023.06)
