@<TRIPOS>MOLECULE
NONAME
52 55 1 0 0 
SMALL
USER_CHARGES


@<TRIPOS>ATOM
  1 O       -0.2950    -0.3630    -0.5200 O.2   1 <1>  -0.5700 
  2 C       -1.2330     0.2520    -0.0500 C.2   1 <1>   0.7160 
  3 N       -2.2550    -0.4490     0.5110 N.am  1 <1>  -0.7300 
  4 C       -1.2900     1.6820    -0.0810 C.2   1 <1>  -0.0860 
  5 C       -2.4280    -1.9170     0.5360 C.3   1 <1>   0.1400 
  6 C       -2.4600     2.4520    -0.0190 C.2   1 <1>   0.3720 
  7 C       -0.3060     2.6190    -0.1780 C.2   1 <1>   0.0870 
  8 C       -3.8190    -2.2890     0.0010 C.3   1 <1>  -0.0800 
  9 N       -2.1930     3.7090    -0.0690 N.2   1 <1>  -0.4100 
 10 N       -3.7670     1.9440     0.0520 N.pl3 1 <1>  -0.8210 
 11 O       -0.8950     3.7880    -0.1690 O.3   1 <1>  -0.0190 
 12 C        1.1320     2.5560    -0.2630 C.ar  1 <1>   0.0530 
 13 C       -4.9550    -1.7310     0.8790 C.3   1 <1>  -0.1600 
 14 C       -3.9660    -3.8150    -0.0950 C.3   1 <1>  -0.1600 
 15 C       -4.3200     1.5270    -1.2780 C.3   1 <1>   0.2090 
 16 C       -4.7520     2.7730     0.8280 C.3   1 <1>   0.2090 
 17 C        1.8750     1.5870     0.4120 C.ar  1 <1>  -0.1500 
 18 C        1.8390     3.4880    -1.0240 C.ar  1 <1>  -0.1500 
 19 C       -6.3180    -2.2500     0.4060 C.3   1 <1>   0.1200 
 20 C       -5.3900    -4.2040    -0.5100 C.3   1 <1>   0.1200 
 21 C       -5.0000     2.6950    -2.0160 C.3   1 <1>   0.1200 
 22 C       -5.4420     3.8470    -0.0380 C.3   1 <1>   0.1200 
 23 C        3.2540     1.5450     0.3270 C.ar  1 <1>  -0.1500 
 24 C        3.2190     3.4540    -1.1120 C.ar  1 <1>  -0.1500 
 25 O       -6.3000    -3.6430     0.3850 O.3   1 <1>  -0.5600 
 26 O       -5.9730     3.2840    -1.2040 O.3   1 <1>  -0.5600 
 27 C        3.9300     2.4800    -0.4360 C.ar  1 <1>  -0.1500 
 28 H       -3.0760     0.1170     0.7630 H     1 <1>   0.3700 
 29 H       -2.3150    -2.2680     1.5480 H     1 <1>   0.0800 
 30 H       -1.6680    -2.3820    -0.0680 H     1 <1>   0.0800 
 31 H       -3.9150    -1.8860    -0.9930 H     1 <1>   0.0800 
 32 H       -4.9640    -0.6570     0.8520 H     1 <1>   0.0800 
 33 H       -4.8130    -2.0330     1.9020 H     1 <1>   0.0800 
 34 H       -3.7540    -4.2710     0.8560 H     1 <1>   0.0800 
 35 H       -3.2690    -4.2080    -0.8140 H     1 <1>   0.0800 
 36 H       -5.0420     0.7430    -1.1330 H     1 <1>   0.0800 
 37 H       -3.5310     1.1340    -1.8950 H     1 <1>   0.0800 
 38 H       -4.2520     3.2530     1.6520 H     1 <1>   0.0800 
 39 H       -5.5060     2.1260     1.2390 H     1 <1>   0.0800 
 40 H        1.3680     0.8540     1.0140 H     1 <1>   0.1500 
 41 H        1.2970     4.2510    -1.5550 H     1 <1>   0.1500 
 42 H       -6.5540    -1.8930    -0.5820 H     1 <1>   0.0800 
 43 H       -7.0950    -1.9430     1.0850 H     1 <1>   0.0800 
 44 H       -5.5150    -5.2720    -0.4770 H     1 <1>   0.0800 
 45 H       -5.6210    -3.8540    -1.5020 H     1 <1>   0.0800 
 46 H       -5.4850     2.3410    -2.9070 H     1 <1>   0.0800 
 47 H       -4.2750     3.4440    -2.2890 H     1 <1>   0.0800 
 48 H       -4.7420     4.6170    -0.3140 H     1 <1>   0.0800 
 49 H       -6.2500     4.2990     0.5070 H     1 <1>   0.0800 
 50 H        3.8020     0.7840     0.8540 H     1 <1>   0.1500 
 51 H        3.7400     4.1840    -1.7070 H     1 <1>   0.1500 
 52 H        5.0040     2.4480    -0.5040 H     1 <1>   0.1500 
@<TRIPOS>BOND
  1   1   2  2   
  2   2   3  am  
  3   2   4  1   
  4   3   5  1   
  5   3  28  1   
  6   4   6  1   
  7   4   7  2   
  8   5   8  1   
  9   5  29  1   
 10   5  30  1   
 11   6   9  2   
 12   6  10  1   
 13   7  11  1   
 14   7  12  1   
 15   8  13  1   
 16   8  14  1   
 17   8  31  1   
 18   9  11  1   
 19  10  15  1   
 20  10  16  1   
 21  12  17  ar  
 22  12  18  ar  
 23  13  19  1   
 24  13  32  1   
 25  13  33  1   
 26  14  20  1   
 27  14  34  1   
 28  14  35  1   
 29  15  21  1   
 30  15  36  1   
 31  15  37  1   
 32  16  22  1   
 33  16  38  1   
 34  16  39  1   
 35  17  23  ar  
 36  17  40  1   
 37  18  24  ar  
 38  18  41  1   
 39  19  25  1   
 40  19  42  1   
 41  19  43  1   
 42  20  25  1   
 43  20  44  1   
 44  20  45  1   
 45  21  26  1   
 46  21  46  1   
 47  21  47  1   
 48  22  26  1   
 49  22  48  1   
 50  22  49  1   
 51  23  27  ar  
 52  23  50  1   
 53  24  27  ar  
 54  24  51  1   
 55  27  52  1   
@<TRIPOS>SUBSTRUCTURE
  1 ****   2 GROUP 4 **** **** 0

# MOE 2024.06 (io_trps.svl 2023.06)
