@<TRIPOS>MOLECULE
NONAME
59 63 1 0 0 
SMALL
USER_CHARGES


@<TRIPOS>ATOM
  1 O       -0.1470    -0.4290    -0.9620 O.2   1 <1>  -0.5700 
  2 C       -0.9420     0.0750    -0.1920 C.2   1 <1>   0.7160 
  3 N       -1.6610    -0.7410     0.6170 N.am  1 <1>  -0.7300 
  4 C       -1.1450     1.4920    -0.1400 C.2   1 <1>  -0.0860 
  5 C       -1.7910    -2.1950     0.4750 C.3   1 <1>   0.3640 
  6 C       -2.2790     2.1390     0.3720 C.2   1 <1>   0.3720 
  7 C       -0.3600     2.5250    -0.5560 C.2   1 <1>   0.0870 
  8 C       -3.1550    -2.4620    -0.1560 C.ar  1 <1>  -0.1440 
  9 C       -1.6480    -2.8360     1.8590 C.3   1 <1>  -0.1600 
 10 N       -2.1730     3.4170     0.2670 N.2   1 <1>  -0.4100 
 11 N       -3.4070     1.5050     0.9160 N.pl3 1 <1>  -0.8210 
 12 O       -1.0150     3.6270    -0.2960 O.3   1 <1>  -0.0190 
 13 C        0.9470     2.6110    -1.1600 C.ar  1 <1>   0.0530 
 14 C       -4.2370    -2.9350     0.5820 C.ar  1 <1>  -0.1430 
 15 C       -3.3160    -2.1980    -1.5090 C.ar  1 <1>  -0.1500 
 16 C       -2.8960    -2.6100     2.7230 C.3   1 <1>  -0.1600 
 17 C       -4.1100     2.2860     1.9830 C.3   1 <1>   0.2090 
 18 C       -4.3940     1.0770    -0.1270 C.3   1 <1>   0.2090 
 19 C        1.2240     3.5930    -2.1120 C.ar  1 <1>  -0.1500 
 20 C        1.9850     1.7460    -0.8130 C.ar  1 <1>  -0.1500 
 21 C       -5.4620    -3.1250    -0.0390 C.ar  1 <1>  -0.1500 
 22 C       -4.1180    -3.2620     2.0670 C.3   1 <1>  -0.0170 
 23 C       -4.5410    -2.3840    -2.1210 C.ar  1 <1>  -0.1500 
 24 C       -5.3190     1.5080     2.5330 C.3   1 <1>   0.1200 
 25 C       -5.5950     0.3560     0.5100 C.3   1 <1>   0.1200 
 26 C        2.4730     3.7040    -2.6950 C.ar  1 <1>  -0.1500 
 27 C        3.2360     1.8500    -1.3930 C.ar  1 <1>  -0.1500 
 28 C       -5.6230    -2.8420    -1.3910 C.ar  1 <1>   0.0830 
 29 O       -6.1930     1.1480     1.4990 O.3   1 <1>  -0.5600 
 30 C        3.4830     2.8310    -2.3370 C.ar  1 <1>  -0.1500 
 31 O       -6.7950    -2.9820    -2.0600 O.3   1 <1>  -0.3620 
 32 C       -7.9590    -3.4470    -1.4130 C.3   1 <1>   0.0400 
 33 H       -2.4560    -0.2860     1.0840 H     1 <1>   0.3700 
 34 H       -1.0130    -2.5710    -0.1690 H     1 <1>   0.0800 
 35 H       -0.7720    -2.4450     2.3470 H     1 <1>   0.0800 
 36 H       -1.5010    -3.8940     1.7280 H     1 <1>   0.0800 
 37 H       -2.4820    -1.8380    -2.0890 H     1 <1>   0.1500 
 38 H       -3.0720    -1.5550     2.8420 H     1 <1>   0.0800 
 39 H       -2.7450    -3.0330     3.7010 H     1 <1>   0.0800 
 40 H       -4.4530     3.2270     1.5860 H     1 <1>   0.0800 
 41 H       -3.4220     2.4940     2.7840 H     1 <1>   0.0800 
 42 H       -3.9180     0.4170    -0.8300 H     1 <1>   0.0800 
 43 H       -4.7460     1.9390    -0.6680 H     1 <1>   0.0800 
 44 H        0.4460     4.2790    -2.3990 H     1 <1>   0.1500 
 45 H        1.8130     0.9800    -0.0790 H     1 <1>   0.1500 
 46 H       -6.2850    -3.4940     0.5430 H     1 <1>   0.1500 
 47 H       -4.0430    -4.3310     2.1700 H     1 <1>   0.0800 
 48 H       -5.0060    -2.9440     2.5850 H     1 <1>   0.0800 
 49 H       -4.6650    -2.1750    -3.1680 H     1 <1>   0.1500 
 50 H       -5.8670     2.1180     3.2280 H     1 <1>   0.0800 
 51 H       -4.9940     0.6140     3.0360 H     1 <1>   0.0800 
 52 H       -5.2790    -0.5650     0.9610 H     1 <1>   0.0800 
 53 H       -6.3380     0.1380    -0.2370 H     1 <1>   0.0800 
 54 H        2.6600     4.4700    -3.4280 H     1 <1>   0.1500 
 55 H        4.0180     1.1660    -1.1110 H     1 <1>   0.1500 
 56 H        4.4560     2.9130    -2.7890 H     1 <1>   0.1500 
 57 H       -8.7540    -3.4760    -2.1370 H     1 <1>   0.0800 
 58 H       -8.2120    -2.7680    -0.6190 H     1 <1>   0.0800 
 59 H       -7.7750    -4.4360    -1.0330 H     1 <1>   0.0800 
@<TRIPOS>BOND
  1   1   2  2   
  2   2   3  am  
  3   2   4  1   
  4   3   5  1   
  5   3  33  1   
  6   4   6  1   
  7   4   7  2   
  8   5   8  1   
  9   5   9  1   
 10   5  34  1   
 11   6  10  2   
 12   6  11  1   
 13   7  12  1   
 14   7  13  1   
 15   8  14  ar  
 16   8  15  ar  
 17   9  16  1   
 18   9  35  1   
 19   9  36  1   
 20  10  12  1   
 21  11  17  1   
 22  11  18  1   
 23  13  19  ar  
 24  13  20  ar  
 25  14  21  ar  
 26  14  22  1   
 27  15  23  ar  
 28  15  37  1   
 29  16  22  1   
 30  16  38  1   
 31  16  39  1   
 32  17  24  1   
 33  17  40  1   
 34  17  41  1   
 35  18  25  1   
 36  18  42  1   
 37  18  43  1   
 38  19  26  ar  
 39  19  44  1   
 40  20  27  ar  
 41  20  45  1   
 42  21  28  ar  
 43  21  46  1   
 44  22  47  1   
 45  22  48  1   
 46  23  28  ar  
 47  23  49  1   
 48  24  29  1   
 49  24  50  1   
 50  24  51  1   
 51  25  29  1   
 52  25  52  1   
 53  25  53  1   
 54  26  30  ar  
 55  26  54  1   
 56  27  30  ar  
 57  27  55  1   
 58  28  31  1   
 59  30  56  1   
 60  31  32  1   
 61  32  57  1   
 62  32  58  1   
 63  32  59  1   
@<TRIPOS>SUBSTRUCTURE
  1 ****   3 GROUP 4 **** **** 0

# MOE 2024.06 (io_trps.svl 2023.06)
