@<TRIPOS>MOLECULE
NONAME
53 56 1 0 0 
SMALL
USER_CHARGES


@<TRIPOS>ATOM
  1 O        0.8080    -0.7220     2.5540 O.3   1 <1>  -0.6800 
  2 C        1.3170    -0.5610     1.2710 C.3   1 <1>   0.2000 
  3 C        2.3400    -1.6460     0.9530 C.3   1 <1>  -0.0800 
  4 C        2.0940     0.7470     1.1370 C.3   1 <1>   0.2090 
  5 C        3.2060    -0.9920    -0.1270 C.3   1 <1>   0.2090 
  6 C        1.7020    -2.9750     0.5070 C.3   1 <1>  -0.0170 
  7 N        3.1900     0.4640     0.1700 N.pl3 1 <1>  -0.8380 
  8 C        2.6780    -4.1040     0.1500 C.ar  1 <1>  -0.1440 
  9 C        4.3940     1.0870     0.4100 C.ar  1 <1>   0.4100 
 10 C        2.2380    -5.2200    -0.6070 C.ar  1 <1>   0.0000 
 11 C        3.9880    -4.1030     0.5440 C.ar  1 <1>  -0.1500 
 12 N        5.1550     0.5490     1.3440 N.ar  1 <1>  -0.6200 
 13 C        4.7870     2.2320    -0.2750 C.ar  1 <1>  -0.1430 
 14 C        3.1880    -6.2200    -0.9310 C.ar  1 <1>   0.3100 
 15 C        0.9080    -5.4110    -1.0540 C.ar  1 <1>  -0.1500 
 16 C        4.8430    -5.1490     0.1770 C.ar  1 <1>   0.1600 
 17 C        6.2930     1.1630     1.5880 C.ar  1 <1>   0.4770 
 18 C        6.0000     2.7680     0.0770 C.ar  1 <1>   0.1600 
 19 C        3.9310     2.8760    -1.3690 C.3   1 <1>   0.0640 
 20 N        4.4830    -6.1690    -0.5340 N.ar  1 <1>  -0.6200 
 21 C        2.7840    -7.3260    -1.6950 C.ar  1 <1>  -0.1500 
 22 C        0.5450    -6.5040    -1.7940 C.ar  1 <1>  -0.1500 
 23 N        6.7720     2.2470     1.0100 N.ar  1 <1>  -0.6200 
 24 C        7.1630     0.5540     2.6600 C.3   1 <1>  -0.0970 
 25 C        4.6780     2.8960    -2.7070 C.3   1 <1>  -0.2400 
 26 C        3.5080     4.2920    -0.9650 C.3   1 <1>  -0.2400 
 27 C        1.4930    -7.4740    -2.1230 C.ar  1 <1>  -0.1500 
 28 H        0.3900    -1.5980     2.6550 H     1 <1>   0.4000 
 29 H        0.5000    -0.5690     0.5700 H     1 <1>   0.0800 
 30 H        2.9550    -1.7920     1.8240 H     1 <1>   0.0800 
 31 H        2.5140     1.0290     2.0890 H     1 <1>   0.0800 
 32 H        1.4630     1.5340     0.7660 H     1 <1>   0.0800 
 33 H        2.7780    -1.1470    -1.1030 H     1 <1>   0.0800 
 34 H        4.2090    -1.3820    -0.1250 H     1 <1>   0.0800 
 35 H        1.0950    -2.7600    -0.3540 H     1 <1>   0.0800 
 36 H        1.0530    -3.3330     1.2860 H     1 <1>   0.0800 
 37 H        4.4170    -3.3210     1.1410 H     1 <1>   0.1500 
 38 H        0.1540    -4.6880    -0.8090 H     1 <1>   0.1500 
 39 H        5.8660    -5.0990     0.5060 H     1 <1>   0.1500 
 40 H        6.3620     3.6530    -0.4150 H     1 <1>   0.1500 
 41 H        3.0330     2.3010    -1.5150 H     1 <1>   0.0800 
 42 H        3.5310    -8.0620    -1.9320 H     1 <1>   0.1500 
 43 H       -0.4700    -6.6320    -2.1290 H     1 <1>   0.1500 
 44 H        7.5120     1.3250     3.3210 H     1 <1>   0.0800 
 45 H        8.0060     0.0750     2.2010 H     1 <1>   0.0800 
 46 H        6.6100    -0.1700     3.2280 H     1 <1>   0.0800 
 47 H        5.5570     3.5120    -2.6530 H     1 <1>   0.0800 
 48 H        4.0380     3.2780    -3.4830 H     1 <1>   0.0800 
 49 H        4.9730     1.8960    -2.9730 H     1 <1>   0.0800 
 50 H        4.3610     4.9380    -0.8640 H     1 <1>   0.0800 
 51 H        2.9870     4.2610    -0.0240 H     1 <1>   0.0800 
 52 H        2.8480     4.7080    -1.7050 H     1 <1>   0.0800 
 53 H        1.1970    -8.3290    -2.7080 H     1 <1>   0.1500 
@<TRIPOS>BOND
  1   1   2  1   
  2   1  28  1   
  3   2   3  1   
  4   2   4  1   
  5   2  29  1   
  6   3   5  1   
  7   3   6  1   
  8   3  30  1   
  9   4   7  1   
 10   4  31  1   
 11   4  32  1   
 12   5   7  1   
 13   5  33  1   
 14   5  34  1   
 15   6   8  1   
 16   6  35  1   
 17   6  36  1   
 18   7   9  1   
 19   8  10  ar  
 20   8  11  ar  
 21   9  12  ar  
 22   9  13  ar  
 23  10  14  ar  
 24  10  15  ar  
 25  11  16  ar  
 26  11  37  1   
 27  12  17  ar  
 28  13  18  ar  
 29  13  19  1   
 30  14  20  ar  
 31  14  21  ar  
 32  15  22  ar  
 33  15  38  1   
 34  16  20  ar  
 35  16  39  1   
 36  17  23  ar  
 37  17  24  1   
 38  18  23  ar  
 39  18  40  1   
 40  19  25  1   
 41  19  26  1   
 42  19  41  1   
 43  21  27  ar  
 44  21  42  1   
 45  22  27  ar  
 46  22  43  1   
 47  24  44  1   
 48  24  45  1   
 49  24  46  1   
 50  25  47  1   
 51  25  48  1   
 52  25  49  1   
 53  26  50  1   
 54  26  51  1   
 55  26  52  1   
 56  27  53  1   
@<TRIPOS>SUBSTRUCTURE
  1 ****   5 GROUP 4 **** **** 0

# MOE 2024.06 (io_trps.svl 2023.06)
