@<TRIPOS>MOLECULE
NONAME
49 51 1 0 0 
SMALL
USER_CHARGES


@<TRIPOS>ATOM
  1 O        0.6070     0.1490     0.3050 O.2   1 <1>  -0.5700 
  2 C        1.6210    -0.3200     0.7760 C.2   1 <1>   0.5690 
  3 N        2.6750     0.5040     1.1180 N.am  1 <1>  -0.6600 
  4 C        1.6420    -1.8420     1.0320 C.3   1 <1>   0.2610 
  5 C        3.9230     0.0320     1.7970 C.3   1 <1>   0.1400 
  6 C        2.5820     1.9720     0.8590 C.3   1 <1>   0.1400 
  7 O        2.8420    -2.4560     0.5810 O.3   1 <1>  -0.2170 
  8 C        0.5510    -2.6670     0.3370 C.3   1 <1>  -0.0990 
  9 C        5.0470    -0.2440     0.7850 C.3   1 <1>   0.1100 
 10 C        3.9210     2.6480     0.5390 C.3   1 <1>  -0.1600 
 11 N        2.6180    -3.6010    -0.0330 N.2   1 <1>  -0.5130 
 12 C        1.3880    -3.7870    -0.2030 C.2   1 <1>   0.3280 
 13 N        5.7160     0.9750     0.2870 N.3   1 <1>  -0.8100 
 14 C        4.7990     1.8700    -0.4430 C.3   1 <1>   0.1100 
 15 C        0.7020    -4.9840    -0.8700 C.3   1 <1>  -0.0190 
 16 C        6.8720     0.5950    -0.5660 C.3   1 <1>   0.2900 
 17 C        1.6720    -6.1530    -1.1060 C.3   1 <1>  -0.2400 
 18 C        0.0530    -4.5810    -2.2030 C.3   1 <1>  -0.2400 
 19 C        7.7880     1.7640    -0.9190 C.2   1 <1>   0.2980 
 20 O        8.4480     2.3900     0.0030 O.3   1 <1>  -0.2800 
 21 N        8.0140     2.2440    -2.0850 N.2   1 <1>  -0.3380 
 22 C        9.0970     3.2970    -0.6490 C.2   1 <1>   0.2980 
 23 N        8.8720     3.2500    -1.9060 N.2   1 <1>  -0.3380 
 24 C        9.9960     4.2570     0.0910 C.3   1 <1>  -0.0600 
 25 H        1.5930    -2.0100     2.0910 H     1 <1>   0.0800 
 26 H        3.7180    -0.8720     2.3400 H     1 <1>   0.0800 
 27 H        4.2540     0.7590     2.5170 H     1 <1>   0.0800 
 28 H        2.1380     2.4480     1.7160 H     1 <1>   0.0800 
 29 H        1.9240     2.1370     0.0220 H     1 <1>   0.0800 
 30 H        0.0820    -2.1330    -0.4680 H     1 <1>   0.0800 
 31 H       -0.1860    -3.0080     1.0400 H     1 <1>   0.0800 
 32 H        4.6590    -0.8170    -0.0400 H     1 <1>   0.0800 
 33 H        5.7820    -0.8520     1.2850 H     1 <1>   0.0800 
 34 H        4.4700     2.8490     1.4420 H     1 <1>   0.0800 
 35 H        3.6940     3.6020     0.1000 H     1 <1>   0.0800 
 36 H        5.3710     2.5930    -1.0010 H     1 <1>   0.0800 
 37 H        4.1970     1.3150    -1.1440 H     1 <1>   0.0800 
 38 H       -0.0700    -5.3290    -0.2060 H     1 <1>   0.0800 
 39 H        6.5150     0.1460    -1.4760 H     1 <1>   0.0800 
 40 H        7.4700    -0.1330    -0.0480 H     1 <1>   0.0800 
 41 H        2.4590    -5.8580    -1.7780 H     1 <1>   0.0800 
 42 H        1.1540    -6.9960    -1.5280 H     1 <1>   0.0800 
 43 H        2.1170    -6.4570    -0.1760 H     1 <1>   0.0800 
 44 H        0.7990    -4.1990    -2.8800 H     1 <1>   0.0800 
 45 H       -0.6920    -3.8210    -2.0500 H     1 <1>   0.0800 
 46 H       -0.4230    -5.4310    -2.6610 H     1 <1>   0.0800 
 47 H       10.7620     3.7100     0.6070 H     1 <1>   0.0800 
 48 H        9.4170     4.8150     0.8040 H     1 <1>   0.0800 
 49 H       10.4530     4.9380    -0.6030 H     1 <1>   0.0800 
@<TRIPOS>BOND
  1   1   2  2   
  2   2   3  am  
  3   2   4  1   
  4   3   5  1   
  5   3   6  1   
  6   4   7  1   
  7   4   8  1   
  8   4  25  1   
  9   5   9  1   
 10   5  26  1   
 11   5  27  1   
 12   6  10  1   
 13   6  28  1   
 14   6  29  1   
 15   7  11  1   
 16   8  12  1   
 17   8  30  1   
 18   8  31  1   
 19   9  13  1   
 20   9  32  1   
 21   9  33  1   
 22  10  14  1   
 23  10  34  1   
 24  10  35  1   
 25  11  12  2   
 26  12  15  1   
 27  13  14  1   
 28  13  16  1   
 29  14  36  1   
 30  14  37  1   
 31  15  17  1   
 32  15  18  1   
 33  15  38  1   
 34  16  19  1   
 35  16  39  1   
 36  16  40  1   
 37  17  41  1   
 38  17  42  1   
 39  17  43  1   
 40  18  44  1   
 41  18  45  1   
 42  18  46  1   
 43  19  20  1   
 44  19  21  2   
 45  20  22  1   
 46  21  23  1   
 47  22  23  2   
 48  22  24  1   
 49  24  47  1   
 50  24  48  1   
 51  24  49  1   
@<TRIPOS>SUBSTRUCTURE
  1 ****   9 GROUP 4 **** **** 0

# MOE 2024.06 (io_trps.svl 2023.06)
