@<TRIPOS>MOLECULE
NONAME
46 47 1 0 0 
SMALL
USER_CHARGES


@<TRIPOS>ATOM
  1 S        0.1440    -0.1360     0.5400 S.o2  1 <1>   1.3330 
  2 O       -0.7500     0.9990     0.5610 O.2   1 <1>  -0.6500 
  3 O        0.4730    -0.8070     1.7780 O.2   1 <1>  -0.6500 
  4 N       -0.4940    -1.2970    -0.5230 N.am  1 <1>  -0.8490 
  5 C        1.6490     0.3690    -0.2940 C.3   1 <1>  -0.0550 
  6 C       -1.9580    -1.3490    -0.4780 C.3   1 <1>   0.1160 
  7 C        0.0600    -2.6400    -0.3200 C.3   1 <1>   0.1160 
  8 C        2.4030     1.5050     0.4270 C.3   1 <1>  -0.0800 
  9 C        3.5330     2.0420    -0.4340 C.3   1 <1>   0.2200 
 10 C        3.1490     1.0040     1.6710 C.3   1 <1>   0.1200 
 11 N        3.8450     3.4260    -0.0170 N.am  1 <1>  -0.7300 
 12 C        4.6840     1.1230    -0.0470 C.3   1 <1>   0.1200 
 13 O        4.4820     0.8050     1.2970 O.3   1 <1>  -0.5600 
 14 C        3.7440     4.5150    -0.8160 C.2   1 <1>   0.5690 
 15 O        3.3670     4.4420    -1.9580 O.2   1 <1>  -0.5700 
 16 C        4.1350     5.8660    -0.2550 C.3   1 <1>  -0.0990 
 17 C        5.6610     6.0510    -0.2350 C.3   1 <1>  -0.1600 
 18 C        6.0520     7.4480     0.2650 C.3   1 <1>   0.0960 
 19 N        7.5190     7.5730     0.3600 N.pl3 1 <1>   0.3140 
 20 N        8.1950     7.2430     1.4510 N.2   1 <1>  -0.7070 
 21 C        8.3820     7.9970    -0.5670 C.2   1 <1>   0.0360 
 22 C        9.4160     7.4930     1.1050 C.2   1 <1>   0.3660 
 23 N        9.5910     7.9630    -0.1360 N.2   1 <1>  -0.5650 
 24 H        2.2960    -0.4780    -0.4100 H     1 <1>   0.0800 
 25 H        1.3780     0.7100    -1.2750 H     1 <1>   0.0800 
 26 H       -2.3280    -2.0820    -1.1740 H     1 <1>   0.0800 
 27 H       -2.3700    -0.3910    -0.7510 H     1 <1>   0.0800 
 28 H       -2.2930    -1.5990     0.5150 H     1 <1>   0.0800 
 29 H       -0.3070    -3.3100    -1.0790 H     1 <1>   0.0800 
 30 H       -0.2210    -3.0210     0.6490 H     1 <1>   0.0800 
 31 H        1.1340    -2.6130    -0.3820 H     1 <1>   0.0800 
 32 H        1.7010     2.2830     0.6750 H     1 <1>   0.0800 
 33 H        3.3220     2.0050    -1.4910 H     1 <1>   0.0800 
 34 H        2.7620     0.0810     2.0640 H     1 <1>   0.0800 
 35 H        3.1390     1.7500     2.4470 H     1 <1>   0.0800 
 36 H        4.2230     3.5050     0.9290 H     1 <1>   0.3700 
 37 H        5.6470     1.5880    -0.1690 H     1 <1>   0.0800 
 38 H        4.6470     0.2070    -0.6090 H     1 <1>   0.0800 
 39 H        3.6830     6.6260    -0.8670 H     1 <1>   0.0800 
 40 H        3.7350     5.9590     0.7390 H     1 <1>   0.0800 
 41 H        6.0460     5.9060    -1.2310 H     1 <1>   0.0800 
 42 H        6.1000     5.3080     0.4100 H     1 <1>   0.0800 
 43 H        5.6420     7.6200     1.2440 H     1 <1>   0.0800 
 44 H        5.6830     8.2050    -0.4030 H     1 <1>   0.0800 
 45 H        8.0810     8.3200    -1.5460 H     1 <1>   0.1500 
 46 H       10.2590     7.3390     1.7600 H     1 <1>   0.1500 
@<TRIPOS>BOND
  1   1   2  2   
  2   1   3  2   
  3   1   4  am  
  4   1   5  1   
  5   4   6  1   
  6   4   7  1   
  7   5   8  1   
  8   5  24  1   
  9   5  25  1   
 10   6  26  1   
 11   6  27  1   
 12   6  28  1   
 13   7  29  1   
 14   7  30  1   
 15   7  31  1   
 16   8   9  1   
 17   8  10  1   
 18   8  32  1   
 19   9  11  1   
 20   9  12  1   
 21   9  33  1   
 22  10  13  1   
 23  10  34  1   
 24  10  35  1   
 25  11  14  am  
 26  11  36  1   
 27  12  13  1   
 28  12  37  1   
 29  12  38  1   
 30  14  15  2   
 31  14  16  1   
 32  16  17  1   
 33  16  39  1   
 34  16  40  1   
 35  17  18  1   
 36  17  41  1   
 37  17  42  1   
 38  18  19  1   
 39  18  43  1   
 40  18  44  1   
 41  19  20  1   
 42  19  21  1   
 43  20  22  2   
 44  21  23  2   
 45  21  45  1   
 46  22  23  1   
 47  22  46  1   
@<TRIPOS>SUBSTRUCTURE
  1 ****  11 GROUP 4 **** **** 0

# MOE 2024.06 (io_trps.svl 2023.06)
