@<TRIPOS>MOLECULE
NONAME
45 47 1 0 0 
SMALL
USER_CHARGES


@<TRIPOS>ATOM
  1 S        0.4590     1.2470    -0.9100 S.o2  1 <1>   1.3330 
  2 O       -0.1900     1.9750    -1.9780 O.2   1 <1>  -0.6500 
  3 O        1.0060    -0.0600    -1.1900 O.2   1 <1>  -0.6500 
  4 N        1.7400     2.2020    -0.3450 N.am  1 <1>  -0.8490 
  5 C       -0.7130     1.0760     0.4510 C.3   1 <1>  -0.0550 
  6 C        2.5410     2.7440    -1.4450 C.3   1 <1>   0.1160 
  7 C        2.6170     1.5210     0.6130 C.3   1 <1>   0.1160 
  8 C       -1.3520     2.3270     1.1100 C.3   1 <1>  -0.0800 
  9 C       -1.8390     3.4080     0.1390 C.3   1 <1>   0.2000 
 10 C       -0.4100     3.0680     2.0650 C.3   1 <1>   0.1400 
 11 O       -2.9290     4.0290     0.7300 O.3   1 <1>  -0.6800 
 12 C       -0.7010     4.4280     0.0660 C.3   1 <1>   0.1400 
 13 N        0.0290     4.2970     1.3590 N.am  1 <1>  -0.6600 
 14 C        1.2710     4.8470     1.6000 C.2   1 <1>   0.5440 
 15 O        1.9440     4.3840     2.5050 O.2   1 <1>  -0.5700 
 16 C        1.8020     5.9380     0.8050 C.ar  1 <1>   0.0860 
 17 C        1.0500     7.0580     0.4810 C.ar  1 <1>  -0.1500 
 18 C        3.1340     5.8820     0.3430 C.ar  1 <1>  -0.1500 
 19 C        1.5860     8.0750    -0.3080 C.ar  1 <1>   0.0000 
 20 C        3.6830     6.8750    -0.4310 C.ar  1 <1>  -0.1500 
 21 C        2.8960     7.9790    -0.7640 C.ar  1 <1>  -0.1520 
 22 C        1.0810     9.2970    -0.8050 C.2   1 <1>  -0.1500 
 23 N        3.1790     9.0940    -1.5080 N.pl3 1 <1>   0.0330 
 24 C        2.0650     9.8860    -1.5250 C.2   1 <1>  -0.3020 
 25 H       -1.5230     0.4800     0.0790 H     1 <1>   0.0800 
 26 H       -0.2500     0.4950     1.2230 H     1 <1>   0.0800 
 27 H        3.3430     3.3490    -1.0630 H     1 <1>   0.0800 
 28 H        1.9270     3.3610    -2.0800 H     1 <1>   0.0800 
 29 H        2.9530     1.9430    -2.0370 H     1 <1>   0.0800 
 30 H        3.3360     2.2180     1.0110 H     1 <1>   0.0800 
 31 H        3.1380     0.7070     0.1370 H     1 <1>   0.0800 
 32 H        2.0440     1.1320     1.4350 H     1 <1>   0.0800 
 33 H       -2.1850     1.9580     1.6830 H     1 <1>   0.0800 
 34 H       -2.1490     3.0380    -0.8240 H     1 <1>   0.0800 
 35 H        0.4320     2.4610     2.3480 H     1 <1>   0.0800 
 36 H       -0.9370     3.3600     2.9570 H     1 <1>   0.0800 
 37 H       -2.6230     4.5160     1.5210 H     1 <1>   0.4000 
 38 H       -1.0860     5.4210    -0.0790 H     1 <1>   0.0800 
 39 H       -0.0340     4.1920    -0.7430 H     1 <1>   0.0800 
 40 H        0.0440     7.1620     0.8420 H     1 <1>   0.1500 
 41 H        3.7230     5.0260     0.6230 H     1 <1>   0.1500 
 42 H        4.7000     6.8150    -0.7750 H     1 <1>   0.1500 
 43 H        0.0850     9.6580    -0.6200 H     1 <1>   0.1500 
 44 H        4.0750     9.2950    -1.9620 H     1 <1>   0.2700 
 45 H        2.0420    10.8250    -2.0490 H     1 <1>   0.1500 
@<TRIPOS>BOND
  1   1   2  2   
  2   1   3  2   
  3   1   4  am  
  4   1   5  1   
  5   4   6  1   
  6   4   7  1   
  7   5   8  1   
  8   5  25  1   
  9   5  26  1   
 10   6  27  1   
 11   6  28  1   
 12   6  29  1   
 13   7  30  1   
 14   7  31  1   
 15   7  32  1   
 16   8   9  1   
 17   8  10  1   
 18   8  33  1   
 19   9  11  1   
 20   9  12  1   
 21   9  34  1   
 22  10  13  1   
 23  10  35  1   
 24  10  36  1   
 25  11  37  1   
 26  12  13  1   
 27  12  38  1   
 28  12  39  1   
 29  13  14  am  
 30  14  15  2   
 31  14  16  1   
 32  16  17  ar  
 33  16  18  ar  
 34  17  19  ar  
 35  17  40  1   
 36  18  20  ar  
 37  18  41  1   
 38  19  21  ar  
 39  19  22  1   
 40  20  21  ar  
 41  20  42  1   
 42  21  23  1   
 43  22  24  2   
 44  22  43  1   
 45  23  24  1   
 46  23  44  1   
 47  24  45  1   
@<TRIPOS>SUBSTRUCTURE
  1 ****  14 GROUP 4 **** **** 0

# MOE 2024.06 (io_trps.svl 2023.06)
