@<TRIPOS>MOLECULE
NONAME
48 51 1 0 0 
SMALL
USER_CHARGES


@<TRIPOS>ATOM
  1 CL       0.0000     0.9390    -1.2150 Cl    1 <1>  -0.1770 
  2 C       -1.6660     1.1390    -0.7390 C.ar  1 <1>   0.1770 
  3 C       -2.3520     0.0710    -0.1940 C.ar  1 <1>  -0.1500 
  4 C       -2.2800     2.3640    -0.9100 C.ar  1 <1>  -0.1500 
  5 C       -3.6730     0.2360     0.1830 C.ar  1 <1>  -0.1500 
  6 C       -3.6020     2.5170    -0.5300 C.ar  1 <1>  -0.1500 
  7 C       -4.3290     1.4580     0.0210 C.ar  1 <1>   0.0530 
  8 C       -5.7020     1.6480     0.4200 C.2   1 <1>   0.0870 
  9 O       -6.0490     2.7740     0.9930 O.3   1 <1>  -0.0190 
 10 C       -6.8230     0.8750     0.3560 C.2   1 <1>  -0.0860 
 11 N       -7.3110     2.8130     1.3250 N.2   1 <1>  -0.4100 
 12 C       -7.7960     1.6910     0.9480 C.2   1 <1>   0.3720 
 13 C       -7.0330    -0.4410    -0.1710 C.2   1 <1>   0.7160 
 14 N       -9.1390     1.4080     1.1450 N.pl3 1 <1>  -0.8520 
 15 O       -6.2250    -0.9330    -0.9350 O.2   1 <1>  -0.5700 
 16 N       -8.1550    -1.1310     0.1930 N.am  1 <1>  -0.5790 
 17 C       -9.9840     1.6110    -0.0660 C.3   1 <1>   0.2090 
 18 C       -8.7130    -2.4300    -0.2210 C.3   1 <1>   0.1490 
 19 C      -11.4650     1.5160     0.3000 C.3   1 <1>   0.1200 
 20 C       -9.9240    -2.7970     0.6790 C.3   1 <1>  -0.1000 
 21 C       -7.8260    -3.5240    -0.7160 C.3   1 <1>  -0.2000 
 22 C       -8.6680    -2.7410    -1.6830 C.3   1 <1>  -0.2000 
 23 O      -12.2100     1.5230    -0.8750 O.3   1 <1>  -0.5600 
 24 C      -11.0620    -3.6680     0.2420 C.3   1 <1>  -0.2000 
 25 C      -11.2660    -2.1900     0.4160 C.3   1 <1>  -0.2000 
 26 C      -13.5820     1.3990    -0.6770 C.3   1 <1>   0.0400 
 27 H       -1.8570    -0.8750    -0.0710 H     1 <1>   0.1500 
 28 H       -1.7280     3.1830    -1.3350 H     1 <1>   0.1500 
 29 H       -4.2030    -0.5970     0.6100 H     1 <1>   0.1500 
 30 H       -4.0830     3.4710    -0.6630 H     1 <1>   0.1500 
 31 H       -9.4610     2.0670     1.8650 H     1 <1>   0.4000 
 32 H       -8.8090    -0.5790     0.7610 H     1 <1>   0.3700 
 33 H       -9.7550     0.8540    -0.7970 H     1 <1>   0.0800 
 34 H       -9.7830     2.5790    -0.4940 H     1 <1>   0.0800 
 35 H      -11.7590     2.3600     0.8990 H     1 <1>   0.0800 
 36 H      -11.6610     0.5980     0.8240 H     1 <1>   0.0800 
 37 H       -9.6200    -2.9190     1.7040 H     1 <1>   0.1000 
 38 H       -8.1040    -4.5440    -0.5250 H     1 <1>   0.1000 
 39 H       -6.7600    -3.3840    -0.7120 H     1 <1>   0.1000 
 40 H       -8.1660    -2.0650    -2.3530 H     1 <1>   0.1000 
 41 H       -9.4860    -3.2480    -2.1580 H     1 <1>   0.1000 
 42 H      -11.4990    -4.3380     0.9620 H     1 <1>   0.1000 
 43 H      -11.0800    -4.0750    -0.7530 H     1 <1>   0.1000 
 44 H      -11.4040    -1.5900    -0.4680 H     1 <1>   0.1000 
 45 H      -11.8510    -1.8450     1.2500 H     1 <1>   0.1000 
 46 H      -14.0620     1.4210    -1.6400 H     1 <1>   0.0800 
 47 H      -13.9320     2.2230    -0.0790 H     1 <1>   0.0800 
 48 H      -13.7890     0.4610    -0.1910 H     1 <1>   0.0800 
@<TRIPOS>BOND
  1   1   2  1   
  2   2   3  ar  
  3   2   4  ar  
  4   3   5  ar  
  5   3  27  1   
  6   4   6  ar  
  7   4  28  1   
  8   5   7  ar  
  9   5  29  1   
 10   6   7  ar  
 11   6  30  1   
 12   7   8  1   
 13   8   9  1   
 14   8  10  2   
 15   9  11  1   
 16  10  12  1   
 17  10  13  1   
 18  11  12  2   
 19  12  14  1   
 20  13  15  2   
 21  13  16  am  
 22  14  17  1   
 23  14  31  1   
 24  16  18  1   
 25  16  32  1   
 26  17  19  1   
 27  17  33  1   
 28  17  34  1   
 29  18  20  1   
 30  18  21  1   
 31  18  22  1   
 32  19  23  1   
 33  19  35  1   
 34  19  36  1   
 35  20  24  1   
 36  20  25  1   
 37  20  37  1   
 38  21  22  1   
 39  21  38  1   
 40  21  39  1   
 41  22  40  1   
 42  22  41  1   
 43  23  26  1   
 44  24  25  1   
 45  24  42  1   
 46  24  43  1   
 47  25  44  1   
 48  25  45  1   
 49  26  46  1   
 50  26  47  1   
 51  26  48  1   
@<TRIPOS>SUBSTRUCTURE
  1 ****  13 GROUP 4 **** **** 0

# MOE 2024.06 (io_trps.svl 2023.06)
