@<TRIPOS>MOLECULE
NONAME
44 47 1 0 0 
SMALL
USER_CHARGES


@<TRIPOS>ATOM
  1 O        1.0520    -1.1190     2.5670 O.2   1 <1>  -0.5700 
  2 C        1.4190    -0.6280     1.5150 C.2   1 <1>   0.5440 
  3 N        0.5630     0.2300     0.8590 N.am  1 <1>  -0.6600 
  4 C        2.7220    -0.9570     0.9980 C.ar  1 <1>   0.0860 
  5 C        0.9580     1.1380    -0.2430 C.3   1 <1>   0.1400 
  6 C       -0.7830     0.5710     1.3710 C.3   1 <1>   0.1400 
  7 C        2.8790    -1.6160    -0.2360 C.ar  1 <1>   0.4100 
  8 C        3.8650    -0.6560     1.7240 C.ar  1 <1>  -0.1500 
  9 C       -0.3080     1.9200    -0.5740 C.3   1 <1>  -0.1600 
 10 C       -1.1220     1.9050     0.7160 C.3   1 <1>  -0.1600 
 11 N        4.0590    -1.9500    -0.7510 N.ar  1 <1>  -0.6200 
 12 N        1.7910    -1.9560    -1.0010 N.pl3 1 <1>  -0.8690 
 13 C        5.0840    -1.0040     1.1910 C.ar  1 <1>  -0.1500 
 14 C        5.1230    -1.6410    -0.0370 C.ar  1 <1>   0.1600 
 15 C        1.7570    -3.1460    -1.8900 C.3   1 <1>   0.3900 
 16 C        0.4020    -3.8420    -1.8030 C.2   1 <1>   0.1080 
 17 N       -0.2220    -4.3480    -2.8340 N.2   1 <1>  -0.7070 
 18 C       -0.3300    -4.0310    -0.6330 C.2   1 <1>  -0.1810 
 19 N       -1.3640    -4.8720    -2.3330 N.pl3 1 <1>   0.3000 
 20 C       -1.4270    -4.6830    -1.0040 C.2   1 <1>  -0.3320 
 21 C       -0.3130    -3.7610     0.8480 C.3   1 <1>   0.0210 
 22 C       -2.3670    -5.0010     0.1240 C.3   1 <1>   0.0200 
 23 C       -1.5280    -4.5770     1.3540 C.3   1 <1>  -0.1600 
 24 H        1.3120     0.5940    -1.1020 H     1 <1>   0.0800 
 25 H        1.7300     1.8030     0.1070 H     1 <1>   0.0800 
 26 H       -0.7850     0.6450     2.4450 H     1 <1>   0.0800 
 27 H       -1.4780    -0.1910     1.0600 H     1 <1>   0.0800 
 28 H        3.7860    -0.1680     2.6800 H     1 <1>   0.1500 
 29 H       -0.8430     1.4010    -1.3500 H     1 <1>   0.0800 
 30 H       -0.0860     2.9180    -0.9100 H     1 <1>   0.0800 
 31 H       -0.7980     2.7020     1.3630 H     1 <1>   0.0800 
 32 H       -2.1780     2.0060     0.5380 H     1 <1>   0.0800 
 33 H        0.8610    -1.7400    -0.6260 H     1 <1>   0.4000 
 34 H        5.9970    -0.7890     1.7170 H     1 <1>   0.1500 
 35 H        6.0810    -1.9090    -0.4490 H     1 <1>   0.1500 
 36 H        2.5260    -3.8440    -1.6120 H     1 <1>   0.0800 
 37 H        1.9310    -2.8330    -2.9040 H     1 <1>   0.0800 
 38 H       -2.0610    -5.3450    -2.9200 H     1 <1>   0.2700 
 39 H       -0.4640    -2.7130     1.0270 H     1 <1>   0.0800 
 40 H        0.6080    -4.0850     1.3010 H     1 <1>   0.0800 
 41 H       -2.6110    -6.0490     0.1560 H     1 <1>   0.0800 
 42 H       -3.2620    -4.4090     0.0410 H     1 <1>   0.0800 
 43 H       -2.1150    -4.0050     2.0510 H     1 <1>   0.0800 
 44 H       -1.1670    -5.4600     1.8490 H     1 <1>   0.0800 
@<TRIPOS>BOND
  1   1   2  2   
  2   2   3  am  
  3   2   4  1   
  4   3   5  1   
  5   3   6  1   
  6   4   7  ar  
  7   4   8  ar  
  8   5   9  1   
  9   5  24  1   
 10   5  25  1   
 11   6  10  1   
 12   6  26  1   
 13   6  27  1   
 14   7  11  ar  
 15   7  12  1   
 16   8  13  ar  
 17   8  28  1   
 18   9  10  1   
 19   9  29  1   
 20   9  30  1   
 21  10  31  1   
 22  10  32  1   
 23  11  14  ar  
 24  12  15  1   
 25  12  33  1   
 26  13  14  ar  
 27  13  34  1   
 28  14  35  1   
 29  15  16  1   
 30  15  36  1   
 31  15  37  1   
 32  16  17  2   
 33  16  18  1   
 34  17  19  1   
 35  18  20  2   
 36  18  21  1   
 37  19  20  1   
 38  19  38  1   
 39  20  22  1   
 40  21  23  1   
 41  21  39  1   
 42  21  40  1   
 43  22  23  1   
 44  22  41  1   
 45  22  42  1   
 46  23  43  1   
 47  23  44  1   
@<TRIPOS>SUBSTRUCTURE
  1 ****  12 GROUP 4 **** **** 0

# MOE 2024.06 (io_trps.svl 2023.06)
