@<TRIPOS>MOLECULE
NONAME
50 54 1 0 0 
SMALL
USER_CHARGES


@<TRIPOS>ATOM
  1 O       -0.5050     0.3460    -0.5630 O.2   1 <1>  -0.5700 
  2 C       -1.5500     0.8950    -0.2790 C.2   1 <1>   0.5440 
  3 N       -2.6770     0.1280    -0.0920 N.am  1 <1>  -0.6600 
  4 C       -1.5800     2.3310    -0.1640 C.ar  1 <1>   0.0860 
  5 C       -4.0750     0.6190    -0.2210 C.3   1 <1>   0.1400 
  6 C       -2.6410    -1.3560    -0.1910 C.3   1 <1>   0.1400 
  7 C       -0.9700     3.1480    -1.0940 C.ar  1 <1>   0.1600 
  8 C       -2.2080     2.9890     0.8750 C.ar  1 <1>   0.1600 
  9 C       -4.8990    -0.6190    -0.5740 C.3   1 <1>   0.2000 
 10 C       -4.0970    -1.8060    -0.0470 C.3   1 <1>  -0.0800 
 11 N       -1.0030     4.4630    -1.0310 N.ar  1 <1>  -0.6200 
 12 N       -2.2650     4.3000     0.9720 N.ar  1 <1>  -0.6200 
 13 O       -6.1500    -0.5850     0.0210 O.3   1 <1>  -0.6800 
 14 C       -4.4210    -3.1160    -0.7820 C.3   1 <1>  -0.0170 
 15 C       -1.6510     4.9710     0.0070 C.ar  1 <1>   0.5880 
 16 C       -3.6340    -4.2820    -0.2090 C.ar  1 <1>   0.1670 
 17 C       -1.7050     6.4900     0.0970 C.3   1 <1>  -0.0680 
 18 N       -2.4510    -4.5020    -0.6940 N.ar  1 <1>  -0.6200 
 19 C       -4.2110    -5.0540     0.8130 C.ar  1 <1>  -0.1500 
 20 C       -0.4490     7.3150     0.0740 C.3   1 <1>  -0.2000 
 21 C       -1.2510     7.2140     1.3330 C.3   1 <1>  -0.2000 
 22 C       -1.7370    -5.5370    -0.1800 C.ar  1 <1>   0.3100 
 23 C       -3.5180    -6.0970     1.3470 C.ar  1 <1>  -0.1500 
 24 C       -2.2330    -6.3670     0.8490 C.ar  1 <1>   0.0000 
 25 C       -0.4530    -5.7940    -0.6850 C.ar  1 <1>  -0.1500 
 26 C       -1.4260    -7.4180     1.3290 C.ar  1 <1>  -0.1500 
 27 C        0.3150    -6.8210    -0.2050 C.ar  1 <1>  -0.1500 
 28 C       -0.1780    -7.6420     0.8140 C.ar  1 <1>  -0.1500 
 29 H       -4.3960     1.0290     0.7200 H     1 <1>   0.0800 
 30 H       -4.1500     1.3590    -0.9990 H     1 <1>   0.0800 
 31 H       -2.2450    -1.6370    -1.1530 H     1 <1>   0.0800 
 32 H       -2.0170    -1.7780     0.5790 H     1 <1>   0.0800 
 33 H       -0.4410     2.6940    -1.9160 H     1 <1>   0.1500 
 34 H       -2.6770     2.4110     1.6520 H     1 <1>   0.1500 
 35 H       -5.0300    -0.6780    -1.6420 H     1 <1>   0.0800 
 36 H       -4.2880    -1.9300     1.0050 H     1 <1>   0.0800 
 37 H       -6.0690    -0.5930     0.9940 H     1 <1>   0.4000 
 38 H       -4.1880    -3.0180    -1.8280 H     1 <1>   0.0800 
 39 H       -5.4740    -3.3220    -0.7040 H     1 <1>   0.0800 
 40 H       -2.5620     6.8810    -0.4190 H     1 <1>   0.1000 
 41 H       -5.1970    -4.8110     1.1630 H     1 <1>   0.1500 
 42 H        0.4960     6.8030     0.0160 H     1 <1>   0.1000 
 43 H       -0.4540     8.2370    -0.4800 H     1 <1>   0.1000 
 44 H       -1.8190     8.0660     1.6640 H     1 <1>   0.1000 
 45 H       -0.8620     6.6330     2.1520 H     1 <1>   0.1000 
 46 H       -3.9260    -6.7110     2.1300 H     1 <1>   0.1500 
 47 H       -0.0920    -5.1520    -1.4670 H     1 <1>   0.1500 
 48 H       -1.8120    -8.0450     2.1130 H     1 <1>   0.1500 
 49 H        1.2990    -7.0070    -0.6020 H     1 <1>   0.1500 
 50 H        0.4360    -8.4460     1.1820 H     1 <1>   0.1500 
@<TRIPOS>BOND
  1   1   2  2   
  2   2   3  am  
  3   2   4  1   
  4   3   5  1   
  5   3   6  1   
  6   4   7  ar  
  7   4   8  ar  
  8   5   9  1   
  9   5  29  1   
 10   5  30  1   
 11   6  10  1   
 12   6  31  1   
 13   6  32  1   
 14   7  11  ar  
 15   7  33  1   
 16   8  12  ar  
 17   8  34  1   
 18   9  10  1   
 19   9  13  1   
 20   9  35  1   
 21  10  14  1   
 22  10  36  1   
 23  11  15  ar  
 24  12  15  ar  
 25  13  37  1   
 26  14  16  1   
 27  14  38  1   
 28  14  39  1   
 29  15  17  1   
 30  16  18  ar  
 31  16  19  ar  
 32  17  20  1   
 33  17  21  1   
 34  17  40  1   
 35  18  22  ar  
 36  19  23  ar  
 37  19  41  1   
 38  20  21  1   
 39  20  42  1   
 40  20  43  1   
 41  21  44  1   
 42  21  45  1   
 43  22  24  ar  
 44  22  25  ar  
 45  23  24  ar  
 46  23  46  1   
 47  24  26  ar  
 48  25  27  ar  
 49  25  47  1   
 50  26  28  ar  
 51  26  48  1   
 52  27  28  ar  
 53  27  49  1   
 54  28  50  1   
@<TRIPOS>SUBSTRUCTURE
  1 ****   6 GROUP 4 **** **** 0

# MOE 2024.06 (io_trps.svl 2023.06)
