@<TRIPOS>MOLECULE
NONAME
46 47 1 0 0 
SMALL
USER_CHARGES


@<TRIPOS>ATOM
  1 O        0.6660     2.2890     0.8680 O.co2 1 <1>  -0.9000 
  2 C       -0.5030     2.5780     1.1210 C.2   1 <1>   0.9060 
  3 O       -0.8210     3.1590     2.1640 O.co2 1 <1>  -0.9000 
  4 C       -1.4870     2.4750    -0.0150 C.3   1 <1>  -0.1860 
  5 C       -2.9460     2.9130     0.2420 C.3   1 <1>   0.2000 
  6 C       -0.8770     3.3360    -1.1130 C.3   1 <1>   0.3430 
  7 O       -3.2730     2.6930     1.5570 O.3   1 <1>  -0.6800 
  8 C       -3.2070     4.3940    -0.0680 C.3   1 <1>  -0.1600 
  9 N       -0.8490     4.7970    -0.7400 N.4   1 <1>  -0.9590 
 10 C       -1.9520     5.2200     0.1880 C.3   1 <1>   0.3430 
 11 C        0.4620     5.1270    -0.0990 C.3   1 <1>   0.4860 
 12 C        0.6210     6.6360    -0.1150 C.ar  1 <1>  -0.1430 
 13 C        0.4170     7.3630     1.0470 C.ar  1 <1>  -0.1500 
 14 C        0.9640     7.3000    -1.2830 C.ar  1 <1>  -0.1500 
 15 C        0.5390     8.7410     1.0380 C.ar  1 <1>  -0.1500 
 16 C        1.0850     8.6790    -1.2890 C.ar  1 <1>  -0.1500 
 17 C        0.8700     9.4070    -0.1300 C.ar  1 <1>  -0.1430 
 18 C        1.0090    10.9220    -0.1370 C.3   1 <1>  -0.0170 
 19 C        2.4460    11.3310     0.2030 C.3   1 <1>  -0.1600 
 20 C        2.6130    12.8550     0.2070 C.3   1 <1>  -0.1600 
 21 C        4.0530    13.2500     0.5470 C.3   1 <1>  -0.2400 
 22 H       -1.4860     1.4510    -0.3350 H     1 <1>   0.0800 
 23 H       -3.6220     2.3130    -0.3450 H     1 <1>   0.0800 
 24 H       -1.4640     3.2100    -2.0070 H     1 <1>   0.0800 
 25 H        0.1240     2.9890    -1.3210 H     1 <1>   0.0800 
 26 H       -2.4490     2.8720     2.1050 H     1 <1>   0.4000 
 27 H       -3.4960     4.5070    -1.0970 H     1 <1>   0.0800 
 28 H       -4.0190     4.7580     0.5370 H     1 <1>   0.0800 
 29 H       -0.8980     5.3700    -1.5860 H     1 <1>   0.4500 
 30 H       -1.6480     5.0630     1.2120 H     1 <1>   0.0800 
 31 H       -2.1580     6.2700     0.0600 H     1 <1>   0.0800 
 32 H        0.4930     4.7630     0.9170 H     1 <1>   0.0800 
 33 H        1.2730     4.6670    -0.6400 H     1 <1>   0.0800 
 34 H        0.1640     6.8610     1.9680 H     1 <1>   0.1500 
 35 H        1.1450     6.7570    -2.1940 H     1 <1>   0.1500 
 36 H        0.3800     9.2940     1.9470 H     1 <1>   0.1500 
 37 H        1.3540     9.1870    -2.1990 H     1 <1>   0.1500 
 38 H        0.7410    11.3050    -1.1060 H     1 <1>   0.0800 
 39 H        0.3300    11.3490     0.5810 H     1 <1>   0.0800 
 40 H        2.7050    10.9370     1.1710 H     1 <1>   0.0800 
 41 H        3.1160    10.8970    -0.5190 H     1 <1>   0.0800 
 42 H        2.3590    13.2510    -0.7620 H     1 <1>   0.0800 
 43 H        1.9470    13.2920     0.9320 H     1 <1>   0.0800 
 44 H        4.7360    12.8430    -0.1770 H     1 <1>   0.0800 
 45 H        4.3230    12.8830     1.5220 H     1 <1>   0.0800 
 46 H        4.1510    14.3210     0.5460 H     1 <1>   0.0800 
@<TRIPOS>BOND
  1   1   2  ar  
  2   2   3  ar  
  3   2   4  1   
  4   4   5  1   
  5   4   6  1   
  6   4  22  1   
  7   5   7  1   
  8   5   8  1   
  9   5  23  1   
 10   6   9  1   
 11   6  24  1   
 12   6  25  1   
 13   7  26  1   
 14   8  10  1   
 15   8  27  1   
 16   8  28  1   
 17   9  10  1   
 18   9  11  1   
 19   9  29  1   
 20  10  30  1   
 21  10  31  1   
 22  11  12  1   
 23  11  32  1   
 24  11  33  1   
 25  12  13  ar  
 26  12  14  ar  
 27  13  15  ar  
 28  13  34  1   
 29  14  16  ar  
 30  14  35  1   
 31  15  17  ar  
 32  15  36  1   
 33  16  17  ar  
 34  16  37  1   
 35  17  18  1   
 36  18  19  1   
 37  18  38  1   
 38  18  39  1   
 39  19  20  1   
 40  19  40  1   
 41  19  41  1   
 42  20  21  1   
 43  20  42  1   
 44  20  43  1   
 45  21  44  1   
 46  21  45  1   
 47  21  46  1   
@<TRIPOS>SUBSTRUCTURE
  1 ****  12 GROUP 4 **** **** 0

# MOE 2024.06 (io_trps.svl 2023.06)
