@<TRIPOS>MOLECULE
NONAME
51 54 1 0 0 
SMALL
USER_CHARGES


@<TRIPOS>ATOM
  1 O       -1.8470    -0.5740    -1.0020 O.co2 1 <1>  -0.9000 
  2 C       -1.2580    -1.3890    -0.2650 C.2   1 <1>   0.9790 
  3 O       -0.7610    -0.9650     0.7960 O.co2 1 <1>  -0.9000 
  4 C       -1.0560    -2.7460    -0.6930 C.ar  1 <1>  -0.1790 
  5 C       -1.9570    -3.7780    -0.3840 C.ar  1 <1>   0.4100 
  6 C        0.0740    -3.0610    -1.4310 C.ar  1 <1>  -0.1500 
  7 N       -1.7680    -5.0460    -0.7580 N.ar  1 <1>  -0.6200 
  8 N       -3.1190    -3.5590     0.3350 N.pl3 1 <1>  -0.8380 
  9 C        0.2580    -4.3670    -1.8170 C.ar  1 <1>  -0.1500 
 10 C       -0.6840    -5.3120    -1.4560 C.ar  1 <1>   0.1670 
 11 C       -4.2120    -2.7430    -0.2820 C.3   1 <1>   0.2090 
 12 C       -3.5860    -4.5840     1.2990 C.3   1 <1>   0.2090 
 13 C       -0.5050    -6.7580    -1.8650 C.3   1 <1>  -0.0970 
 14 C       -5.0800    -2.0590     0.7950 C.3   1 <1>   0.1430 
 15 C       -4.4320    -3.9270     2.3950 C.3   1 <1>  -0.1600 
 16 C       -6.2100    -1.3070     0.1100 C.ar  1 <1>   0.1670 
 17 C       -5.5940    -3.1090     1.8050 C.3   1 <1>  -0.1600 
 18 C       -4.3140    -0.9100     1.5000 C.3   1 <1>  -0.1600 
 19 N       -7.2990    -1.8410    -0.3910 N.ar  1 <1>  -0.6200 
 20 C       -5.9570     0.0310     0.0690 C.ar  1 <1>  -0.1440 
 21 C       -4.6380     0.3720     0.7180 C.3   1 <1>  -0.0170 
 22 C       -8.1510    -0.9770    -0.9490 C.ar  1 <1>   0.7200 
 23 C       -6.8880     0.8400    -0.5290 C.ar  1 <1>   0.1600 
 24 N       -7.9950     0.3480    -1.0370 N.ar  1 <1>  -0.6200 
 25 N       -9.3110    -1.5060    -1.4850 N.pl3 1 <1>  -0.8380 
 26 C      -10.4620    -0.6480    -1.8770 C.3   1 <1>   0.1290 
 27 C       -9.4500    -2.9590    -1.7780 C.3   1 <1>   0.1290 
 28 H        0.7790    -2.2880    -1.6830 H     1 <1>   0.1500 
 29 H        1.1240    -4.6400    -2.3890 H     1 <1>   0.1500 
 30 H       -4.8320    -3.3940    -0.8710 H     1 <1>   0.0800 
 31 H       -3.8020    -2.0040    -0.9460 H     1 <1>   0.0800 
 32 H       -2.7330    -5.0720     1.7400 H     1 <1>   0.0800 
 33 H       -4.1640    -5.3220     0.7700 H     1 <1>   0.0800 
 34 H       -1.3410    -7.0630    -2.4670 H     1 <1>   0.0800 
 35 H       -0.4670    -7.3740    -0.9850 H     1 <1>   0.0800 
 36 H        0.4000    -6.8930    -2.4270 H     1 <1>   0.0800 
 37 H       -3.7920    -3.2900     2.9800 H     1 <1>   0.0800 
 38 H       -4.8190    -4.6900     3.0450 H     1 <1>   0.0800 
 39 H       -6.2660    -3.7780     1.2950 H     1 <1>   0.0800 
 40 H       -6.1490    -2.6270     2.5890 H     1 <1>   0.0800 
 41 H       -3.2550    -1.0890     1.5500 H     1 <1>   0.0800 
 42 H       -4.6800    -0.7920     2.5030 H     1 <1>   0.0800 
 43 H       -3.8920     0.5500    -0.0390 H     1 <1>   0.0800 
 44 H       -4.7060     1.2260     1.3670 H     1 <1>   0.0800 
 45 H       -6.7200     1.9000    -0.5890 H     1 <1>   0.1500 
 46 H      -10.5140     0.2210    -1.2440 H     1 <1>   0.0800 
 47 H      -11.3830    -1.1950    -1.7770 H     1 <1>   0.0800 
 48 H      -10.3420    -0.3300    -2.8970 H     1 <1>   0.0800 
 49 H       -8.4870    -3.3980    -1.9740 H     1 <1>   0.0800 
 50 H      -10.0710    -3.1060    -2.6440 H     1 <1>   0.0800 
 51 H       -9.8940    -3.4540    -0.9320 H     1 <1>   0.0800 
@<TRIPOS>BOND
  1   1   2  ar  
  2   2   3  ar  
  3   2   4  1   
  4   4   5  ar  
  5   4   6  ar  
  6   5   7  ar  
  7   5   8  1   
  8   6   9  ar  
  9   6  28  1   
 10   7  10  ar  
 11   8  11  1   
 12   8  12  1   
 13   9  10  ar  
 14   9  29  1   
 15  10  13  1   
 16  11  14  1   
 17  11  30  1   
 18  11  31  1   
 19  12  15  1   
 20  12  32  1   
 21  12  33  1   
 22  13  34  1   
 23  13  35  1   
 24  13  36  1   
 25  14  16  1   
 26  14  17  1   
 27  14  18  1   
 28  15  17  1   
 29  15  37  1   
 30  15  38  1   
 31  16  19  ar  
 32  16  20  ar  
 33  17  39  1   
 34  17  40  1   
 35  18  21  1   
 36  18  41  1   
 37  18  42  1   
 38  19  22  ar  
 39  20  21  1   
 40  20  23  ar  
 41  21  43  1   
 42  21  44  1   
 43  22  24  ar  
 44  22  25  1   
 45  23  24  ar  
 46  23  45  1   
 47  25  26  1   
 48  25  27  1   
 49  26  46  1   
 50  26  47  1   
 51  26  48  1   
 52  27  49  1   
 53  27  50  1   
 54  27  51  1   
@<TRIPOS>SUBSTRUCTURE
  1 ****  11 GROUP 4 **** **** 0

# MOE 2024.06 (io_trps.svl 2023.06)
