@<TRIPOS>MOLECULE
NONAME
54 57 1 0 0 
SMALL
USER_CHARGES


@<TRIPOS>ATOM
  1 O        0.3760     0.7880    -1.3400 O.2   1 <1>  -0.5700 
  2 C        0.0990     1.9570    -1.4760 C.2   1 <1>   0.5690 
  3 N       -0.5640     2.6730    -0.5140 N.am  1 <1>  -0.6600 
  4 C        0.4970     2.6450    -2.7820 C.3   1 <1>   0.1810 
  5 C       -0.9240     4.1170    -0.7200 C.3   1 <1>   0.3640 
  6 C       -0.9070     2.0880     0.8160 C.3   1 <1>   0.0600 
  7 O        0.5900     4.0420    -2.6470 O.3   1 <1>  -0.5600 
  8 C       -2.4110     4.3270    -0.4030 C.ar  1 <1>  -0.1440 
  9 C       -0.5930     4.6390    -2.1420 C.3   1 <1>   0.2610 
 10 C       -2.8570     5.2950     0.4990 C.ar  1 <1>  -0.1440 
 11 C       -3.3460     3.5200    -1.0410 C.ar  1 <1>  -0.1500 
 12 C       -0.4410     6.1590    -2.0940 C.2   1 <1>   0.5690 
 13 C       -4.2160     5.4320     0.7360 C.ar  1 <1>  -0.1500 
 14 C       -1.9060     6.2260     1.2410 C.3   1 <1>  -0.0960 
 15 C       -4.6990     3.6640    -0.7980 C.ar  1 <1>  -0.1500 
 16 O       -1.4050     6.8650    -2.2690 O.2   1 <1>  -0.5700 
 17 N        0.7830     6.6890    -1.8320 N.am  1 <1>  -0.7300 
 18 C       -5.1350     4.6240     0.0940 C.ar  1 <1>  -0.1500 
 19 C        1.0760     8.1230    -1.6450 C.3   1 <1>   0.2350 
 20 C        1.9280     8.3780    -0.3840 C.3   1 <1>  -0.1900 
 21 C        1.8260     7.4640     0.8050 C.3   1 <1>  -0.2000 
 22 C        3.0650     7.4550    -0.0570 C.3   1 <1>  -0.2000 
 23 C        2.0960     9.9070    -0.1880 C.3   1 <1>   0.1910 
 24 N        2.8970    10.3110     0.9920 N.pl3 1 <1>   0.3140 
 25 N        4.2090    10.6090     0.8990 N.2   1 <1>  -0.7070 
 26 C        2.4460    10.5030     2.2500 C.2   1 <1>  -0.3020 
 27 C        4.5580    10.9640     2.0980 C.2   1 <1>   0.1390 
 28 C        3.4950    10.9180     2.9900 C.2   1 <1>  -0.1500 
 29 H       -0.2240     2.4190    -3.5460 H     1 <1>   0.0800 
 30 H        1.4590     2.2810    -3.0950 H     1 <1>   0.0800 
 31 H       -0.3250     4.6800    -0.0300 H     1 <1>   0.0800 
 32 H       -0.5710     2.7400     1.6020 H     1 <1>   0.0800 
 33 H       -0.4370     1.1280     0.9420 H     1 <1>   0.0800 
 34 H       -1.9730     1.9600     0.8960 H     1 <1>   0.0800 
 35 H       -1.3960     4.4050    -2.8170 H     1 <1>   0.0800 
 36 H       -3.0240     2.7620    -1.7340 H     1 <1>   0.1500 
 37 H       -4.5760     6.1760     1.4260 H     1 <1>   0.1500 
 38 H       -2.4450     6.8760     1.9060 H     1 <1>   0.0800 
 39 H       -1.3710     6.8430     0.5410 H     1 <1>   0.0800 
 40 H       -1.2070     5.6580     1.8270 H     1 <1>   0.0800 
 41 H       -5.4090     3.0320    -1.3000 H     1 <1>   0.1500 
 42 H        1.5890     6.0590    -1.8100 H     1 <1>   0.3700 
 43 H       -6.1870     4.7430     0.2870 H     1 <1>   0.1500 
 44 H        1.5990     8.4840    -2.5140 H     1 <1>   0.0800 
 45 H        0.1480     8.6650    -1.5670 H     1 <1>   0.0800 
 46 H        1.9290     7.8420     1.8070 H     1 <1>   0.1000 
 47 H        1.1890     6.5980     0.7740 H     1 <1>   0.1000 
 48 H        3.2570     6.5920    -0.6690 H     1 <1>   0.1000 
 49 H        3.9750     7.8580     0.3570 H     1 <1>   0.1000 
 50 H        1.1290    10.3650    -0.0940 H     1 <1>   0.0800 
 51 H        2.5760    10.3240    -1.0550 H     1 <1>   0.0800 
 52 H        1.4250    10.3360     2.5400 H     1 <1>   0.1500 
 53 H        5.5610    11.2600     2.3590 H     1 <1>   0.1500 
 54 H        3.5330    11.1690     4.0350 H     1 <1>   0.1500 
@<TRIPOS>BOND
  1   1   2  2   
  2   2   3  am  
  3   2   4  1   
  4   3   5  1   
  5   3   6  1   
  6   4   7  1   
  7   4  29  1   
  8   4  30  1   
  9   5   8  1   
 10   5   9  1   
 11   5  31  1   
 12   6  32  1   
 13   6  33  1   
 14   6  34  1   
 15   7   9  1   
 16   8  10  ar  
 17   8  11  ar  
 18   9  12  1   
 19   9  35  1   
 20  10  13  ar  
 21  10  14  1   
 22  11  15  ar  
 23  11  36  1   
 24  12  16  2   
 25  12  17  am  
 26  13  18  ar  
 27  13  37  1   
 28  14  38  1   
 29  14  39  1   
 30  14  40  1   
 31  15  18  ar  
 32  15  41  1   
 33  17  19  1   
 34  17  42  1   
 35  18  43  1   
 36  19  20  1   
 37  19  44  1   
 38  19  45  1   
 39  20  21  1   
 40  20  22  1   
 41  20  23  1   
 42  21  22  1   
 43  21  46  1   
 44  21  47  1   
 45  22  48  1   
 46  22  49  1   
 47  23  24  1   
 48  23  50  1   
 49  23  51  1   
 50  24  25  1   
 51  24  26  1   
 52  25  27  2   
 53  26  28  2   
 54  26  52  1   
 55  27  28  1   
 56  27  53  1   
 57  28  54  1   
@<TRIPOS>SUBSTRUCTURE
  1 ****  17 GROUP 4 **** **** 0

# MOE 2024.06 (io_trps.svl 2023.06)
