@<TRIPOS>MOLECULE
NONAME
39 40 1 0 0 
SMALL
USER_CHARGES


@<TRIPOS>ATOM
  1 S        0.0590    -0.0530    -0.7440 S.o2  1 <1>   1.3330 
  2 O       -0.2530     0.3770    -2.0840 O.2   1 <1>  -0.6500 
  3 O        0.6720    -1.3340    -0.5030 O.2   1 <1>  -0.6500 
  4 N        1.1840     1.0500    -0.0550 N.am  1 <1>  -0.7570 
  5 C       -1.3860     0.0800     0.3230 C.3   1 <1>  -0.0550 
  6 C        1.3250     2.4220    -0.1810 C.ar  1 <1>   0.1990 
  7 C       -2.0960     1.4470     0.3310 C.3   1 <1>  -0.2400 
  8 C        2.2820     3.0640     0.5960 C.ar  1 <1>  -0.1500 
  9 C        0.5620     3.2070    -1.0410 C.ar  1 <1>  -0.1500 
 10 C        2.4620     4.4320     0.5300 C.ar  1 <1>  -0.1500 
 11 C        0.7420     4.5750    -1.1050 C.ar  1 <1>  -0.1500 
 12 C        1.6890     5.2320    -0.3170 C.ar  1 <1>   0.0860 
 13 C        1.8510     6.6720    -0.3880 C.2   1 <1>   0.5440 
 14 O        1.5090     7.2930    -1.3760 O.2   1 <1>  -0.5700 
 15 N        2.3840     7.3800     0.6570 N.am  1 <1>  -0.7300 
 16 C        2.4670     8.8620     0.7050 C.3   1 <1>   0.1400 
 17 C        3.5470     9.3690    -0.2520 C.3   1 <1>   0.0960 
 18 N        3.5720    10.8380    -0.2320 N.pl3 1 <1>   0.3140 
 19 N        4.0280    11.5360     0.8000 N.2   1 <1>  -0.7070 
 20 C        3.1540    11.6890    -1.1720 C.2   1 <1>   0.0360 
 21 C        3.8570    12.7550     0.4050 C.2   1 <1>   0.3660 
 22 N        3.3170    12.9100    -0.8100 N.2   1 <1>  -0.5650 
 23 H        1.9340     0.5240     0.3830 H     1 <1>   0.4200 
 24 H       -1.0970    -0.1600     1.3280 H     1 <1>   0.0800 
 25 H       -2.0980    -0.6620     0.0140 H     1 <1>   0.0800 
 26 H       -1.4480     2.2060     0.7300 H     1 <1>   0.0800 
 27 H       -2.9800     1.3990     0.9410 H     1 <1>   0.0800 
 28 H       -2.3830     1.7230    -0.6690 H     1 <1>   0.0800 
 29 H        2.8930     2.4800     1.2610 H     1 <1>   0.1500 
 30 H       -0.1760     2.7570    -1.6770 H     1 <1>   0.1500 
 31 H        3.2220     4.8850     1.1410 H     1 <1>   0.1500 
 32 H        0.1390     5.1560    -1.7830 H     1 <1>   0.1500 
 33 H        2.5400     6.9020     1.5460 H     1 <1>   0.3700 
 34 H        2.6950     9.1750     1.7100 H     1 <1>   0.0800 
 35 H        1.5120     9.2740     0.4220 H     1 <1>   0.0800 
 36 H        3.3440     9.0430    -1.2550 H     1 <1>   0.0800 
 37 H        4.5110     9.0090     0.0540 H     1 <1>   0.0800 
 38 H        2.7340    11.3680    -2.1090 H     1 <1>   0.1500 
 39 H        4.1240    13.6140     1.0010 H     1 <1>   0.1500 
@<TRIPOS>BOND
  1   1   2  2   
  2   1   3  2   
  3   1   4  am  
  4   1   5  1   
  5   4   6  1   
  6   4  23  1   
  7   5   7  1   
  8   5  24  1   
  9   5  25  1   
 10   6   8  ar  
 11   6   9  ar  
 12   7  26  1   
 13   7  27  1   
 14   7  28  1   
 15   8  10  ar  
 16   8  29  1   
 17   9  11  ar  
 18   9  30  1   
 19  10  12  ar  
 20  10  31  1   
 21  11  12  ar  
 22  11  32  1   
 23  12  13  1   
 24  13  14  2   
 25  13  15  am  
 26  15  16  1   
 27  15  33  1   
 28  16  17  1   
 29  16  34  1   
 30  16  35  1   
 31  17  18  1   
 32  17  36  1   
 33  17  37  1   
 34  18  19  1   
 35  18  20  1   
 36  19  21  2   
 37  20  22  2   
 38  20  38  1   
 39  21  22  1   
 40  21  39  1   
@<TRIPOS>SUBSTRUCTURE
  1 ****  12 GROUP 4 **** **** 0

# MOE 2024.06 (io_trps.svl 2023.06)
