@<TRIPOS>MOLECULE
NONAME
47 49 1 0 0 
SMALL
USER_CHARGES


@<TRIPOS>ATOM
  1 O       -2.8210     0.7220    -1.1320 O.2   1 <1>  -0.5700 
  2 C       -2.3630     0.8800    -0.0250 C.2   1 <1>   0.5690 
  3 N       -2.1220    -0.1610     0.8190 N.am  1 <1>  -0.5790 
  4 C       -2.0330     2.2900     0.4690 C.3   1 <1>  -0.0190 
  5 C       -2.2840    -1.5900     0.5040 C.3   1 <1>   0.0540 
  6 C       -2.7910     3.3960    -0.2970 C.3   1 <1>  -0.1600 
  7 C       -0.5080     2.5470     0.4250 C.3   1 <1>  -0.1600 
  8 C       -1.1950    -2.1980    -0.3190 C.3   1 <1>  -0.2000 
  9 C       -1.2760    -2.4890     1.1490 C.3   1 <1>  -0.2000 
 10 C       -3.7670    -1.9880     0.3390 C.3   1 <1>   0.0780 
 11 C       -2.5600     4.7970     0.3100 C.3   1 <1>   0.2000 
 12 C       -0.1250     4.0420     0.4400 C.3   1 <1>  -0.1600 
 13 C       -4.0050    -3.4800     0.1270 C.ar  1 <1>  -0.1440 
 14 O       -2.5650     5.7410    -0.7320 O.3   1 <1>  -0.5600 
 15 C       -1.2180     4.9010     1.0820 C.3   1 <1>   0.2000 
 16 C       -4.0290    -4.0090    -1.1550 C.ar  1 <1>  -0.1500 
 17 C       -4.2120    -4.3220     1.2100 C.ar  1 <1>  -0.1500 
 18 C       -3.8250     6.0790    -1.2250 C.3   1 <1>   0.0400 
 19 O       -0.7900     6.2120     1.0750 O.3   1 <1>  -0.6800 
 20 C       -4.2490    -5.3610    -1.3520 C.ar  1 <1>  -0.1500 
 21 C       -4.4330    -5.6740     1.0150 C.ar  1 <1>  -0.1500 
 22 C       -4.4510    -6.1950    -0.2670 C.ar  1 <1>  -0.1500 
 23 H       -1.7000     0.0220     1.7280 H     1 <1>   0.3700 
 24 H       -2.3540     2.3420     1.4940 H     1 <1>   0.0800 
 25 H       -3.8440     3.1770    -0.2940 H     1 <1>   0.0800 
 26 H       -2.4520     3.3880    -1.3200 H     1 <1>   0.0800 
 27 H       -0.0490     2.0540     1.2650 H     1 <1>   0.0800 
 28 H       -0.0960     2.1060    -0.4680 H     1 <1>   0.0800 
 29 H       -1.4240    -2.9990    -1.0000 H     1 <1>   0.1000 
 30 H       -0.4240    -1.5500    -0.6960 H     1 <1>   0.1000 
 31 H       -0.5180    -2.0740     1.7880 H     1 <1>   0.1000 
 32 H       -1.5410    -3.4940     1.4290 H     1 <1>   0.1000 
 33 H       -4.3070    -1.6760     1.2140 H     1 <1>   0.0800 
 34 H       -4.1760    -1.4540    -0.5000 H     1 <1>   0.0800 
 35 H       -3.3530     5.0390     0.9970 H     1 <1>   0.0800 
 36 H        0.0130     4.3740    -0.5750 H     1 <1>   0.0800 
 37 H        0.8030     4.1740     0.9680 H     1 <1>   0.0800 
 38 H       -1.3510     4.6040     2.1070 H     1 <1>   0.0800 
 39 H       -3.8730    -3.3660    -2.0040 H     1 <1>   0.1500 
 40 H       -4.2010    -3.9270     2.2110 H     1 <1>   0.1500 
 41 H       -3.6950     6.8230    -1.9910 H     1 <1>   0.0800 
 42 H       -4.4230     6.4830    -0.4270 H     1 <1>   0.0800 
 43 H       -4.2930     5.2070    -1.6470 H     1 <1>   0.0800 
 44 H       -1.1160     6.5930     0.2280 H     1 <1>   0.4000 
 45 H       -4.2640    -5.7620    -2.3500 H     1 <1>   0.1500 
 46 H       -4.5910    -6.3210     1.8600 H     1 <1>   0.1500 
 47 H       -4.6230    -7.2460    -0.4190 H     1 <1>   0.1500 
@<TRIPOS>BOND
  1   1   2  2   
  2   2   3  am  
  3   2   4  1   
  4   3   5  1   
  5   3  23  1   
  6   4   6  1   
  7   4   7  1   
  8   4  24  1   
  9   5   8  1   
 10   5   9  1   
 11   5  10  1   
 12   6  11  1   
 13   6  25  1   
 14   6  26  1   
 15   7  12  1   
 16   7  27  1   
 17   7  28  1   
 18   8   9  1   
 19   8  29  1   
 20   8  30  1   
 21   9  31  1   
 22   9  32  1   
 23  10  13  1   
 24  10  33  1   
 25  10  34  1   
 26  11  14  1   
 27  11  15  1   
 28  11  35  1   
 29  12  15  1   
 30  12  36  1   
 31  12  37  1   
 32  13  16  ar  
 33  13  17  ar  
 34  14  18  1   
 35  15  19  1   
 36  15  38  1   
 37  16  20  ar  
 38  16  39  1   
 39  17  21  ar  
 40  17  40  1   
 41  18  41  1   
 42  18  42  1   
 43  18  43  1   
 44  19  44  1   
 45  20  22  ar  
 46  20  45  1   
 47  21  22  ar  
 48  21  46  1   
 49  22  47  1   
@<TRIPOS>SUBSTRUCTURE
  1 ****   2 GROUP 4 **** **** 0

# MOE 2024.06 (io_trps.svl 2023.06)
