@<TRIPOS>MOLECULE
NONAME
49 51 1 0 0 
SMALL
USER_CHARGES


@<TRIPOS>ATOM
  1 O       -0.6820     0.5830    -1.8830 O.2   1 <1>  -0.5700 
  2 C       -1.2750     1.1830    -1.0180 C.2   1 <1>   0.5690 
  3 N       -2.1420     0.5540    -0.1740 N.am  1 <1>  -0.6600 
  4 C       -1.0340     2.6740    -0.8710 C.3   1 <1>  -0.0990 
  5 C       -2.9240     1.1710     0.9210 C.3   1 <1>   0.1400 
  6 C       -2.4010    -0.9010    -0.2550 C.3   1 <1>   0.1400 
  7 C       -0.0360     3.1900    -1.9100 C.3   1 <1>   0.2090 
  8 C       -3.8800     0.0760     1.3820 C.3   1 <1>  -0.1600 
  9 C       -3.1820    -1.2290     1.0130 C.3   1 <1>  -0.1600 
 10 N        0.2190     4.6430    -1.6910 N.pl3 1 <1>  -0.8690 
 11 C        1.2080     5.1880    -0.9630 C.ar  1 <1>   0.4610 
 12 N        1.3440     6.5140    -0.9400 N.ar  1 <1>  -0.1790 
 13 C        2.1340     4.4340    -0.2000 C.ar  1 <1>  -0.1500 
 14 C        2.3160     7.2020    -0.2330 C.ar  1 <1>   0.3610 
 15 C        3.1220     5.0290     0.5230 C.ar  1 <1>  -0.1440 
 16 C        3.2390     6.4530     0.5220 C.ar  1 <1>   0.0000 
 17 C        2.3780     8.6090    -0.2720 C.ar  1 <1>  -0.1440 
 18 C        4.0960     4.1770     1.3290 C.3   1 <1>  -0.0970 
 19 C        4.2210     7.1570     1.2310 C.ar  1 <1>  -0.1500 
 20 C        3.3650     9.2660     0.4420 C.ar  1 <1>  -0.1440 
 21 C        1.3480     9.3830    -1.1070 C.3   1 <1>  -0.0970 
 22 C        4.2800     8.5250     1.1890 C.ar  1 <1>  -0.1500 
 23 C        3.5200    10.7830     0.4630 C.3   1 <1>  -0.0970 
 24 H       -0.6530     2.8560     0.1160 H     1 <1>   0.0800 
 25 H       -1.9710     3.1840    -0.9930 H     1 <1>   0.0800 
 26 H       -3.4630     2.0380     0.5780 H     1 <1>   0.0800 
 27 H       -2.2580     1.4430     1.7220 H     1 <1>   0.0800 
 28 H       -1.4790    -1.4540    -0.3110 H     1 <1>   0.0800 
 29 H       -2.9950    -1.1030    -1.1300 H     1 <1>   0.0800 
 30 H       -0.4360     3.0400    -2.9000 H     1 <1>   0.0800 
 31 H        0.8820     2.6300    -1.8510 H     1 <1>   0.0800 
 32 H       -4.8020     0.1630     0.8340 H     1 <1>   0.0800 
 33 H       -4.0910     0.1450     2.4350 H     1 <1>   0.0800 
 34 H       -2.4880    -1.5060     1.7870 H     1 <1>   0.0800 
 35 H       -3.8740    -2.0370     0.8570 H     1 <1>   0.0800 
 36 H       -0.4620     5.2090    -2.2090 H     1 <1>   0.4000 
 37 H        0.6980     7.0700    -1.4850 H     1 <1>   0.4570 
 38 H        2.0360     3.3650    -0.2000 H     1 <1>   0.1500 
 39 H        3.8740     3.1290     1.2280 H     1 <1>   0.0800 
 40 H        4.0370     4.4310     2.3730 H     1 <1>   0.0800 
 41 H        5.1030     4.3380     0.9870 H     1 <1>   0.0800 
 42 H        4.9480     6.6270     1.8210 H     1 <1>   0.1500 
 43 H        1.4430     9.1290    -2.1480 H     1 <1>   0.0800 
 44 H        1.4700    10.4470    -1.0320 H     1 <1>   0.0800 
 45 H        0.3500     9.1620    -0.7720 H     1 <1>   0.0800 
 46 H        5.0490     9.0340     1.7460 H     1 <1>   0.1500 
 47 H        2.6410    11.2420     0.8790 H     1 <1>   0.0800 
 48 H        3.6770    11.1570    -0.5340 H     1 <1>   0.0800 
 49 H        4.3620    11.0830     1.0610 H     1 <1>   0.0800 
@<TRIPOS>BOND
  1   1   2  2   
  2   2   3  am  
  3   2   4  1   
  4   3   5  1   
  5   3   6  1   
  6   4   7  1   
  7   4  24  1   
  8   4  25  1   
  9   5   8  1   
 10   5  26  1   
 11   5  27  1   
 12   6   9  1   
 13   6  28  1   
 14   6  29  1   
 15   7  10  1   
 16   7  30  1   
 17   7  31  1   
 18   8   9  1   
 19   8  32  1   
 20   8  33  1   
 21   9  34  1   
 22   9  35  1   
 23  10  11  1   
 24  10  36  1   
 25  11  12  ar  
 26  11  13  ar  
 27  12  14  ar  
 28  12  37  1   
 29  13  15  ar  
 30  13  38  1   
 31  14  16  ar  
 32  14  17  ar  
 33  15  16  ar  
 34  15  18  1   
 35  16  19  ar  
 36  17  20  ar  
 37  17  21  1   
 38  18  39  1   
 39  18  40  1   
 40  18  41  1   
 41  19  22  ar  
 42  19  42  1   
 43  20  22  ar  
 44  20  23  1   
 45  21  43  1   
 46  21  44  1   
 47  21  45  1   
 48  22  46  1   
 49  23  47  1   
 50  23  48  1   
 51  23  49  1   
@<TRIPOS>SUBSTRUCTURE
  1 ****  11 GROUP 4 **** **** 0

# MOE 2024.06 (io_trps.svl 2023.06)
