@<TRIPOS>MOLECULE
NONAME
51 52 1 0 0 
SMALL
USER_CHARGES


@<TRIPOS>ATOM
  1 O        1.3320    -1.3340    -1.7960 O.2   1 <1>  -0.5700 
  2 C        1.7490    -1.3440    -0.6620 C.2   1 <1>   0.5690 
  3 N        2.0150    -0.1960     0.0320 N.am  1 <1>  -0.7300 
  4 C        1.8950    -2.7450    -0.0030 C.3   1 <1>   0.4840 
  5 C        1.9080     1.1940    -0.4280 C.3   1 <1>   0.3000 
  6 N        0.5660    -3.3830     0.3380 N.4   1 <1>  -0.9590 
  7 C        2.8000    -2.7850     1.2460 C.3   1 <1>  -0.1600 
  8 C        0.4580     1.5110    -0.7970 C.3   1 <1>  -0.2400 
  9 C        2.8500     1.4230    -1.6100 C.3   1 <1>  -0.2400 
 10 C        2.3390     2.0710     0.7460 C.3   1 <1>  -0.2400 
 11 C       -0.1790    -3.6940    -0.9220 C.3   1 <1>   0.4860 
 12 C       -0.2710    -2.5310     1.2460 C.3   1 <1>   0.2630 
 13 C        4.2740    -2.4910     0.9210 C.3   1 <1>  -0.2400 
 14 C       -1.3660    -4.5750    -0.5790 C.ar  1 <1>  -0.1440 
 15 C       -1.2120    -5.9160    -0.3350 C.ar  1 <1>  -0.1500 
 16 C       -2.6450    -4.0050    -0.5090 C.ar  1 <1>  -0.1500 
 17 C       -2.3100    -6.7300     0.0050 C.ar  1 <1>   0.0000 
 18 C       -3.7250    -4.7790    -0.1790 C.ar  1 <1>  -0.1500 
 19 C       -3.5940    -6.1490     0.0940 C.ar  1 <1>   0.3100 
 20 C       -2.1940    -8.1070     0.2660 C.ar  1 <1>  -0.1500 
 21 N       -4.7010    -6.8570     0.4310 N.ar  1 <1>  -0.6200 
 22 C       -3.3210    -8.7970     0.5960 C.ar  1 <1>  -0.1500 
 23 C       -4.5490    -8.1240     0.6660 C.ar  1 <1>   0.1600 
 24 H        2.4720    -0.2490     0.9430 H     1 <1>   0.3700 
 25 H        2.3710    -3.3640    -0.7450 H     1 <1>   0.0800 
 26 H        0.7380    -4.2830     0.8010 H     1 <1>   0.4500 
 27 H        2.7580    -3.7690     1.6800 H     1 <1>   0.0800 
 28 H        2.4580    -2.0820     1.9850 H     1 <1>   0.0800 
 29 H        0.1440     0.9370    -1.6490 H     1 <1>   0.0800 
 30 H        0.3660     2.5510    -1.0550 H     1 <1>   0.0800 
 31 H       -0.1980     1.3100     0.0300 H     1 <1>   0.0800 
 32 H        2.5450     0.8450    -2.4630 H     1 <1>   0.0800 
 33 H        3.8590     1.1600    -1.3490 H     1 <1>   0.0800 
 34 H        2.8360     2.4590    -1.8970 H     1 <1>   0.0800 
 35 H        1.6970     1.9180     1.5950 H     1 <1>   0.0800 
 36 H        2.2800     3.1090     0.4690 H     1 <1>   0.0800 
 37 H        3.3570     1.8630     1.0260 H     1 <1>   0.0800 
 38 H        0.4620    -4.2160    -1.6140 H     1 <1>   0.0800 
 39 H       -0.5150    -2.7860    -1.3970 H     1 <1>   0.0800 
 40 H       -0.5050    -1.5910     0.7710 H     1 <1>   0.0800 
 41 H        0.2520    -2.3320     2.1670 H     1 <1>   0.0800 
 42 H       -1.1950    -3.0340     1.4850 H     1 <1>   0.0800 
 43 H        4.6590    -3.2060     0.2130 H     1 <1>   0.0800 
 44 H        4.8680    -2.5590     1.8170 H     1 <1>   0.0800 
 45 H        4.4050    -1.5040     0.5110 H     1 <1>   0.0800 
 46 H       -0.2480    -6.3900    -0.3980 H     1 <1>   0.1500 
 47 H       -2.7870    -2.9570    -0.7200 H     1 <1>   0.1500 
 48 H       -4.7140    -4.3610    -0.1200 H     1 <1>   0.1500 
 49 H       -1.2360    -8.5910     0.2020 H     1 <1>   0.1500 
 50 H       -3.2950    -9.8510     0.8060 H     1 <1>   0.1500 
 51 H       -5.4220    -8.6970     0.9320 H     1 <1>   0.1500 
@<TRIPOS>BOND
  1   1   2  2   
  2   2   3  am  
  3   2   4  1   
  4   3   5  1   
  5   3  24  1   
  6   4   6  1   
  7   4   7  1   
  8   4  25  1   
  9   5   8  1   
 10   5   9  1   
 11   5  10  1   
 12   6  11  1   
 13   6  12  1   
 14   6  26  1   
 15   7  13  1   
 16   7  27  1   
 17   7  28  1   
 18   8  29  1   
 19   8  30  1   
 20   8  31  1   
 21   9  32  1   
 22   9  33  1   
 23   9  34  1   
 24  10  35  1   
 25  10  36  1   
 26  10  37  1   
 27  11  14  1   
 28  11  38  1   
 29  11  39  1   
 30  12  40  1   
 31  12  41  1   
 32  12  42  1   
 33  13  43  1   
 34  13  44  1   
 35  13  45  1   
 36  14  15  ar  
 37  14  16  ar  
 38  15  17  ar  
 39  15  46  1   
 40  16  18  ar  
 41  16  47  1   
 42  17  19  ar  
 43  17  20  ar  
 44  18  19  ar  
 45  18  48  1   
 46  19  21  ar  
 47  20  22  ar  
 48  20  49  1   
 49  21  23  ar  
 50  22  23  ar  
 51  22  50  1   
 52  23  51  1   
@<TRIPOS>SUBSTRUCTURE
  1 ****  11 GROUP 4 **** **** 0

# MOE 2024.06 (io_trps.svl 2023.06)
