@<TRIPOS>MOLECULE
NONAME
57 60 1 0 0 
SMALL
USER_CHARGES


@<TRIPOS>ATOM
  1 O       -0.8520    -1.1620     0.0130 O.3   1 <1>  -0.3630 
  2 C       -0.2800    -0.6850    -1.1250 C.ar  1 <1>   0.0820 
  3 C       -1.6930    -2.2870    -0.0030 C.3   1 <1>   0.1200 
  4 C        0.4860     0.4760    -1.0290 C.ar  1 <1>  -0.1440 
  5 C       -0.4300    -1.3110    -2.3620 C.ar  1 <1>  -0.1500 
  6 C       -2.1130    -2.5630     1.4420 C.3   1 <1>   0.3430 
  7 C        1.0890     0.9910    -2.1660 C.ar  1 <1>  -0.1500 
  8 C        0.6850     1.1990     0.2990 C.3   1 <1>  -0.0170 
  9 C        0.1760    -0.7850    -3.4880 C.ar  1 <1>  -0.1500 
 10 N       -3.0630    -3.7130     1.5150 N.4   1 <1>  -0.9590 
 11 C        0.9350     0.3660    -3.3910 C.ar  1 <1>  -0.1500 
 12 C        1.8420     0.5770     1.0850 C.3   1 <1>  -0.2400 
 13 C       -4.4630    -3.4100     1.0690 C.3   1 <1>   0.3430 
 14 C       -3.1810    -4.3690     2.8460 C.3   1 <1>   0.3430 
 15 C       -5.3880    -4.2630     1.9570 C.3   1 <1>   0.2000 
 16 C       -4.4700    -5.1950     2.7570 C.3   1 <1>  -0.0800 
 17 O       -6.0610    -3.4330     2.8440 O.3   1 <1>  -0.6800 
 18 C       -4.2530    -6.5880     2.0950 C.3   1 <1>  -0.0170 
 19 C       -3.3660    -6.5230     0.8500 C.ar  1 <1>  -0.1440 
 20 C       -3.8600    -6.1930    -0.4350 C.ar  1 <1>   0.0000 
 21 C       -2.0170    -6.6990     0.9810 C.ar  1 <1>  -0.1500 
 22 C       -2.9110    -5.8780    -1.4370 C.ar  1 <1>   0.3100 
 23 C       -5.2290    -6.1380    -0.7840 C.ar  1 <1>  -0.1500 
 24 C       -1.1640    -6.4200    -0.0920 C.ar  1 <1>   0.1600 
 25 N       -1.5750    -5.9640    -1.2310 N.ar  1 <1>  -0.6200 
 26 C       -3.3620    -5.4450    -2.6930 C.ar  1 <1>  -0.1500 
 27 C       -5.6380    -5.7190    -2.0210 C.ar  1 <1>  -0.1500 
 28 C       -4.6950    -5.3560    -2.9850 C.ar  1 <1>  -0.1500 
 29 H       -2.5410    -2.0580    -0.6230 H     1 <1>   0.0800 
 30 H       -1.1360    -3.1180    -0.4010 H     1 <1>   0.0800 
 31 H       -1.0060    -2.2080    -2.4780 H     1 <1>   0.1500 
 32 H       -2.5710    -1.6800     1.8570 H     1 <1>   0.0800 
 33 H       -1.2260    -2.7900     2.0100 H     1 <1>   0.0800 
 34 H        1.6860     1.8840    -2.1030 H     1 <1>   0.1500 
 35 H        0.8960     2.2380     0.1190 H     1 <1>   0.0800 
 36 H       -0.2180     1.1540     0.8820 H     1 <1>   0.0800 
 37 H        0.0600    -1.2700    -4.4420 H     1 <1>   0.1500 
 38 H       -2.7120    -4.4530     0.8770 H     1 <1>   0.4500 
 39 H        1.4080     0.7760    -4.2660 H     1 <1>   0.1500 
 40 H        2.7520     0.6410     0.5140 H     1 <1>   0.0800 
 41 H        1.6370    -0.4580     1.2910 H     1 <1>   0.0800 
 42 H        1.9800     1.0970     2.0160 H     1 <1>   0.0800 
 43 H       -4.6990    -2.3660     1.1960 H     1 <1>   0.0800 
 44 H       -4.5860    -3.6790     0.0330 H     1 <1>   0.0800 
 45 H       -2.3250    -4.9860     3.0650 H     1 <1>   0.0800 
 46 H       -3.2840    -3.6190     3.6140 H     1 <1>   0.0800 
 47 H       -6.1360    -4.7830     1.3860 H     1 <1>   0.0800 
 48 H       -4.8760    -5.3660     3.7400 H     1 <1>   0.0800 
 49 H       -5.4770    -2.9820     3.4840 H     1 <1>   0.4000 
 50 H       -5.1980    -7.0520     1.8750 H     1 <1>   0.0800 
 51 H       -3.7760    -7.2300     2.8160 H     1 <1>   0.0800 
 52 H       -1.5690    -7.0220     1.9050 H     1 <1>   0.1500 
 53 H       -5.9770    -6.4470    -0.0780 H     1 <1>   0.1500 
 54 H       -0.1040    -6.5670     0.0450 H     1 <1>   0.1500 
 55 H       -2.6190    -5.1940    -3.4300 H     1 <1>   0.1500 
 56 H       -6.6850    -5.6760    -2.2760 H     1 <1>   0.1500 
 57 H       -5.0300    -5.0260    -3.9550 H     1 <1>   0.1500 
@<TRIPOS>BOND
  1   1   2  1   
  2   1   3  1   
  3   2   4  ar  
  4   2   5  ar  
  5   3   6  1   
  6   3  29  1   
  7   3  30  1   
  8   4   7  ar  
  9   4   8  1   
 10   5   9  ar  
 11   5  31  1   
 12   6  10  1   
 13   6  32  1   
 14   6  33  1   
 15   7  11  ar  
 16   7  34  1   
 17   8  12  1   
 18   8  35  1   
 19   8  36  1   
 20   9  11  ar  
 21   9  37  1   
 22  10  13  1   
 23  10  14  1   
 24  10  38  1   
 25  11  39  1   
 26  12  40  1   
 27  12  41  1   
 28  12  42  1   
 29  13  15  1   
 30  13  43  1   
 31  13  44  1   
 32  14  16  1   
 33  14  45  1   
 34  14  46  1   
 35  15  16  1   
 36  15  17  1   
 37  15  47  1   
 38  16  18  1   
 39  16  48  1   
 40  17  49  1   
 41  18  19  1   
 42  18  50  1   
 43  18  51  1   
 44  19  20  ar  
 45  19  21  ar  
 46  20  22  ar  
 47  20  23  ar  
 48  21  24  ar  
 49  21  52  1   
 50  22  25  ar  
 51  22  26  ar  
 52  23  27  ar  
 53  23  53  1   
 54  24  25  ar  
 55  24  54  1   
 56  26  28  ar  
 57  26  55  1   
 58  27  28  ar  
 59  27  56  1   
 60  28  57  1   
@<TRIPOS>SUBSTRUCTURE
  1 ****   3 GROUP 4 **** **** 0

# MOE 2024.06 (io_trps.svl 2023.06)
