@<TRIPOS>MOLECULE
NONAME
37 38 1 0 0 
SMALL
USER_CHARGES


@<TRIPOS>ATOM
  1 O       -0.3410    -0.1540    -0.6390 O.2   1 <1>  -0.5700 
  2 C       -0.8640    -1.1110    -0.1030 C.2   1 <1>   0.7800 
  3 O       -0.1780    -2.2360     0.1130 O.3   1 <1>  -0.4300 
  4 N       -2.1750    -1.0920     0.2960 N.am  1 <1>  -0.6600 
  5 C        1.1700    -2.4970    -0.2130 C.3   1 <1>   0.2800 
  6 C       -2.8690    -2.2660     0.9160 C.3   1 <1>   0.1400 
  7 C       -3.0520     0.0900     0.0700 C.3   1 <1>   0.1400 
  8 C        1.3720    -2.4230    -1.7310 C.3   1 <1>  -0.2400 
  9 C        1.4230    -3.9290     0.2600 C.3   1 <1>  -0.2400 
 10 C        2.0960    -1.5420     0.5500 C.3   1 <1>  -0.2400 
 11 C       -4.0830    -2.6810     0.0720 C.3   1 <1>   0.2950 
 12 C       -4.2460    -0.3060    -0.8080 C.3   1 <1>  -0.0650 
 13 O       -4.7680    -3.6800     0.7410 O.3   1 <1>  -0.6800 
 14 C       -5.0290    -1.4860    -0.2040 C.3   1 <1>  -0.1900 
 15 C       -6.4430    -1.6980    -0.6510 C.3   1 <1>  -0.2000 
 16 C       -6.1580    -1.1580     0.7280 C.3   1 <1>  -0.2000 
 17 H       -2.2030    -3.1040     1.0070 H     1 <1>   0.0800 
 18 H       -3.2030    -1.9850     1.8990 H     1 <1>   0.0800 
 19 H       -3.4040     0.4490     1.0210 H     1 <1>   0.0800 
 20 H       -2.5030     0.8850    -0.4050 H     1 <1>   0.0800 
 21 H        2.3610    -2.7580    -1.9850 H     1 <1>   0.0800 
 22 H        1.2710    -1.4150    -2.0870 H     1 <1>   0.0800 
 23 H        0.6590    -3.0500    -2.2340 H     1 <1>   0.0800 
 24 H        2.4370    -4.2190     0.0510 H     1 <1>   0.0800 
 25 H        0.7640    -4.6110    -0.2460 H     1 <1>   0.0800 
 26 H        1.2600    -4.0050     1.3200 H     1 <1>   0.0800 
 27 H        3.1200    -1.8340     0.4100 H     1 <1>   0.0800 
 28 H        1.8740    -1.5680     1.6020 H     1 <1>   0.0800 
 29 H        1.9940    -0.5340     0.1920 H     1 <1>   0.0800 
 30 H       -3.7390    -3.0950    -0.8610 H     1 <1>   0.0800 
 31 H       -4.8880     0.5490    -0.9290 H     1 <1>   0.0800 
 32 H       -3.8820    -0.5760    -1.7840 H     1 <1>   0.0800 
 33 H       -5.6830    -3.6930     0.4060 H     1 <1>   0.4000 
 34 H       -6.8640    -1.0310    -1.3840 H     1 <1>   0.1000 
 35 H       -6.8410    -2.6940    -0.7410 H     1 <1>   0.1000 
 36 H       -6.3440    -1.7850     1.5830 H     1 <1>   0.1000 
 37 H       -6.3910    -0.1270     0.9310 H     1 <1>   0.1000 
@<TRIPOS>BOND
  1   1   2  2   
  2   2   3  1   
  3   2   4  am  
  4   3   5  1   
  5   4   6  1   
  6   4   7  1   
  7   5   8  1   
  8   5   9  1   
  9   5  10  1   
 10   6  11  1   
 11   6  17  1   
 12   6  18  1   
 13   7  12  1   
 14   7  19  1   
 15   7  20  1   
 16   8  21  1   
 17   8  22  1   
 18   8  23  1   
 19   9  24  1   
 20   9  25  1   
 21   9  26  1   
 22  10  27  1   
 23  10  28  1   
 24  10  29  1   
 25  11  13  1   
 26  11  14  1   
 27  11  30  1   
 28  12  14  1   
 29  12  31  1   
 30  12  32  1   
 31  13  33  1   
 32  14  15  1   
 33  14  16  1   
 34  15  16  1   
 35  15  34  1   
 36  15  35  1   
 37  16  36  1   
 38  16  37  1   
@<TRIPOS>SUBSTRUCTURE
  1 ****   4 GROUP 4 **** **** 0

# MOE 2024.06 (io_trps.svl 2023.06)
