@<TRIPOS>MOLECULE
NONAME
49 50 1 0 0 
SMALL
USER_CHARGES


@<TRIPOS>ATOM
  1 N       -0.2960     0.3940    -0.2080 N.ar  1 <1>  -0.6200 
  2 C       -0.6590     1.6520    -0.3110 C.ar  1 <1>   0.7710 
  3 C       -1.2220    -0.4950     0.1010 C.ar  1 <1>   0.4100 
  4 N       -1.9180     2.0700    -0.1070 N.ar  1 <1>  -0.1790 
  5 N        0.3130     2.5090    -0.6420 N.pl3 1 <1>  -0.8690 
  6 N       -0.8150    -1.7890     0.1490 N.pl3 1 <1>  -0.8380 
  7 C       -2.5630    -0.1160     0.3690 C.ar  1 <1>  -0.1430 
  8 C       -2.8890     1.1960     0.2470 C.ar  1 <1>   0.2110 
  9 C        0.3880     3.9780    -0.8080 C.3   1 <1>   0.2090 
 10 C       -1.4290    -2.8580    -0.6860 C.3   1 <1>   0.1290 
 11 C        0.5040    -2.1660     0.7340 C.3   1 <1>   0.1290 
 12 C       -3.6140    -1.1300     0.8200 C.3   1 <1>  -0.0970 
 13 C        1.7310     4.4470    -0.2390 C.3   1 <1>  -0.1600 
 14 C        2.0370     5.9390    -0.4860 C.3   1 <1>  -0.0800 
 15 C        3.4850     6.2450    -0.0640 C.3   1 <1>  -0.1600 
 16 C        1.0720     6.8750     0.2670 C.3   1 <1>  -0.1600 
 17 C        3.8320     7.7270    -0.2100 C.3   1 <1>   0.3430 
 18 C        1.4690     8.3490     0.1220 C.3   1 <1>   0.3430 
 19 N        2.8720     8.5450     0.5840 N.4   1 <1>  -0.9590 
 20 C        3.2490     9.9910     0.5470 C.3   1 <1>   0.2630 
 21 H       -2.0910     3.0590    -0.2330 H     1 <1>   0.4570 
 22 H        1.2050     2.0290    -0.8150 H     1 <1>   0.4000 
 23 H       -3.8850     1.5670     0.4290 H     1 <1>   0.1500 
 24 H       -0.4250     4.4610    -0.2930 H     1 <1>   0.0800 
 25 H        0.3340     4.2180    -1.8580 H     1 <1>   0.0800 
 26 H       -2.1720    -2.4430    -1.3440 H     1 <1>   0.0800 
 27 H       -1.8860    -3.6000    -0.0540 H     1 <1>   0.0800 
 28 H       -0.6730    -3.3310    -1.2900 H     1 <1>   0.0800 
 29 H        0.8590    -1.3900     1.3900 H     1 <1>   0.0800 
 30 H        1.2250    -2.3110    -0.0520 H     1 <1>   0.0800 
 31 H        0.4080    -3.0760     1.3010 H     1 <1>   0.0800 
 32 H       -3.1960    -1.7860     1.5650 H     1 <1>   0.0800 
 33 H       -3.9470    -1.7230    -0.0120 H     1 <1>   0.0800 
 34 H       -4.4700    -0.6420     1.2510 H     1 <1>   0.0800 
 35 H        2.5090     3.8650    -0.7050 H     1 <1>   0.0800 
 36 H        1.7570     4.2420     0.8180 H     1 <1>   0.0800 
 37 H        1.9520     6.1340    -1.5440 H     1 <1>   0.0800 
 38 H        4.1650     5.6760    -0.6750 H     1 <1>   0.0800 
 39 H        3.6480     5.9460     0.9580 H     1 <1>   0.0800 
 40 H        1.0480     6.6210     1.3120 H     1 <1>   0.0800 
 41 H        0.0750     6.7600    -0.1180 H     1 <1>   0.0800 
 42 H        3.7810     8.0090    -1.2500 H     1 <1>   0.0800 
 43 H        4.8390     7.8960     0.1380 H     1 <1>   0.0800 
 44 H        0.8000     8.9600     0.7070 H     1 <1>   0.0800 
 45 H        1.3820     8.6460    -0.9110 H     1 <1>   0.0800 
 46 H        2.9270     8.2190     1.5590 H     1 <1>   0.4500 
 47 H        3.2050    10.3650    -0.4630 H     1 <1>   0.0800 
 48 H        4.2510    10.1260     0.9220 H     1 <1>   0.0800 
 49 H        2.5750    10.5690     1.1590 H     1 <1>   0.0800 
@<TRIPOS>BOND
  1   1   2  ar  
  2   1   3  ar  
  3   2   4  ar  
  4   2   5  1   
  5   3   6  1   
  6   3   7  ar  
  7   4   8  ar  
  8   4  21  1   
  9   5   9  1   
 10   5  22  1   
 11   6  10  1   
 12   6  11  1   
 13   7   8  ar  
 14   7  12  1   
 15   8  23  1   
 16   9  13  1   
 17   9  24  1   
 18   9  25  1   
 19  10  26  1   
 20  10  27  1   
 21  10  28  1   
 22  11  29  1   
 23  11  30  1   
 24  11  31  1   
 25  12  32  1   
 26  12  33  1   
 27  12  34  1   
 28  13  14  1   
 29  13  35  1   
 30  13  36  1   
 31  14  15  1   
 32  14  16  1   
 33  14  37  1   
 34  15  17  1   
 35  15  38  1   
 36  15  39  1   
 37  16  18  1   
 38  16  40  1   
 39  16  41  1   
 40  17  19  1   
 41  17  42  1   
 42  17  43  1   
 43  18  19  1   
 44  18  44  1   
 45  18  45  1   
 46  19  20  1   
 47  19  46  1   
 48  20  47  1   
 49  20  48  1   
 50  20  49  1   
@<TRIPOS>SUBSTRUCTURE
  1 ****   5 GROUP 4 **** **** 0

# MOE 2024.06 (io_trps.svl 2023.06)
