@<TRIPOS>MOLECULE
NONAME
53 54 1 0 0 
SMALL
USER_CHARGES


@<TRIPOS>ATOM
  1 S        1.2120     1.4790    -0.4480 S.o2  1 <1>   1.3330 
  2 O        0.4200     2.2380    -1.3870 O.2   1 <1>  -0.6500 
  3 O        2.4430     2.0680     0.0310 O.2   1 <1>  -0.6500 
  4 N        1.5190    -0.0670    -1.0650 N.am  1 <1>  -0.8490 
  5 C        0.1720     1.1680     0.9820 C.3   1 <1>  -0.0550 
  6 C        2.7290    -0.6990    -0.5250 C.3   1 <1>   0.1160 
  7 C        1.5360    -0.1110    -2.5320 C.3   1 <1>   0.1160 
  8 C       -0.2380     2.4120     1.8140 C.3   1 <1>  -0.0800 
  9 C       -1.0530     3.4380     1.0180 C.3   1 <1>   0.2000 
 10 C        0.9540     3.2210     2.3400 C.3   1 <1>   0.3430 
 11 O       -1.9660     4.0300     1.8830 O.3   1 <1>  -0.6800 
 12 C       -0.0500     4.4960     0.5360 C.3   1 <1>   0.3430 
 13 N        1.1980     4.2950     1.3440 N.4   1 <1>  -0.9590 
 14 C        1.7620     5.5480     1.9150 C.3   1 <1>   0.4860 
 15 C        1.9920     6.5450     0.8010 C.ar  1 <1>  -0.1430 
 16 C        3.1000     6.4070    -0.0260 C.ar  1 <1>   0.0830 
 17 C        1.1040     7.5920     0.6110 C.ar  1 <1>  -0.1500 
 18 O        3.9040     5.3390     0.2180 O.3   1 <1>  -0.3630 
 19 C        3.3410     7.3500    -1.0280 C.ar  1 <1>  -0.1430 
 20 C        1.3140     8.5060    -0.4040 C.ar  1 <1>  -0.1430 
 21 C        4.2840     4.4780    -0.8380 C.3   1 <1>   0.0400 
 22 C        2.4310     8.3800    -1.2110 C.ar  1 <1>  -0.1500 
 23 C        4.5770     7.3440    -1.9190 C.3   1 <1>  -0.0970 
 24 C        0.3400     9.6510    -0.6250 C.3   1 <1>  -0.0970 
 25 H       -0.7200     0.6720     0.6500 H     1 <1>   0.0800 
 26 H        0.6840     0.4820     1.6300 H     1 <1>   0.0800 
 27 H        2.8080    -1.7120    -0.8830 H     1 <1>   0.0800 
 28 H        2.6880    -0.7240     0.5500 H     1 <1>   0.0800 
 29 H        3.6070    -0.1520    -0.8270 H     1 <1>   0.0800 
 30 H        1.6920    -1.1210    -2.8740 H     1 <1>   0.0800 
 31 H        2.3200     0.5180    -2.9200 H     1 <1>   0.0800 
 32 H        0.5920     0.2310    -2.9240 H     1 <1>   0.0800 
 33 H       -0.8160     2.0450     2.6460 H     1 <1>   0.0800 
 34 H       -1.6100     3.0080     0.2010 H     1 <1>   0.0800 
 35 H        1.8300     2.6040     2.4720 H     1 <1>   0.0800 
 36 H        0.6890     3.6610     3.2880 H     1 <1>   0.0800 
 37 H       -1.5500     4.4350     2.6670 H     1 <1>   0.4000 
 38 H       -0.4610     5.4830     0.6670 H     1 <1>   0.0800 
 39 H        0.1700     4.3510    -0.5090 H     1 <1>   0.0800 
 40 H        1.9330     3.9550     0.6890 H     1 <1>   0.4500 
 41 H        1.0850     5.9650     2.6410 H     1 <1>   0.0800 
 42 H        2.7030     5.3400     2.3990 H     1 <1>   0.0800 
 43 H        0.2460     7.7100     1.2510 H     1 <1>   0.1500 
 44 H        4.4880     3.5080    -0.4230 H     1 <1>   0.0800 
 45 H        5.1790     4.8530    -1.2980 H     1 <1>   0.0800 
 46 H        3.4830     4.4120    -1.5540 H     1 <1>   0.0800 
 47 H        2.5970     9.1070    -1.9880 H     1 <1>   0.1500 
 48 H        4.7390     8.3130    -2.3560 H     1 <1>   0.0800 
 49 H        4.4590     6.6310    -2.7150 H     1 <1>   0.0800 
 50 H        5.4490     7.0990    -1.3400 H     1 <1>   0.0800 
 51 H        0.2980     9.9120    -1.6680 H     1 <1>   0.0800 
 52 H        0.6600    10.5120    -0.0670 H     1 <1>   0.0800 
 53 H       -0.6490     9.3780    -0.3050 H     1 <1>   0.0800 
@<TRIPOS>BOND
  1   1   2  2   
  2   1   3  2   
  3   1   4  am  
  4   1   5  1   
  5   4   6  1   
  6   4   7  1   
  7   5   8  1   
  8   5  25  1   
  9   5  26  1   
 10   6  27  1   
 11   6  28  1   
 12   6  29  1   
 13   7  30  1   
 14   7  31  1   
 15   7  32  1   
 16   8   9  1   
 17   8  10  1   
 18   8  33  1   
 19   9  11  1   
 20   9  12  1   
 21   9  34  1   
 22  10  13  1   
 23  10  35  1   
 24  10  36  1   
 25  11  37  1   
 26  12  13  1   
 27  12  38  1   
 28  12  39  1   
 29  13  14  1   
 30  13  40  1   
 31  14  15  1   
 32  14  41  1   
 33  14  42  1   
 34  15  16  ar  
 35  15  17  ar  
 36  16  18  1   
 37  16  19  ar  
 38  17  20  ar  
 39  17  43  1   
 40  18  21  1   
 41  19  22  ar  
 42  19  23  1   
 43  20  22  ar  
 44  20  24  1   
 45  21  44  1   
 46  21  45  1   
 47  21  46  1   
 48  22  47  1   
 49  23  48  1   
 50  23  49  1   
 51  23  50  1   
 52  24  51  1   
 53  24  52  1   
 54  24  53  1   
@<TRIPOS>SUBSTRUCTURE
  1 ****  13 GROUP 4 **** **** 0

# MOE 2024.06 (io_trps.svl 2023.06)
