@<TRIPOS>MOLECULE
NONAME
42 44 1 0 0 
SMALL
USER_CHARGES


@<TRIPOS>ATOM
  1 O        0.2530     0.2920    -2.7780 O.2   1 <1>  -0.5700 
  2 C        0.8170    -0.3160    -1.9020 C.2   1 <1>   0.6300 
  3 N        1.3380     0.3090    -0.8220 N.am  1 <1>  -0.7300 
  4 C        0.9500    -1.8260    -2.0010 C.3   1 <1>  -0.0200 
  5 C        1.3800     1.7820    -0.6320 C.3   1 <1>   0.3200 
  6 C        0.8490    -2.6780    -0.7900 C.2   1 <1>  -0.0680 
  7 C        2.0640    -2.5590    -1.3460 C.2   1 <1>  -0.1780 
  8 C        2.7560     2.2460    -0.1770 C.2   1 <1>   0.2980 
  9 C       -0.0360    -3.1990     0.2190 C.ar  1 <1>   0.0280 
 10 C        3.5430    -2.8730    -1.3860 C.3   1 <1>  -0.1020 
 11 O        3.2460     1.7430     0.9290 O.3   1 <1>  -0.0190 
 12 N        3.5020     3.0910    -0.7700 N.2   1 <1>  -0.5650 
 13 C       -1.3860    -2.8650     0.2250 C.ar  1 <1>  -0.1500 
 14 C        0.4370    -4.0470     1.2140 C.ar  1 <1>  -0.1500 
 15 N        4.4060     2.3130     1.0450 N.2   1 <1>  -0.4100 
 16 C        4.5430     3.0970     0.0490 C.2   1 <1>   0.3350 
 17 C       -2.2390    -3.3630     1.1940 C.ar  1 <1>  -0.1500 
 18 C       -0.4100    -4.5470     2.1870 C.ar  1 <1>  -0.1500 
 19 C        5.7440     3.9770    -0.2430 C.3   1 <1>   0.0210 
 20 C       -1.7510    -4.2050     2.1780 C.ar  1 <1>  -0.1500 
 21 C        6.8470     3.8170     0.8020 C.3   1 <1>   0.1200 
 22 O        7.9040     4.6520     0.4530 O.3   1 <1>  -0.5600 
 23 C        8.9780     4.5990     1.3360 C.3   1 <1>   0.0400 
 24 H        1.7990    -0.2570    -0.1070 H     1 <1>   0.3700 
 25 H        0.5630    -2.1980    -2.9310 H     1 <1>   0.1000 
 26 H        0.6520     2.0630     0.1080 H     1 <1>   0.0800 
 27 H        1.1320     2.2790    -1.5550 H     1 <1>   0.0800 
 28 H        4.1150    -1.9650    -1.3100 H     1 <1>   0.0800 
 29 H        3.7890    -3.3640    -2.3100 H     1 <1>   0.0800 
 30 H        3.8030    -3.5200    -0.5680 H     1 <1>   0.0800 
 31 H       -1.7700    -2.2110    -0.5390 H     1 <1>   0.1500 
 32 H        1.4780    -4.3150     1.2220 H     1 <1>   0.1500 
 33 H       -3.2810    -3.0960     1.1840 H     1 <1>   0.1500 
 34 H       -0.0280    -5.2030     2.9500 H     1 <1>   0.1500 
 35 H        5.4200     5.0010    -0.2650 H     1 <1>   0.0800 
 36 H        6.1320     3.7150    -1.2100 H     1 <1>   0.0800 
 37 H       -2.4120    -4.5930     2.9330 H     1 <1>   0.1500 
 38 H        7.1990     2.8000     0.8250 H     1 <1>   0.0800 
 39 H        6.4850     4.1020     1.7760 H     1 <1>   0.0800 
 40 H        9.7370     5.2730     0.9800 H     1 <1>   0.0800 
 41 H        9.3680     3.5960     1.3630 H     1 <1>   0.0800 
 42 H        8.6500     4.9060     2.3140 H     1 <1>   0.0800 
@<TRIPOS>BOND
  1   1   2  2   
  2   2   3  am  
  3   2   4  1   
  4   3   5  1   
  5   3  24  1   
  6   4   6  1   
  7   4   7  1   
  8   4  25  1   
  9   5   8  1   
 10   5  26  1   
 11   5  27  1   
 12   6   7  2   
 13   6   9  1   
 14   7  10  1   
 15   8  11  1   
 16   8  12  2   
 17   9  13  ar  
 18   9  14  ar  
 19  10  28  1   
 20  10  29  1   
 21  10  30  1   
 22  11  15  1   
 23  12  16  1   
 24  13  17  ar  
 25  13  31  1   
 26  14  18  ar  
 27  14  32  1   
 28  15  16  2   
 29  16  19  1   
 30  17  20  ar  
 31  17  33  1   
 32  18  20  ar  
 33  18  34  1   
 34  19  21  1   
 35  19  35  1   
 36  19  36  1   
 37  20  37  1   
 38  21  22  1   
 39  21  38  1   
 40  21  39  1   
 41  22  23  1   
 42  23  40  1   
 43  23  41  1   
 44  23  42  1   
@<TRIPOS>SUBSTRUCTURE
  1 ****   3 GROUP 4 **** **** 0

# MOE 2024.06 (io_trps.svl 2023.06)
