@<TRIPOS>MOLECULE
NONAME
41 43 1 0 0 
SMALL
USER_CHARGES


@<TRIPOS>ATOM
  1 N        5.8610     5.4820     0.9430 N.2   1 <1>  -0.5650 
  2 C        4.7080     5.5270     0.2220 C.ar  1 <1>   0.2270 
  3 C        6.0920     4.2220     1.0980 C.2   1 <1>   0.0060 
  4 C        4.2550     4.2500    -0.0480 C.ar  1 <1>  -0.1520 
  5 C        4.0030     6.6340    -0.2410 C.ar  1 <1>  -0.1500 
  6 N        5.1600     3.4100     0.5250 N.pl3 1 <1>   0.0480 
  7 C        7.3170     3.6950     1.8330 C.3   1 <1>   0.2900 
  8 C        3.0840     4.0450    -0.7840 C.ar  1 <1>  -0.1500 
  9 C        2.8460     6.4480    -0.9680 C.ar  1 <1>   0.1000 
 10 C        5.1080     1.9370     0.4810 C.3   1 <1>   0.0160 
 11 N        8.3630     3.2340     0.8850 N.3   1 <1>  -0.8100 
 12 C        2.3940     5.1470    -1.2380 C.ar  1 <1>  -0.1500 
 13 N        2.1210     7.5340    -1.4350 N.pl3 1 <1>  -0.9000 
 14 C        8.7170     4.3300    -0.0640 C.3   1 <1>   0.1100 
 15 C        9.5700     2.7760     1.6110 C.3   1 <1>   0.1100 
 16 C        9.9480     4.0100    -0.9420 C.3   1 <1>   0.3430 
 17 C       10.6840     2.2820     0.6530 C.3   1 <1>   0.3430 
 18 N       10.3570     2.5770    -0.7830 N.4   1 <1>  -0.9590 
 19 C       11.4260     2.1570    -1.7330 C.3   1 <1>   0.2630 
 20 H        4.3800     7.6140    -0.0240 H     1 <1>   0.1500 
 21 H        7.0240     2.8860     2.4790 H     1 <1>   0.0800 
 22 H        7.7080     4.4870     2.4510 H     1 <1>   0.0800 
 23 H        2.7360     3.0490    -0.9910 H     1 <1>   0.1500 
 24 H        6.0850     1.5290     0.6590 H     1 <1>   0.0800 
 25 H        4.7670     1.6230    -0.4890 H     1 <1>   0.0800 
 26 H        4.4250     1.5850     1.2320 H     1 <1>   0.0800 
 27 H        1.4950     5.0230    -1.8130 H     1 <1>   0.1500 
 28 H        1.1190     7.3580    -1.5440 H     1 <1>   0.4000 
 29 H        2.2820     8.4010    -0.9130 H     1 <1>   0.4000 
 30 H        8.8990     5.2450     0.4750 H     1 <1>   0.0800 
 31 H        7.8820     4.5160    -0.7200 H     1 <1>   0.0800 
 32 H        9.3080     1.9750     2.2810 H     1 <1>   0.0800 
 33 H        9.9600     3.5830     2.2110 H     1 <1>   0.0800 
 34 H       10.7610     4.6570    -0.6580 H     1 <1>   0.0800 
 35 H        9.7060     4.2190    -1.9720 H     1 <1>   0.0800 
 36 H       10.8070     1.2190     0.7830 H     1 <1>   0.0800 
 37 H       11.6150     2.7520     0.9260 H     1 <1>   0.0800 
 38 H        9.4830     2.0540    -0.9560 H     1 <1>   0.4500 
 39 H       12.3310     2.7130    -1.5480 H     1 <1>   0.0800 
 40 H       11.1130     2.3350    -2.7490 H     1 <1>   0.0800 
 41 H       11.6360     1.1060    -1.6190 H     1 <1>   0.0800 
@<TRIPOS>BOND
  1   1   2  1   
  2   1   3  2   
  3   2   4  ar  
  4   2   5  ar  
  5   3   6  1   
  6   3   7  1   
  7   4   6  1   
  8   4   8  ar  
  9   5   9  ar  
 10   5  20  1   
 11   6  10  1   
 12   7  11  1   
 13   7  21  1   
 14   7  22  1   
 15   8  12  ar  
 16   8  23  1   
 17   9  12  ar  
 18   9  13  1   
 19  10  24  1   
 20  10  25  1   
 21  10  26  1   
 22  11  14  1   
 23  11  15  1   
 24  12  27  1   
 25  13  28  1   
 26  13  29  1   
 27  14  16  1   
 28  14  30  1   
 29  14  31  1   
 30  15  17  1   
 31  15  32  1   
 32  15  33  1   
 33  16  18  1   
 34  16  34  1   
 35  16  35  1   
 36  17  18  1   
 37  17  36  1   
 38  17  37  1   
 39  18  19  1   
 40  18  38  1   
 41  19  39  1   
 42  19  40  1   
 43  19  41  1   
@<TRIPOS>SUBSTRUCTURE
  1 ****   3 GROUP 4 **** **** 0

# MOE 2024.06 (io_trps.svl 2023.06)
