@<TRIPOS>MOLECULE
NONAME
54 56 1 0 0 
SMALL
USER_CHARGES


@<TRIPOS>ATOM
  1 O        3.0540     0.5700     1.7180 O.2   1 <1>  -0.5700 
  2 C        2.9780    -0.0520     0.6730 C.2   1 <1>   0.5440 
  3 N        2.5910     0.6510    -0.4590 N.am  1 <1>  -0.6600 
  4 C        3.3850    -1.4570     0.6350 C.ar  1 <1>   0.3960 
  5 C        2.8610     0.1600    -1.8510 C.3   1 <1>   0.1400 
  6 C        2.0990     2.0560    -0.3750 C.3   1 <1>   0.1400 
  7 N        4.4950    -1.7600    -0.0660 N.ar  1 <1>  -0.6200 
  8 C        2.6450    -2.4350     1.3150 C.ar  1 <1>  -0.1440 
  9 C        4.3180     0.4510    -2.2770 C.3   1 <1>   0.3430 
 10 C        3.2620     3.0570    -0.4390 C.3   1 <1>  -0.1600 
 11 C        4.8720    -3.0250    -0.0690 C.ar  1 <1>   0.1600 
 12 C        3.0580    -3.7510     1.2860 C.ar  1 <1>  -0.1500 
 13 C        1.3850    -2.0780     2.0990 C.3   1 <1>  -0.0960 
 14 N        4.9150     1.5610    -1.4720 N.4   1 <1>  -0.9590 
 15 C        4.2230     2.8680    -1.6160 C.3   1 <1>   0.3430 
 16 C        4.2000    -4.0440     0.5770 C.ar  1 <1>  -0.1500 
 17 C        6.3840     1.6420    -1.5910 C.3   1 <1>   0.5230 
 18 C        6.8680     2.4840    -0.4380 C.2   1 <1>  -0.3320 
 19 N        6.9030     2.0950     0.8580 N.pl3 1 <1>   0.0480 
 20 C        7.3520     3.7450    -0.4770 C.2   1 <1>   0.0770 
 21 C        7.3910     3.1710     1.5150 C.2   1 <1>   0.0360 
 22 C        6.5210     0.8070     1.4900 C.3   1 <1>   0.0960 
 23 N        7.6670     4.1780     0.7530 N.2   1 <1>  -0.5650 
 24 C        7.6070    -0.2580     1.3250 C.3   1 <1>   0.1200 
 25 O        7.7750    -0.5600    -0.0280 O.3   1 <1>  -0.5600 
 26 C        8.8150    -1.4540    -0.2700 C.3   1 <1>   0.0400 
 27 H        2.1870     0.6400    -2.5380 H     1 <1>   0.0800 
 28 H        2.6720    -0.8980    -1.9170 H     1 <1>   0.0800 
 29 H        1.5620     2.1930     0.5510 H     1 <1>   0.0800 
 30 H        1.4030     2.2420    -1.1760 H     1 <1>   0.0800 
 31 H        4.3540     0.6790    -3.3290 H     1 <1>   0.0800 
 32 H        4.8950    -0.4460    -2.1160 H     1 <1>   0.0800 
 33 H        3.8140     3.0220     0.4850 H     1 <1>   0.0800 
 34 H        2.8420     4.0450    -0.5030 H     1 <1>   0.0800 
 35 H        5.7670    -3.2700    -0.6170 H     1 <1>   0.1500 
 36 H        2.5160    -4.5290     1.7980 H     1 <1>   0.1500 
 37 H        0.6890    -1.5480     1.4730 H     1 <1>   0.0800 
 38 H        1.6370    -1.4540     2.9390 H     1 <1>   0.0800 
 39 H        0.8950    -2.9610     2.4710 H     1 <1>   0.0800 
 40 H        4.7360     1.2900    -0.4950 H     1 <1>   0.4500 
 41 H        4.9440     3.6690    -1.5990 H     1 <1>   0.0800 
 42 H        3.6880     2.9130    -2.5500 H     1 <1>   0.0800 
 43 H        4.5660    -5.0540     0.5270 H     1 <1>   0.1500 
 44 H        6.6570     2.1000    -2.5280 H     1 <1>   0.0800 
 45 H        6.8220     0.6600    -1.5490 H     1 <1>   0.0800 
 46 H        7.4960     4.3870    -1.3320 H     1 <1>   0.1500 
 47 H        7.5330     3.1730     2.5820 H     1 <1>   0.1500 
 48 H        5.6060     0.4530     1.0640 H     1 <1>   0.0800 
 49 H        6.3490     0.9780     2.5370 H     1 <1>   0.0800 
 50 H        7.3160    -1.1590     1.8380 H     1 <1>   0.0800 
 51 H        8.5410     0.0980     1.7270 H     1 <1>   0.0800 
 52 H        8.8620    -1.6420    -1.3280 H     1 <1>   0.0800 
 53 H        8.6260    -2.3750     0.2540 H     1 <1>   0.0800 
 54 H        9.7430    -1.0170     0.0590 H     1 <1>   0.0800 
@<TRIPOS>BOND
  1   1   2  2   
  2   2   3  am  
  3   2   4  1   
  4   3   5  1   
  5   3   6  1   
  6   4   7  ar  
  7   4   8  ar  
  8   5   9  1   
  9   5  27  1   
 10   5  28  1   
 11   6  10  1   
 12   6  29  1   
 13   6  30  1   
 14   7  11  ar  
 15   8  12  ar  
 16   8  13  1   
 17   9  14  1   
 18   9  31  1   
 19   9  32  1   
 20  10  15  1   
 21  10  33  1   
 22  10  34  1   
 23  11  16  ar  
 24  11  35  1   
 25  12  16  ar  
 26  12  36  1   
 27  13  37  1   
 28  13  38  1   
 29  13  39  1   
 30  14  15  1   
 31  14  17  1   
 32  14  40  1   
 33  15  41  1   
 34  15  42  1   
 35  16  43  1   
 36  17  18  1   
 37  17  44  1   
 38  17  45  1   
 39  18  19  1   
 40  18  20  2   
 41  19  21  1   
 42  19  22  1   
 43  20  23  1   
 44  20  46  1   
 45  21  23  2   
 46  21  47  1   
 47  22  24  1   
 48  22  48  1   
 49  22  49  1   
 50  24  25  1   
 51  24  50  1   
 52  24  51  1   
 53  25  26  1   
 54  26  52  1   
 55  26  53  1   
 56  26  54  1   
@<TRIPOS>SUBSTRUCTURE
  1 ****  14 GROUP 4 **** **** 0

# MOE 2024.06 (io_trps.svl 2023.06)
