@<TRIPOS>MOLECULE
NONAME
54 56 1 0 0 
SMALL
USER_CHARGES


@<TRIPOS>ATOM
  1 O        2.0060     0.2240     0.8560 O.2   1 <1>  -0.5700 
  2 C        2.1400    -0.4130    -0.1720 C.2   1 <1>   0.5440 
  3 N        2.0220     0.2810    -1.3710 N.am  1 <1>  -0.6600 
  4 C        2.4720    -1.8370    -0.0810 C.ar  1 <1>   0.3960 
  5 C        2.3880    -0.2940    -2.7090 C.3   1 <1>   0.1400 
  6 C        1.7070     1.7410    -1.3950 C.3   1 <1>   0.1400 
  7 N        3.5190    -2.3300    -0.7770 N.ar  1 <1>  -0.6200 
  8 C        1.7040    -2.6440     0.7510 C.ar  1 <1>  -0.1500 
  9 C        3.9060    -0.1770    -2.9740 C.3   1 <1>   0.3430 
 10 C        2.9870     2.5880    -1.3070 C.3   1 <1>  -0.1600 
 11 C        3.7710    -3.6220    -0.6310 C.ar  1 <1>   0.1600 
 12 C        1.9780    -3.9850     0.8880 C.ar  1 <1>   0.0830 
 13 N        4.5220     0.8400    -2.0740 N.4   1 <1>  -0.9590 
 14 C        4.0770     2.2350    -2.3240 C.3   1 <1>   0.3430 
 15 C        3.0480    -4.4830     0.1700 C.ar  1 <1>  -0.1500 
 16 O        1.1920    -4.7140     1.7060 O.3   1 <1>  -0.3630 
 17 C        5.9880     0.7080    -1.8730 C.3   1 <1>   0.5240 
 18 C        1.4160    -6.0910     1.9180 C.3   1 <1>   0.0400 
 19 C        6.3520     1.4750    -0.6130 C.2   1 <1>   0.0460 
 20 N        6.7730     2.7520    -0.6910 N.2   1 <1>  -0.5650 
 21 C        6.2730     1.0660     0.6750 C.2   1 <1>  -0.3320 
 22 C        6.9560     3.0960     0.5420 C.2   1 <1>   0.0060 
 23 N        6.6680     2.1140     1.4220 N.pl3 1 <1>   0.0330 
 24 C        5.8290    -0.2520     1.2890 C.3   1 <1>  -0.0600 
 25 C        7.4450     4.4670     0.9780 C.3   1 <1>   0.0200 
 26 C        8.8460     4.3920     1.5930 C.3   1 <1>  -0.2400 
 27 H        1.8520     0.2270    -3.4830 H     1 <1>   0.0800 
 28 H        2.0890    -1.3270    -2.7670 H     1 <1>   0.0800 
 29 H        1.0620     1.9860    -0.5660 H     1 <1>   0.0800 
 30 H        1.1670     1.9800    -2.2960 H     1 <1>   0.0800 
 31 H        0.8850    -2.2160     1.3010 H     1 <1>   0.1500 
 32 H        4.0870     0.0660    -4.0080 H     1 <1>   0.0800 
 33 H        4.3520    -1.1380    -2.7790 H     1 <1>   0.0800 
 34 H        3.3930     2.5160    -0.3120 H     1 <1>   0.0800 
 35 H        2.7160     3.6180    -1.4490 H     1 <1>   0.0800 
 36 H        4.6050    -4.0250    -1.1810 H     1 <1>   0.1500 
 37 H        4.1210     0.6360    -1.1430 H     1 <1>   0.4500 
 38 H        4.9030     2.9170    -2.1990 H     1 <1>   0.0800 
 39 H        3.7020     2.3380    -3.3290 H     1 <1>   0.0800 
 40 H        3.3290    -5.5180     0.2230 H     1 <1>   0.1500 
 41 H        6.5320     1.1040    -2.7130 H     1 <1>   0.0800 
 42 H        6.2490    -0.3280    -1.7360 H     1 <1>   0.0800 
 43 H        0.6710    -6.4480     2.6080 H     1 <1>   0.0800 
 44 H        2.3960    -6.2250     2.3400 H     1 <1>   0.0800 
 45 H        1.3230    -6.6100     0.9810 H     1 <1>   0.0800 
 46 H        6.7390     2.1670     2.4430 H     1 <1>   0.2700 
 47 H        5.6270    -0.9830     0.5280 H     1 <1>   0.0800 
 48 H        4.9330    -0.1080     1.8690 H     1 <1>   0.0800 
 49 H        6.5990    -0.6390     1.9330 H     1 <1>   0.0800 
 50 H        6.7530     4.8860     1.6870 H     1 <1>   0.0800 
 51 H        7.4700     5.1160     0.1190 H     1 <1>   0.0800 
 52 H        8.8410     3.7820     2.4780 H     1 <1>   0.0800 
 53 H        9.1870     5.3780     1.8540 H     1 <1>   0.0800 
 54 H        9.5340     3.9670     0.8830 H     1 <1>   0.0800 
@<TRIPOS>BOND
  1   1   2  2   
  2   2   3  am  
  3   2   4  1   
  4   3   5  1   
  5   3   6  1   
  6   4   7  ar  
  7   4   8  ar  
  8   5   9  1   
  9   5  27  1   
 10   5  28  1   
 11   6  10  1   
 12   6  29  1   
 13   6  30  1   
 14   7  11  ar  
 15   8  12  ar  
 16   8  31  1   
 17   9  13  1   
 18   9  32  1   
 19   9  33  1   
 20  10  14  1   
 21  10  34  1   
 22  10  35  1   
 23  11  15  ar  
 24  11  36  1   
 25  12  15  ar  
 26  12  16  1   
 27  13  14  1   
 28  13  17  1   
 29  13  37  1   
 30  14  38  1   
 31  14  39  1   
 32  15  40  1   
 33  16  18  1   
 34  17  19  1   
 35  17  41  1   
 36  17  42  1   
 37  18  43  1   
 38  18  44  1   
 39  18  45  1   
 40  19  20  1   
 41  19  21  2   
 42  20  22  2   
 43  21  23  1   
 44  21  24  1   
 45  22  23  1   
 46  22  25  1   
 47  23  46  1   
 48  24  47  1   
 49  24  48  1   
 50  24  49  1   
 51  25  26  1   
 52  25  50  1   
 53  25  51  1   
 54  26  52  1   
 55  26  53  1   
 56  26  54  1   
@<TRIPOS>SUBSTRUCTURE
  1 ****   2 GROUP 4 **** **** 0

# MOE 2024.06 (io_trps.svl 2023.06)
