@<TRIPOS>MOLECULE
NONAME
60 63 1 0 0 
SMALL
USER_CHARGES


@<TRIPOS>ATOM
  1 O        0.4420     2.6880     3.3590 O.2   1 <1>  -0.5700 
  2 C        0.3760     3.5480     2.5190 C.2   1 <1>   0.5690 
  3 N       -0.7440     4.2890     2.3750 N.am  1 <1>  -0.7300 
  4 C        1.5580     3.7860     1.5740 C.3   1 <1>   0.1810 
  5 C       -0.8890     5.3740     1.3780 C.3   1 <1>   0.3640 
  6 O        1.5000     5.0310     0.9020 O.3   1 <1>  -0.5600 
  7 C       -2.2540     5.2550     0.7060 C.ar  1 <1>  -0.1440 
  8 C        0.2400     5.3270     0.3160 C.3   1 <1>   0.2610 
  9 C       -3.0230     6.3930     0.5070 C.ar  1 <1>  -0.1500 
 10 C       -2.7440     4.0280     0.2740 C.ar  1 <1>  -0.1500 
 11 C        0.3340     6.6420    -0.4730 C.2   1 <1>   0.5690 
 12 C       -4.2570     6.3080    -0.1130 C.ar  1 <1>  -0.1500 
 13 C       -3.9780     3.9430    -0.3460 C.ar  1 <1>  -0.1500 
 14 O       -0.0550     7.6710     0.0340 O.2   1 <1>  -0.5700 
 15 N        0.9330     6.6940    -1.7120 N.am  1 <1>  -0.6600 
 16 C       -4.7360     5.0830    -0.5400 C.ar  1 <1>  -0.1500 
 17 C        0.8950     7.9670    -2.5030 C.3   1 <1>   0.1400 
 18 C        1.8890     5.6750    -2.2270 C.3   1 <1>   0.1400 
 19 C        1.8540     9.0210    -1.9100 C.3   1 <1>   0.3430 
 20 C        3.3240     6.0110    -1.7880 C.3   1 <1>  -0.1600 
 21 N        2.9960     8.3850    -1.1620 N.4   1 <1>  -0.9590 
 22 C        3.7670     7.4570    -2.0420 C.3   1 <1>   0.3430 
 23 C        3.8510     9.3200    -0.3690 C.3   1 <1>   0.4230 
 24 C        4.7130     8.4990     0.6090 C.3   1 <1>  -0.1600 
 25 C        2.9930    10.3350     0.4110 C.3   1 <1>  -0.1600 
 26 C        5.5650     9.3940     1.5200 C.3   1 <1>  -0.1600 
 27 C        3.8410    11.2250     1.3320 C.3   1 <1>  -0.1600 
 28 C        4.6910    10.3870     2.2910 C.3   1 <1>  -0.1600 
 29 H       -1.5340     4.1200     3.0010 H     1 <1>   0.3700 
 30 H        1.5840     3.0040     0.8380 H     1 <1>   0.0800 
 31 H        2.4710     3.7600     2.1390 H     1 <1>   0.0800 
 32 H       -0.8380     6.3090     1.9100 H     1 <1>   0.0800 
 33 H        0.0120     4.5390    -0.3780 H     1 <1>   0.0800 
 34 H       -2.6660     7.3570     0.8310 H     1 <1>   0.1500 
 35 H       -2.1720     3.1270     0.4190 H     1 <1>   0.1500 
 36 H       -4.8470     7.1970    -0.2620 H     1 <1>   0.1500 
 37 H       -4.3510     2.9880    -0.6760 H     1 <1>   0.1500 
 38 H       -5.6960     5.0170    -1.0210 H     1 <1>   0.1500 
 39 H        1.1570     7.7730    -3.5280 H     1 <1>   0.0800 
 40 H       -0.1070     8.3630    -2.5010 H     1 <1>   0.0800 
 41 H        1.6250     4.6940    -1.8700 H     1 <1>   0.0800 
 42 H        1.8300     5.6460    -3.3020 H     1 <1>   0.0800 
 43 H        1.2730     9.6190    -1.2280 H     1 <1>   0.0800 
 44 H        2.2190     9.6690    -2.6890 H     1 <1>   0.0800 
 45 H        3.9880     5.3590    -2.3260 H     1 <1>   0.0800 
 46 H        3.4480     5.7770    -0.7460 H     1 <1>   0.0800 
 47 H        2.5160     7.7850    -0.4730 H     1 <1>   0.4500 
 48 H        3.6170     7.7130    -3.0790 H     1 <1>   0.0800 
 49 H        4.8210     7.5410    -1.8350 H     1 <1>   0.0800 
 50 H        4.5010     9.8660    -1.0340 H     1 <1>   0.0800 
 51 H        4.0730     7.8950     1.2300 H     1 <1>   0.0800 
 52 H        5.3830     7.8490     0.0800 H     1 <1>   0.0800 
 53 H        2.4750    10.9900    -0.2660 H     1 <1>   0.0800 
 54 H        2.2680     9.8110     1.0100 H     1 <1>   0.0800 
 55 H        6.1100     8.7830     2.2200 H     1 <1>   0.0800 
 56 H        6.2860     9.9350     0.9300 H     1 <1>   0.0800 
 57 H        4.4870    11.8510     0.7390 H     1 <1>   0.0800 
 58 H        3.1960    11.8730     1.9030 H     1 <1>   0.0800 
 59 H        5.3170    11.0370     2.8790 H     1 <1>   0.0800 
 60 H        4.0480     9.8520     2.9700 H     1 <1>   0.0800 
@<TRIPOS>BOND
  1   1   2  2   
  2   2   3  am  
  3   2   4  1   
  4   3   5  1   
  5   3  29  1   
  6   4   6  1   
  7   4  30  1   
  8   4  31  1   
  9   5   7  1   
 10   5   8  1   
 11   5  32  1   
 12   6   8  1   
 13   7   9  ar  
 14   7  10  ar  
 15   8  11  1   
 16   8  33  1   
 17   9  12  ar  
 18   9  34  1   
 19  10  13  ar  
 20  10  35  1   
 21  11  14  2   
 22  11  15  am  
 23  12  16  ar  
 24  12  36  1   
 25  13  16  ar  
 26  13  37  1   
 27  15  17  1   
 28  15  18  1   
 29  16  38  1   
 30  17  19  1   
 31  17  39  1   
 32  17  40  1   
 33  18  20  1   
 34  18  41  1   
 35  18  42  1   
 36  19  21  1   
 37  19  43  1   
 38  19  44  1   
 39  20  22  1   
 40  20  45  1   
 41  20  46  1   
 42  21  22  1   
 43  21  23  1   
 44  21  47  1   
 45  22  48  1   
 46  22  49  1   
 47  23  24  1   
 48  23  25  1   
 49  23  50  1   
 50  24  26  1   
 51  24  51  1   
 52  24  52  1   
 53  25  27  1   
 54  25  53  1   
 55  25  54  1   
 56  26  28  1   
 57  26  55  1   
 58  26  56  1   
 59  27  28  1   
 60  27  57  1   
 61  27  58  1   
 62  28  59  1   
 63  28  60  1   
@<TRIPOS>SUBSTRUCTURE
  1 ****  11 GROUP 4 **** **** 0

# MOE 2024.06 (io_trps.svl 2023.06)
