@<TRIPOS>MOLECULE
NONAME
50 52 1 0 0 
SMALL
USER_CHARGES


@<TRIPOS>ATOM
  1 O       -0.1060    -0.9210    -0.4890 O.2   1 <1>  -0.5700 
  2 C       -0.8310    -1.8330    -0.1700 C.2   1 <1>   0.6900 
  3 N       -0.9050    -2.9660    -0.9090 N.am  1 <1>  -0.4900 
  4 N       -1.6100    -1.7540     0.9500 N.am  1 <1>  -0.5390 
  5 C       -1.7090    -4.0210    -0.5830 C.2   1 <1>   0.6160 
  6 C       -2.4430    -2.7780     1.3350 C.2   1 <1>  -0.0410 
  7 O       -1.6730    -4.9830    -1.3230 O.2   1 <1>  -0.5700 
  8 C       -2.5350    -3.9200     0.5890 C.2   1 <1>   0.0290 
  9 C       -3.3920    -5.0050     0.9710 C.2   1 <1>   0.6160 
 10 O       -3.3420    -5.3850     2.1290 O.2   1 <1>  -0.5700 
 11 N       -4.3230    -5.5940     0.1350 N.am  1 <1>  -0.6600 
 12 C       -4.9740    -6.8800     0.5350 C.3   1 <1>   0.1400 
 13 C       -4.7440    -5.0140    -1.1730 C.3   1 <1>   0.1400 
 14 C       -6.2300    -6.6110     1.3760 C.3   1 <1>   0.1400 
 15 C       -6.2670    -4.9650    -1.3740 C.3   1 <1>  -0.1600 
 16 N       -7.3540    -6.0830     0.5370 N.am  1 <1>  -0.6600 
 17 C       -7.0900    -4.7610    -0.0960 C.3   1 <1>   0.1400 
 18 C       -8.5050    -6.7830     0.2380 C.2   1 <1>   0.5690 
 19 O       -9.3890    -6.2640    -0.4090 O.2   1 <1>  -0.5700 
 20 C       -8.7290    -8.2240     0.7340 C.3   1 <1>   0.2610 
 21 O       -7.6580    -9.0790     0.3540 O.3   1 <1>  -0.2170 
 22 C       -9.9670    -8.9580     0.2030 C.3   1 <1>  -0.0990 
 23 N       -8.0840   -10.2430    -0.0950 N.2   1 <1>  -0.5130 
 24 C       -9.3340   -10.2540    -0.2060 C.2   1 <1>   0.3280 
 25 C      -10.2210   -11.3980    -0.7070 C.3   1 <1>  -0.0190 
 26 C      -11.0420   -12.0100     0.4380 C.3   1 <1>  -0.2400 
 27 C       -9.4070   -12.5030    -1.4010 C.3   1 <1>  -0.2400 
 28 H       -0.3090    -3.0450    -1.7250 H     1 <1>   0.3700 
 29 H       -1.5010    -0.8870     1.4840 H     1 <1>   0.3700 
 30 H       -3.0140    -2.6530     2.2430 H     1 <1>   0.1500 
 31 H       -4.2810    -7.4560     1.1230 H     1 <1>   0.0800 
 32 H       -5.2270    -7.4640    -0.3330 H     1 <1>   0.0800 
 33 H       -4.2950    -5.5850    -1.9700 H     1 <1>   0.0800 
 34 H       -4.3730    -4.0080    -1.2500 H     1 <1>   0.0800 
 35 H       -5.9940    -5.9010     2.1490 H     1 <1>   0.0800 
 36 H       -6.5150    -7.5220     1.8670 H     1 <1>   0.0800 
 37 H       -6.5960    -5.8610    -1.8710 H     1 <1>   0.0800 
 38 H       -6.4780    -4.1530    -2.0460 H     1 <1>   0.0800 
 39 H       -8.0260    -4.2910    -0.3500 H     1 <1>   0.0800 
 40 H       -6.5780    -4.1120     0.5930 H     1 <1>   0.0800 
 41 H       -8.7520    -8.2200     1.8080 H     1 <1>   0.0800 
 42 H      -10.4050    -8.4780    -0.6520 H     1 <1>   0.0800 
 43 H      -10.7000    -9.0820     0.9760 H     1 <1>   0.0800 
 44 H      -10.9000   -10.9890    -1.4350 H     1 <1>   0.0800 
 45 H      -10.3870   -12.3980     1.1990 H     1 <1>   0.0800 
 46 H      -11.6540   -12.8150     0.0710 H     1 <1>   0.0800 
 47 H      -11.6870   -11.2740     0.8810 H     1 <1>   0.0800 
 48 H       -8.7180   -12.9530    -0.7070 H     1 <1>   0.0800 
 49 H       -8.8430   -12.0880    -2.2170 H     1 <1>   0.0800 
 50 H      -10.0570   -13.2670    -1.7890 H     1 <1>   0.0800 
@<TRIPOS>BOND
  1   1   2  2   
  2   2   3  am  
  3   2   4  am  
  4   3   5  am  
  5   3  28  1   
  6   4   6  1   
  7   4  29  1   
  8   5   7  2   
  9   5   8  1   
 10   6   8  2   
 11   6  30  1   
 12   8   9  1   
 13   9  10  2   
 14   9  11  am  
 15  11  12  1   
 16  11  13  1   
 17  12  14  1   
 18  12  31  1   
 19  12  32  1   
 20  13  15  1   
 21  13  33  1   
 22  13  34  1   
 23  14  16  1   
 24  14  35  1   
 25  14  36  1   
 26  15  17  1   
 27  15  37  1   
 28  15  38  1   
 29  16  17  1   
 30  16  18  am  
 31  17  39  1   
 32  17  40  1   
 33  18  19  2   
 34  18  20  1   
 35  20  21  1   
 36  20  22  1   
 37  20  41  1   
 38  21  23  1   
 39  22  24  1   
 40  22  42  1   
 41  22  43  1   
 42  23  24  2   
 43  24  25  1   
 44  25  26  1   
 45  25  27  1   
 46  25  44  1   
 47  26  45  1   
 48  26  46  1   
 49  26  47  1   
 50  27  48  1   
 51  27  49  1   
 52  27  50  1   
@<TRIPOS>SUBSTRUCTURE
  1 ****  12 GROUP 4 **** **** 0

# MOE 2024.06 (io_trps.svl 2023.06)
