@<TRIPOS>MOLECULE
NONAME
53 56 1 0 0 
SMALL
USER_CHARGES


@<TRIPOS>ATOM
  1 S       -0.4450     0.7390     0.4900 S.3   1 <1>  -0.0800 
  2 C       -0.5540    -1.0140     0.6780 C.2   1 <1>  -0.0450 
  3 C        1.1930     0.6430    -0.1140 C.2   1 <1>  -0.1100 
  4 C        0.6250    -1.5720     0.2960 C.2   1 <1>  -0.1810 
  5 C       -1.7850    -1.5680     1.1790 C.2   1 <1>   0.7150 
  6 C        1.6040    -0.6370    -0.1540 C.2   1 <1>  -0.1500 
  7 C        0.9470    -3.0550     0.3280 C.3   1 <1>  -0.0590 
  8 O       -1.8660    -1.8820     2.3530 O.2   1 <1>  -0.5700 
  9 N       -2.8860    -1.7860     0.3620 N.am  1 <1>  -0.6600 
 10 C       -4.1440    -2.3560     0.9480 C.3   1 <1>   0.1400 
 11 C       -2.9500    -1.2560    -1.0340 C.3   1 <1>   0.1400 
 12 C       -5.2550    -1.3020     1.2210 C.3   1 <1>   0.4230 
 13 C       -4.1430    -0.3100    -1.2910 C.3   1 <1>  -0.0800 
 14 N       -6.1580    -1.0140     0.0420 N.4   1 <1>  -0.9590 
 15 C       -4.7180     0.0450     1.7700 C.3   1 <1>   0.1200 
 16 C       -4.1660     0.9840    -0.4430 C.3   1 <1>   0.1200 
 17 C       -5.4690    -1.0750    -1.2800 C.3   1 <1>   0.3430 
 18 C       -7.4570    -1.7600     0.0670 C.3   1 <1>   0.3430 
 19 O       -3.8760     0.7690     0.9060 O.3   1 <1>  -0.5600 
 20 C       -7.2700    -3.2740    -0.0350 C.3   1 <1>  -0.1600 
 21 C       -8.6180    -4.0160    -0.0140 C.3   1 <1>   0.0960 
 22 N       -8.4030    -5.4770    -0.0520 N.pl3 1 <1>   0.3140 
 23 N       -7.5270    -6.0820     0.7710 N.2   1 <1>  -0.7070 
 24 C       -9.0070    -6.3660    -0.8640 C.2   1 <1>  -0.3020 
 25 C       -7.6000    -7.3430     0.4660 C.2   1 <1>   0.1390 
 26 C       -8.5110    -7.5820    -0.5550 C.2   1 <1>  -0.1500 
 27 H        1.6830     1.5640    -0.3750 H     1 <1>   0.1500 
 28 H        2.5750    -0.9620    -0.4850 H     1 <1>   0.1500 
 29 H        1.7970    -3.2290     0.9640 H     1 <1>   0.0800 
 30 H        1.1750    -3.4060    -0.6620 H     1 <1>   0.0800 
 31 H        0.1150    -3.6190     0.7130 H     1 <1>   0.0800 
 32 H       -4.5090    -3.1370     0.3070 H     1 <1>   0.0800 
 33 H       -3.9180    -2.8320     1.8860 H     1 <1>   0.0800 
 34 H       -2.0460    -0.7260    -1.2750 H     1 <1>   0.0800 
 35 H       -3.0010    -2.0940    -1.7090 H     1 <1>   0.0800 
 36 H       -5.8720    -1.7170     2.0010 H     1 <1>   0.0800 
 37 H       -4.0230     0.0120    -2.3100 H     1 <1>   0.0800 
 38 H       -6.3910    -0.0200     0.1680 H     1 <1>   0.4500 
 39 H       -4.1400    -0.1500     2.6580 H     1 <1>   0.0800 
 40 H       -5.5330     0.6870     2.0500 H     1 <1>   0.0800 
 41 H       -5.1040     1.5060    -0.5190 H     1 <1>   0.0800 
 42 H       -3.3960     1.6450    -0.8040 H     1 <1>   0.0800 
 43 H       -5.2840    -2.1010    -1.5550 H     1 <1>   0.0800 
 44 H       -6.1180    -0.6490    -2.0280 H     1 <1>   0.0800 
 45 H       -7.9790    -1.5360     0.9850 H     1 <1>   0.0800 
 46 H       -8.0760    -1.4250    -0.7500 H     1 <1>   0.0800 
 47 H       -6.6970    -3.6150     0.8080 H     1 <1>   0.0800 
 48 H       -6.7570    -3.5320    -0.9440 H     1 <1>   0.0800 
 49 H       -9.2210    -3.7390    -0.8600 H     1 <1>   0.0800 
 50 H       -9.1590    -3.7920     0.8870 H     1 <1>   0.0800 
 51 H       -9.7420    -6.0980    -1.6010 H     1 <1>   0.1500 
 52 H       -7.0190    -8.1080     0.9530 H     1 <1>   0.1500 
 53 H       -8.7480    -8.5410    -0.9820 H     1 <1>   0.1500 
@<TRIPOS>BOND
  1   1   2  1   
  2   1   3  1   
  3   2   4  2   
  4   2   5  1   
  5   3   6  2   
  6   3  27  1   
  7   4   6  1   
  8   4   7  1   
  9   5   8  2   
 10   5   9  am  
 11   6  28  1   
 12   7  29  1   
 13   7  30  1   
 14   7  31  1   
 15   9  10  1   
 16   9  11  1   
 17  10  12  1   
 18  10  32  1   
 19  10  33  1   
 20  11  13  1   
 21  11  34  1   
 22  11  35  1   
 23  12  14  1   
 24  12  15  1   
 25  12  36  1   
 26  13  16  1   
 27  13  17  1   
 28  13  37  1   
 29  14  17  1   
 30  14  18  1   
 31  14  38  1   
 32  15  19  1   
 33  15  39  1   
 34  15  40  1   
 35  16  19  1   
 36  16  41  1   
 37  16  42  1   
 38  17  43  1   
 39  17  44  1   
 40  18  20  1   
 41  18  45  1   
 42  18  46  1   
 43  20  21  1   
 44  20  47  1   
 45  20  48  1   
 46  21  22  1   
 47  21  49  1   
 48  21  50  1   
 49  22  23  1   
 50  22  24  1   
 51  23  25  2   
 52  24  26  2   
 53  24  51  1   
 54  25  26  1   
 55  25  52  1   
 56  26  53  1   
@<TRIPOS>SUBSTRUCTURE
  1 ****  10 GROUP 4 **** **** 0

# MOE 2024.06 (io_trps.svl 2023.06)
