@<TRIPOS>MOLECULE
NONAME
43 45 1 0 0 
SMALL
USER_CHARGES


@<TRIPOS>ATOM
  1 S        1.1650     5.1000     2.8050 S.3   1 <1>  -0.3320 
  2 C        1.3780     5.0470     1.0180 C.ar  1 <1>   0.1020 
  3 C       -0.3950     6.0350     3.1280 C.3   1 <1>  -0.0100 
  4 C        2.4580     4.3290     0.5370 C.ar  1 <1>  -0.1500 
  5 C        0.5140     5.6990     0.1530 C.ar  1 <1>  -0.1500 
  6 C        2.6900     4.2560    -0.8290 C.ar  1 <1>  -0.1430 
  7 C        0.7460     5.6290    -1.2100 C.ar  1 <1>  -0.1500 
  8 C        1.8280     4.9140    -1.6970 C.ar  1 <1>  -0.1500 
  9 C        3.8850     3.4810    -1.3660 C.3   1 <1>   0.3530 
 10 N        5.1140     4.2760    -1.1640 N.pl3 1 <1>  -0.8690 
 11 C        5.2010     5.4860    -1.7910 C.ar  1 <1>   0.4100 
 12 N        5.1630     6.5010    -0.9580 N.ar  1 <1>  -0.6200 
 13 C        5.2900     5.6330    -3.1830 C.ar  1 <1>   0.1600 
 14 C        5.1460     7.6980    -1.5680 C.ar  1 <1>   0.3960 
 15 N        5.3100     6.7900    -3.8130 N.ar  1 <1>  -0.6200 
 16 C        5.0180     8.9330    -0.7940 C.2   1 <1>   0.5440 
 17 C        5.2360     7.8050    -2.9600 C.ar  1 <1>   0.1600 
 18 O        5.5740     9.9450    -1.1910 O.2   1 <1>  -0.5700 
 19 N        4.2570     9.0360     0.3560 N.am  1 <1>  -0.6600 
 20 C        4.1400    10.2870     1.1360 C.3   1 <1>   0.1400 
 21 C        3.3810     7.9800     0.9150 C.3   1 <1>   0.1400 
 22 C        3.3050     9.9130     2.3560 C.3   1 <1>  -0.1600 
 23 C        2.4850     8.7040     1.9110 C.3   1 <1>  -0.1600 
 24 H       -0.5510     6.0490     4.1920 H     1 <1>   0.0800 
 25 H       -1.1990     5.5200     2.6330 H     1 <1>   0.0800 
 26 H       -0.2720     7.0320     2.7470 H     1 <1>   0.0800 
 27 H        3.1110     3.8360     1.2350 H     1 <1>   0.1500 
 28 H       -0.3260     6.2570     0.5150 H     1 <1>   0.1500 
 29 H        0.0850     6.1340    -1.8940 H     1 <1>   0.1500 
 30 H        1.9970     4.8780    -2.7600 H     1 <1>   0.1500 
 31 H        3.7550     3.2670    -2.4130 H     1 <1>   0.0800 
 32 H        3.9760     2.5450    -0.8420 H     1 <1>   0.0800 
 33 H        5.2490     4.4340    -0.1620 H     1 <1>   0.4000 
 34 H        5.3450     4.7390    -3.7750 H     1 <1>   0.1500 
 35 H        5.2400     8.7940    -3.3860 H     1 <1>   0.1500 
 36 H        3.6330    11.0250     0.5380 H     1 <1>   0.0800 
 37 H        5.1130    10.6550     1.4140 H     1 <1>   0.0800 
 38 H        3.9880     7.2480     1.4210 H     1 <1>   0.0800 
 39 H        2.8070     7.4980     0.1420 H     1 <1>   0.0800 
 40 H        2.6890    10.7310     2.6840 H     1 <1>   0.0800 
 41 H        3.9670     9.6300     3.1550 H     1 <1>   0.0800 
 42 H        2.2130     8.0680     2.7340 H     1 <1>   0.0800 
 43 H        1.5930     9.0290     1.4050 H     1 <1>   0.0800 
@<TRIPOS>BOND
  1   1   2  1   
  2   1   3  1   
  3   2   4  ar  
  4   2   5  ar  
  5   3  24  1   
  6   3  25  1   
  7   3  26  1   
  8   4   6  ar  
  9   4  27  1   
 10   5   7  ar  
 11   5  28  1   
 12   6   8  ar  
 13   6   9  1   
 14   7   8  ar  
 15   7  29  1   
 16   8  30  1   
 17   9  10  1   
 18   9  31  1   
 19   9  32  1   
 20  10  11  1   
 21  10  33  1   
 22  11  12  ar  
 23  11  13  ar  
 24  12  14  ar  
 25  13  15  ar  
 26  13  34  1   
 27  14  16  1   
 28  14  17  ar  
 29  15  17  ar  
 30  16  18  2   
 31  16  19  am  
 32  17  35  1   
 33  19  20  1   
 34  19  21  1   
 35  20  22  1   
 36  20  36  1   
 37  20  37  1   
 38  21  23  1   
 39  21  38  1   
 40  21  39  1   
 41  22  23  1   
 42  22  40  1   
 43  22  41  1   
 44  23  42  1   
 45  23  43  1   
@<TRIPOS>SUBSTRUCTURE
  1 ****  21 GROUP 4 **** **** 0

# MOE 2024.06 (io_trps.svl 2023.06)
