@<TRIPOS>MOLECULE
NONAME
34 35 1 0 0 
SMALL
USER_CHARGES


@<TRIPOS>ATOM
  1 S       -0.2670     1.0060    -0.4790 S.3   1 <1>  -0.0800 
  2 C        1.2710     0.1650    -0.4070 C.2   1 <1>   0.1980 
  3 C       -1.0780    -0.5320    -0.4790 C.2   1 <1>  -0.1100 
  4 N        1.1660    -1.1060    -0.4010 N.2   1 <1>  -0.5650 
  5 C        2.5380     1.0150    -0.4020 C.3   1 <1>   0.2900 
  6 C       -0.1580    -1.5060    -0.4340 C.2   1 <1>   0.0460 
  7 N        3.0160     1.3920     0.9550 N.3   1 <1>  -0.8100 
  8 C       -0.4210    -2.9950    -0.4150 C.3   1 <1>  -0.0590 
  9 C        4.3990     1.9300     0.9350 C.3   1 <1>   0.2900 
 10 C        2.0940     2.3010     1.6530 C.3   1 <1>   0.0300 
 11 C        4.5690     3.2260     0.1430 C.2   1 <1>   0.2980 
 12 O        4.6770     3.1510    -1.1610 O.3   1 <1>  -0.0190 
 13 N        4.6220     4.4020     0.6290 N.2   1 <1>  -0.5650 
 14 N        4.8060     4.3850    -1.5380 N.2   1 <1>  -0.4100 
 15 C        4.7860     5.1060    -0.4860 C.2   1 <1>   0.3350 
 16 C        4.9070     6.6270    -0.4720 C.3   1 <1>   0.3010 
 17 O        6.1900     7.0270    -0.0720 O.3   1 <1>  -0.5600 
 18 C        6.3690     8.4050    -0.0210 C.3   1 <1>   0.0400 
 19 H       -2.1510    -0.5380    -0.5110 H     1 <1>   0.1500 
 20 H        2.3650     1.8980    -0.9920 H     1 <1>   0.0800 
 21 H        3.3040     0.4380    -0.8900 H     1 <1>   0.0800 
 22 H       -1.4770    -3.1920    -0.4410 H     1 <1>   0.0800 
 23 H       -0.0060    -3.4220     0.4800 H     1 <1>   0.0800 
 24 H        0.0450    -3.4540    -1.2670 H     1 <1>   0.0800 
 25 H        5.0610     1.1860     0.5280 H     1 <1>   0.0800 
 26 H        4.7110     2.1120     1.9480 H     1 <1>   0.0800 
 27 H        1.1560     1.8060     1.8360 H     1 <1>   0.0800 
 28 H        1.9190     3.1900     1.0710 H     1 <1>   0.0800 
 29 H        2.5080     2.5850     2.6060 H     1 <1>   0.0800 
 30 H        4.1890     7.0350     0.2160 H     1 <1>   0.0800 
 31 H        4.7240     7.0100    -1.4600 H     1 <1>   0.0800 
 32 H        7.3800     8.5980     0.2930 H     1 <1>   0.0800 
 33 H        5.6830     8.8280     0.6920 H     1 <1>   0.0800 
 34 H        6.2090     8.8230    -1.0000 H     1 <1>   0.0800 
@<TRIPOS>BOND
  1   1   2  1   
  2   1   3  1   
  3   2   4  2   
  4   2   5  1   
  5   3   6  2   
  6   3  19  1   
  7   4   6  1   
  8   5   7  1   
  9   5  20  1   
 10   5  21  1   
 11   6   8  1   
 12   7   9  1   
 13   7  10  1   
 14   8  22  1   
 15   8  23  1   
 16   8  24  1   
 17   9  11  1   
 18   9  25  1   
 19   9  26  1   
 20  10  27  1   
 21  10  28  1   
 22  10  29  1   
 23  11  12  1   
 24  11  13  2   
 25  12  14  1   
 26  13  15  1   
 27  14  15  2   
 28  15  16  1   
 29  16  17  1   
 30  16  30  1   
 31  16  31  1   
 32  17  18  1   
 33  18  32  1   
 34  18  33  1   
 35  18  34  1   
@<TRIPOS>SUBSTRUCTURE
  1 ****   7 GROUP 4 **** **** 0

# MOE 2024.06 (io_trps.svl 2023.06)
