@<TRIPOS>MOLECULE
NONAME
50 53 1 0 0 
SMALL
USER_CHARGES


@<TRIPOS>ATOM
  1 S       -0.9240     0.0520    -0.6630 S.3   1 <1>  -0.0800 
  2 C       -2.0400    -0.7220     0.4620 C.ar  1 <1>   0.2970 
  3 C       -0.4320    -1.5070    -1.3350 C.2   1 <1>  -0.1400 
  4 N       -2.7860    -0.0650     1.3240 N.ar  1 <1>  -0.5670 
  5 C       -2.0070    -2.0870     0.2970 C.ar  1 <1>   0.0000 
  6 C       -1.0860    -2.5120    -0.7280 C.2   1 <1>  -0.1500 
  7 C        0.6040    -1.4780    -2.4400 C.3   1 <1>  -0.0600 
  8 C       -3.5440    -0.8550     2.0620 C.ar  1 <1>   0.4700 
  9 C       -2.8610    -2.7680     1.1440 C.ar  1 <1>   0.4120 
 10 N       -3.6370    -2.1830     2.0290 N.ar  1 <1>  -0.6200 
 11 S       -2.9420    -4.5500     1.0440 S.3   1 <1>  -0.3320 
 12 C       -4.1220    -5.0260     2.4010 C.3   1 <1>   0.1310 
 13 C       -4.4310    -6.5150     2.3560 C.2   1 <1>   0.5690 
 14 O       -3.9800    -7.2160     3.2310 O.2   1 <1>  -0.5700 
 15 N       -5.2200    -7.0330     1.3640 N.am  1 <1>  -0.6600 
 16 C       -5.7610    -6.3090     0.1850 C.3   1 <1>   0.1400 
 17 C       -5.5930    -8.4620     1.2960 C.3   1 <1>   0.1400 
 18 C       -6.6010    -7.3380    -0.5840 C.3   1 <1>   0.2000 
 19 C       -6.0090    -8.6860    -0.1590 C.3   1 <1>  -0.0800 
 20 O       -7.9330    -7.2750    -0.1590 O.3   1 <1>  -0.5600 
 21 C       -6.9510    -9.8890    -0.3510 C.3   1 <1>   0.0200 
 22 C       -8.7270    -6.3450    -0.8260 C.3   1 <1>   0.0400 
 23 C       -6.2750   -11.2250    -0.0880 C.2   1 <1>  -0.0400 
 24 O       -6.9960   -12.3140    -0.1410 O.3   1 <1>  -0.0190 
 25 C       -5.0150   -11.5860     0.2050 C.2   1 <1>  -0.1500 
 26 N       -6.2900   -13.3800     0.1020 N.2   1 <1>  -0.4100 
 27 C       -5.0910   -12.9710     0.3160 C.2   1 <1>   0.1080 
 28 C       -3.9280   -13.8790     0.6440 C.3   1 <1>  -0.0590 
 29 H       -0.9680    -3.5590    -0.9480 H     1 <1>   0.1500 
 30 H        0.8250    -2.4780    -2.7690 H     1 <1>   0.0800 
 31 H        1.5090    -1.0210    -2.0830 H     1 <1>   0.0800 
 32 H        0.2340    -0.9110    -3.2760 H     1 <1>   0.0800 
 33 H       -4.1710    -0.3600     2.7850 H     1 <1>   0.1500 
 34 H       -3.6530    -4.7680     3.3320 H     1 <1>   0.0800 
 35 H       -5.0190    -4.4510     2.2730 H     1 <1>   0.0800 
 36 H       -6.3480    -5.4600     0.4860 H     1 <1>   0.0800 
 37 H       -4.9400    -5.9850    -0.4310 H     1 <1>   0.0800 
 38 H       -4.7690    -9.0890     1.5870 H     1 <1>   0.0800 
 39 H       -6.4250    -8.6330     1.9590 H     1 <1>   0.0800 
 40 H       -6.5590    -7.1980    -1.6510 H     1 <1>   0.0800 
 41 H       -5.1160    -8.8480    -0.7360 H     1 <1>   0.0800 
 42 H       -7.3230    -9.8920    -1.3600 H     1 <1>   0.0800 
 43 H       -7.7970    -9.7980     0.3070 H     1 <1>   0.0800 
 44 H       -9.7140    -6.3830    -0.3990 H     1 <1>   0.0800 
 45 H       -8.7770    -6.6040    -1.8700 H     1 <1>   0.0800 
 46 H       -8.3170    -5.3590    -0.6980 H     1 <1>   0.0800 
 47 H       -4.1300   -10.9920     0.3330 H     1 <1>   0.1500 
 48 H       -3.1670   -13.7830    -0.1080 H     1 <1>   0.0800 
 49 H       -4.2590   -14.9010     0.6780 H     1 <1>   0.0800 
 50 H       -3.5180   -13.6140     1.6010 H     1 <1>   0.0800 
@<TRIPOS>BOND
  1   1   2  1   
  2   1   3  1   
  3   2   4  ar  
  4   2   5  ar  
  5   3   6  2   
  6   3   7  1   
  7   4   8  ar  
  8   5   6  1   
  9   5   9  ar  
 10   6  29  1   
 11   7  30  1   
 12   7  31  1   
 13   7  32  1   
 14   8  10  ar  
 15   8  33  1   
 16   9  10  ar  
 17   9  11  1   
 18  11  12  1   
 19  12  13  1   
 20  12  34  1   
 21  12  35  1   
 22  13  14  2   
 23  13  15  am  
 24  15  16  1   
 25  15  17  1   
 26  16  18  1   
 27  16  36  1   
 28  16  37  1   
 29  17  19  1   
 30  17  38  1   
 31  17  39  1   
 32  18  19  1   
 33  18  20  1   
 34  18  40  1   
 35  19  21  1   
 36  19  41  1   
 37  20  22  1   
 38  21  23  1   
 39  21  42  1   
 40  21  43  1   
 41  22  44  1   
 42  22  45  1   
 43  22  46  1   
 44  23  24  1   
 45  23  25  2   
 46  24  26  1   
 47  25  27  1   
 48  25  47  1   
 49  26  27  2   
 50  27  28  1   
 51  28  48  1   
 52  28  49  1   
 53  28  50  1   
@<TRIPOS>SUBSTRUCTURE
  1 ****  16 GROUP 4 **** **** 0

# MOE 2024.06 (io_trps.svl 2023.06)
