@<TRIPOS>MOLECULE
NONAME
59 62 1 0 0 
SMALL
USER_CHARGES


@<TRIPOS>ATOM
  1 O       -0.1090    -0.8890    -0.5340 O.2   1 <1>  -0.5700 
  2 C        1.0300    -1.3100    -0.6180 C.2   1 <1>   0.5440 
  3 N        1.3070    -2.3330    -1.5040 N.am  1 <1>  -0.6600 
  4 C        2.0660    -0.7340     0.2180 C.ar  1 <1>   0.0860 
  5 C        2.6230    -3.0230    -1.5830 C.3   1 <1>   0.1400 
  6 C        0.2660    -2.9020    -2.4020 C.3   1 <1>   0.1400 
  7 C        2.2240    -1.0850     1.5640 C.ar  1 <1>  -0.1440 
  8 C        2.9540     0.1930    -0.3270 C.ar  1 <1>  -0.1500 
  9 C        2.4380    -4.4950    -1.2080 C.3   1 <1>  -0.1600 
 10 C        0.0400    -4.3690    -2.0340 C.3   1 <1>  -0.1600 
 11 C        3.2450    -0.5280     2.3170 C.ar  1 <1>  -0.1500 
 12 C        1.2710    -2.0800     2.2150 C.3   1 <1>  -0.0970 
 13 C        3.9710     0.7480     0.4270 C.ar  1 <1>  -0.1500 
 14 C        1.3550    -5.1730    -2.0730 C.3   1 <1>  -0.0190 
 15 C        4.1180     0.3850     1.7520 C.ar  1 <1>  -0.1500 
 16 C        1.1380    -6.6260    -1.6640 C.2   1 <1>   0.5690 
 17 O        1.3860    -7.5040    -2.4530 O.2   1 <1>  -0.5700 
 18 N        0.6650    -6.8970    -0.4230 N.am  1 <1>  -0.7300 
 19 C        0.4020    -8.2480     0.1160 C.3   1 <1>   0.2200 
 20 C       -1.0980    -8.4440     0.2490 C.3   1 <1>  -0.0800 
 21 C        0.8510    -8.3080     1.5710 C.3   1 <1>   0.1200 
 22 C       -1.3950    -7.7990     1.6090 C.3   1 <1>   0.1200 
 23 C       -1.4770    -9.9370     0.2140 C.3   1 <1>  -0.0160 
 24 O       -0.1870    -7.7420     2.3130 O.3   1 <1>  -0.5600 
 25 C       -2.9820   -10.1310     0.3200 C.ar  1 <1>  -0.1430 
 26 C       -3.8240    -9.8630    -0.7410 C.ar  1 <1>  -0.1500 
 27 C       -3.5850   -10.5850     1.4760 C.ar  1 <1>  -0.1500 
 28 C       -5.1890   -10.0520    -0.5970 C.ar  1 <1>   0.1600 
 29 C       -4.9610   -10.7390     1.5160 C.ar  1 <1>   0.1600 
 30 N       -5.7780   -10.4810     0.5080 N.ar  1 <1>  -0.6200 
 31 H        3.0000    -2.9430    -2.5880 H     1 <1>   0.0800 
 32 H        3.3420    -2.5720    -0.9210 H     1 <1>   0.0800 
 33 H       -0.6590    -2.3570    -2.3130 H     1 <1>   0.0800 
 34 H        0.6000    -2.8220    -3.4220 H     1 <1>   0.0800 
 35 H        2.8350     0.4780    -1.3580 H     1 <1>   0.1500 
 36 H        3.3730    -5.0130    -1.3350 H     1 <1>   0.0800 
 37 H        2.1730    -4.5520    -0.1670 H     1 <1>   0.0800 
 38 H       -0.3950    -4.4060    -1.0510 H     1 <1>   0.0800 
 39 H       -0.6660    -4.8000    -2.7210 H     1 <1>   0.0800 
 40 H        3.3670    -0.7970     3.3510 H     1 <1>   0.1500 
 41 H        1.5310    -2.2520     3.2440 H     1 <1>   0.0800 
 42 H        1.3010    -3.0190     1.6930 H     1 <1>   0.0800 
 43 H        0.2660    -1.6970     2.1790 H     1 <1>   0.0800 
 44 H        4.6450     1.4620    -0.0140 H     1 <1>   0.1500 
 45 H        1.7050    -5.1790    -3.0910 H     1 <1>   0.0800 
 46 H        4.9080     0.8140     2.3450 H     1 <1>   0.1500 
 47 H        0.4530    -6.1360     0.2260 H     1 <1>   0.3700 
 48 H        0.8810    -8.9970    -0.4930 H     1 <1>   0.0800 
 49 H       -1.6260    -7.9370    -0.5400 H     1 <1>   0.0800 
 50 H        1.7620    -7.7640     1.7470 H     1 <1>   0.0800 
 51 H        0.9670    -9.3270     1.8940 H     1 <1>   0.0800 
 52 H       -2.1110    -8.3520     2.1910 H     1 <1>   0.0800 
 53 H       -1.7440    -6.7890     1.4830 H     1 <1>   0.0800 
 54 H       -0.9880   -10.4660     1.0120 H     1 <1>   0.0800 
 55 H       -1.1410   -10.3670    -0.7140 H     1 <1>   0.0800 
 56 H       -3.4320    -9.5110    -1.6770 H     1 <1>   0.1500 
 57 H       -3.0000   -10.8200     2.3470 H     1 <1>   0.1500 
 58 H       -5.8300    -9.8380    -1.4350 H     1 <1>   0.1500 
 59 H       -5.4140   -11.0930     2.4260 H     1 <1>   0.1500 
@<TRIPOS>BOND
  1   1   2  2   
  2   2   3  am  
  3   2   4  1   
  4   3   5  1   
  5   3   6  1   
  6   4   7  ar  
  7   4   8  ar  
  8   5   9  1   
  9   5  31  1   
 10   5  32  1   
 11   6  10  1   
 12   6  33  1   
 13   6  34  1   
 14   7  11  ar  
 15   7  12  1   
 16   8  13  ar  
 17   8  35  1   
 18   9  14  1   
 19   9  36  1   
 20   9  37  1   
 21  10  14  1   
 22  10  38  1   
 23  10  39  1   
 24  11  15  ar  
 25  11  40  1   
 26  12  41  1   
 27  12  42  1   
 28  12  43  1   
 29  13  15  ar  
 30  13  44  1   
 31  14  16  1   
 32  14  45  1   
 33  15  46  1   
 34  16  17  2   
 35  16  18  am  
 36  18  19  1   
 37  18  47  1   
 38  19  20  1   
 39  19  21  1   
 40  19  48  1   
 41  20  22  1   
 42  20  23  1   
 43  20  49  1   
 44  21  24  1   
 45  21  50  1   
 46  21  51  1   
 47  22  24  1   
 48  22  52  1   
 49  22  53  1   
 50  23  25  1   
 51  23  54  1   
 52  23  55  1   
 53  25  26  ar  
 54  25  27  ar  
 55  26  28  ar  
 56  26  56  1   
 57  27  29  ar  
 58  27  57  1   
 59  28  30  ar  
 60  28  58  1   
 61  29  30  ar  
 62  29  59  1   
@<TRIPOS>SUBSTRUCTURE
  1 ****  18 GROUP 4 **** **** 0

# MOE 2024.06 (io_trps.svl 2023.06)
