@<TRIPOS>MOLECULE
NONAME
43 46 1 0 0 
SMALL
USER_CHARGES


@<TRIPOS>ATOM
  1 S       -0.4780    -0.3790     2.1820 S.3   1 <1>  -0.0800 
  2 C       -1.1180     0.4130     0.7500 C.2   1 <1>   0.3780 
  3 C        0.2950     1.0930     2.6500 C.2   1 <1>  -0.1100 
  4 N       -0.7570     1.6470     0.6670 N.2   1 <1>  -0.5650 
  5 C       -1.9430    -0.3300    -0.1600 C.2   1 <1>   0.0400 
  6 C        0.0500     2.0590     1.7390 C.2   1 <1>   0.1410 
  7 S       -2.2460    -2.0520     0.1080 S.3   1 <1>  -0.0800 
  8 C       -2.5980     0.0480    -1.2890 C.2   1 <1>  -0.1500 
  9 C        0.5500     3.4290     1.8540 C.2   1 <1>   0.7160 
 10 C       -3.2460    -2.1780    -1.3240 C.2   1 <1>  -0.1100 
 11 C       -3.3290    -0.9860    -1.9430 C.2   1 <1>  -0.1500 
 12 O        0.8030     3.8710     2.9630 O.2   1 <1>  -0.5700 
 13 N        0.7630     4.2700     0.7690 N.am  1 <1>  -0.6600 
 14 C        0.9170     5.7440     1.0060 C.3   1 <1>   0.1400 
 15 C        1.1010     3.7130    -0.5810 C.3   1 <1>   0.1400 
 16 C        2.3740     6.2680     0.9010 C.3   1 <1>   0.4230 
 17 C        2.3820     4.2810    -1.2280 C.3   1 <1>  -0.0800 
 18 N        2.7590     6.6740    -0.5000 N.4   1 <1>  -0.9590 
 19 C        3.4480     5.3210     1.5010 C.3   1 <1>   0.1200 
 20 C        3.6930     3.9350    -0.4890 C.3   1 <1>   0.1200 
 21 C        2.2390     5.7660    -1.5660 C.3   1 <1>   0.3430 
 22 C        2.3780     8.0920    -0.7870 C.3   1 <1>   0.2630 
 23 O        3.5680     4.0600     0.8920 O.3   1 <1>  -0.5600 
 24 H        0.8600     1.1090     3.5650 H     1 <1>   0.1500 
 25 H       -2.5850     1.0490    -1.6820 H     1 <1>   0.1500 
 26 H       -3.6710    -3.1390    -1.5540 H     1 <1>   0.1500 
 27 H       -3.8830    -0.7920    -2.8450 H     1 <1>   0.1500 
 28 H        0.2780     6.2810     0.3290 H     1 <1>   0.0800 
 29 H        0.5610     5.9790     1.9940 H     1 <1>   0.0800 
 30 H        1.2390     2.6480    -0.5020 H     1 <1>   0.0800 
 31 H        0.2580     3.8730    -1.2320 H     1 <1>   0.0800 
 32 H        2.4080     7.1590     1.5050 H     1 <1>   0.0800 
 33 H        2.4500     3.7900    -2.1820 H     1 <1>   0.0800 
 34 H        3.7860     6.6050    -0.5290 H     1 <1>   0.4500 
 35 H        3.2040     5.1330     2.5320 H     1 <1>   0.0800 
 36 H        4.4150     5.7910     1.4780 H     1 <1>   0.0800 
 37 H        4.5260     4.5290    -0.8240 H     1 <1>   0.0800 
 38 H        3.9320     2.9010    -0.6710 H     1 <1>   0.0800 
 39 H        1.1980     5.9780    -1.7510 H     1 <1>   0.0800 
 40 H        2.7760     5.9640    -2.4800 H     1 <1>   0.0800 
 41 H        1.3060     8.2070    -0.7600 H     1 <1>   0.0800 
 42 H        2.7300     8.3850    -1.7640 H     1 <1>   0.0800 
 43 H        2.8140     8.7540    -0.0560 H     1 <1>   0.0800 
@<TRIPOS>BOND
  1   1   2  1   
  2   1   3  1   
  3   2   4  2   
  4   2   5  1   
  5   3   6  2   
  6   3  24  1   
  7   4   6  1   
  8   5   7  1   
  9   5   8  2   
 10   6   9  1   
 11   7  10  1   
 12   8  11  1   
 13   8  25  1   
 14   9  12  2   
 15   9  13  am  
 16  10  11  2   
 17  10  26  1   
 18  11  27  1   
 19  13  14  1   
 20  13  15  1   
 21  14  16  1   
 22  14  28  1   
 23  14  29  1   
 24  15  17  1   
 25  15  30  1   
 26  15  31  1   
 27  16  18  1   
 28  16  19  1   
 29  16  32  1   
 30  17  20  1   
 31  17  21  1   
 32  17  33  1   
 33  18  21  1   
 34  18  22  1   
 35  18  34  1   
 36  19  23  1   
 37  19  35  1   
 38  19  36  1   
 39  20  23  1   
 40  20  37  1   
 41  20  38  1   
 42  21  39  1   
 43  21  40  1   
 44  22  41  1   
 45  22  42  1   
 46  22  43  1   
@<TRIPOS>SUBSTRUCTURE
  1 ****  15 GROUP 4 **** **** 0

# MOE 2024.06 (io_trps.svl 2023.06)
