@<TRIPOS>MOLECULE
NONAME
48 50 1 0 0 
SMALL
USER_CHARGES


@<TRIPOS>ATOM
  1 O       -0.5630     0.3960     1.0880 O.2   1 <1>  -0.5700 
  2 C       -1.5340     0.9820     0.6510 C.2   1 <1>   0.5440 
  3 N       -2.6240     0.2440     0.2510 N.am  1 <1>  -0.6600 
  4 C       -1.5190     2.4270     0.5490 C.ar  1 <1>   0.0860 
  5 C       -3.7830     0.7590    -0.5250 C.3   1 <1>   0.1400 
  6 C       -2.6270    -1.2430     0.2430 C.3   1 <1>   0.1400 
  7 C       -2.4610     3.2140     1.2060 C.ar  1 <1>  -0.1500 
  8 C       -0.5550     3.0780    -0.2140 C.ar  1 <1>  -0.1500 
  9 C       -4.7560    -0.4180    -0.5700 C.3   1 <1>   0.2000 
 10 C       -3.8340    -1.6390    -0.6150 C.3   1 <1>  -0.0800 
 11 C       -2.4610     4.5930     1.0940 C.ar  1 <1>   0.0830 
 12 C       -0.5350     4.4570    -0.3380 C.ar  1 <1>   0.0830 
 13 O       -5.4740    -0.4230     0.6170 O.3   1 <1>  -0.6800 
 14 C       -4.4780    -2.9740    -0.2030 C.3   1 <1>   0.0210 
 15 O       -3.4340     5.2530     1.7700 O.3   1 <1>  -0.3630 
 16 C       -1.4940     5.2220     0.3170 C.ar  1 <1>  -0.1500 
 17 O        0.4470     4.9800    -1.1130 O.3   1 <1>  -0.3630 
 18 C       -3.4740    -4.1060    -0.2940 C.2   1 <1>   0.1080 
 19 C       -3.5030     6.6620     1.7780 C.3   1 <1>   0.0400 
 20 C        0.6190     6.3740    -1.2490 C.3   1 <1>   0.0400 
 21 N       -2.9330    -4.4780    -1.4130 N.2   1 <1>  -0.7070 
 22 C       -3.0150    -4.8530     0.7850 C.2   1 <1>  -0.1500 
 23 N       -2.1060    -5.4840    -1.0730 N.pl3 1 <1>   0.3000 
 24 C       -2.1370    -5.7290     0.2540 C.2   1 <1>  -0.3320 
 25 C       -1.3120    -6.8000     0.9430 C.3   1 <1>  -0.0600 
 26 H       -4.2330     1.6230    -0.0680 H     1 <1>   0.0800 
 27 H       -3.4560     1.0040    -1.5200 H     1 <1>   0.0800 
 28 H       -1.7100    -1.6280    -0.1720 H     1 <1>   0.0800 
 29 H       -2.7340    -1.5980     1.2530 H     1 <1>   0.0800 
 30 H       -3.2070     2.7430     1.8200 H     1 <1>   0.1500 
 31 H        0.1950     2.4960    -0.7180 H     1 <1>   0.1500 
 32 H       -5.4480    -0.3700    -1.3930 H     1 <1>   0.0800 
 33 H       -3.4800    -1.7420    -1.6270 H     1 <1>   0.0800 
 34 H       -4.8410    -0.3150     1.3560 H     1 <1>   0.4000 
 35 H       -5.3030    -3.1930    -0.8570 H     1 <1>   0.0800 
 36 H       -4.8560    -2.9200     0.8020 H     1 <1>   0.0800 
 37 H       -1.4880     6.2880     0.2230 H     1 <1>   0.1500 
 38 H       -4.3360     6.9510     2.3930 H     1 <1>   0.0800 
 39 H       -3.6550     7.0100     0.7720 H     1 <1>   0.0800 
 40 H       -2.5910     7.0540     2.1910 H     1 <1>   0.0800 
 41 H        1.4740     6.5440    -1.8790 H     1 <1>   0.0800 
 42 H        0.7920     6.8010    -0.2770 H     1 <1>   0.0800 
 43 H       -0.2600     6.7920    -1.7060 H     1 <1>   0.0800 
 44 H       -3.3120    -4.7340     1.8120 H     1 <1>   0.1500 
 45 H       -1.5360    -5.9810    -1.7670 H     1 <1>   0.2700 
 46 H       -1.5110    -6.7970     2.0000 H     1 <1>   0.0800 
 47 H       -0.2630    -6.6160     0.7920 H     1 <1>   0.0800 
 48 H       -1.5590    -7.7710     0.5500 H     1 <1>   0.0800 
@<TRIPOS>BOND
  1   1   2  2   
  2   2   3  am  
  3   2   4  1   
  4   3   5  1   
  5   3   6  1   
  6   4   7  ar  
  7   4   8  ar  
  8   5   9  1   
  9   5  26  1   
 10   5  27  1   
 11   6  10  1   
 12   6  28  1   
 13   6  29  1   
 14   7  11  ar  
 15   7  30  1   
 16   8  12  ar  
 17   8  31  1   
 18   9  10  1   
 19   9  13  1   
 20   9  32  1   
 21  10  14  1   
 22  10  33  1   
 23  11  15  1   
 24  11  16  ar  
 25  12  16  ar  
 26  12  17  1   
 27  13  34  1   
 28  14  18  1   
 29  14  35  1   
 30  14  36  1   
 31  15  19  1   
 32  16  37  1   
 33  17  20  1   
 34  18  21  2   
 35  18  22  1   
 36  19  38  1   
 37  19  39  1   
 38  19  40  1   
 39  20  41  1   
 40  20  42  1   
 41  20  43  1   
 42  21  23  1   
 43  22  24  2   
 44  22  44  1   
 45  23  24  1   
 46  23  45  1   
 47  24  25  1   
 48  25  46  1   
 49  25  47  1   
 50  25  48  1   
@<TRIPOS>SUBSTRUCTURE
  1 ****   3 GROUP 4 **** **** 0

# MOE 2024.06 (io_trps.svl 2023.06)
