@<TRIPOS>MOLECULE
NONAME
47 48 1 0 0 
SMALL
USER_CHARGES


@<TRIPOS>ATOM
  1 S        0.1040     0.0660    -0.7940 S.o2  1 <1>   1.3330 
  2 O        1.5350    -0.0440    -0.9640 O.2   1 <1>  -0.6500 
  3 O       -0.7600     0.0230    -1.9520 O.2   1 <1>  -0.6500 
  4 N       -0.3890    -1.1460     0.2870 N.am  1 <1>  -0.8490 
  5 C       -0.2640     1.5780     0.0940 C.3   1 <1>  -0.0550 
  6 C       -0.7770    -2.3780    -0.4050 C.3   1 <1>   0.1160 
  7 C        0.6090    -1.4470     1.3180 C.3   1 <1>   0.1160 
  8 C        0.0000     2.8490    -0.7390 C.3   1 <1>  -0.0800 
  9 C       -0.4620     4.1470    -0.0730 C.3   1 <1>   0.2000 
 10 C        1.4800     3.0940    -1.0700 C.3   1 <1>   0.1400 
 11 O       -0.0640     4.1450     1.2560 O.3   1 <1>  -0.6800 
 12 C        0.3360     5.2250    -0.7990 C.3   1 <1>   0.1400 
 13 N        1.6370     4.5720    -1.0870 N.am  1 <1>  -0.6600 
 14 C        2.8530     5.1750    -1.2520 C.2   1 <1>   0.5690 
 15 O        3.8650     4.5280    -1.3640 O.2   1 <1>  -0.5700 
 16 C        2.9760     6.6850    -1.2780 C.3   1 <1>  -0.0990 
 17 C        3.3550     7.2240     0.1040 C.3   1 <1>   0.0200 
 18 C        3.4560     8.7410     0.0770 C.2   1 <1>  -0.3320 
 19 N        2.4220     9.6050     0.2060 N.pl3 1 <1>   0.3140 
 20 C        4.5680     9.4900    -0.0770 C.2   1 <1>  -0.1500 
 21 N        2.8380    10.8800     0.1320 N.2   1 <1>  -0.7070 
 22 C        1.0030     9.2920     0.4190 C.3   1 <1>   0.0160 
 23 C        4.1220    10.8040    -0.0350 C.2   1 <1>   0.1390 
 24 H       -1.2990     1.5630     0.3740 H     1 <1>   0.0800 
 25 H        0.3150     1.6090     0.9950 H     1 <1>   0.0800 
 26 H       -1.1010    -3.1200     0.3050 H     1 <1>   0.0800 
 27 H        0.0530    -2.7670    -0.9720 H     1 <1>   0.0800 
 28 H       -1.5930    -2.1810    -1.0800 H     1 <1>   0.0800 
 29 H        0.2110    -2.1590     2.0210 H     1 <1>   0.0800 
 30 H        0.8720    -0.5520     1.8550 H     1 <1>   0.0800 
 31 H        1.5010    -1.8570     0.8720 H     1 <1>   0.0800 
 32 H       -0.5270     2.7570    -1.6730 H     1 <1>   0.0800 
 33 H       -1.5270     4.3000    -0.1160 H     1 <1>   0.0800 
 34 H        1.7480     2.6740    -2.0260 H     1 <1>   0.0800 
 35 H        2.1270     2.6790    -0.3140 H     1 <1>   0.0800 
 36 H        0.9140     4.1210     1.2890 H     1 <1>   0.4000 
 37 H        0.4440     6.1090    -0.1950 H     1 <1>   0.0800 
 38 H       -0.1440     5.4730    -1.7300 H     1 <1>   0.0800 
 39 H        3.7470     6.9490    -1.9780 H     1 <1>   0.0800 
 40 H        2.0640     7.1310    -1.6230 H     1 <1>   0.0800 
 41 H        4.3110     6.8140     0.3840 H     1 <1>   0.0800 
 42 H        2.6390     6.9110     0.8430 H     1 <1>   0.0800 
 43 H        5.5880     9.1730    -0.2070 H     1 <1>   0.1500 
 44 H        0.9070     8.6420     1.2670 H     1 <1>   0.0800 
 45 H        0.6100     8.8210    -0.4610 H     1 <1>   0.0800 
 46 H        0.4680    10.2050     0.6060 H     1 <1>   0.0800 
 47 H        4.7590    11.6670    -0.1300 H     1 <1>   0.1500 
@<TRIPOS>BOND
  1   1   2  2   
  2   1   3  2   
  3   1   4  am  
  4   1   5  1   
  5   4   6  1   
  6   4   7  1   
  7   5   8  1   
  8   5  24  1   
  9   5  25  1   
 10   6  26  1   
 11   6  27  1   
 12   6  28  1   
 13   7  29  1   
 14   7  30  1   
 15   7  31  1   
 16   8   9  1   
 17   8  10  1   
 18   8  32  1   
 19   9  11  1   
 20   9  12  1   
 21   9  33  1   
 22  10  13  1   
 23  10  34  1   
 24  10  35  1   
 25  11  36  1   
 26  12  13  1   
 27  12  37  1   
 28  12  38  1   
 29  13  14  am  
 30  14  15  2   
 31  14  16  1   
 32  16  17  1   
 33  16  39  1   
 34  16  40  1   
 35  17  18  1   
 36  17  41  1   
 37  17  42  1   
 38  18  19  1   
 39  18  20  2   
 40  19  21  1   
 41  19  22  1   
 42  20  23  1   
 43  20  43  1   
 44  21  23  2   
 45  22  44  1   
 46  22  45  1   
 47  22  46  1   
 48  23  47  1   
@<TRIPOS>SUBSTRUCTURE
  1 ****  13 GROUP 4 **** **** 0

# MOE 2024.06 (io_trps.svl 2023.06)
