@<TRIPOS>MOLECULE
NONAME
36 36 1 0 0 
SMALL
USER_CHARGES


@<TRIPOS>ATOM
  1 F       -0.0290     1.6240     1.3440 F     1 <1>  -0.3400 
  2 C        1.0910     1.5290     0.6420 C.3   1 <1>   1.0200 
  3 F        0.7260     1.3730    -0.6240 F     1 <1>  -0.3400 
  4 F        1.6750     0.3960     1.0050 F     1 <1>  -0.3400 
  5 C        2.0050     2.7450     0.8480 C.3   1 <1>  -0.0800 
  6 C        3.2990     2.6510     0.0490 C.3   1 <1>   0.1400 
  7 C        1.4170     4.1020     0.4340 C.3   1 <1>  -0.1600 
  8 N        3.7380     4.0550    -0.0930 N.am  1 <1>  -0.6600 
  9 C        2.6320     5.0050     0.1820 C.3   1 <1>   0.2200 
 10 C        5.0610     4.4020    -0.1030 C.2   1 <1>   0.7800 
 11 C        2.4290     5.9930    -0.9830 C.3   1 <1>   0.1200 
 12 O        5.9370     3.5680    -0.2090 O.2   1 <1>  -0.5700 
 13 O        5.3460     5.7000     0.0160 O.3   1 <1>  -0.4300 
 14 O        1.2850     6.7620    -0.7810 O.3   1 <1>  -0.6800 
 15 C        6.6210     6.3020     0.0210 C.3   1 <1>   0.2800 
 16 C        7.4360     5.8090     1.2220 C.3   1 <1>  -0.2400 
 17 C        6.3510     7.8000     0.1740 C.3   1 <1>  -0.2400 
 18 C        7.3320     6.0500    -1.3140 C.3   1 <1>  -0.2400 
 19 H        2.2650     2.7850     1.8910 H     1 <1>   0.0800 
 20 H        3.1300     2.2420    -0.9340 H     1 <1>   0.0800 
 21 H        4.0400     2.0570     0.5600 H     1 <1>   0.0800 
 22 H        0.7730     4.5160     1.1900 H     1 <1>   0.0800 
 23 H        0.8540     3.9960    -0.4780 H     1 <1>   0.0800 
 24 H        2.8740     5.5550     1.0770 H     1 <1>   0.0800 
 25 H        2.3210     5.4690    -1.9170 H     1 <1>   0.0800 
 26 H        3.2630     6.6690    -1.0480 H     1 <1>   0.0800 
 27 H        0.4770     6.2290    -0.9070 H     1 <1>   0.4000 
 28 H        8.3490     6.3700     1.3000 H     1 <1>   0.0800 
 29 H        7.7010     4.7740     1.1130 H     1 <1>   0.0800 
 30 H        6.8780     5.9380     2.1320 H     1 <1>   0.0800 
 31 H        7.2760     8.3470     0.1900 H     1 <1>   0.0800 
 32 H        5.8270     7.9920     1.0930 H     1 <1>   0.0800 
 33 H        5.7590     8.1590    -0.6480 H     1 <1>   0.0800 
 34 H        8.2400     6.6230    -1.3590 H     1 <1>   0.0800 
 35 H        6.7020     6.3430    -2.1340 H     1 <1>   0.0800 
 36 H        7.5960     5.0150    -1.4230 H     1 <1>   0.0800 
@<TRIPOS>BOND
  1   1   2  1   
  2   2   3  1   
  3   2   4  1   
  4   2   5  1   
  5   5   6  1   
  6   5   7  1   
  7   5  19  1   
  8   6   8  1   
  9   6  20  1   
 10   6  21  1   
 11   7   9  1   
 12   7  22  1   
 13   7  23  1   
 14   8   9  1   
 15   8  10  am  
 16   9  11  1   
 17   9  24  1   
 18  10  12  2   
 19  10  13  1   
 20  11  14  1   
 21  11  25  1   
 22  11  26  1   
 23  13  15  1   
 24  14  27  1   
 25  15  16  1   
 26  15  17  1   
 27  15  18  1   
 28  16  28  1   
 29  16  29  1   
 30  16  30  1   
 31  17  31  1   
 32  17  32  1   
 33  17  33  1   
 34  18  34  1   
 35  18  35  1   
 36  18  36  1   
@<TRIPOS>SUBSTRUCTURE
  1 ****   8 GROUP 4 **** **** 0

# MOE 2024.06 (io_trps.svl 2023.06)
