@<TRIPOS>MOLECULE
NONAME
49 52 1 0 0 
SMALL
USER_CHARGES


@<TRIPOS>ATOM
  1 S        0.7860     1.0220     0.2030 S.3   1 <1>  -0.0800 
  2 C        2.5100     0.7800     0.5130 C.2   1 <1>  -0.0450 
  3 C        0.3510    -0.4450     1.0510 C.2   1 <1>  -0.1100 
  4 C        3.4700     1.7320     0.0150 C.2   1 <1>   0.7150 
  5 C        2.6630    -0.3710     1.2170 C.2   1 <1>  -0.1500 
  6 C        1.4520    -1.0580     1.5220 C.2   1 <1>  -0.1500 
  7 O        4.6670     1.5020     0.0650 O.2   1 <1>  -0.5700 
  8 N        3.1150     2.9660    -0.4780 N.am  1 <1>  -0.6600 
  9 C        3.7000     3.4800    -1.7580 C.3   1 <1>   0.1400 
 10 C        2.5300     3.9910     0.4210 C.3   1 <1>   0.1400 
 11 C        5.1630     3.9580    -1.6180 C.3   1 <1>   0.3430 
 12 C        3.6230     4.6330     1.2870 C.3   1 <1>  -0.1600 
 13 N        5.5640     4.1700    -0.1900 N.4   1 <1>  -0.9590 
 14 C        4.8010     5.2360     0.5140 C.3   1 <1>   0.3430 
 15 C        7.0330     4.2750    -0.0240 C.3   1 <1>   0.5230 
 16 C        7.5940     5.5160    -0.6910 C.2   1 <1>  -0.3320 
 17 N        8.9430     5.6780    -0.7140 N.pl3 1 <1>   0.5930 
 18 C        7.0530     6.5900    -1.3150 C.2   1 <1>  -0.1500 
 19 N        9.2630     6.8280    -1.3400 N.2   1 <1>  -0.7070 
 20 C        9.8970     4.7830    -0.1650 C.ar  1 <1>  -0.0230 
 21 C        8.1410     7.3650    -1.6930 C.2   1 <1>   0.1390 
 22 C       10.3920     3.7270    -0.9240 C.ar  1 <1>  -0.1500 
 23 C       10.3270     4.9290     1.1490 C.ar  1 <1>  -0.1500 
 24 C       11.2790     2.8210    -0.3710 C.ar  1 <1>  -0.1500 
 25 C       11.2140     4.0230     1.7020 C.ar  1 <1>  -0.1500 
 26 C       11.6860     2.9660     0.9430 C.ar  1 <1>  -0.1500 
 27 H       -0.6930    -0.6990     1.1090 H     1 <1>   0.1500 
 28 H        3.6130    -0.7670     1.5340 H     1 <1>   0.1500 
 29 H        1.4590    -1.9790     2.0790 H     1 <1>   0.1500 
 30 H        3.0950     4.2910    -2.1260 H     1 <1>   0.0800 
 31 H        3.6620     2.7010    -2.5000 H     1 <1>   0.0800 
 32 H        1.7940     3.5330     1.0630 H     1 <1>   0.0800 
 33 H        2.0240     4.7410    -0.1640 H     1 <1>   0.0800 
 34 H        5.3090     4.8570    -2.1930 H     1 <1>   0.0800 
 35 H        5.7960     3.1980    -2.0460 H     1 <1>   0.0800 
 36 H        3.9880     3.9150     2.0000 H     1 <1>   0.0800 
 37 H        3.1640     5.4220     1.8570 H     1 <1>   0.0800 
 38 H        5.2880     3.2690     0.2520 H     1 <1>   0.4500 
 39 H        5.4500     5.7400     1.2140 H     1 <1>   0.0800 
 40 H        4.4450     5.9680    -0.1920 H     1 <1>   0.0800 
 41 H        7.5010     3.4010    -0.4500 H     1 <1>   0.0800 
 42 H        7.2770     4.2940     1.0260 H     1 <1>   0.0800 
 43 H        6.0310     6.8580    -1.5110 H     1 <1>   0.1500 
 44 H        8.0760     8.3050    -2.2190 H     1 <1>   0.1500 
 45 H       10.0920     3.6160    -1.9530 H     1 <1>   0.1500 
 46 H        9.9760     5.7570     1.7420 H     1 <1>   0.1500 
 47 H       11.6590     2.0060    -0.9630 H     1 <1>   0.1500 
 48 H       11.5440     4.1400     2.7200 H     1 <1>   0.1500 
 49 H       12.3780     2.2610     1.3730 H     1 <1>   0.1500 
@<TRIPOS>BOND
  1   1   2  1   
  2   1   3  1   
  3   2   4  1   
  4   2   5  2   
  5   3   6  2   
  6   3  27  1   
  7   4   7  2   
  8   4   8  am  
  9   5   6  1   
 10   5  28  1   
 11   6  29  1   
 12   8   9  1   
 13   8  10  1   
 14   9  11  1   
 15   9  30  1   
 16   9  31  1   
 17  10  12  1   
 18  10  32  1   
 19  10  33  1   
 20  11  13  1   
 21  11  34  1   
 22  11  35  1   
 23  12  14  1   
 24  12  36  1   
 25  12  37  1   
 26  13  14  1   
 27  13  15  1   
 28  13  38  1   
 29  14  39  1   
 30  14  40  1   
 31  15  16  1   
 32  15  41  1   
 33  15  42  1   
 34  16  17  1   
 35  16  18  2   
 36  17  19  1   
 37  17  20  1   
 38  18  21  1   
 39  18  43  1   
 40  19  21  2   
 41  20  22  ar  
 42  20  23  ar  
 43  21  44  1   
 44  22  24  ar  
 45  22  45  1   
 46  23  25  ar  
 47  23  46  1   
 48  24  26  ar  
 49  24  47  1   
 50  25  26  ar  
 51  25  48  1   
 52  26  49  1   
@<TRIPOS>SUBSTRUCTURE
  1 ****  13 GROUP 4 **** **** 0

# MOE 2024.06 (io_trps.svl 2023.06)
