@<TRIPOS>MOLECULE
NONAME
56 59 1 0 0 
SMALL
USER_CHARGES


@<TRIPOS>ATOM
  1 S        0.9540    -0.7720     1.7060 S.o2  1 <1>   1.4470 
  2 O        1.4650    -2.1280     1.6790 O.2   1 <1>  -0.6500 
  3 O        0.7990    -0.1140     2.9850 O.2   1 <1>  -0.6500 
  4 N       -0.5680    -0.8020     0.9580 N.am  1 <1>  -0.8490 
  5 C        1.9670     0.2830     0.6280 C.ar  1 <1>  -0.0090 
  6 C       -0.5280    -1.5190    -0.3180 C.3   1 <1>   0.1960 
  7 C       -1.5590    -1.3980     1.8500 C.3   1 <1>   0.1960 
  8 C        1.4590     1.4500     0.0720 C.ar  1 <1>  -0.1500 
  9 C        3.2880    -0.0460     0.3500 C.ar  1 <1>  -0.1500 
 10 C       -1.8760    -1.4670    -1.0410 C.3   1 <1>  -0.1600 
 11 C       -2.9670    -1.2780     1.2690 C.3   1 <1>  -0.1600 
 12 C        2.2160     2.2870    -0.7460 C.ar  1 <1>   0.0860 
 13 C        4.0670     0.7570    -0.4620 C.ar  1 <1>  -0.1500 
 14 C       -3.1340    -1.7460    -0.1910 C.3   1 <1>   0.4240 
 15 C        1.6460     3.5010    -1.3040 C.2   1 <1>   0.5440 
 16 C        3.5330     1.9100    -1.0050 C.ar  1 <1>  -0.1500 
 17 O       -4.0710    -0.8530    -0.7530 O.3   1 <1>  -0.5600 
 18 C       -3.6620    -3.2170    -0.3200 C.ar  1 <1>  -0.1440 
 19 O        0.4720     3.5460    -1.6100 O.2   1 <1>  -0.5700 
 20 N        2.4210     4.6160    -1.4820 N.am  1 <1>  -0.7300 
 21 C       -5.4150    -1.0430    -0.4620 C.3   1 <1>   0.1200 
 22 C       -2.9030    -4.3400     0.0380 C.ar  1 <1>   0.0830 
 23 C       -4.9520    -3.4490    -0.8050 C.ar  1 <1>  -0.1430 
 24 C        1.9520     5.9080    -2.0460 C.3   1 <1>   0.0600 
 25 C       -5.8600    -2.2980    -1.1870 C.3   1 <1>  -0.0170 
 26 O       -1.6620    -4.1560     0.5420 O.3   1 <1>  -0.3630 
 27 C       -3.4160    -5.6270    -0.1130 C.ar  1 <1>  -0.1500 
 28 C       -5.4540    -4.7320    -0.9530 C.ar  1 <1>  -0.1500 
 29 C       -0.8330    -5.2070     0.9910 C.3   1 <1>   0.0400 
 30 C       -4.6860    -5.8230    -0.6090 C.ar  1 <1>  -0.1500 
 31 H       -0.2080    -2.5330    -0.1690 H     1 <1>   0.0800 
 32 H        0.2040    -1.0590    -0.9600 H     1 <1>   0.0800 
 33 H       -1.5500    -0.8740     2.7920 H     1 <1>   0.0800 
 34 H       -1.3070    -2.4210     2.0600 H     1 <1>   0.0800 
 35 H        0.4360     1.7230     0.2790 H     1 <1>   0.1500 
 36 H        3.7100    -0.9430     0.7730 H     1 <1>   0.1500 
 37 H       -1.8540    -2.1520    -1.8670 H     1 <1>   0.0800 
 38 H       -1.9450    -0.4760    -1.4540 H     1 <1>   0.0800 
 39 H       -3.2290    -0.2370     1.3350 H     1 <1>   0.0800 
 40 H       -3.6430    -1.8270     1.8970 H     1 <1>   0.0800 
 41 H        5.0880     0.4820    -0.6700 H     1 <1>   0.1500 
 42 H        4.1450     2.5210    -1.6460 H     1 <1>   0.1500 
 43 H        3.3750     4.6130    -1.1170 H     1 <1>   0.3700 
 44 H       -5.9570    -0.1850    -0.8190 H     1 <1>   0.0800 
 45 H       -5.5470    -1.1330     0.6020 H     1 <1>   0.0800 
 46 H        0.9470     5.8140    -2.4220 H     1 <1>   0.0800 
 47 H        2.5960     6.2080    -2.8550 H     1 <1>   0.0800 
 48 H        1.9660     6.6650    -1.2820 H     1 <1>   0.0800 
 49 H       -5.8120    -2.1340    -2.2490 H     1 <1>   0.0800 
 50 H       -6.8790    -2.5170    -0.9220 H     1 <1>   0.0800 
 51 H       -2.8430    -6.4950     0.1490 H     1 <1>   0.1500 
 52 H       -6.4470    -4.8870    -1.3370 H     1 <1>   0.1500 
 53 H        0.0790    -4.7750     1.3640 H     1 <1>   0.0800 
 54 H       -0.6160    -5.8600     0.1640 H     1 <1>   0.0800 
 55 H       -1.3350    -5.7360     1.7820 H     1 <1>   0.0800 
 56 H       -5.0780    -6.8190    -0.7260 H     1 <1>   0.1500 
@<TRIPOS>BOND
  1   1   2  2   
  2   1   3  2   
  3   1   4  am  
  4   1   5  1   
  5   4   6  1   
  6   4   7  1   
  7   5   8  ar  
  8   5   9  ar  
  9   6  10  1   
 10   6  31  1   
 11   6  32  1   
 12   7  11  1   
 13   7  33  1   
 14   7  34  1   
 15   8  12  ar  
 16   8  35  1   
 17   9  13  ar  
 18   9  36  1   
 19  10  14  1   
 20  10  37  1   
 21  10  38  1   
 22  11  14  1   
 23  11  39  1   
 24  11  40  1   
 25  12  15  1   
 26  12  16  ar  
 27  13  16  ar  
 28  13  41  1   
 29  14  17  1   
 30  14  18  1   
 31  15  19  2   
 32  15  20  am  
 33  16  42  1   
 34  17  21  1   
 35  18  22  ar  
 36  18  23  ar  
 37  20  24  1   
 38  20  43  1   
 39  21  25  1   
 40  21  44  1   
 41  21  45  1   
 42  22  26  1   
 43  22  27  ar  
 44  23  25  1   
 45  23  28  ar  
 46  24  46  1   
 47  24  47  1   
 48  24  48  1   
 49  25  49  1   
 50  25  50  1   
 51  26  29  1   
 52  27  30  ar  
 53  27  51  1   
 54  28  30  ar  
 55  28  52  1   
 56  29  53  1   
 57  29  54  1   
 58  29  55  1   
 59  30  56  1   
@<TRIPOS>SUBSTRUCTURE
  1 ****   6 GROUP 4 **** **** 0

# MOE 2024.06 (io_trps.svl 2023.06)
