@<TRIPOS>MOLECULE
NONAME
40 41 1 0 0 
SMALL
USER_CHARGES


@<TRIPOS>ATOM
  1 CL       1.1090    -0.7850     2.9720 Cl    1 <1>  -0.1770 
  2 C        1.7160    -1.1090     1.3560 C.ar  1 <1>   0.1770 
  3 C        1.0070    -1.9440     0.4810 C.ar  1 <1>   0.4100 
  4 C        2.8930    -0.5260     0.9660 C.ar  1 <1>  -0.1500 
  5 N        1.4340    -2.2160    -0.7510 N.ar  1 <1>  -0.6200 
  6 N       -0.1950    -2.5320     0.8410 N.pl3 1 <1>  -0.8380 
  7 C        3.3510    -0.7940    -0.3220 C.ar  1 <1>  -0.1790 
  8 C        2.5750    -1.6410    -1.1090 C.ar  1 <1>   0.1600 
  9 C       -1.3800    -2.1220     0.0420 C.3   1 <1>   0.2090 
 10 C       -0.1850    -4.0130     0.9830 C.3   1 <1>   0.2090 
 11 C        4.5750    -0.2270    -0.8430 C.2   1 <1>   0.9790 
 12 C       -1.8660    -3.4030    -0.6260 C.3   1 <1>   0.2000 
 13 C       -1.4810    -4.5150     0.3390 C.3   1 <1>  -0.0800 
 14 O        5.2690     0.5260    -0.1390 O.co2 1 <1>  -0.9000 
 15 O        4.9460    -0.4820    -2.0010 O.co2 1 <1>  -0.9000 
 16 O       -3.2400    -3.4070    -0.8330 O.3   1 <1>  -0.6800 
 17 C       -1.3430    -5.8720    -0.3720 C.3   1 <1>  -0.0550 
 18 S       -1.0500    -7.2320     0.7570 S.o2  1 <1>   1.3330 
 19 O        0.2460    -7.0630     1.3750 O.2   1 <1>  -0.6500 
 20 O       -2.2230    -7.3740     1.5890 O.2   1 <1>  -0.6500 
 21 N       -0.9610    -8.5750    -0.2770 N.am  1 <1>  -0.8490 
 22 C       -1.3650    -9.8160     0.3910 C.3   1 <1>   0.1160 
 23 C        0.3590    -8.7480    -0.8940 C.3   1 <1>   0.1160 
 24 H        3.4530     0.1210     1.6190 H     1 <1>   0.1500 
 25 H        2.9330    -1.8510    -2.1050 H     1 <1>   0.1500 
 26 H       -2.1260    -1.7280     0.7090 H     1 <1>   0.0800 
 27 H       -1.1190    -1.3820    -0.6950 H     1 <1>   0.0800 
 28 H        0.6770    -4.4220     0.4800 H     1 <1>   0.0800 
 29 H       -0.1370    -4.2860     2.0240 H     1 <1>   0.0800 
 30 H       -1.3730    -3.5160    -1.5770 H     1 <1>   0.0800 
 31 H       -2.2210    -4.5860     1.1170 H     1 <1>   0.0800 
 32 H       -3.7140    -3.3440     0.0190 H     1 <1>   0.4000 
 33 H       -0.5450    -5.8160    -1.0850 H     1 <1>   0.0800 
 34 H       -2.2500    -6.0680    -0.9110 H     1 <1>   0.0800 
 35 H       -1.3140   -10.6430    -0.2960 H     1 <1>   0.0800 
 36 H       -2.3810    -9.7320     0.7390 H     1 <1>   0.0800 
 37 H       -0.7250   -10.0120     1.2350 H     1 <1>   0.0800 
 38 H        0.3320    -9.5590    -1.6020 H     1 <1>   0.0800 
 39 H        1.1020    -8.9630    -0.1430 H     1 <1>   0.0800 
 40 H        0.6470    -7.8520    -1.4160 H     1 <1>   0.0800 
@<TRIPOS>BOND
  1   1   2  1   
  2   2   3  ar  
  3   2   4  ar  
  4   3   5  ar  
  5   3   6  1   
  6   4   7  ar  
  7   4  24  1   
  8   5   8  ar  
  9   6   9  1   
 10   6  10  1   
 11   7   8  ar  
 12   7  11  1   
 13   8  25  1   
 14   9  12  1   
 15   9  26  1   
 16   9  27  1   
 17  10  13  1   
 18  10  28  1   
 19  10  29  1   
 20  11  14  ar  
 21  11  15  ar  
 22  12  13  1   
 23  12  16  1   
 24  12  30  1   
 25  13  17  1   
 26  13  31  1   
 27  16  32  1   
 28  17  18  1   
 29  17  33  1   
 30  17  34  1   
 31  18  19  2   
 32  18  20  2   
 33  18  21  am  
 34  21  22  1   
 35  21  23  1   
 36  22  35  1   
 37  22  36  1   
 38  22  37  1   
 39  23  38  1   
 40  23  39  1   
 41  23  40  1   
@<TRIPOS>SUBSTRUCTURE
  1 ****  10 GROUP 4 **** **** 0

# MOE 2024.06 (io_trps.svl 2023.06)
