@<TRIPOS>MOLECULE
NONAME
54 56 1 0 0 
SMALL
USER_CHARGES


@<TRIPOS>ATOM
  1 O        0.4150    -1.2710     1.7850 O.3   1 <1>  -0.5600 
  2 C        0.3290    -1.6040     0.4290 C.3   1 <1>   0.2000 
  3 C       -0.7540    -0.7560     2.3500 C.3   1 <1>   0.0400 
  4 C        1.7630    -1.7130    -0.1230 C.3   1 <1>   0.0000 
  5 C       -0.2700    -3.0060     0.2790 C.3   1 <1>  -0.1600 
  6 C        2.6440    -0.6100     0.5100 C.3   1 <1>   0.3430 
  7 C        1.7510    -1.5630    -1.6640 C.3   1 <1>  -0.1600 
  8 C        2.1790    -3.1390     0.2970 C.3   1 <1>  -0.1600 
  9 C        0.9050    -3.9880     0.2810 C.3   1 <1>  -0.1600 
 10 N        4.0090    -0.4850    -0.1010 N.4   1 <1>  -0.9590 
 11 C        3.1670    -1.4390    -2.2500 C.3   1 <1>  -0.1600 
 12 C        3.9680    -0.3160    -1.5840 C.3   1 <1>   0.3430 
 13 C        4.9340    -1.5630     0.3250 C.3   1 <1>   0.5240 
 14 C        6.3290    -1.0770     0.0180 C.2   1 <1>  -0.1810 
 15 C        7.1450    -1.5390    -1.0090 C.2   1 <1>   0.1080 
 16 C        7.0520    -0.1130     0.6350 C.2   1 <1>  -0.3320 
 17 N        8.2680    -0.9050    -1.0500 N.2   1 <1>  -0.7070 
 18 C        6.8400    -2.6390    -2.0040 C.3   1 <1>  -0.0590 
 19 N        8.2300    -0.0310    -0.0310 N.pl3 1 <1>   0.3140 
 20 C        6.7040     0.7450     1.8440 C.3   1 <1>  -0.0600 
 21 C        9.3820     0.8560     0.2480 C.3   1 <1>   0.0960 
 22 C       10.3510     0.2090     1.2460 C.3   1 <1>  -0.2400 
 23 H       -0.2500    -0.8500    -0.0800 H     1 <1>   0.0800 
 24 H       -0.5590    -0.5390     3.3860 H     1 <1>   0.0800 
 25 H       -1.5450    -1.4820     2.2820 H     1 <1>   0.0800 
 26 H       -1.0320     0.1500     1.8380 H     1 <1>   0.0800 
 27 H       -0.9800    -3.2390     1.0530 H     1 <1>   0.0800 
 28 H       -0.7750    -3.0700    -0.6690 H     1 <1>   0.0800 
 29 H        2.7290    -0.7960     1.5690 H     1 <1>   0.0800 
 30 H        2.1260     0.3270     0.3940 H     1 <1>   0.0800 
 31 H        1.2470    -2.3990    -2.1200 H     1 <1>   0.0800 
 32 H        1.1980    -0.6770    -1.9280 H     1 <1>   0.0800 
 33 H        2.9300    -3.5750    -0.3360 H     1 <1>   0.0800 
 34 H        2.5460    -3.1210     1.3090 H     1 <1>   0.0800 
 35 H        0.8680    -4.6260     1.1480 H     1 <1>   0.0800 
 36 H        0.8690    -4.6040    -0.6020 H     1 <1>   0.0800 
 37 H        4.4570     0.3610     0.2710 H     1 <1>   0.4500 
 38 H        3.0910    -1.2260    -3.3030 H     1 <1>   0.0800 
 39 H        3.6960    -2.3700    -2.1610 H     1 <1>   0.0800 
 40 H        3.5000     0.6260    -1.8190 H     1 <1>   0.0800 
 41 H        4.9710    -0.2930    -1.9830 H     1 <1>   0.0800 
 42 H        4.8430    -1.7360     1.3850 H     1 <1>   0.0800 
 43 H        4.7270    -2.4790    -0.1980 H     1 <1>   0.0800 
 44 H        6.1980    -3.3840    -1.5730 H     1 <1>   0.0800 
 45 H        7.7590    -3.1150    -2.2980 H     1 <1>   0.0800 
 46 H        6.3800    -2.2230    -2.8800 H     1 <1>   0.0800 
 47 H        5.7480     0.4760     2.2520 H     1 <1>   0.0800 
 48 H        6.6830     1.7860     1.5710 H     1 <1>   0.0800 
 49 H        7.4430     0.6090     2.6150 H     1 <1>   0.0800 
 50 H        9.8910     1.0410    -0.6820 H     1 <1>   0.0800 
 51 H        9.0200     1.7920     0.6280 H     1 <1>   0.0800 
 52 H       10.7210    -0.7200     0.8470 H     1 <1>   0.0800 
 53 H        9.8620     0.0220     2.1850 H     1 <1>   0.0800 
 54 H       11.1870     0.8620     1.4180 H     1 <1>   0.0800 
@<TRIPOS>BOND
  1   1   2  1   
  2   1   3  1   
  3   2   4  1   
  4   2   5  1   
  5   2  23  1   
  6   3  24  1   
  7   3  25  1   
  8   3  26  1   
  9   4   6  1   
 10   4   7  1   
 11   4   8  1   
 12   5   9  1   
 13   5  27  1   
 14   5  28  1   
 15   6  10  1   
 16   6  29  1   
 17   6  30  1   
 18   7  11  1   
 19   7  31  1   
 20   7  32  1   
 21   8   9  1   
 22   8  33  1   
 23   8  34  1   
 24   9  35  1   
 25   9  36  1   
 26  10  12  1   
 27  10  13  1   
 28  10  37  1   
 29  11  12  1   
 30  11  38  1   
 31  11  39  1   
 32  12  40  1   
 33  12  41  1   
 34  13  14  1   
 35  13  42  1   
 36  13  43  1   
 37  14  15  1   
 38  14  16  2   
 39  15  17  2   
 40  15  18  1   
 41  16  19  1   
 42  16  20  1   
 43  17  19  1   
 44  18  44  1   
 45  18  45  1   
 46  18  46  1   
 47  19  21  1   
 48  20  47  1   
 49  20  48  1   
 50  20  49  1   
 51  21  22  1   
 52  21  50  1   
 53  21  51  1   
 54  22  52  1   
 55  22  53  1   
 56  22  54  1   
@<TRIPOS>SUBSTRUCTURE
  1 ****  13 GROUP 4 **** **** 0

# MOE 2024.06 (io_trps.svl 2023.06)
