@<TRIPOS>MOLECULE
NONAME
48 50 1 0 0 
SMALL
USER_CHARGES


@<TRIPOS>ATOM
  1 S        0.2500     1.0500     0.4500 S.3   1 <1>  -0.4600 
  2 C       -0.3970    -0.3750    -0.4670 C.3   1 <1>   0.2140 
  3 C        0.8080     2.1680    -0.8620 C.3   1 <1>   0.0700 
  4 C       -0.8870    -1.4110     0.5300 C.ar  1 <1>  -0.1430 
  5 C        1.4670     3.3760    -0.2010 C.3   1 <1>  -0.0990 
  6 C       -0.1310    -2.5430     0.7970 C.ar  1 <1>  -0.1500 
  7 C       -2.0990    -1.2340     1.1800 C.ar  1 <1>  -0.1500 
  8 C        1.9150     4.3710    -1.2460 C.2   1 <1>   0.5690 
  9 C       -0.5860    -3.4910     1.6970 C.ar  1 <1>  -0.1500 
 10 C       -2.5550    -2.1820     2.0810 C.ar  1 <1>  -0.1500 
 11 O        2.6430     4.0070    -2.1370 O.2   1 <1>  -0.5700 
 12 N        1.4840     5.6500    -1.1570 N.am  1 <1>  -0.7300 
 13 C       -1.7990    -3.3120     2.3390 C.ar  1 <1>  -0.1500 
 14 C        1.8520     6.7230    -2.1070 C.3   1 <1>   0.2200 
 15 C        3.1710     7.3900    -1.7010 C.3   1 <1>   0.1400 
 16 C        0.8380     7.8460    -1.9520 C.3   1 <1>  -0.1600 
 17 N        2.7860     8.4050    -0.6870 N.am  1 <1>  -0.6600 
 18 C        1.3090     8.6270    -0.7150 C.3   1 <1>   0.2810 
 19 C        3.4950     8.5750     0.4700 C.2   1 <1>   0.5690 
 20 C        0.6730     8.1940     0.6280 C.2   1 <1>   0.5690 
 21 O        4.6820     8.3590     0.5340 O.2   1 <1>  -0.5700 
 22 C        2.7520     9.0160     1.7400 C.3   1 <1>   0.2010 
 23 O       -0.3520     7.5510     0.6310 O.2   1 <1>  -0.5700 
 24 N        1.3250     8.5300     1.7900 N.am  1 <1>  -0.6600 
 25 C        0.7630     8.2570     3.1410 C.3   1 <1>   0.0600 
 26 H       -1.2000    -0.0220    -1.0890 H     1 <1>   0.0800 
 27 H        0.4020    -0.7560    -1.0760 H     1 <1>   0.0800 
 28 H        1.5070     1.6290    -1.4780 H     1 <1>   0.0800 
 29 H       -0.0550     2.4530    -1.4370 H     1 <1>   0.0800 
 30 H        0.7730     3.8420     0.4740 H     1 <1>   0.0800 
 31 H        2.3270     3.0570     0.3570 H     1 <1>   0.0800 
 32 H        0.8150    -2.6890     0.3070 H     1 <1>   0.1500 
 33 H       -2.6880    -0.3540     0.9900 H     1 <1>   0.1500 
 34 H        0.0050    -4.3670     1.9000 H     1 <1>   0.1500 
 35 H       -3.4960    -2.0380     2.5820 H     1 <1>   0.1500 
 36 H        0.8630     5.9330    -0.3890 H     1 <1>   0.3700 
 37 H       -2.1520    -4.0480     3.0390 H     1 <1>   0.1500 
 38 H        1.8940     6.3300    -3.1100 H     1 <1>   0.0800 
 39 H        3.6110     7.8890    -2.5450 H     1 <1>   0.0800 
 40 H        3.8710     6.6720    -1.3070 H     1 <1>   0.0800 
 41 H       -0.1750     7.4900    -1.8820 H     1 <1>   0.0800 
 42 H        0.9030     8.4940    -2.8070 H     1 <1>   0.0800 
 43 H        1.1070     9.6740    -0.8540 H     1 <1>   0.0800 
 44 H        2.7660    10.0890     1.7960 H     1 <1>   0.0800 
 45 H        3.2900     8.6270     2.5860 H     1 <1>   0.0800 
 46 H        0.8350     9.1400     3.7520 H     1 <1>   0.0800 
 47 H        1.3090     7.4550     3.6070 H     1 <1>   0.0800 
 48 H       -0.2730     7.9720     3.0680 H     1 <1>   0.0800 
@<TRIPOS>BOND
  1   1   2  1   
  2   1   3  1   
  3   2   4  1   
  4   2  26  1   
  5   2  27  1   
  6   3   5  1   
  7   3  28  1   
  8   3  29  1   
  9   4   6  ar  
 10   4   7  ar  
 11   5   8  1   
 12   5  30  1   
 13   5  31  1   
 14   6   9  ar  
 15   6  32  1   
 16   7  10  ar  
 17   7  33  1   
 18   8  11  2   
 19   8  12  am  
 20   9  13  ar  
 21   9  34  1   
 22  10  13  ar  
 23  10  35  1   
 24  12  14  1   
 25  12  36  1   
 26  13  37  1   
 27  14  15  1   
 28  14  16  1   
 29  14  38  1   
 30  15  17  1   
 31  15  39  1   
 32  15  40  1   
 33  16  18  1   
 34  16  41  1   
 35  16  42  1   
 36  17  18  1   
 37  17  19  am  
 38  18  20  1   
 39  18  43  1   
 40  19  21  2   
 41  19  22  1   
 42  20  23  2   
 43  20  24  am  
 44  22  24  1   
 45  22  44  1   
 46  22  45  1   
 47  24  25  1   
 48  25  46  1   
 49  25  47  1   
 50  25  48  1   
@<TRIPOS>SUBSTRUCTURE
  1 ****   5 GROUP 4 **** **** 0

# MOE 2024.06 (io_trps.svl 2023.06)
