@<TRIPOS>MOLECULE
NONAME
37 38 1 0 0 
SMALL
USER_CHARGES


@<TRIPOS>ATOM
  1 CL      -0.6580    -0.9230     0.3500 Cl    1 <1>  -0.1770 
  2 C       -1.9460     0.1530    -0.1270 C.ar  1 <1>   0.1770 
  3 C       -3.1770     0.0560     0.4940 C.ar  1 <1>  -0.1500 
  4 C       -1.7120     1.0870    -1.1170 C.ar  1 <1>  -0.1500 
  5 C       -4.2180     0.9090     0.1420 C.ar  1 <1>  -0.0090 
  6 C       -2.7370     1.9380    -1.4860 C.ar  1 <1>  -0.1500 
  7 S       -5.8300     0.7830     0.9620 S.o2  1 <1>   1.4470 
  8 C       -3.9740     1.8490    -0.8590 C.ar  1 <1>   0.0830 
  9 O       -5.7520    -0.2500     1.9720 O.2   1 <1>  -0.6500 
 10 O       -6.2490     2.1020     1.3950 O.2   1 <1>  -0.6500 
 11 N       -6.8940     0.2750    -0.2600 N.am  1 <1>  -0.8490 
 12 O       -4.9510     2.6860    -1.2600 O.3   1 <1>  -0.3630 
 13 C       -6.6160    -1.0430    -0.8640 C.3   1 <1>   0.1960 
 14 C       -8.3140     0.5000     0.0180 C.3   1 <1>   0.1960 
 15 C       -4.8760     4.0180    -0.8030 C.3   1 <1>   0.0400 
 16 C       -7.2100    -2.2140    -0.0700 C.3   1 <1>  -0.1860 
 17 C       -8.9100    -0.6160     0.8780 C.3   1 <1>  -0.1600 
 18 C       -7.0220    -3.5100    -0.8280 C.2   1 <1>   0.9060 
 19 C       -8.6920    -1.9610     0.1950 C.3   1 <1>   0.2000 
 20 O       -6.3170    -3.5240    -1.8420 O.co2 1 <1>  -0.9000 
 21 O       -7.5970    -4.5240    -0.4120 O.co2 1 <1>  -0.9000 
 22 O       -9.1760    -2.9540     1.0140 O.3   1 <1>  -0.6800 
 23 H       -3.3220    -0.6910     1.2560 H     1 <1>   0.1500 
 24 H       -0.7470     1.1400    -1.5890 H     1 <1>   0.1500 
 25 H       -2.5870     2.6660    -2.2630 H     1 <1>   0.1500 
 26 H       -7.0400    -1.0550    -1.8550 H     1 <1>   0.0800 
 27 H       -5.5540    -1.1880    -0.9790 H     1 <1>   0.0800 
 28 H       -8.4540     1.4530     0.5000 H     1 <1>   0.0800 
 29 H       -8.8410     0.5340    -0.9210 H     1 <1>   0.0800 
 30 H       -5.7550     4.5360    -1.1410 H     1 <1>   0.0800 
 31 H       -3.9940     4.4810    -1.2060 H     1 <1>   0.0800 
 32 H       -4.8460     4.0170     0.2730 H     1 <1>   0.0800 
 33 H       -6.6870    -2.3150     0.8600 H     1 <1>   0.0800 
 34 H       -9.9640    -0.4460     1.0010 H     1 <1>   0.0800 
 35 H       -8.4470    -0.6150     1.8480 H     1 <1>   0.0800 
 36 H       -9.2400    -2.0080    -0.7320 H     1 <1>   0.0800 
 37 H       -8.7670    -3.8020     0.6700 H     1 <1>   0.4000 
@<TRIPOS>BOND
  1   1   2  1   
  2   2   3  ar  
  3   2   4  ar  
  4   3   5  ar  
  5   3  23  1   
  6   4   6  ar  
  7   4  24  1   
  8   5   7  1   
  9   5   8  ar  
 10   6   8  ar  
 11   6  25  1   
 12   7   9  2   
 13   7  10  2   
 14   7  11  am  
 15   8  12  1   
 16  11  13  1   
 17  11  14  1   
 18  12  15  1   
 19  13  16  1   
 20  13  26  1   
 21  13  27  1   
 22  14  17  1   
 23  14  28  1   
 24  14  29  1   
 25  15  30  1   
 26  15  31  1   
 27  15  32  1   
 28  16  18  1   
 29  16  19  1   
 30  16  33  1   
 31  17  19  1   
 32  17  34  1   
 33  17  35  1   
 34  18  20  ar  
 35  18  21  ar  
 36  19  22  1   
 37  19  36  1   
 38  22  37  1   
@<TRIPOS>SUBSTRUCTURE
  1 ****  11 GROUP 4 **** **** 0

# MOE 2024.06 (io_trps.svl 2023.06)
