@<TRIPOS>MOLECULE
NONAME
50 53 1 0 0 
SMALL
USER_CHARGES


@<TRIPOS>ATOM
  1 O       -0.6990    -0.0050     2.4220 O.2   1 <1>  -0.5700 
  2 C       -1.2540     0.6990     1.6110 C.2   1 <1>   0.5690 
  3 N       -2.0200     0.1490     0.6110 N.am  1 <1>  -0.6600 
  4 C       -1.1170     2.2270     1.7510 C.3   1 <1>   0.1710 
  5 C       -2.8910     0.8720    -0.3480 C.3   1 <1>   0.1400 
  6 C       -2.1380    -1.3160     0.4200 C.3   1 <1>   0.1400 
  7 N        0.0860     2.8480     1.1240 N.3   1 <1>  -0.8100 
  8 C       -3.5510    -0.2210    -1.1910 C.3   1 <1>   0.2000 
  9 C       -3.4280    -1.5090    -0.3780 C.3   1 <1>  -0.0800 
 10 C        0.1300     4.2980     1.3980 C.3   1 <1>   0.2530 
 11 C        0.2250     2.5660    -0.3100 C.3   1 <1>   0.1100 
 12 O       -4.8860     0.0600    -1.4320 O.3   1 <1>  -0.6800 
 13 C       -3.4430    -2.7690    -1.2610 C.3   1 <1>  -0.0170 
 14 C        1.2340     5.0300     0.6370 C.ar  1 <1>  -0.1440 
 15 C        1.6190     2.9850    -0.7800 C.3   1 <1>  -0.0170 
 16 C       -3.3080    -4.0370    -0.4340 C.ar  1 <1>   0.1670 
 17 C        1.9290     4.4240    -0.4020 C.ar  1 <1>  -0.1440 
 18 C        1.5370     6.3390     0.9830 C.ar  1 <1>  -0.1500 
 19 N       -2.0770    -4.4080    -0.1210 N.ar  1 <1>  -0.6200 
 20 C       -4.4460    -4.7390    -0.0410 C.ar  1 <1>   0.1600 
 21 C        2.9110     5.1250    -1.0820 C.ar  1 <1>  -0.1500 
 22 C        2.5180     7.0380     0.3020 C.ar  1 <1>  -0.1500 
 23 C       -2.0600    -5.5110     0.6080 C.ar  1 <1>   0.1600 
 24 N       -4.4320    -5.8420     0.6880 N.ar  1 <1>  -0.6200 
 25 C        3.2050     6.4310    -0.7330 C.ar  1 <1>  -0.1500 
 26 C       -3.1990    -6.2050     0.9990 C.ar  1 <1>   0.1600 
 27 H       -1.0860     2.4340     2.8050 H     1 <1>   0.0800 
 28 H       -2.0010     2.6950     1.3620 H     1 <1>   0.0800 
 29 H       -3.6300     1.4360     0.1940 H     1 <1>   0.0800 
 30 H       -2.3070     1.5240    -0.9720 H     1 <1>   0.0800 
 31 H       -1.2830    -1.6660    -0.1350 H     1 <1>   0.0800 
 32 H       -2.1760    -1.8320     1.3660 H     1 <1>   0.0800 
 33 H       -3.0440    -0.3040    -2.1380 H     1 <1>   0.0800 
 34 H       -4.2320    -1.5630     0.3350 H     1 <1>   0.0800 
 35 H       -0.8120     4.7430     1.1270 H     1 <1>   0.0800 
 36 H        0.2800     4.4440     2.4540 H     1 <1>   0.0800 
 37 H        0.1110     1.5110    -0.4940 H     1 <1>   0.0800 
 38 H       -0.5250     3.1030    -0.8650 H     1 <1>   0.0800 
 39 H       -5.3850     0.1010    -0.5940 H     1 <1>   0.4000 
 40 H       -2.6370    -2.7300    -1.9720 H     1 <1>   0.0800 
 41 H       -4.3630    -2.8000    -1.8180 H     1 <1>   0.0800 
 42 H        2.3480     2.3390    -0.3240 H     1 <1>   0.0800 
 43 H        1.6830     2.8620    -1.8460 H     1 <1>   0.0800 
 44 H        1.0080     6.8200     1.7860 H     1 <1>   0.1500 
 45 H       -5.4110    -4.3700    -0.3390 H     1 <1>   0.1500 
 46 H        3.4540     4.6560    -1.8840 H     1 <1>   0.1500 
 47 H        2.7460     8.0530     0.5770 H     1 <1>   0.1500 
 48 H       -1.0980    -5.8850     0.9110 H     1 <1>   0.1500 
 49 H        3.9690     6.9720    -1.2630 H     1 <1>   0.1500 
 50 H       -3.0830    -7.0940     1.5940 H     1 <1>   0.1500 
@<TRIPOS>BOND
  1   1   2  2   
  2   2   3  am  
  3   2   4  1   
  4   3   5  1   
  5   3   6  1   
  6   4   7  1   
  7   4  27  1   
  8   4  28  1   
  9   5   8  1   
 10   5  29  1   
 11   5  30  1   
 12   6   9  1   
 13   6  31  1   
 14   6  32  1   
 15   7  10  1   
 16   7  11  1   
 17   8   9  1   
 18   8  12  1   
 19   8  33  1   
 20   9  13  1   
 21   9  34  1   
 22  10  14  1   
 23  10  35  1   
 24  10  36  1   
 25  11  15  1   
 26  11  37  1   
 27  11  38  1   
 28  12  39  1   
 29  13  16  1   
 30  13  40  1   
 31  13  41  1   
 32  14  17  ar  
 33  14  18  ar  
 34  15  17  1   
 35  15  42  1   
 36  15  43  1   
 37  16  19  ar  
 38  16  20  ar  
 39  17  21  ar  
 40  18  22  ar  
 41  18  44  1   
 42  19  23  ar  
 43  20  24  ar  
 44  20  45  1   
 45  21  25  ar  
 46  21  46  1   
 47  22  25  ar  
 48  22  47  1   
 49  23  26  ar  
 50  23  48  1   
 51  24  26  ar  
 52  25  49  1   
 53  26  50  1   
@<TRIPOS>SUBSTRUCTURE
  1 ****   3 GROUP 4 **** **** 0

# MOE 2024.06 (io_trps.svl 2023.06)
