@<TRIPOS>MOLECULE
NONAME
42 43 1 0 0 
SMALL
USER_CHARGES


@<TRIPOS>ATOM
  1 F        1.2850     0.0580     0.3270 F     1 <1>  -0.1900 
  2 C        1.8240    -1.0470    -0.1120 C.ar  1 <1>   0.1900 
  3 C        1.5350    -2.2330     0.5360 C.ar  1 <1>  -0.1500 
  4 C        2.6620    -0.9880    -1.2090 C.ar  1 <1>  -0.1500 
  5 C        2.1070    -3.4080     0.0710 C.ar  1 <1>  -0.1440 
  6 C        3.2300    -2.1640    -1.6690 C.ar  1 <1>  -0.1500 
  7 C        2.9520    -3.3640    -1.0310 C.ar  1 <1>  -0.1500 
  8 C        1.8060    -4.7310     0.7560 C.3   1 <1>  -0.0160 
  9 C        0.5430    -5.3660     0.1570 C.3   1 <1>  -0.0990 
 10 C        0.1600    -6.7000     0.7870 C.2   1 <1>   0.5690 
 11 O        0.9270    -7.2010     1.5760 O.2   1 <1>  -0.5700 
 12 N       -1.0300    -7.3000     0.4680 N.am  1 <1>  -0.6600 
 13 C       -1.4030    -8.6150     1.0890 C.3   1 <1>   0.3210 
 14 C       -2.0110    -6.7720    -0.5420 C.3   1 <1>   0.1400 
 15 C       -1.6090    -9.7010     0.0390 C.2   1 <1>   0.0460 
 16 C       -3.3090    -6.2950     0.1230 C.3   1 <1>   0.1200 
 17 N       -2.8370    -9.9600    -0.4630 N.2   1 <1>  -0.5650 
 18 C       -0.6800   -10.5170    -0.5130 C.2   1 <1>  -0.3320 
 19 O       -3.0030    -5.4350     1.1680 O.3   1 <1>  -0.6800 
 20 C       -2.6300   -10.9250    -1.2990 C.2   1 <1>   0.0360 
 21 N       -1.3400   -11.3100    -1.3760 N.pl3 1 <1>   0.0330 
 22 C        0.8190   -10.5980    -0.2820 C.3   1 <1>  -0.0600 
 23 H        0.8760    -2.2290     1.3850 H     1 <1>   0.1500 
 24 H        2.8620    -0.0460    -1.6860 H     1 <1>   0.1500 
 25 H        3.8880    -2.1460    -2.5220 H     1 <1>   0.1500 
 26 H        3.4000    -4.2710    -1.4000 H     1 <1>   0.1500 
 27 H        1.6650    -4.5710     1.8110 H     1 <1>   0.0800 
 28 H        2.6410    -5.4000     0.6390 H     1 <1>   0.0800 
 29 H        0.6980    -5.5210    -0.8950 H     1 <1>   0.0800 
 30 H       -0.2740    -4.6800     0.2830 H     1 <1>   0.0800 
 31 H       -2.3080    -8.5010     1.6570 H     1 <1>   0.0800 
 32 H       -0.6400    -8.9450     1.7700 H     1 <1>   0.0800 
 33 H       -2.2440    -7.5370    -1.2610 H     1 <1>   0.0800 
 34 H       -1.5940    -5.9530    -1.0970 H     1 <1>   0.0800 
 35 H       -3.8600    -7.1320     0.5170 H     1 <1>   0.0800 
 36 H       -3.9300    -5.7690    -0.5800 H     1 <1>   0.0800 
 37 H       -2.3170    -5.8550     1.7260 H     1 <1>   0.4000 
 38 H       -3.4010   -11.3910    -1.8870 H     1 <1>   0.1500 
 39 H       -0.9510   -12.0500    -1.9670 H     1 <1>   0.2700 
 40 H        1.1360    -9.8450     0.4180 H     1 <1>   0.0800 
 41 H        1.3460   -10.4410    -1.2060 H     1 <1>   0.0800 
 42 H        1.0840   -11.5630     0.1130 H     1 <1>   0.0800 
@<TRIPOS>BOND
  1   1   2  1   
  2   2   3  ar  
  3   2   4  ar  
  4   3   5  ar  
  5   3  23  1   
  6   4   6  ar  
  7   4  24  1   
  8   5   7  ar  
  9   5   8  1   
 10   6   7  ar  
 11   6  25  1   
 12   7  26  1   
 13   8   9  1   
 14   8  27  1   
 15   8  28  1   
 16   9  10  1   
 17   9  29  1   
 18   9  30  1   
 19  10  11  2   
 20  10  12  am  
 21  12  13  1   
 22  12  14  1   
 23  13  15  1   
 24  13  31  1   
 25  13  32  1   
 26  14  16  1   
 27  14  33  1   
 28  14  34  1   
 29  15  17  1   
 30  15  18  2   
 31  16  19  1   
 32  16  35  1   
 33  16  36  1   
 34  17  20  2   
 35  18  21  1   
 36  18  22  1   
 37  19  37  1   
 38  20  21  1   
 39  20  38  1   
 40  21  39  1   
 41  22  40  1   
 42  22  41  1   
 43  22  42  1   
@<TRIPOS>SUBSTRUCTURE
  1 ****   9 GROUP 4 **** **** 0

# MOE 2024.06 (io_trps.svl 2023.06)
