@<TRIPOS>MOLECULE
NONAME
46 49 1 0 0 
SMALL
USER_CHARGES


@<TRIPOS>ATOM
  1 O       -1.3620     2.1300    -1.6760 O.2   1 <1>  -0.5700 
  2 C       -2.1400     2.0150    -0.7330 C.2   1 <1>   0.5440 
  3 N       -3.2700     1.2320    -0.9620 N.am  1 <1>  -0.6600 
  4 C       -1.8570     2.6900     0.5160 C.ar  1 <1>   0.3960 
  5 C       -3.2950     0.1570    -1.9880 C.3   1 <1>   0.1400 
  6 C       -4.5270     1.3300    -0.1740 C.3   1 <1>   0.1400 
  7 N       -2.2560     2.1610     1.7060 N.ar  1 <1>  -0.6200 
  8 C       -1.1540     3.9050     0.4780 C.ar  1 <1>   0.1600 
  9 C       -3.5100    -1.1860    -1.2850 C.3   1 <1>  -0.1600 
 10 C       -4.7510     0.0080     0.5620 C.3   1 <1>  -0.1600 
 11 C       -1.9420     2.9010     2.7340 C.ar  1 <1>   0.1600 
 12 N       -0.8380     4.6570     1.5030 N.ar  1 <1>  -0.6200 
 13 C       -4.7750    -1.1860    -0.4100 C.3   1 <1>   0.4230 
 14 C       -1.2540     4.1360     2.6700 C.ar  1 <1>   0.1390 
 15 O       -5.8430    -0.9970    -1.3100 O.3   1 <1>  -0.5600 
 16 C       -4.8980    -2.5250     0.3510 C.ar  1 <1>  -0.1440 
 17 O       -1.0210     4.7730     3.7090 O.3   1 <1>  -0.8290 
 18 C       -7.1100    -1.4080    -0.9020 C.3   1 <1>   0.1200 
 19 C       -6.0030    -3.3530     0.1810 C.ar  1 <1>  -0.1440 
 20 C       -3.9000    -2.9270     1.2340 C.ar  1 <1>  -0.1500 
 21 C       -7.1120    -2.9260    -0.7600 C.3   1 <1>  -0.0170 
 22 C       -6.1000    -4.5560     0.8620 C.ar  1 <1>  -0.1500 
 23 C       -3.9970    -4.1260     1.9160 C.ar  1 <1>  -0.1500 
 24 C       -5.0920    -4.9510     1.7360 C.ar  1 <1>   0.0820 
 25 O       -5.1090    -6.1110     2.4380 O.3   1 <1>  -0.3630 
 26 C       -6.1690    -7.0320     2.3080 C.3   1 <1>   0.0400 
 27 H       -2.3700     0.1320    -2.5390 H     1 <1>   0.0800 
 28 H       -4.0940     0.3480    -2.6830 H     1 <1>   0.0800 
 29 H       -5.3460     1.5180    -0.8460 H     1 <1>   0.0800 
 30 H       -4.4840     2.1460     0.5260 H     1 <1>   0.0800 
 31 H       -0.8440     4.2630    -0.4860 H     1 <1>   0.1500 
 32 H       -2.6440    -1.3840    -0.6830 H     1 <1>   0.0800 
 33 H       -3.5850    -1.9720    -2.0130 H     1 <1>   0.0800 
 34 H       -5.6630     0.0490     1.1250 H     1 <1>   0.0800 
 35 H       -3.9520    -0.1160     1.2690 H     1 <1>   0.0800 
 36 H       -2.2110     2.5790     3.7210 H     1 <1>   0.1500 
 37 H       -7.8150    -1.0990    -1.6530 H     1 <1>   0.0800 
 38 H       -7.3560    -0.9310     0.0310 H     1 <1>   0.0800 
 39 H       -3.0360    -2.3070     1.3990 H     1 <1>   0.1500 
 40 H       -6.9620    -3.3760    -1.7250 H     1 <1>   0.0800 
 41 H       -8.0660    -3.2450    -0.3810 H     1 <1>   0.0800 
 42 H       -6.9620    -5.1740     0.7040 H     1 <1>   0.1500 
 43 H       -3.2200    -4.4300     2.5940 H     1 <1>   0.1500 
 44 H       -5.9610    -7.8720     2.9460 H     1 <1>   0.0800 
 45 H       -6.2250    -7.3560     1.2840 H     1 <1>   0.0800 
 46 H       -7.0830    -6.5570     2.6150 H     1 <1>   0.0800 
@<TRIPOS>BOND
  1   1   2  2   
  2   2   3  am  
  3   2   4  1   
  4   3   5  1   
  5   3   6  1   
  6   4   7  ar  
  7   4   8  ar  
  8   5   9  1   
  9   5  27  1   
 10   5  28  1   
 11   6  10  1   
 12   6  29  1   
 13   6  30  1   
 14   7  11  ar  
 15   8  12  ar  
 16   8  31  1   
 17   9  13  1   
 18   9  32  1   
 19   9  33  1   
 20  10  13  1   
 21  10  34  1   
 22  10  35  1   
 23  11  14  ar  
 24  11  36  1   
 25  12  14  ar  
 26  13  15  1   
 27  13  16  1   
 28  14  17  1   
 29  15  18  1   
 30  16  19  ar  
 31  16  20  ar  
 32  18  21  1   
 33  18  37  1   
 34  18  38  1   
 35  19  21  1   
 36  19  22  ar  
 37  20  23  ar  
 38  20  39  1   
 39  21  40  1   
 40  21  41  1   
 41  22  24  ar  
 42  22  42  1   
 43  23  24  ar  
 44  23  43  1   
 45  24  25  1   
 46  25  26  1   
 47  26  44  1   
 48  26  45  1   
 49  26  46  1   
@<TRIPOS>SUBSTRUCTURE
  1 ****  10 GROUP 4 **** **** 0

# MOE 2024.06 (io_trps.svl 2023.06)
