@<TRIPOS>MOLECULE
NONAME
44 45 1 0 0 
SMALL
USER_CHARGES


@<TRIPOS>ATOM
  1 CL      -0.4820    -4.9930     0.7410 Cl    1 <1>  -0.1770 
  2 C       -1.9640    -4.1880     0.2940 C.ar  1 <1>   0.1770 
  3 C       -2.1040    -3.6880    -0.9860 C.ar  1 <1>  -0.1500 
  4 C       -2.9760    -4.0640     1.2270 C.ar  1 <1>  -0.1500 
  5 C       -3.2810    -3.0490    -1.3390 C.ar  1 <1>  -0.1500 
  6 C       -4.1510    -3.4240     0.8690 C.ar  1 <1>  -0.1500 
  7 C       -4.3080    -2.9150    -0.4130 C.ar  1 <1>  -0.1430 
  8 C       -5.6140    -2.2250    -0.8060 C.3   1 <1>   0.0440 
  9 C       -6.6880    -3.1940    -1.2720 C.2   1 <1>   0.5690 
 10 O       -7.7880    -2.7660    -1.5190 O.2   1 <1>  -0.5700 
 11 N       -6.3930    -4.5120    -1.3990 N.am  1 <1>  -0.7300 
 12 C       -7.3420    -5.5710    -1.8070 C.3   1 <1>   0.2200 
 13 C       -7.5130    -6.5520    -0.6600 C.3   1 <1>  -0.0800 
 14 C       -6.7120    -6.4440    -2.8890 C.3   1 <1>   0.1200 
 15 C       -6.3040    -7.4680    -0.8600 C.3   1 <1>   0.1200 
 16 C       -8.8450    -7.3200    -0.7820 C.3   1 <1>  -0.0550 
 17 O       -6.0510    -7.4870    -2.2330 O.3   1 <1>  -0.5600 
 18 S       -9.2530    -8.2880     0.6720 S.o2  1 <1>   1.3330 
 19 O       -9.4130    -7.3710     1.7770 O.2   1 <1>  -0.6500 
 20 O       -8.3380    -9.4010     0.7980 O.2   1 <1>  -0.6500 
 21 N      -10.7790    -8.9190     0.2780 N.am  1 <1>  -0.8490 
 22 C      -11.6060    -9.1540     1.4660 C.3   1 <1>   0.1160 
 23 C      -10.7130   -10.1400    -0.5320 C.3   1 <1>   0.1160 
 24 H       -1.3020    -3.7980    -1.6930 H     1 <1>   0.1500 
 25 H       -2.8420    -4.4610     2.2170 H     1 <1>   0.1500 
 26 H       -3.3920    -2.6590    -2.3370 H     1 <1>   0.1500 
 27 H       -4.9430    -3.3270     1.5940 H     1 <1>   0.1500 
 28 H       -5.4330    -1.5200    -1.5960 H     1 <1>   0.0800 
 29 H       -5.9980    -1.6760     0.0330 H     1 <1>   0.0800 
 30 H       -5.4410    -4.8270    -1.1920 H     1 <1>   0.3700 
 31 H       -8.2700    -5.1320    -2.1330 H     1 <1>   0.0800 
 32 H       -7.4810    -6.0500     0.2920 H     1 <1>   0.0800 
 33 H       -6.0120    -5.9020    -3.5000 H     1 <1>   0.0800 
 34 H       -7.4710    -6.8840    -3.5100 H     1 <1>   0.0800 
 35 H       -6.4570    -8.4760    -0.5180 H     1 <1>   0.0800 
 36 H       -5.4330    -7.0590    -0.3760 H     1 <1>   0.0800 
 37 H       -8.8140    -7.9600    -1.6420 H     1 <1>   0.0800 
 38 H       -9.6350    -6.6090    -0.9320 H     1 <1>   0.0800 
 39 H      -12.5700    -9.5380     1.1800 H     1 <1>   0.0800 
 40 H      -11.7580    -8.2290     1.9980 H     1 <1>   0.0800 
 41 H      -11.1240    -9.8570     2.1250 H     1 <1>   0.0800 
 42 H      -11.7030   -10.4400    -0.8290 H     1 <1>   0.0800 
 43 H      -10.2570   -10.9400     0.0280 H     1 <1>   0.0800 
 44 H      -10.1300    -9.9660    -1.4210 H     1 <1>   0.0800 
@<TRIPOS>BOND
  1   1   2  1   
  2   2   3  ar  
  3   2   4  ar  
  4   3   5  ar  
  5   3  24  1   
  6   4   6  ar  
  7   4  25  1   
  8   5   7  ar  
  9   5  26  1   
 10   6   7  ar  
 11   6  27  1   
 12   7   8  1   
 13   8   9  1   
 14   8  28  1   
 15   8  29  1   
 16   9  10  2   
 17   9  11  am  
 18  11  12  1   
 19  11  30  1   
 20  12  13  1   
 21  12  14  1   
 22  12  31  1   
 23  13  15  1   
 24  13  16  1   
 25  13  32  1   
 26  14  17  1   
 27  14  33  1   
 28  14  34  1   
 29  15  17  1   
 30  15  35  1   
 31  15  36  1   
 32  16  18  1   
 33  16  37  1   
 34  16  38  1   
 35  18  19  2   
 36  18  20  2   
 37  18  21  am  
 38  21  22  1   
 39  21  23  1   
 40  22  39  1   
 41  22  40  1   
 42  22  41  1   
 43  23  42  1   
 44  23  43  1   
 45  23  44  1   
@<TRIPOS>SUBSTRUCTURE
  1 ****  13 GROUP 4 **** **** 0

# MOE 2024.06 (io_trps.svl 2023.06)
