@<TRIPOS>MOLECULE
NONAME
47 50 1 0 0 
SMALL
USER_CHARGES


@<TRIPOS>ATOM
  1 S       -0.6360    -0.1470    -1.8060 S.3   1 <1>  -0.0800 
  2 C       -1.3680     1.2150    -0.9640 C.2   1 <1>   0.4620 
  3 C       -1.5890    -1.2390    -0.8270 C.ar  1 <1>   0.0400 
  4 N       -2.2190     0.8990    -0.0640 N.2   1 <1>  -0.5650 
  5 N       -0.9940     2.4650    -1.3150 N.pl3 1 <1>  -0.8840 
  6 C       -2.3580    -0.4760     0.0340 C.ar  1 <1>   0.2270 
  7 C       -1.6070    -2.6170    -0.8630 C.ar  1 <1>  -0.1500 
  8 C       -3.1960    -1.1520     0.9200 C.ar  1 <1>  -0.1440 
  9 C       -2.4510    -3.3010     0.0100 C.ar  1 <1>   0.0860 
 10 C       -3.2270    -2.5390     0.8980 C.ar  1 <1>  -0.1500 
 11 C       -4.0570    -0.3680     1.8980 C.3   1 <1>  -0.0970 
 12 C       -2.5070    -4.7500    -0.0030 C.2   1 <1>   0.5440 
 13 O       -1.4750    -5.3910    -0.0700 O.2   1 <1>  -0.5700 
 14 N       -3.7020    -5.4340     0.0410 N.am  1 <1>  -0.6600 
 15 C       -5.0080    -4.8770    -0.3980 C.3   1 <1>   0.1400 
 16 C       -3.7580    -6.9180     0.0750 C.3   1 <1>   0.1400 
 17 C       -5.7970    -6.0850    -0.8990 C.3   1 <1>   0.2000 
 18 C       -5.2300    -7.2760    -0.1340 C.3   1 <1>  -0.0800 
 19 O       -7.1530    -5.9510    -0.6470 O.3   1 <1>  -0.6800 
 20 C       -5.4400    -8.6170    -0.8530 C.3   1 <1>   0.0210 
 21 C       -4.7800    -9.7480    -0.0890 C.2   1 <1>   0.1080 
 22 N       -5.1490   -10.0990     1.1040 N.2   1 <1>  -0.7070 
 23 C       -3.7200   -10.5160    -0.5600 C.2   1 <1>  -0.1500 
 24 N       -4.3250   -11.1130     1.4290 N.pl3 1 <1>   0.3000 
 25 C       -3.4500   -11.3830     0.4380 C.2   1 <1>  -0.3320 
 26 C       -2.3910   -12.4680     0.5060 C.3   1 <1>  -0.0600 
 27 H       -0.2990     2.6530    -2.0380 H     1 <1>   0.4000 
 28 H       -1.3980     3.2710    -0.8370 H     1 <1>   0.4000 
 29 H       -0.9810    -3.1600    -1.5490 H     1 <1>   0.1500 
 30 H       -3.8600    -3.0640     1.5910 H     1 <1>   0.1500 
 31 H       -4.6430    -1.0230     2.5170 H     1 <1>   0.0800 
 32 H       -4.7210     0.2830     1.3580 H     1 <1>   0.0800 
 33 H       -3.4300     0.2350     2.5310 H     1 <1>   0.0800 
 34 H       -5.5010    -4.4280     0.4460 H     1 <1>   0.0800 
 35 H       -4.8730    -4.1540    -1.1830 H     1 <1>   0.0800 
 36 H       -3.1470    -7.3130    -0.7200 H     1 <1>   0.0800 
 37 H       -3.3930    -7.2920     1.0180 H     1 <1>   0.0800 
 38 H       -5.6570    -6.1940    -1.9620 H     1 <1>   0.0800 
 39 H       -5.6820    -7.3280     0.8420 H     1 <1>   0.0800 
 40 H       -7.3290    -6.0430     0.3090 H     1 <1>   0.4000 
 41 H       -5.0340    -8.5730    -1.8470 H     1 <1>   0.0800 
 42 H       -6.4930    -8.8220    -0.9300 H     1 <1>   0.0800 
 43 H       -3.2380   -10.4160    -1.5160 H     1 <1>   0.1500 
 44 H       -4.3860   -11.5990     2.3320 H     1 <1>   0.2700 
 45 H       -1.8200   -12.4850    -0.4050 H     1 <1>   0.0800 
 46 H       -2.8530   -13.4310     0.6390 H     1 <1>   0.0800 
 47 H       -1.7210   -12.2830     1.3270 H     1 <1>   0.0800 
@<TRIPOS>BOND
  1   1   2  1   
  2   1   3  1   
  3   2   4  2   
  4   2   5  1   
  5   3   6  ar  
  6   3   7  ar  
  7   4   6  1   
  8   5  27  1   
  9   5  28  1   
 10   6   8  ar  
 11   7   9  ar  
 12   7  29  1   
 13   8  10  ar  
 14   8  11  1   
 15   9  10  ar  
 16   9  12  1   
 17  10  30  1   
 18  11  31  1   
 19  11  32  1   
 20  11  33  1   
 21  12  13  2   
 22  12  14  am  
 23  14  15  1   
 24  14  16  1   
 25  15  17  1   
 26  15  34  1   
 27  15  35  1   
 28  16  18  1   
 29  16  36  1   
 30  16  37  1   
 31  17  18  1   
 32  17  19  1   
 33  17  38  1   
 34  18  20  1   
 35  18  39  1   
 36  19  40  1   
 37  20  21  1   
 38  20  41  1   
 39  20  42  1   
 40  21  22  2   
 41  21  23  1   
 42  22  24  1   
 43  23  25  2   
 44  23  43  1   
 45  24  25  1   
 46  24  44  1   
 47  25  26  1   
 48  26  45  1   
 49  26  46  1   
 50  26  47  1   
@<TRIPOS>SUBSTRUCTURE
  1 ****  14 GROUP 4 **** **** 0

# MOE 2024.06 (io_trps.svl 2023.06)
