@<TRIPOS>MOLECULE
NONAME
59 61 1 0 0 
SMALL
USER_CHARGES


@<TRIPOS>ATOM
  1 O        0.1450    -0.4150     0.2650 O.2   1 <1>  -0.5700 
  2 C        1.2570    -0.6740    -0.1240 C.2   1 <1>   0.5690 
  3 N        2.2270     0.2630    -0.3510 N.am  1 <1>  -0.4940 
  4 C        1.6200    -2.1340    -0.3670 C.3   1 <1>  -0.0190 
  5 C        2.3090     1.6570    -0.1330 C.2   1 <1>  -0.0880 
  6 C        0.3490    -3.0130    -0.3500 C.3   1 <1>   0.3430 
  7 C        2.6690    -2.6410     0.6440 C.3   1 <1>  -0.1600 
  8 N        1.3290     2.5900     0.0310 N.pl3 1 <1>   0.3140 
  9 C        3.4940     2.3230    -0.0520 C.2   1 <1>  -0.0540 
 10 N        0.5960    -4.4110     0.1550 N.4   1 <1>  -0.9590 
 11 C        3.0380    -4.1140     0.3730 C.3   1 <1>  -0.1600 
 12 N        1.8530     3.8210     0.2210 N.2   1 <1>  -0.7070 
 13 C       -0.1310     2.4410    -0.0230 C.3   1 <1>   0.0160 
 14 C        4.8160     1.7640    -0.1640 C.ar  1 <1>   0.0540 
 15 C        3.1320     3.6530     0.1710 C.2   1 <1>   0.1080 
 16 C        1.9200    -4.9350    -0.2850 C.3   1 <1>   0.3430 
 17 C       -0.5460    -5.3050    -0.2330 C.3   1 <1>   0.3430 
 18 C        5.2940     1.3110    -1.3900 C.ar  1 <1>  -0.1500 
 19 C        5.6390     1.6380     0.9500 C.ar  1 <1>  -0.1500 
 20 C        4.1010     4.8020     0.3370 C.3   1 <1>  -0.0590 
 21 C       -0.5400    -6.6460     0.5110 C.3   1 <1>   0.1200 
 22 C        6.5460     0.7360    -1.4950 C.ar  1 <1>  -0.1500 
 23 C        6.8950     1.0660     0.8530 C.ar  1 <1>  -0.1500 
 24 O       -1.6340    -7.3670     0.0590 O.3   1 <1>  -0.5600 
 25 C        7.3540     0.6040    -0.3780 C.ar  1 <1>   0.0830 
 26 C       -1.7950    -8.6140     0.6620 C.3   1 <1>   0.0400 
 27 O        8.5650     0.0230    -0.5650 O.3   1 <1>  -0.3630 
 28 C        9.5030    -0.0680     0.4840 C.3   1 <1>   0.0400 
 29 H        3.1360    -0.1230    -0.6140 H     1 <1>   0.3700 
 30 H        2.0410    -2.1920    -1.3550 H     1 <1>   0.0800 
 31 H       -0.0550    -3.0460    -1.3490 H     1 <1>   0.0800 
 32 H       -0.3960    -2.5550     0.2810 H     1 <1>   0.0800 
 33 H        2.2640    -2.5510     1.6390 H     1 <1>   0.0800 
 34 H        3.5610    -2.0370     0.6090 H     1 <1>   0.0800 
 35 H        0.6190    -4.3490     1.1820 H     1 <1>   0.4500 
 36 H        3.3290    -4.5820     1.2980 H     1 <1>   0.0800 
 37 H        3.8970    -4.1540    -0.2750 H     1 <1>   0.0800 
 38 H       -0.3970     1.8290    -0.8630 H     1 <1>   0.0800 
 39 H       -0.5810     3.4110    -0.1310 H     1 <1>   0.0800 
 40 H       -0.4720     1.9890     0.8890 H     1 <1>   0.0800 
 41 H        1.9960    -4.8560    -1.3570 H     1 <1>   0.0800 
 42 H        2.0330    -5.9730    -0.0150 H     1 <1>   0.0800 
 43 H       -0.5130    -5.4980    -1.2930 H     1 <1>   0.0800 
 44 H       -1.4780    -4.8110    -0.0110 H     1 <1>   0.0800 
 45 H        4.6770     1.4200    -2.2650 H     1 <1>   0.1500 
 46 H        5.2810     1.9900     1.9020 H     1 <1>   0.1500 
 47 H        5.0030     4.6150    -0.2160 H     1 <1>   0.0800 
 48 H        4.3380     4.9240     1.3770 H     1 <1>   0.0800 
 49 H        3.6510     5.7080    -0.0260 H     1 <1>   0.0800 
 50 H       -0.6460    -6.4960     1.5720 H     1 <1>   0.0800 
 51 H        0.3470    -7.2140     0.2920 H     1 <1>   0.0800 
 52 H        6.9110     0.3880    -2.4460 H     1 <1>   0.1500 
 53 H        7.4970     0.9860     1.7380 H     1 <1>   0.1500 
 54 H       -2.6670    -9.0810     0.2370 H     1 <1>   0.0800 
 55 H       -1.9380    -8.4860     1.7210 H     1 <1>   0.0800 
 56 H       -0.9300    -9.2230     0.4650 H     1 <1>   0.0800 
 57 H       10.3930    -0.5310     0.0970 H     1 <1>   0.0800 
 58 H        9.0910    -0.6740     1.2710 H     1 <1>   0.0800 
 59 H        9.7300     0.9220     0.8370 H     1 <1>   0.0800 
@<TRIPOS>BOND
  1   1   2  2   
  2   2   3  am  
  3   2   4  1   
  4   3   5  1   
  5   3  29  1   
  6   4   6  1   
  7   4   7  1   
  8   4  30  1   
  9   5   8  1   
 10   5   9  2   
 11   6  10  1   
 12   6  31  1   
 13   6  32  1   
 14   7  11  1   
 15   7  33  1   
 16   7  34  1   
 17   8  12  1   
 18   8  13  1   
 19   9  14  1   
 20   9  15  1   
 21  10  16  1   
 22  10  17  1   
 23  10  35  1   
 24  11  16  1   
 25  11  36  1   
 26  11  37  1   
 27  12  15  2   
 28  13  38  1   
 29  13  39  1   
 30  13  40  1   
 31  14  18  ar  
 32  14  19  ar  
 33  15  20  1   
 34  16  41  1   
 35  16  42  1   
 36  17  21  1   
 37  17  43  1   
 38  17  44  1   
 39  18  22  ar  
 40  18  45  1   
 41  19  23  ar  
 42  19  46  1   
 43  20  47  1   
 44  20  48  1   
 45  20  49  1   
 46  21  24  1   
 47  21  50  1   
 48  21  51  1   
 49  22  25  ar  
 50  22  52  1   
 51  23  25  ar  
 52  23  53  1   
 53  24  26  1   
 54  25  27  1   
 55  26  54  1   
 56  26  55  1   
 57  26  56  1   
 58  27  28  1   
 59  28  57  1   
 60  28  58  1   
 61  28  59  1   
@<TRIPOS>SUBSTRUCTURE
  1 ****   3 GROUP 4 **** **** 0

# MOE 2024.06 (io_trps.svl 2023.06)
