@<TRIPOS>MOLECULE
NONAME
47 48 1 0 0 
SMALL
USER_CHARGES


@<TRIPOS>ATOM
  1 S        1.0600     0.6300    -1.9780 S.o2  1 <1>   1.3330 
  2 O        1.3830    -0.6760    -2.5080 O.2   1 <1>  -0.6500 
  3 O        0.5000     1.6380    -2.8490 O.2   1 <1>  -0.6500 
  4 N       -0.0360     0.4100    -0.6970 N.am  1 <1>  -0.8490 
  5 C        2.5300     1.2880    -1.1840 C.3   1 <1>  -0.0550 
  6 C       -0.7240     1.6460    -0.3060 C.3   1 <1>   0.1160 
  7 C       -1.0250    -0.6320    -0.9920 C.3   1 <1>   0.1160 
  8 C        3.2430     0.2900    -0.2460 C.3   1 <1>  -0.0800 
  9 C        4.6020     0.7470     0.2640 C.3   1 <1>   0.2200 
 10 C        2.4880    -0.0450     1.0480 C.3   1 <1>   0.1200 
 11 N        4.5690     2.1740     0.6670 N.am  1 <1>  -0.7300 
 12 C        4.7270    -0.1080     1.5160 C.3   1 <1>   0.1200 
 13 O        3.4460    -0.1150     2.0670 O.3   1 <1>  -0.5600 
 14 C        5.0930     3.2110    -0.0490 C.2   1 <1>   0.5440 
 15 O        5.4980     2.9840    -1.1710 O.2   1 <1>  -0.5700 
 16 C        5.1520     4.5530     0.5050 C.ar  1 <1>   0.0860 
 17 C        5.1270     5.6710    -0.3300 C.ar  1 <1>  -0.1500 
 18 C        5.2450     4.7840     1.8770 C.ar  1 <1>  -0.1500 
 19 C        5.1910     6.9710     0.1500 C.ar  1 <1>  -0.0090 
 20 C        5.3050     6.0680     2.3840 C.ar  1 <1>  -0.1500 
 21 S        5.1900     8.3840    -0.9830 S.o2  1 <1>   1.2040 
 22 C        5.2780     7.1510     1.5240 C.ar  1 <1>  -0.1500 
 23 O        4.3050     8.1000    -2.0900 O.2   1 <1>  -0.6500 
 24 O        5.0360     9.6080    -0.2300 O.2   1 <1>  -0.6500 
 25 C        6.8550     8.3600    -1.6170 C.3   1 <1>  -0.1350 
 26 H        3.2240     1.5710    -1.9520 H     1 <1>   0.0800 
 27 H        2.2760     2.1770    -0.6440 H     1 <1>   0.0800 
 28 H       -1.3360     1.4700     0.5620 H     1 <1>   0.0800 
 29 H       -1.3480     2.0010    -1.1090 H     1 <1>   0.0800 
 30 H       -0.0060     2.4110    -0.0640 H     1 <1>   0.0800 
 31 H       -1.6980    -0.7550    -0.1610 H     1 <1>   0.0800 
 32 H       -0.5300    -1.5730    -1.1640 H     1 <1>   0.0800 
 33 H       -1.5900    -0.3740    -1.8720 H     1 <1>   0.0800 
 34 H        3.3900    -0.6320    -0.7820 H     1 <1>   0.0800 
 35 H        5.3960     0.5640    -0.4410 H     1 <1>   0.0800 
 36 H        1.9790    -0.9920     0.9790 H     1 <1>   0.0800 
 37 H        1.7860     0.7250     1.3160 H     1 <1>   0.0800 
 38 H        4.1150     2.3330     1.5690 H     1 <1>   0.3700 
 39 H        5.4290     0.2890     2.2280 H     1 <1>   0.0800 
 40 H        4.9870    -1.1210     1.2660 H     1 <1>   0.0800 
 41 H        5.0510     5.5100    -1.3940 H     1 <1>   0.1500 
 42 H        5.2810     3.9520     2.5590 H     1 <1>   0.1500 
 43 H        5.3750     6.2290     3.4470 H     1 <1>   0.1500 
 44 H        5.3230     8.1500     1.9290 H     1 <1>   0.1500 
 45 H        7.0520     7.4340    -2.1220 H     1 <1>   0.0800 
 46 H        7.5620     8.4780    -0.8190 H     1 <1>   0.0800 
 47 H        6.9920     9.1630    -2.3150 H     1 <1>   0.0800 
@<TRIPOS>BOND
  1   1   2  2   
  2   1   3  2   
  3   1   4  am  
  4   1   5  1   
  5   4   6  1   
  6   4   7  1   
  7   5   8  1   
  8   5  26  1   
  9   5  27  1   
 10   6  28  1   
 11   6  29  1   
 12   6  30  1   
 13   7  31  1   
 14   7  32  1   
 15   7  33  1   
 16   8   9  1   
 17   8  10  1   
 18   8  34  1   
 19   9  11  1   
 20   9  12  1   
 21   9  35  1   
 22  10  13  1   
 23  10  36  1   
 24  10  37  1   
 25  11  14  am  
 26  11  38  1   
 27  12  13  1   
 28  12  39  1   
 29  12  40  1   
 30  14  15  2   
 31  14  16  1   
 32  16  17  ar  
 33  16  18  ar  
 34  17  19  ar  
 35  17  41  1   
 36  18  20  ar  
 37  18  42  1   
 38  19  21  1   
 39  19  22  ar  
 40  20  22  ar  
 41  20  43  1   
 42  21  23  2   
 43  21  24  2   
 44  21  25  1   
 45  22  44  1   
 46  25  45  1   
 47  25  46  1   
 48  25  47  1   
@<TRIPOS>SUBSTRUCTURE
  1 ****  14 GROUP 4 **** **** 0

# MOE 2024.06 (io_trps.svl 2023.06)
