@<TRIPOS>MOLECULE
NONAME
42 46 1 0 0 
SMALL
USER_CHARGES


@<TRIPOS>ATOM
  1 S       -0.8030    -0.6050     1.3240 S.3   1 <1>  -0.4600 
  2 C       -2.2280     0.4190     0.8450 C.3   1 <1>   0.2510 
  3 C       -1.4160    -2.2190     0.7440 C.3   1 <1>   0.2510 
  4 C       -3.1810    -0.5770     0.2290 C.2   1 <1>   0.1080 
  5 C       -2.7800    -1.8970     0.1770 C.2   1 <1>  -0.1810 
  6 N       -4.3580    -0.3810    -0.2740 N.2   1 <1>  -0.7070 
  7 C       -3.8040    -2.5640    -0.4090 C.2   1 <1>  -0.0880 
  8 N       -4.7490    -1.6150    -0.6720 N.pl3 1 <1>   0.3140 
  9 N       -3.9700    -3.9400    -0.7220 N.am  1 <1>  -0.4940 
 10 C       -6.0600    -1.8190    -1.3020 C.3   1 <1>   0.0160 
 11 C       -3.1390    -5.0130    -0.5600 C.2   1 <1>   0.5690 
 12 O       -2.0120    -4.8910    -0.1410 O.2   1 <1>  -0.5700 
 13 C       -3.5510    -6.4300    -0.9560 C.3   1 <1>  -0.0190 
 14 C       -3.2510    -7.3660     0.2260 C.3   1 <1>   0.3380 
 15 C       -5.0320    -6.8380    -1.2620 C.3   1 <1>  -0.0190 
 16 O       -4.4820    -7.3340     0.8500 O.3   1 <1>  -0.5600 
 17 C       -3.2650    -8.8160    -0.2280 C.2   1 <1>  -0.2880 
 18 C       -6.2390    -5.9390    -1.1070 C.2   1 <1>   0.5690 
 19 C       -5.2940    -7.8530    -0.1470 C.3   1 <1>   0.4180 
 20 C       -4.5390    -9.1250    -0.4390 C.2   1 <1>  -0.2880 
 21 O       -6.3540    -4.9000    -1.7110 O.2   1 <1>  -0.5700 
 22 N       -7.1840    -6.4720    -0.2910 N.am  1 <1>  -0.6600 
 23 C       -6.7690    -7.7820     0.2580 C.3   1 <1>   0.1400 
 24 C       -8.4940    -5.8750     0.0650 C.3   1 <1>   0.0600 
 25 H       -2.6360     0.8730     1.7290 H     1 <1>   0.0800 
 26 H       -1.8990     1.1540     0.1340 H     1 <1>   0.0800 
 27 H       -0.7400    -2.5880    -0.0060 H     1 <1>   0.0800 
 28 H       -1.4710    -2.8850     1.5850 H     1 <1>   0.0800 
 29 H       -4.8780    -4.1610    -1.1480 H     1 <1>   0.3700 
 30 H       -5.9250    -2.2800    -2.2620 H     1 <1>   0.0800 
 31 H       -6.5450    -0.8680    -1.4240 H     1 <1>   0.0800 
 32 H       -6.6590    -2.4490    -0.6720 H     1 <1>   0.0800 
 33 H       -2.9210    -6.7150    -1.7790 H     1 <1>   0.0800 
 34 H       -2.4660    -7.0930     0.9120 H     1 <1>   0.0800 
 35 H       -5.1050    -7.3230    -2.2170 H     1 <1>   0.0800 
 36 H       -2.3520    -9.3780    -0.3250 H     1 <1>   0.1500 
 37 H       -5.0320   -10.0240    -0.7670 H     1 <1>   0.1500 
 38 H       -6.8790    -7.8220     1.3270 H     1 <1>   0.0800 
 39 H       -7.3330    -8.5670    -0.2140 H     1 <1>   0.0800 
 40 H       -9.2890    -6.5390    -0.2250 H     1 <1>   0.0800 
 41 H       -8.6220    -4.9350    -0.4440 H     1 <1>   0.0800 
 42 H       -8.5400    -5.7050     1.1270 H     1 <1>   0.0800 
@<TRIPOS>BOND
  1   1   2  1   
  2   1   3  1   
  3   2   4  1   
  4   2  25  1   
  5   2  26  1   
  6   3   5  1   
  7   3  27  1   
  8   3  28  1   
  9   4   5  1   
 10   4   6  2   
 11   5   7  2   
 12   6   8  1   
 13   7   8  1   
 14   7   9  1   
 15   8  10  1   
 16   9  11  am  
 17   9  29  1   
 18  10  30  1   
 19  10  31  1   
 20  10  32  1   
 21  11  12  2   
 22  11  13  1   
 23  13  14  1   
 24  13  15  1   
 25  13  33  1   
 26  14  16  1   
 27  14  17  1   
 28  14  34  1   
 29  15  18  1   
 30  15  19  1   
 31  15  35  1   
 32  16  19  1   
 33  17  20  2   
 34  17  36  1   
 35  18  21  2   
 36  18  22  am  
 37  19  20  1   
 38  19  23  1   
 39  20  37  1   
 40  22  23  1   
 41  22  24  1   
 42  23  38  1   
 43  23  39  1   
 44  24  40  1   
 45  24  41  1   
 46  24  42  1   
@<TRIPOS>SUBSTRUCTURE
  1 ****   9 GROUP 4 **** **** 0

# MOE 2024.06 (io_trps.svl 2023.06)
