@<TRIPOS>MOLECULE
NONAME
58 61 1 0 0 
SMALL
USER_CHARGES


@<TRIPOS>ATOM
  1 O        0.8510    -0.0410    -1.1230 O.3   1 <1>  -0.5600 
  2 C        2.0700    -0.4430    -0.5420 C.3   1 <1>   0.4240 
  3 C        0.5220    -0.5590    -2.3750 C.3   1 <1>   0.1200 
  4 C        2.4230    -1.9210    -0.8430 C.ar  1 <1>  -0.1440 
  5 C        1.8370    -0.2250     0.9570 C.3   1 <1>  -0.1600 
  6 C        3.1290     0.5310    -1.0720 C.3   1 <1>  -0.1600 
  7 C        0.3270    -2.0620    -2.2420 C.3   1 <1>  -0.0160 
  8 C        3.5750    -2.5310    -0.3270 C.ar  1 <1>   0.0820 
  9 C        1.5770    -2.6800    -1.6500 C.ar  1 <1>  -0.1440 
 10 C        1.4780     1.2300     1.2430 C.3   1 <1>   0.3430 
 11 C        2.7710     1.9760    -0.7280 C.3   1 <1>   0.3430 
 12 O        4.4140    -1.8040     0.4630 O.3   1 <1>  -0.3630 
 13 C        3.8490    -3.8650    -0.6250 C.ar  1 <1>  -0.1500 
 14 C        1.8580    -4.0050    -1.9320 C.ar  1 <1>  -0.1500 
 15 N        2.5390     2.1560     0.7410 N.4   1 <1>  -0.9590 
 16 C        5.4840    -2.4040     1.1670 C.3   1 <1>   0.0400 
 17 C        2.9940    -4.5980    -1.4210 C.ar  1 <1>  -0.1500 
 18 C        3.8040     2.0610     1.5270 C.3   1 <1>   0.4860 
 19 C        4.6810     3.2490     1.1850 C.ar  1 <1>  -0.1440 
 20 C        5.7970     3.0730     0.3750 C.ar  1 <1>   0.0820 
 21 C        4.3780     4.5090     1.6800 C.ar  1 <1>  -0.1500 
 22 O        6.0490     1.8170    -0.0710 O.3   1 <1>  -0.3620 
 23 C        6.5980     4.1660     0.0550 C.ar  1 <1>  -0.1500 
 24 C        5.1770     5.5920     1.3590 C.ar  1 <1>  -0.1500 
 25 C        7.2450     1.4960    -0.7540 C.3   1 <1>   0.1200 
 26 C        6.2840     5.4200     0.5470 C.ar  1 <1>  -0.1500 
 27 C        7.2750    -0.0150    -0.9820 C.3   1 <1>   0.1200 
 28 O        8.4470    -0.3610    -1.6360 O.3   1 <1>  -0.6800 
 29 H        1.3070    -0.3320    -3.0750 H     1 <1>   0.0800 
 30 H       -0.3900    -0.0900    -2.7010 H     1 <1>   0.0800 
 31 H        2.6910    -0.5010     1.5390 H     1 <1>   0.0800 
 32 H        1.0280    -0.8610     1.2720 H     1 <1>   0.0800 
 33 H        3.2180     0.4250    -2.1360 H     1 <1>   0.0800 
 34 H        4.0910     0.3030    -0.6680 H     1 <1>   0.0800 
 35 H        0.1280    -2.4790    -3.2130 H     1 <1>   0.0800 
 36 H       -0.5170    -2.2640    -1.6080 H     1 <1>   0.0800 
 37 H        1.3340     1.3680     2.3020 H     1 <1>   0.0800 
 38 H        0.5470     1.4550     0.7470 H     1 <1>   0.0800 
 39 H        1.8710     2.2390    -1.2620 H     1 <1>   0.0800 
 40 H        3.5600     2.6320    -1.0610 H     1 <1>   0.0800 
 41 H        4.7250    -4.3600    -0.2510 H     1 <1>   0.1500 
 42 H        1.1950    -4.5840    -2.5520 H     1 <1>   0.1500 
 43 H        2.2110     3.1210     0.8660 H     1 <1>   0.4500 
 44 H        5.9440    -1.6550     1.7850 H     1 <1>   0.0800 
 45 H        6.2010    -2.7820     0.4600 H     1 <1>   0.0800 
 46 H        5.0980    -3.1970     1.7830 H     1 <1>   0.0800 
 47 H        3.2100    -5.6290    -1.6440 H     1 <1>   0.1500 
 48 H        4.3170     1.1390     1.3060 H     1 <1>   0.0800 
 49 H        3.5850     2.0790     2.5820 H     1 <1>   0.0800 
 50 H        3.5280     4.6660     2.3220 H     1 <1>   0.1500 
 51 H        7.4650     4.0670    -0.5700 H     1 <1>   0.1500 
 52 H        4.9430     6.5710     1.7430 H     1 <1>   0.1500 
 53 H        8.0770     1.7930    -0.1390 H     1 <1>   0.0800 
 54 H        7.2530     2.0230    -1.6910 H     1 <1>   0.0800 
 55 H        6.9040     6.2660     0.3000 H     1 <1>   0.1500 
 56 H        6.4420    -0.3410    -1.5810 H     1 <1>   0.0800 
 57 H        7.2710    -0.5290    -0.0370 H     1 <1>   0.0800 
 58 H        8.4300    -0.0860    -2.5740 H     1 <1>   0.4000 
@<TRIPOS>BOND
  1   1   2  1   
  2   1   3  1   
  3   2   4  1   
  4   2   5  1   
  5   2   6  1   
  6   3   7  1   
  7   3  29  1   
  8   3  30  1   
  9   4   8  ar  
 10   4   9  ar  
 11   5  10  1   
 12   5  31  1   
 13   5  32  1   
 14   6  11  1   
 15   6  33  1   
 16   6  34  1   
 17   7   9  1   
 18   7  35  1   
 19   7  36  1   
 20   8  12  1   
 21   8  13  ar  
 22   9  14  ar  
 23  10  15  1   
 24  10  37  1   
 25  10  38  1   
 26  11  15  1   
 27  11  39  1   
 28  11  40  1   
 29  12  16  1   
 30  13  17  ar  
 31  13  41  1   
 32  14  17  ar  
 33  14  42  1   
 34  15  18  1   
 35  15  43  1   
 36  16  44  1   
 37  16  45  1   
 38  16  46  1   
 39  17  47  1   
 40  18  19  1   
 41  18  48  1   
 42  18  49  1   
 43  19  20  ar  
 44  19  21  ar  
 45  20  22  1   
 46  20  23  ar  
 47  21  24  ar  
 48  21  50  1   
 49  22  25  1   
 50  23  26  ar  
 51  23  51  1   
 52  24  26  ar  
 53  24  52  1   
 54  25  27  1   
 55  25  53  1   
 56  25  54  1   
 57  26  55  1   
 58  27  28  1   
 59  27  56  1   
 60  27  57  1   
 61  28  58  1   
@<TRIPOS>SUBSTRUCTURE
  1 ****   6 GROUP 4 **** **** 0

# MOE 2024.06 (io_trps.svl 2023.06)
