@<TRIPOS>MOLECULE
NONAME
43 45 1 0 0 
SMALL
USER_CHARGES


@<TRIPOS>ATOM
  1 O        0.0730     0.9330     1.7000 O.2   1 <1>  -0.5700 
  2 C       -0.1280     1.6310     0.7260 C.2   1 <1>   0.5440 
  3 N       -1.4100     1.7230     0.2650 N.am  1 <1>  -0.7300 
  4 C        0.9620     2.3150     0.0500 C.ar  1 <1>   0.0860 
  5 C       -2.6110     1.1460     0.9220 C.3   1 <1>   0.2200 
  6 C        0.7600     3.4910    -0.6760 C.ar  1 <1>  -0.1500 
  7 C        2.2630     1.8130     0.1040 C.ar  1 <1>  -0.1500 
  8 C       -2.7570    -0.3620     0.6160 C.3   1 <1>   0.2000 
  9 C       -3.8360     1.9350     0.4520 C.3   1 <1>  -0.1600 
 10 C        1.8020     4.1260    -1.3270 C.ar  1 <1>  -0.1500 
 11 C        3.3100     2.4430    -0.5440 C.ar  1 <1>  -0.1500 
 12 O       -1.7220    -1.0660     1.2150 O.3   1 <1>  -0.6800 
 13 C       -4.0850    -0.9320     1.1330 C.3   1 <1>   0.1400 
 14 C       -5.1190     1.3560     1.0500 C.3   1 <1>   0.1400 
 15 C        3.0800     3.6010    -1.2640 C.ar  1 <1>  -0.1500 
 16 N       -5.2330    -0.0820     0.6820 N.am  1 <1>  -0.6600 
 17 C       -6.2410    -0.5350    -0.1490 C.2   1 <1>   0.7150 
 18 O       -6.7740     0.2730    -0.8910 O.2   1 <1>  -0.5700 
 19 C       -6.6830    -1.9080    -0.1910 C.2   1 <1>   0.0550 
 20 O       -6.4780    -2.7500     0.7990 O.3   1 <1>  -0.0190 
 21 C       -7.3680    -2.6000    -1.1290 C.2   1 <1>  -0.1500 
 22 N       -6.9610    -3.9330     0.5720 N.2   1 <1>  -0.4100 
 23 C       -7.5080    -3.8690    -0.5900 C.2   1 <1>   0.1080 
 24 C       -8.2060    -5.0370    -1.2510 C.3   1 <1>  -0.0590 
 25 H       -1.5710     2.1370    -0.6540 H     1 <1>   0.3700 
 26 H       -2.5190     1.2650     1.9890 H     1 <1>   0.0800 
 27 H       -0.2230     3.9240    -0.7260 H     1 <1>   0.1500 
 28 H        2.4520     0.9140     0.6650 H     1 <1>   0.1500 
 29 H       -2.6930    -0.5250    -0.4450 H     1 <1>   0.0800 
 30 H       -3.7430     2.9610     0.7600 H     1 <1>   0.0800 
 31 H       -3.9160     1.9030    -0.6200 H     1 <1>   0.0800 
 32 H        1.6230     5.0310    -1.8820 H     1 <1>   0.1500 
 33 H        4.3040     2.0330    -0.4880 H     1 <1>   0.1500 
 34 H       -0.9630    -0.4450     1.3840 H     1 <1>   0.4000 
 35 H       -4.0730    -0.9580     2.2090 H     1 <1>   0.0800 
 36 H       -4.1820    -1.9370     0.7660 H     1 <1>   0.0800 
 37 H       -5.9710     1.9090     0.6910 H     1 <1>   0.0800 
 38 H       -5.1000     1.4430     2.1230 H     1 <1>   0.0800 
 39 H        3.8930     4.0930    -1.7700 H     1 <1>   0.1500 
 40 H       -7.7290    -2.2520    -2.0790 H     1 <1>   0.1500 
 41 H       -8.5560    -4.7610    -2.2290 H     1 <1>   0.0800 
 42 H       -9.0420    -5.3430    -0.6510 H     1 <1>   0.0800 
 43 H       -7.5220    -5.8610    -1.3420 H     1 <1>   0.0800 
@<TRIPOS>BOND
  1   1   2  2   
  2   2   3  am  
  3   2   4  1   
  4   3   5  1   
  5   3  25  1   
  6   4   6  ar  
  7   4   7  ar  
  8   5   8  1   
  9   5   9  1   
 10   5  26  1   
 11   6  10  ar  
 12   6  27  1   
 13   7  11  ar  
 14   7  28  1   
 15   8  12  1   
 16   8  13  1   
 17   8  29  1   
 18   9  14  1   
 19   9  30  1   
 20   9  31  1   
 21  10  15  ar  
 22  10  32  1   
 23  11  15  ar  
 24  11  33  1   
 25  12  34  1   
 26  13  16  1   
 27  13  35  1   
 28  13  36  1   
 29  14  16  1   
 30  14  37  1   
 31  14  38  1   
 32  15  39  1   
 33  16  17  am  
 34  17  18  2   
 35  17  19  1   
 36  19  20  1   
 37  19  21  2   
 38  20  22  1   
 39  21  23  1   
 40  21  40  1   
 41  22  23  2   
 42  23  24  1   
 43  24  41  1   
 44  24  42  1   
 45  24  43  1   
@<TRIPOS>SUBSTRUCTURE
  1 ****   8 GROUP 4 **** **** 0

# MOE 2024.06 (io_trps.svl 2023.06)
