@<TRIPOS>MOLECULE
NONAME
27 27 1 0 0 
SMALL
USER_CHARGES


@<TRIPOS>ATOM
  1 F        0.3790    -0.3010    -1.1980 F     1 <1>  -0.1900 
  2 C        1.5220    -0.7370    -0.7270 C.ar  1 <1>   0.1900 
  3 C        2.3050     0.0330     0.1420 C.ar  1 <1>   0.0820 
  4 C        1.9090    -1.9990    -1.1380 C.ar  1 <1>  -0.1500 
  5 O        2.0250     1.2830     0.6140 O.3   1 <1>  -0.3630 
  6 C        3.4990    -0.5190     0.5850 C.ar  1 <1>  -0.1500 
  7 C        3.1060    -2.5210    -0.6780 C.ar  1 <1>  -0.1500 
  8 C        0.8520     1.9880     0.2750 C.3   1 <1>   0.0400 
  9 C        3.9040    -1.7850     0.1840 C.ar  1 <1>  -0.1430 
 10 C        5.2170    -2.3730     0.6880 C.3   1 <1>  -0.0160 
 11 C        6.3160    -2.3910    -0.3900 C.3   1 <1>  -0.1860 
 12 C        7.5200    -3.1730     0.1250 C.2   1 <1>   0.9060 
 13 C        6.6980    -0.9660    -0.8470 C.3   1 <1>  -0.2400 
 14 O        8.0900    -2.7920     1.1540 O.co2 1 <1>  -0.9000 
 15 O        7.8750    -4.1820    -0.4930 O.co2 1 <1>  -0.9000 
 16 H        1.2870    -2.5620    -1.8070 H     1 <1>   0.1500 
 17 H        4.1190     0.0550     1.2500 H     1 <1>   0.1500 
 18 H        3.4230    -3.5020    -0.9910 H     1 <1>   0.1500 
 19 H        0.8750     2.9370     0.7800 H     1 <1>   0.0800 
 20 H       -0.0030     1.4220     0.6020 H     1 <1>   0.0800 
 21 H        0.8300     2.1410    -0.7890 H     1 <1>   0.0800 
 22 H        5.0430    -3.3820     1.0190 H     1 <1>   0.0800 
 23 H        5.5730    -1.8210     1.5410 H     1 <1>   0.0800 
 24 H        5.9470    -2.9290    -1.2430 H     1 <1>   0.0800 
 25 H        7.0670    -0.4010    -0.0090 H     1 <1>   0.0800 
 26 H        5.8520    -0.4590    -1.2730 H     1 <1>   0.0800 
 27 H        7.4770    -1.0230    -1.5860 H     1 <1>   0.0800 
@<TRIPOS>BOND
  1   1   2  1   
  2   2   3  ar  
  3   2   4  ar  
  4   3   5  1   
  5   3   6  ar  
  6   4   7  ar  
  7   4  16  1   
  8   5   8  1   
  9   6   9  ar  
 10   6  17  1   
 11   7   9  ar  
 12   7  18  1   
 13   8  19  1   
 14   8  20  1   
 15   8  21  1   
 16   9  10  1   
 17  10  11  1   
 18  10  22  1   
 19  10  23  1   
 20  11  12  1   
 21  11  13  1   
 22  11  24  1   
 23  12  14  ar  
 24  12  15  ar  
 25  13  25  1   
 26  13  26  1   
 27  13  27  1   
@<TRIPOS>SUBSTRUCTURE
  1 ****   9 GROUP 4 **** **** 0

# MOE 2024.06 (io_trps.svl 2023.06)
