@<TRIPOS>MOLECULE
NONAME
43 45 1 0 0 
SMALL
USER_CHARGES


@<TRIPOS>ATOM
  1 O       -0.8680     0.9610     1.9120 O.3   1 <1>  -0.5600 
  2 C        0.1190     1.4530     1.0470 C.3   1 <1>   0.1200 
  3 C       -2.1270     1.4530     1.5660 C.3   1 <1>   0.1200 
  4 C       -0.5670     2.4180     0.0780 C.3   1 <1>   0.2890 
  5 C       -2.0120     1.9560     0.1270 C.3   1 <1>  -0.0800 
  6 N       -0.4890     3.8080     0.5990 N.pl3 1 <1>  -0.8690 
  7 C       -2.2810     0.8400    -0.9010 C.3   1 <1>  -0.0170 
  8 C        0.5240     4.6950     0.2790 C.ar  1 <1>   0.4100 
  9 C       -3.7320     0.3860    -0.8620 C.ar  1 <1>  -0.1430 
 10 N        1.3760     4.2830    -0.6530 N.ar  1 <1>  -0.6200 
 11 C        0.6210     5.9410     0.9180 C.ar  1 <1>   0.0730 
 12 C       -4.1120    -0.8100    -0.2870 C.ar  1 <1>  -0.1500 
 13 C       -4.7460     1.1520    -1.4010 C.ar  1 <1>  -0.1500 
 14 C        2.3500     5.1080    -0.9760 C.ar  1 <1>   0.1670 
 15 C       -0.3440     6.2950     1.9130 C.1   1 <1>   0.4840 
 16 C        1.6550     6.7980     0.5660 C.ar  1 <1>  -0.1440 
 17 C       -5.4490    -1.1700    -0.2750 C.ar  1 <1>   0.1600 
 18 C       -6.0540     0.7000    -1.3370 C.ar  1 <1>   0.1600 
 19 C        2.5300     6.3550    -0.4050 C.ar  1 <1>  -0.1500 
 20 C        3.3050     4.6140    -2.0430 C.3   1 <1>  -0.0970 
 21 N       -1.1120     6.5600     2.7150 N.1   1 <1>  -0.5570 
 22 C        1.8420     8.1700     1.2030 C.3   1 <1>  -0.0970 
 23 N       -6.4300    -0.4430    -0.7860 N.ar  1 <1>  -0.6200 
 24 H        0.8930     1.9340     1.6170 H     1 <1>   0.0800 
 25 H        0.5290     0.6140     0.5140 H     1 <1>   0.0800 
 26 H       -2.8590     0.6750     1.6920 H     1 <1>   0.0800 
 27 H       -2.3520     2.2660     2.2350 H     1 <1>   0.0800 
 28 H       -0.1510     2.3580    -0.9130 H     1 <1>   0.0800 
 29 H       -2.6890     2.7720    -0.0560 H     1 <1>   0.0800 
 30 H       -0.9180     3.9050     1.5240 H     1 <1>   0.4000 
 31 H       -1.6350    -0.0010    -0.7140 H     1 <1>   0.0800 
 32 H       -2.0620     1.2040    -1.8890 H     1 <1>   0.0800 
 33 H       -3.3820    -1.4640     0.1540 H     1 <1>   0.1500 
 34 H       -4.5320     2.0950    -1.8690 H     1 <1>   0.1500 
 35 H       -5.7260    -2.1060     0.1790 H     1 <1>   0.1500 
 36 H       -6.8320     1.3100    -1.7630 H     1 <1>   0.1500 
 37 H        3.3500     6.9750    -0.7200 H     1 <1>   0.1500 
 38 H        4.0660     5.3420    -2.2530 H     1 <1>   0.0800 
 39 H        2.7590     4.4110    -2.9460 H     1 <1>   0.0800 
 40 H        3.7740     3.7060    -1.7110 H     1 <1>   0.0800 
 41 H        2.7000     8.6720     0.7930 H     1 <1>   0.0800 
 42 H        1.9850     8.0710     2.2650 H     1 <1>   0.0800 
 43 H        0.9760     8.7830     1.0260 H     1 <1>   0.0800 
@<TRIPOS>BOND
  1   1   2  1   
  2   1   3  1   
  3   2   4  1   
  4   2  24  1   
  5   2  25  1   
  6   3   5  1   
  7   3  26  1   
  8   3  27  1   
  9   4   5  1   
 10   4   6  1   
 11   4  28  1   
 12   5   7  1   
 13   5  29  1   
 14   6   8  1   
 15   6  30  1   
 16   7   9  1   
 17   7  31  1   
 18   7  32  1   
 19   8  10  ar  
 20   8  11  ar  
 21   9  12  ar  
 22   9  13  ar  
 23  10  14  ar  
 24  11  15  1   
 25  11  16  ar  
 26  12  17  ar  
 27  12  33  1   
 28  13  18  ar  
 29  13  34  1   
 30  14  19  ar  
 31  14  20  1   
 32  15  21  3   
 33  16  19  ar  
 34  16  22  1   
 35  17  23  ar  
 36  17  35  1   
 37  18  23  ar  
 38  18  36  1   
 39  19  37  1   
 40  20  38  1   
 41  20  39  1   
 42  20  40  1   
 43  22  41  1   
 44  22  42  1   
 45  22  43  1   
@<TRIPOS>SUBSTRUCTURE
  1 ****   4 GROUP 4 **** **** 0

# MOE 2024.06 (io_trps.svl 2023.06)
