@<TRIPOS>MOLECULE
NONAME
48 50 1 0 0 
SMALL
USER_CHARGES


@<TRIPOS>ATOM
  1 S        0.3420    -0.5530     1.4710 S.3   1 <1>  -0.4600 
  2 C        0.9310     0.4480     0.0800 C.3   1 <1>   0.1500 
  3 C       -0.0880    -2.1380     0.6990 C.3   1 <1>   0.0700 
  4 C        2.3190    -0.0570    -0.3350 C.3   1 <1>  -0.1600 
  5 C        0.9670     1.9070     0.5440 C.3   1 <1>  -0.1600 
  6 C       -0.8450    -2.9780     1.7260 C.3   1 <1>   0.1400 
  7 C        2.9350     0.8510    -1.4080 C.3   1 <1>  -0.1600 
  8 C        1.5820     2.8120    -0.5330 C.3   1 <1>  -0.1600 
  9 N       -1.0920    -4.3350     1.1860 N.am  1 <1>  -0.7300 
 10 C        2.9750     2.3140    -0.9440 C.3   1 <1>  -0.1600 
 11 C       -2.0700    -4.6910     0.3010 C.2   1 <1>   0.7160 
 12 O       -2.7930    -3.8190    -0.1510 O.2   1 <1>  -0.5700 
 13 C       -2.2110    -6.0890    -0.0790 C.2   1 <1>   0.2030 
 14 N       -1.4550    -7.0810     0.3620 N.2   1 <1>  -0.7070 
 15 C       -3.1650    -6.5810    -0.9630 C.2   1 <1>  -0.1500 
 16 N       -1.9260    -8.1810    -0.2340 N.pl3 1 <1>   0.3140 
 17 C       -2.9740    -7.9230    -1.0510 C.2   1 <1>  -0.2370 
 18 C       -1.3170    -9.4880     0.0470 C.3   1 <1>   0.0960 
 19 C       -3.6960    -8.8710    -1.8500 C.2   1 <1>   0.7150 
 20 C       -2.3960   -10.4610     0.5160 C.3   1 <1>   0.2000 
 21 O       -4.4310    -8.4810    -2.7290 O.2   1 <1>  -0.5700 
 22 N       -3.6310   -10.2210    -1.7180 N.am  1 <1>  -0.7300 
 23 O       -1.7910   -11.4630     1.2650 O.3   1 <1>  -0.6800 
 24 C       -3.1630   -11.1290    -0.6350 C.3   1 <1>   0.1400 
 25 H        0.2240     0.3290    -0.7230 H     1 <1>   0.0800 
 26 H        0.8300    -2.6120     0.4060 H     1 <1>   0.0800 
 27 H       -0.7040    -1.9280    -0.1570 H     1 <1>   0.0800 
 28 H        2.2450    -1.0590    -0.7160 H     1 <1>   0.0800 
 29 H        2.9610    -0.0710     0.5290 H     1 <1>   0.0800 
 30 H        1.5540     1.9780     1.4440 H     1 <1>   0.0800 
 31 H       -0.0320     2.2370     0.7700 H     1 <1>   0.0800 
 32 H       -1.7860    -2.5050     1.9510 H     1 <1>   0.0800 
 33 H       -0.2710    -3.0540     2.6330 H     1 <1>   0.0800 
 34 H        2.3540     0.7810    -2.3120 H     1 <1>   0.0800 
 35 H        3.9340     0.5180    -1.6330 H     1 <1>   0.0800 
 36 H        1.6550     3.8180    -0.1580 H     1 <1>   0.0800 
 37 H        0.9390     2.8270    -1.3960 H     1 <1>   0.0800 
 38 H       -0.5120    -5.1050     1.5350 H     1 <1>   0.3700 
 39 H        3.3600     2.9330    -1.7360 H     1 <1>   0.0800 
 40 H        3.6450     2.4020    -0.1050 H     1 <1>   0.0800 
 41 H       -3.9050    -5.9870    -1.4730 H     1 <1>   0.1500 
 42 H       -0.5880    -9.3490     0.8250 H     1 <1>   0.0800 
 43 H       -0.8300    -9.8420    -0.8420 H     1 <1>   0.0800 
 44 H       -3.0830    -9.9590     1.1770 H     1 <1>   0.0800 
 45 H       -4.2070   -10.6840    -2.4260 H     1 <1>   0.3700 
 46 H       -1.1100   -11.9420     0.7540 H     1 <1>   0.4000 
 47 H       -4.0210   -11.6340    -0.2220 H     1 <1>   0.0800 
 48 H       -2.5300   -11.8720    -1.0890 H     1 <1>   0.0800 
@<TRIPOS>BOND
  1   1   2  1   
  2   1   3  1   
  3   2   4  1   
  4   2   5  1   
  5   2  25  1   
  6   3   6  1   
  7   3  26  1   
  8   3  27  1   
  9   4   7  1   
 10   4  28  1   
 11   4  29  1   
 12   5   8  1   
 13   5  30  1   
 14   5  31  1   
 15   6   9  1   
 16   6  32  1   
 17   6  33  1   
 18   7  10  1   
 19   7  34  1   
 20   7  35  1   
 21   8  10  1   
 22   8  36  1   
 23   8  37  1   
 24   9  11  am  
 25   9  38  1   
 26  10  39  1   
 27  10  40  1   
 28  11  12  2   
 29  11  13  1   
 30  13  14  2   
 31  13  15  1   
 32  14  16  1   
 33  15  17  2   
 34  15  41  1   
 35  16  17  1   
 36  16  18  1   
 37  17  19  1   
 38  18  20  1   
 39  18  42  1   
 40  18  43  1   
 41  19  21  2   
 42  19  22  am  
 43  20  23  1   
 44  20  24  1   
 45  20  44  1   
 46  22  24  1   
 47  22  45  1   
 48  23  46  1   
 49  24  47  1   
 50  24  48  1   
@<TRIPOS>SUBSTRUCTURE
  1 ****  11 GROUP 4 **** **** 0

# MOE 2024.06 (io_trps.svl 2023.06)
