@<TRIPOS>MOLECULE
NONAME
48 50 1 0 0 
SMALL
USER_CHARGES


@<TRIPOS>ATOM
  1 F       -0.6650    -0.7050    -1.0230 F     1 <1>  -0.1900 
  2 C       -1.7560    -1.0510    -0.3870 C.ar  1 <1>   0.1900 
  3 C       -2.6710    -0.1020     0.0810 C.ar  1 <1>   0.0830 
  4 C       -1.9520    -2.4090    -0.2130 C.ar  1 <1>  -0.1500 
  5 O       -2.5860     1.2520    -0.0340 O.3   1 <1>  -0.3630 
  6 C       -3.7970    -0.5720     0.7390 C.ar  1 <1>  -0.1500 
  7 C       -3.0920    -2.8580     0.4400 C.ar  1 <1>  -0.1430 
  8 C       -1.4680     1.9100    -0.5870 C.3   1 <1>   0.0400 
  9 C       -4.0080    -1.9300     0.9190 C.ar  1 <1>  -0.1500 
 10 C       -3.3440    -4.3420     0.6310 C.3   1 <1>   0.4870 
 11 N       -3.7350    -4.9410    -0.6760 N.4   1 <1>  -0.9590 
 12 C       -5.0470    -4.3880    -1.1480 C.3   1 <1>   0.3430 
 13 C       -3.9270    -6.4190    -0.5320 C.3   1 <1>   0.3430 
 14 C       -6.1060    -5.3830    -0.6740 C.3   1 <1>   0.2000 
 15 C       -5.3910    -6.7160    -0.8760 C.3   1 <1>  -0.0800 
 16 O       -6.3070    -5.1740     0.6960 O.3   1 <1>  -0.5600 
 17 C       -5.9620    -7.9170    -0.0970 C.3   1 <1>   0.0200 
 18 C       -7.6430    -5.0540     1.0870 C.3   1 <1>   0.0400 
 19 C       -5.0320    -9.1090    -0.2130 C.2   1 <1>  -0.0400 
 20 O       -4.5570    -9.4520    -1.3800 O.3   1 <1>  -0.0190 
 21 C       -4.5280    -9.9510     0.7020 C.2   1 <1>  -0.1500 
 22 N       -3.7480   -10.4650    -1.2940 N.2   1 <1>  -0.4100 
 23 C       -3.7190   -10.7960    -0.0520 C.2   1 <1>   0.1080 
 24 C       -2.9110   -11.9500     0.5010 C.3   1 <1>  -0.0590 
 25 H       -1.2080    -3.0890    -0.5880 H     1 <1>   0.1500 
 26 H       -4.5110     0.1420     1.1130 H     1 <1>   0.1500 
 27 H       -1.6330     2.9700    -0.5130 H     1 <1>   0.0800 
 28 H       -1.3710     1.6300    -1.6210 H     1 <1>   0.0800 
 29 H       -0.5890     1.6390    -0.0300 H     1 <1>   0.0800 
 30 H       -4.8950    -2.2520     1.4410 H     1 <1>   0.1500 
 31 H       -4.1290    -4.4900     1.3550 H     1 <1>   0.0800 
 32 H       -2.4470    -4.8110     1.0010 H     1 <1>   0.0800 
 33 H       -3.0000    -4.7240    -1.3600 H     1 <1>   0.4500 
 34 H       -5.2430    -3.3990    -0.7690 H     1 <1>   0.0800 
 35 H       -5.0560    -4.3580    -2.2250 H     1 <1>   0.0800 
 36 H       -3.2690    -6.9700    -1.1850 H     1 <1>   0.0800 
 37 H       -3.7340    -6.7190     0.4860 H     1 <1>   0.0800 
 38 H       -7.0310    -5.2980    -1.2200 H     1 <1>   0.0800 
 39 H       -5.4260    -6.9570    -1.9250 H     1 <1>   0.0800 
 40 H       -6.9260    -8.1820    -0.4960 H     1 <1>   0.0800 
 41 H       -6.0850    -7.6810     0.9450 H     1 <1>   0.0800 
 42 H       -7.6730    -4.9190     2.1540 H     1 <1>   0.0800 
 43 H       -8.1770    -5.9520     0.8230 H     1 <1>   0.0800 
 44 H       -8.0830    -4.1980     0.6040 H     1 <1>   0.0800 
 45 H       -4.6810    -9.9980     1.7650 H     1 <1>   0.1500 
 46 H       -2.2520   -11.6020     1.2740 H     1 <1>   0.0800 
 47 H       -2.3250   -12.3970    -0.2820 H     1 <1>   0.0800 
 48 H       -3.5710   -12.6950     0.9070 H     1 <1>   0.0800 
@<TRIPOS>BOND
  1   1   2  1   
  2   2   3  ar  
  3   2   4  ar  
  4   3   5  1   
  5   3   6  ar  
  6   4   7  ar  
  7   4  25  1   
  8   5   8  1   
  9   6   9  ar  
 10   6  26  1   
 11   7   9  ar  
 12   7  10  1   
 13   8  27  1   
 14   8  28  1   
 15   8  29  1   
 16   9  30  1   
 17  10  11  1   
 18  10  31  1   
 19  10  32  1   
 20  11  12  1   
 21  11  13  1   
 22  11  33  1   
 23  12  14  1   
 24  12  34  1   
 25  12  35  1   
 26  13  15  1   
 27  13  36  1   
 28  13  37  1   
 29  14  15  1   
 30  14  16  1   
 31  14  38  1   
 32  15  17  1   
 33  15  39  1   
 34  16  18  1   
 35  17  19  1   
 36  17  40  1   
 37  17  41  1   
 38  18  42  1   
 39  18  43  1   
 40  18  44  1   
 41  19  20  1   
 42  19  21  2   
 43  20  22  1   
 44  21  23  1   
 45  21  45  1   
 46  22  23  2   
 47  23  24  1   
 48  24  46  1   
 49  24  47  1   
 50  24  48  1   
@<TRIPOS>SUBSTRUCTURE
  1 ****  11 GROUP 4 **** **** 0

# MOE 2024.06 (io_trps.svl 2023.06)
