@<TRIPOS>MOLECULE
NONAME
52 55 1 0 0 
SMALL
USER_CHARGES


@<TRIPOS>ATOM
  1 O       -3.1210     1.1370    -3.1470 O.2   1 <1>  -0.5700 
  2 C       -2.4650     1.1300    -2.1220 C.2   1 <1>   0.5440 
  3 N       -1.8640    -0.0400    -1.7620 N.am  1 <1>  -0.7300 
  4 C       -2.3350     2.3330    -1.3190 C.ar  1 <1>   0.0860 
  5 C       -2.0830    -1.3560    -2.4080 C.3   1 <1>   0.2200 
  6 C       -2.2440     2.3270     0.0850 C.ar  1 <1>   0.0820 
  7 C       -2.3060     3.5720    -1.9630 C.ar  1 <1>  -0.1500 
  8 C       -3.0640    -2.2150    -1.6150 C.3   1 <1>  -0.0800 
  9 C       -0.8110    -2.1840    -2.2860 C.3   1 <1>   0.1200 
 10 O       -2.2970     1.1360     0.7360 O.3   1 <1>  -0.3630 
 11 C       -2.1140     3.5270     0.7830 C.ar  1 <1>  -0.1500 
 12 C       -2.1810     4.7570    -1.2650 C.ar  1 <1>  -0.1500 
 13 C       -2.1640    -2.8870    -0.5710 C.3   1 <1>   0.1200 
 14 C       -4.2680    -1.4610    -1.0080 C.3   1 <1>  -0.0170 
 15 O       -0.8440    -2.7350    -1.0050 O.3   1 <1>  -0.5600 
 16 C       -2.3720     1.0330     2.1410 C.3   1 <1>   0.1200 
 17 C       -2.0820     4.7340     0.1130 C.ar  1 <1>  -0.1500 
 18 C       -5.2340    -2.2930    -0.1570 C.ar  1 <1>  -0.1440 
 19 C       -2.4770    -0.4430     2.5080 C.3   1 <1>  -0.2400 
 20 C       -6.0740    -1.6570     0.7920 C.ar  1 <1>   0.0000 
 21 C       -5.3370    -3.6510    -0.2660 C.ar  1 <1>  -0.1500 
 22 C       -6.9080    -2.4770     1.5920 C.ar  1 <1>   0.3100 
 23 C       -6.1430    -0.2570     0.9940 C.ar  1 <1>  -0.1500 
 24 C       -6.2110    -4.3650     0.5620 C.ar  1 <1>   0.1600 
 25 N       -6.9650    -3.8260     1.4640 N.ar  1 <1>  -0.6200 
 26 C       -7.7250    -1.8780     2.5640 C.ar  1 <1>  -0.1500 
 27 C       -6.9540     0.2960     1.9470 C.ar  1 <1>  -0.1500 
 28 C       -7.7540    -0.5230     2.7470 C.ar  1 <1>  -0.1500 
 29 H       -1.4430    -0.0900    -0.8280 H     1 <1>   0.3700 
 30 H       -2.3820    -1.2250    -3.4340 H     1 <1>   0.0800 
 31 H       -2.3840     3.5990    -3.0370 H     1 <1>   0.1500 
 32 H       -3.4300    -2.9750    -2.2800 H     1 <1>   0.0800 
 33 H        0.0810    -1.5950    -2.4060 H     1 <1>   0.0800 
 34 H       -0.8160    -2.9940    -2.9940 H     1 <1>   0.0800 
 35 H       -2.0360     3.5480     1.8530 H     1 <1>   0.1500 
 36 H       -2.1600     5.6960    -1.7930 H     1 <1>   0.1500 
 37 H       -2.3760    -3.9370    -0.4710 H     1 <1>   0.0800 
 38 H       -2.2470    -2.4090     0.3890 H     1 <1>   0.0800 
 39 H       -4.8210    -0.9820    -1.7980 H     1 <1>   0.0800 
 40 H       -3.8730    -0.6900    -0.3770 H     1 <1>   0.0800 
 41 H       -1.4790     1.4620     2.5640 H     1 <1>   0.0800 
 42 H       -3.2420     1.5710     2.4770 H     1 <1>   0.0800 
 43 H       -1.9830     5.6570     0.6590 H     1 <1>   0.1500 
 44 H       -1.6100    -0.9750     2.1600 H     1 <1>   0.0800 
 45 H       -3.3650    -0.8730     2.0800 H     1 <1>   0.0800 
 46 H       -2.5340    -0.5480     3.5760 H     1 <1>   0.0800 
 47 H       -4.7650    -4.2200    -0.9730 H     1 <1>   0.1500 
 48 H       -5.5510     0.4010     0.3850 H     1 <1>   0.1500 
 49 H       -6.2550    -5.4350     0.4420 H     1 <1>   0.1500 
 50 H       -8.3360    -2.5280     3.1620 H     1 <1>   0.1500 
 51 H       -6.9920     1.3620     2.0880 H     1 <1>   0.1500 
 52 H       -8.3860    -0.0770     3.4960 H     1 <1>   0.1500 
@<TRIPOS>BOND
  1   1   2  2   
  2   2   3  am  
  3   2   4  1   
  4   3   5  1   
  5   3  29  1   
  6   4   6  ar  
  7   4   7  ar  
  8   5   8  1   
  9   5   9  1   
 10   5  30  1   
 11   6  10  1   
 12   6  11  ar  
 13   7  12  ar  
 14   7  31  1   
 15   8  13  1   
 16   8  14  1   
 17   8  32  1   
 18   9  15  1   
 19   9  33  1   
 20   9  34  1   
 21  10  16  1   
 22  11  17  ar  
 23  11  35  1   
 24  12  17  ar  
 25  12  36  1   
 26  13  15  1   
 27  13  37  1   
 28  13  38  1   
 29  14  18  1   
 30  14  39  1   
 31  14  40  1   
 32  16  19  1   
 33  16  41  1   
 34  16  42  1   
 35  17  43  1   
 36  18  20  ar  
 37  18  21  ar  
 38  19  44  1   
 39  19  45  1   
 40  19  46  1   
 41  20  22  ar  
 42  20  23  ar  
 43  21  24  ar  
 44  21  47  1   
 45  22  25  ar  
 46  22  26  ar  
 47  23  27  ar  
 48  23  48  1   
 49  24  25  ar  
 50  24  49  1   
 51  26  28  ar  
 52  26  50  1   
 53  27  28  ar  
 54  27  51  1   
 55  28  52  1   
@<TRIPOS>SUBSTRUCTURE
  1 ****  14 GROUP 4 **** **** 0

# MOE 2024.06 (io_trps.svl 2023.06)
