@<TRIPOS>MOLECULE
NONAME
34 35 1 0 0 
SMALL
USER_CHARGES


@<TRIPOS>ATOM
  1 O        0.0840     0.5650    -0.2610 O.2   1 <1>  -0.5700 
  2 C        0.0430     1.7870    -0.2690 C.2   1 <1>   0.6160 
  3 N       -0.9810     2.4700     0.3690 N.am  1 <1>  -0.4690 
  4 C        1.0360     2.5600    -0.9290 C.2   1 <1>  -0.1360 
  5 C       -1.0090     3.8440     0.3690 C.2   1 <1>  -0.0410 
  6 C       -2.0540     1.6970     1.0470 C.3   1 <1>   0.0600 
  7 C        1.0010     3.9190    -0.9250 C.2   1 <1>  -0.1500 
  8 C       -0.0470     4.6130    -0.2420 C.2   1 <1>   0.0140 
  9 C       -0.0980     6.0560    -0.1980 C.2   1 <1>   0.6160 
 10 O       -1.1590     6.6230    -0.0290 O.2   1 <1>  -0.5700 
 11 N        1.0620     6.7850    -0.3060 N.am  1 <1>  -0.4940 
 12 C        1.2420     8.1640    -0.4590 C.2   1 <1>   0.2040 
 13 O        0.2470     8.9780    -0.7240 O.3   1 <1>  -0.0190 
 14 C        2.3670     8.9040    -0.3920 C.2   1 <1>  -0.1810 
 15 N        0.6490    10.2180    -0.8350 N.2   1 <1>  -0.4100 
 16 C        1.9170    10.2010    -0.6380 C.2   1 <1>   0.1080 
 17 C        3.7950     8.4660    -0.1170 C.3   1 <1>   0.0210 
 18 C        2.7760    11.4470    -0.6770 C.3   1 <1>  -0.0590 
 19 C        4.1170     8.5930     1.3730 C.3   1 <1>  -0.2400 
 20 H        1.8040     2.0040    -1.4320 H     1 <1>   0.1500 
 21 H       -1.8300     4.3240     0.8780 H     1 <1>   0.1500 
 22 H       -1.6210     1.0840     1.8180 H     1 <1>   0.0800 
 23 H       -2.5430     1.0600     0.3300 H     1 <1>   0.0800 
 24 H       -2.7800     2.3580     1.4850 H     1 <1>   0.0800 
 25 H        1.7510     4.4850    -1.4490 H     1 <1>   0.1500 
 26 H        1.9180     6.2510    -0.1970 H     1 <1>   0.3700 
 27 H        4.4770     9.0680    -0.6910 H     1 <1>   0.0800 
 28 H        3.9250     7.4440    -0.4240 H     1 <1>   0.0800 
 29 H        3.2750    11.5790     0.2640 H     1 <1>   0.0800 
 30 H        2.1620    12.3090    -0.8670 H     1 <1>   0.0800 
 31 H        3.5060    11.3630    -1.4610 H     1 <1>   0.0800 
 32 H        4.0110     9.6150     1.6930 H     1 <1>   0.0800 
 33 H        5.1270     8.2760     1.5640 H     1 <1>   0.0800 
 34 H        3.4470     7.9830     1.9530 H     1 <1>   0.0800 
@<TRIPOS>BOND
  1   1   2  2   
  2   2   3  am  
  3   2   4  1   
  4   3   5  1   
  5   3   6  1   
  6   4   7  2   
  7   4  20  1   
  8   5   8  2   
  9   5  21  1   
 10   6  22  1   
 11   6  23  1   
 12   6  24  1   
 13   7   8  1   
 14   7  25  1   
 15   8   9  1   
 16   9  10  2   
 17   9  11  am  
 18  11  12  1   
 19  11  26  1   
 20  12  13  1   
 21  12  14  2   
 22  13  15  1   
 23  14  16  1   
 24  14  17  1   
 25  15  16  2   
 26  16  18  1   
 27  17  19  1   
 28  17  27  1   
 29  17  28  1   
 30  18  29  1   
 31  18  30  1   
 32  18  31  1   
 33  19  32  1   
 34  19  33  1   
 35  19  34  1   
@<TRIPOS>SUBSTRUCTURE
  1 ****  11 GROUP 4 **** **** 0

# MOE 2024.06 (io_trps.svl 2023.06)
