@<TRIPOS>MOLECULE
NONAME
41 42 1 0 0 
SMALL
USER_CHARGES


@<TRIPOS>ATOM
  1 S       -1.0100     0.6160     1.8270 S.o2  1 <1>   1.4470 
  2 O       -0.9350    -0.5790     2.6380 O.2   1 <1>  -0.6500 
  3 O       -1.7570     1.7490     2.3350 O.2   1 <1>  -0.6500 
  4 N       -1.6760     0.2370     0.3110 N.am  1 <1>  -0.8490 
  5 C        0.6650     1.1810     1.4180 C.ar  1 <1>  -0.0090 
  6 C       -0.9780    -0.8050    -0.4690 C.3   1 <1>   0.1960 
  7 C       -3.1330     0.0810     0.3020 C.3   1 <1>   0.1960 
  8 C        0.8790     2.4490     0.8890 C.ar  1 <1>  -0.1500 
  9 C        1.7700     0.3540     1.5950 C.ar  1 <1>  -0.1500 
 10 C       -1.3700    -2.2310    -0.0650 C.3   1 <1>  -0.1860 
 11 C       -3.5660    -1.3140     0.7600 C.3   1 <1>  -0.1600 
 12 C        2.1470     2.8880     0.5540 C.ar  1 <1>   0.0820 
 13 C        3.0440     0.7730     1.2520 C.ar  1 <1>  -0.1500 
 14 C       -0.7190    -3.2330    -0.9940 C.2   1 <1>   0.9060 
 15 C       -2.8890    -2.3740    -0.1010 C.3   1 <1>   0.2000 
 16 O        2.2650     4.1510     0.0780 O.3   1 <1>  -0.3630 
 17 C        3.2420     2.0330     0.7160 C.ar  1 <1>   0.0820 
 18 O        0.1400    -2.8510    -1.7940 O.co2 1 <1>  -0.9000 
 19 O       -1.0790    -4.4150    -0.9290 O.co2 1 <1>  -0.9000 
 20 O       -3.2320    -3.6160     0.3820 O.3   1 <1>  -0.6800 
 21 C        2.9650     5.0640     0.8940 C.3   1 <1>   0.0400 
 22 O        4.5040     2.3760     0.3630 O.3   1 <1>  -0.3620 
 23 C        4.7390     2.5480    -1.0170 C.3   1 <1>   0.0400 
 24 H       -1.2240    -0.6690    -1.5090 H     1 <1>   0.0800 
 25 H        0.0900    -0.6890    -0.3890 H     1 <1>   0.0800 
 26 H       -3.5920     0.8310     0.9250 H     1 <1>   0.0800 
 27 H       -3.4840     0.2390    -0.7040 H     1 <1>   0.0800 
 28 H        0.0410     3.1070     0.7380 H     1 <1>   0.1500 
 29 H        1.6290    -0.6350     2.0010 H     1 <1>   0.1500 
 30 H       -1.0070    -2.4360     0.9220 H     1 <1>   0.0800 
 31 H       -4.6320    -1.4050     0.6620 H     1 <1>   0.0800 
 32 H       -3.3050    -1.4550     1.7930 H     1 <1>   0.0800 
 33 H        3.8870     0.1190     1.3880 H     1 <1>   0.1500 
 34 H       -3.2360    -2.3140    -1.1190 H     1 <1>   0.0800 
 35 H       -2.5690    -4.2500    -0.0200 H     1 <1>   0.4000 
 36 H        2.8970     6.0380     0.4440 H     1 <1>   0.0800 
 37 H        3.9940     4.7640     0.9640 H     1 <1>   0.0800 
 38 H        2.5110     5.0760     1.8690 H     1 <1>   0.0800 
 39 H        5.7920     2.7070    -1.1620 H     1 <1>   0.0800 
 40 H        4.1880     3.4020    -1.3690 H     1 <1>   0.0800 
 41 H        4.4240     1.6600    -1.5370 H     1 <1>   0.0800 
@<TRIPOS>BOND
  1   1   2  2   
  2   1   3  2   
  3   1   4  am  
  4   1   5  1   
  5   4   6  1   
  6   4   7  1   
  7   5   8  ar  
  8   5   9  ar  
  9   6  10  1   
 10   6  24  1   
 11   6  25  1   
 12   7  11  1   
 13   7  26  1   
 14   7  27  1   
 15   8  12  ar  
 16   8  28  1   
 17   9  13  ar  
 18   9  29  1   
 19  10  14  1   
 20  10  15  1   
 21  10  30  1   
 22  11  15  1   
 23  11  31  1   
 24  11  32  1   
 25  12  16  1   
 26  12  17  ar  
 27  13  17  ar  
 28  13  33  1   
 29  14  18  ar  
 30  14  19  ar  
 31  15  20  1   
 32  15  34  1   
 33  16  21  1   
 34  17  22  1   
 35  20  35  1   
 36  21  36  1   
 37  21  37  1   
 38  21  38  1   
 39  22  23  1   
 40  23  39  1   
 41  23  40  1   
 42  23  41  1   
@<TRIPOS>SUBSTRUCTURE
  1 ****   5 GROUP 4 **** **** 0

# MOE 2024.06 (io_trps.svl 2023.06)
