@<TRIPOS>MOLECULE
NONAME
51 52 1 0 0 
SMALL
USER_CHARGES


@<TRIPOS>ATOM
  1 O       -2.3290     1.4260     3.2930 O.2   1 <1>  -0.5700 
  2 C       -2.4350     1.7040     2.1120 C.2   1 <1>   0.7670 
  3 N       -2.3720     0.7080     1.1790 N.2   1 <1>  -0.6610 
  4 C       -2.6020     3.0530     1.7070 C.2   1 <1>  -0.1360 
  5 C       -2.4820     1.0270    -0.0540 C.2   1 <1>   0.4390 
  6 C       -2.6930     3.3660     0.3940 C.2   1 <1>  -0.0380 
  7 N       -2.6440     2.3110    -0.4930 N.pl3 1 <1>  -0.5500 
  8 C       -2.4340    -0.0490    -1.1100 C.3   1 <1>  -0.1790 
  9 C       -2.8270     4.8040    -0.1020 C.3   1 <1>   0.4810 
 10 N       -1.4860     5.4840    -0.1340 N.4   1 <1>  -0.9590 
 11 C       -1.5050     6.9550    -0.4640 C.3   1 <1>   0.4230 
 12 C       -0.5410     4.7340    -1.0180 C.3   1 <1>   0.3430 
 13 C       -0.1120     7.5300    -0.1170 C.3   1 <1>  -0.1600 
 14 C       -2.6580     7.6940     0.2570 C.3   1 <1>  -0.1600 
 15 C        0.5350     4.0600    -0.1660 C.3   1 <1>  -0.1600 
 16 C        0.0870     9.0450    -0.2950 C.3   1 <1>  -0.1600 
 17 C       -2.8750     9.1230    -0.2650 C.3   1 <1>  -0.1600 
 18 C        1.4860     3.2380    -1.0440 C.3   1 <1>  -0.1600 
 19 C       -0.6180     9.8650     0.7910 C.3   1 <1>  -0.1600 
 20 C       -2.0800    10.2030     0.4780 C.3   1 <1>  -0.1600 
 21 C        2.5490     2.5430    -0.1910 C.3   1 <1>  -0.2400 
 22 H       -2.6390     3.7730     2.5030 H     1 <1>   0.1500 
 23 H       -2.7840     2.4210    -1.5030 H     1 <1>   0.4000 
 24 H       -3.3530    -0.0640    -1.6660 H     1 <1>   0.0800 
 25 H       -2.3030    -1.0110    -0.6460 H     1 <1>   0.0800 
 26 H       -1.6090     0.1210    -1.7770 H     1 <1>   0.0800 
 27 H       -3.4790     5.3190     0.5830 H     1 <1>   0.0800 
 28 H       -3.2830     4.8200    -1.0780 H     1 <1>   0.0800 
 29 H       -1.1070     5.4140     0.8170 H     1 <1>   0.4500 
 30 H       -1.6640     7.0710    -1.5240 H     1 <1>   0.0800 
 31 H       -0.0710     5.4000    -1.7230 H     1 <1>   0.0800 
 32 H       -1.0680     3.9840    -1.5830 H     1 <1>   0.0800 
 33 H        0.6250     7.0690    -0.7480 H     1 <1>   0.0800 
 34 H        0.1330     7.2800     0.9000 H     1 <1>   0.0800 
 35 H       -2.5020     7.7080     1.3220 H     1 <1>   0.0800 
 36 H       -3.5900     7.2020     0.0610 H     1 <1>   0.0800 
 37 H        0.0810     3.4000     0.5530 H     1 <1>   0.0800 
 38 H        1.1060     4.8050     0.3620 H     1 <1>   0.0800 
 39 H       -0.2120     9.3700    -1.2780 H     1 <1>   0.0800 
 40 H        1.1420     9.2450    -0.2120 H     1 <1>   0.0800 
 41 H       -3.9180     9.3750    -0.1670 H     1 <1>   0.0800 
 42 H       -2.6500     9.1690    -1.3180 H     1 <1>   0.0800 
 43 H        1.9760     3.8770    -1.7600 H     1 <1>   0.0800 
 44 H        0.9330     2.4880    -1.5850 H     1 <1>   0.0800 
 45 H       -0.0890    10.7960     0.9180 H     1 <1>   0.0800 
 46 H       -0.5590     9.3520     1.7360 H     1 <1>   0.0800 
 47 H       -2.5780    10.4360     1.4040 H     1 <1>   0.0800 
 48 H       -2.1050    11.1000    -0.1190 H     1 <1>   0.0800 
 49 H        3.1400     3.2640     0.3480 H     1 <1>   0.0800 
 50 H        3.2090     1.9700    -0.8190 H     1 <1>   0.0800 
 51 H        2.0920     1.8730     0.5170 H     1 <1>   0.0800 
@<TRIPOS>BOND
  1   1   2  2   
  2   2   3  1   
  3   2   4  1   
  4   3   5  2   
  5   4   6  2   
  6   4  22  1   
  7   5   7  1   
  8   5   8  1   
  9   6   7  1   
 10   6   9  1   
 11   7  23  1   
 12   8  24  1   
 13   8  25  1   
 14   8  26  1   
 15   9  10  1   
 16   9  27  1   
 17   9  28  1   
 18  10  11  1   
 19  10  12  1   
 20  10  29  1   
 21  11  13  1   
 22  11  14  1   
 23  11  30  1   
 24  12  15  1   
 25  12  31  1   
 26  12  32  1   
 27  13  16  1   
 28  13  33  1   
 29  13  34  1   
 30  14  17  1   
 31  14  35  1   
 32  14  36  1   
 33  15  18  1   
 34  15  37  1   
 35  15  38  1   
 36  16  19  1   
 37  16  39  1   
 38  16  40  1   
 39  17  20  1   
 40  17  41  1   
 41  17  42  1   
 42  18  21  1   
 43  18  43  1   
 44  18  44  1   
 45  19  20  1   
 46  19  45  1   
 47  19  46  1   
 48  20  47  1   
 49  20  48  1   
 50  21  49  1   
 51  21  50  1   
 52  21  51  1   
@<TRIPOS>SUBSTRUCTURE
  1 ****  10 GROUP 4 **** **** 0

# MOE 2024.06 (io_trps.svl 2023.06)
