@<TRIPOS>MOLECULE
NONAME
51 54 1 0 0 
SMALL
USER_CHARGES


@<TRIPOS>ATOM
  1 O        0.5680     0.2620     0.2850 O.3   1 <1>  -0.5600 
  2 C        1.8340    -0.2690     0.0180 C.3   1 <1>   0.3440 
  3 C        0.5500     1.6430     0.5200 C.3   1 <1>   0.2000 
  4 C        1.7090    -1.7530    -0.3020 C.ar  1 <1>  -0.1440 
  5 C        2.7500    -0.0650     1.2450 C.3   1 <1>   0.2090 
  6 C       -0.9260     2.0900     0.6460 C.3   1 <1>  -0.0800 
  7 C        1.3950     1.9620     1.7780 C.3   1 <1>   0.2090 
  8 C        0.8290    -2.5650     0.4020 C.ar  1 <1>  -0.1500 
  9 C        2.4940    -2.3150    -1.2990 C.ar  1 <1>  -0.1500 
 10 N        2.7790     1.3690     1.7030 N.pl3 1 <1>  -0.8380 
 11 C       -1.7360     1.7150    -0.6070 C.3   1 <1>  -0.2400 
 12 C       -1.0590     3.6040     0.8800 C.3   1 <1>  -0.2400 
 13 C        0.7430    -3.9170     0.1210 C.ar  1 <1>  -0.1500 
 14 C        2.4080    -3.6680    -1.5820 C.ar  1 <1>  -0.1500 
 15 C        3.8300     2.1630     1.3770 C.ar  1 <1>   0.7710 
 16 C        1.5340    -4.4700    -0.8700 C.ar  1 <1>  -0.1500 
 17 N        4.9550     2.0020     2.1280 N.ar  1 <1>  -0.1790 
 18 N        3.7360     3.0210     0.3980 N.ar  1 <1>  -0.5670 
 19 C        6.0770     2.7020     1.9220 C.ar  1 <1>   0.4610 
 20 C        4.8550     3.7490     0.1550 C.ar  1 <1>   0.1050 
 21 N        7.1590     2.5060     2.6940 N.pl3 1 <1>  -0.9000 
 22 C        6.0230     3.6260     0.8710 C.ar  1 <1>   0.0000 
 23 N        5.0750     4.7010    -0.7860 N.pl3 1 <1>   0.3140 
 24 C        6.8880     4.5560     0.2750 C.2   1 <1>   0.1390 
 25 N        6.3350     5.1920    -0.7020 N.2   1 <1>  -0.7070 
 26 C        4.1340     5.2000    -1.8010 C.3   1 <1>   0.0160 
 27 H        2.2370     0.2480    -0.8350 H     1 <1>   0.0800 
 28 H        0.9840     2.1320    -0.3350 H     1 <1>   0.0800 
 29 H        3.7390    -0.4020     0.9900 H     1 <1>   0.0800 
 30 H        2.3880    -0.6880     2.0460 H     1 <1>   0.0800 
 31 H       -1.3600     1.5810     1.4910 H     1 <1>   0.0800 
 32 H        0.8880     1.5710     2.6440 H     1 <1>   0.0800 
 33 H        1.4660     3.0290     1.8980 H     1 <1>   0.0800 
 34 H        0.2020    -2.1450     1.1690 H     1 <1>   0.1500 
 35 H        3.1770    -1.7090    -1.8680 H     1 <1>   0.1500 
 36 H       -1.3250     2.1850    -1.4820 H     1 <1>   0.0800 
 37 H       -2.7610     2.0230    -0.4990 H     1 <1>   0.0800 
 38 H       -1.7290     0.6490    -0.7570 H     1 <1>   0.0800 
 39 H       -0.5800     4.1550     0.0900 H     1 <1>   0.0800 
 40 H       -0.6280     3.8950     1.8210 H     1 <1>   0.0800 
 41 H       -2.0990     3.8840     0.9030 H     1 <1>   0.0800 
 42 H        0.0580    -4.5380     0.6710 H     1 <1>   0.1500 
 43 H        3.0180    -4.0980    -2.3570 H     1 <1>   0.1500 
 44 H        1.4660    -5.5210    -1.0900 H     1 <1>   0.1500 
 45 H        4.8620     1.3380     2.8840 H     1 <1>   0.4570 
 46 H        7.2490     1.8470     3.4760 H     1 <1>   0.4000 
 47 H        8.0310     3.0360     2.5560 H     1 <1>   0.4000 
 48 H        7.9040     4.7290     0.5900 H     1 <1>   0.1500 
 49 H        3.2030     4.6700    -1.7300 H     1 <1>   0.0800 
 50 H        4.5620     5.0540    -2.7750 H     1 <1>   0.0800 
 51 H        3.9690     6.2490    -1.6380 H     1 <1>   0.0800 
@<TRIPOS>BOND
  1   1   2  1   
  2   1   3  1   
  3   2   4  1   
  4   2   5  1   
  5   2  27  1   
  6   3   6  1   
  7   3   7  1   
  8   3  28  1   
  9   4   8  ar  
 10   4   9  ar  
 11   5  10  1   
 12   5  29  1   
 13   5  30  1   
 14   6  11  1   
 15   6  12  1   
 16   6  31  1   
 17   7  10  1   
 18   7  32  1   
 19   7  33  1   
 20   8  13  ar  
 21   8  34  1   
 22   9  14  ar  
 23   9  35  1   
 24  10  15  1   
 25  11  36  1   
 26  11  37  1   
 27  11  38  1   
 28  12  39  1   
 29  12  40  1   
 30  12  41  1   
 31  13  16  ar  
 32  13  42  1   
 33  14  16  ar  
 34  14  43  1   
 35  15  17  ar  
 36  15  18  ar  
 37  16  44  1   
 38  17  19  ar  
 39  17  45  1   
 40  18  20  ar  
 41  19  21  1   
 42  19  22  ar  
 43  20  22  ar  
 44  20  23  1   
 45  21  46  1   
 46  21  47  1   
 47  22  24  1   
 48  23  25  1   
 49  23  26  1   
 50  24  25  2   
 51  24  48  1   
 52  26  49  1   
 53  26  50  1   
 54  26  51  1   
@<TRIPOS>SUBSTRUCTURE
  1 ****  10 GROUP 4 **** **** 0

# MOE 2024.06 (io_trps.svl 2023.06)
