@<TRIPOS>MOLECULE
NONAME
51 53 1 0 0 
SMALL
USER_CHARGES


@<TRIPOS>ATOM
  1 O       -1.1290     0.1800     1.6300 O.2   1 <1>  -0.5700 
  2 C       -1.8930     0.9800     1.1480 C.2   1 <1>   0.5690 
  3 N       -1.5600     2.2800     0.9850 N.am  1 <1>  -0.7300 
  4 C       -3.2730     0.4930     0.7120 C.3   1 <1>  -0.0190 
  5 C       -0.2490     2.8450     1.3420 C.3   1 <1>   0.2840 
  6 C       -4.0610    -0.0470     1.9210 C.3   1 <1>  -0.1600 
  7 C       -3.1440    -0.5900    -0.3780 C.3   1 <1>  -0.1600 
  8 C       -0.1710     4.2310     0.7320 C.ar  1 <1>  -0.1440 
  9 C       -5.3710    -0.7160     1.5130 C.3   1 <1>   0.3430 
 10 C       -4.4830    -1.2420    -0.7140 C.3   1 <1>   0.3430 
 11 C        0.3510     4.4080    -0.5410 C.ar  1 <1>  -0.1500 
 12 C       -0.6330     5.3330     1.4370 C.ar  1 <1>  -0.1500 
 13 N       -5.0840    -1.8060     0.5330 N.4   1 <1>  -0.9590 
 14 C        0.4120     5.6710    -1.1060 C.ar  1 <1>  -0.1500 
 15 C       -0.5730     6.5950     0.8740 C.ar  1 <1>  -0.1500 
 16 C       -6.3230    -2.6160     0.2810 C.3   1 <1>   0.3430 
 17 C       -0.0520     6.7750    -0.3970 C.ar  1 <1>   0.0820 
 18 C       -6.0430    -3.9200    -0.4790 C.3   1 <1>   0.0960 
 19 O       -0.0300     8.0440    -0.8750 O.3   1 <1>  -0.3630 
 20 N       -7.2980    -4.6800    -0.5790 N.pl3 1 <1>   0.0480 
 21 C        0.4990     8.3400    -2.1480 C.3   1 <1>   0.0400 
 22 C       -8.2450    -4.6060    -1.5160 C.2   1 <1>   0.0360 
 23 C       -7.8030    -5.5680     0.2790 C.2   1 <1>   0.0360 
 24 N       -9.2430    -5.3700    -1.2440 N.2   1 <1>  -0.3380 
 25 N       -8.9600    -5.9850    -0.0950 N.2   1 <1>  -0.3380 
 26 H       -2.1900     2.9630     0.5620 H     1 <1>   0.3700 
 27 H       -3.8130     1.3280     0.3000 H     1 <1>   0.0800 
 28 H        0.5380     2.2150     0.9620 H     1 <1>   0.0800 
 29 H       -0.1570     2.8980     2.4140 H     1 <1>   0.0800 
 30 H       -4.2740     0.7650     2.5960 H     1 <1>   0.0800 
 31 H       -3.4600    -0.7570     2.4650 H     1 <1>   0.0800 
 32 H       -2.4540    -1.3520    -0.0590 H     1 <1>   0.0800 
 33 H       -2.7330    -0.1470    -1.2690 H     1 <1>   0.0800 
 34 H       -6.0310     0.0140     1.0720 H     1 <1>   0.0800 
 35 H       -5.8500    -1.1200     2.3910 H     1 <1>   0.0800 
 36 H       -4.3190    -2.0230    -1.4400 H     1 <1>   0.0800 
 37 H       -5.1470    -0.5100    -1.1450 H     1 <1>   0.0800 
 38 H        0.7110     3.5610    -1.0990 H     1 <1>   0.1500 
 39 H       -1.0400     5.2140     2.4260 H     1 <1>   0.1500 
 40 H       -4.3670    -2.4020     0.9760 H     1 <1>   0.4500 
 41 H        0.8220     5.7750    -2.0930 H     1 <1>   0.1500 
 42 H       -0.9290     7.4520     1.4170 H     1 <1>   0.1500 
 43 H       -7.0330    -2.0250    -0.2760 H     1 <1>   0.0800 
 44 H       -6.7740    -2.8700     1.2280 H     1 <1>   0.0800 
 45 H       -5.3230    -4.5200     0.0490 H     1 <1>   0.0800 
 46 H       -5.6850    -3.7200    -1.4730 H     1 <1>   0.0800 
 47 H        0.4160     9.4010    -2.3050 H     1 <1>   0.0800 
 48 H       -0.0710     7.8150    -2.8940 H     1 <1>   0.0800 
 49 H        1.5330     8.0470    -2.1730 H     1 <1>   0.0800 
 50 H       -8.1840    -3.9830    -2.3900 H     1 <1>   0.1500 
 51 H       -7.3040    -5.8920     1.1750 H     1 <1>   0.1500 
@<TRIPOS>BOND
  1   1   2  2   
  2   2   3  am  
  3   2   4  1   
  4   3   5  1   
  5   3  26  1   
  6   4   6  1   
  7   4   7  1   
  8   4  27  1   
  9   5   8  1   
 10   5  28  1   
 11   5  29  1   
 12   6   9  1   
 13   6  30  1   
 14   6  31  1   
 15   7  10  1   
 16   7  32  1   
 17   7  33  1   
 18   8  11  ar  
 19   8  12  ar  
 20   9  13  1   
 21   9  34  1   
 22   9  35  1   
 23  10  13  1   
 24  10  36  1   
 25  10  37  1   
 26  11  14  ar  
 27  11  38  1   
 28  12  15  ar  
 29  12  39  1   
 30  13  16  1   
 31  13  40  1   
 32  14  17  ar  
 33  14  41  1   
 34  15  17  ar  
 35  15  42  1   
 36  16  18  1   
 37  16  43  1   
 38  16  44  1   
 39  17  19  1   
 40  18  20  1   
 41  18  45  1   
 42  18  46  1   
 43  19  21  1   
 44  20  22  1   
 45  20  23  1   
 46  21  47  1   
 47  21  48  1   
 48  21  49  1   
 49  22  24  2   
 50  22  50  1   
 51  23  25  2   
 52  23  51  1   
 53  24  25  1   
@<TRIPOS>SUBSTRUCTURE
  1 ****   4 GROUP 4 **** **** 0

# MOE 2024.06 (io_trps.svl 2023.06)
