@<TRIPOS>MOLECULE
NONAME
45 46 1 0 0 
SMALL
USER_CHARGES


@<TRIPOS>ATOM
  1 O       -1.2810     0.0070    -2.1970 O.2   1 <1>  -0.5700 
  2 C       -2.0370     0.7150    -1.5740 C.2   1 <1>   0.5690 
  3 N       -3.2760     0.2610    -1.1920 N.am  1 <1>  -0.6600 
  4 C       -1.5440     2.1280    -1.2630 C.3   1 <1>  -0.0990 
  5 C       -3.7370    -1.0930    -1.6110 C.3   1 <1>   0.3200 
  6 C       -4.3030     1.0530    -0.4460 C.3   1 <1>   0.1400 
  7 C       -0.1930     2.1610    -0.5200 C.3   1 <1>  -0.0800 
  8 C       -3.7730    -2.0170    -0.4110 C.2   1 <1>  -0.3320 
  9 C       -4.0900     0.9570     1.0690 C.3   1 <1>   0.1200 
 10 C       -0.3170     1.6110     0.9120 C.3   1 <1>  -0.1600 
 11 C        0.3650     3.5950    -0.4860 C.3   1 <1>  -0.1600 
 12 N       -2.6850    -2.5700     0.1620 N.pl3 1 <1>   0.0480 
 13 C       -4.8420    -2.4610     0.2880 C.2   1 <1>   0.0770 
 14 O       -4.8680     1.9190     1.7000 O.3   1 <1>  -0.6800 
 15 C        1.0300     1.6580     1.6460 C.3   1 <1>  -0.1600 
 16 C        1.7100     3.6560     0.2510 C.3   1 <1>  -0.1600 
 17 C       -3.1760    -3.3090     1.1820 C.2   1 <1>   0.0360 
 18 C       -1.2720    -2.4470    -0.2430 C.3   1 <1>   0.0160 
 19 N       -4.4640    -3.2690     1.2930 N.2   1 <1>  -0.5650 
 20 C        1.5950     3.0830     1.6690 C.3   1 <1>  -0.1600 
 21 H       -2.2580     2.6870    -0.6960 H     1 <1>   0.0800 
 22 H       -1.4290     2.6240    -2.2090 H     1 <1>   0.0800 
 23 H       -3.0960    -1.5070    -2.3700 H     1 <1>   0.0800 
 24 H       -4.7220    -1.0150    -2.0380 H     1 <1>   0.0800 
 25 H       -5.2860     0.6810    -0.6770 H     1 <1>   0.0800 
 26 H       -4.2690     2.0790    -0.7620 H     1 <1>   0.0800 
 27 H        0.5070     1.5470    -1.0630 H     1 <1>   0.0800 
 28 H       -3.0640     1.1280     1.3350 H     1 <1>   0.0800 
 29 H       -4.3980    -0.0070     1.4340 H     1 <1>   0.0800 
 30 H       -0.6670     0.5950     0.8890 H     1 <1>   0.0800 
 31 H       -1.0300     2.1980     1.4630 H     1 <1>   0.0800 
 32 H       -0.3360     4.2460     0.0070 H     1 <1>   0.0800 
 33 H        0.5020     3.9560    -1.4910 H     1 <1>   0.0800 
 34 H       -5.8830    -2.2360     0.1220 H     1 <1>   0.1500 
 35 H       -4.4780     2.8090     1.6030 H     1 <1>   0.4000 
 36 H        1.7290     1.0050     1.1510 H     1 <1>   0.0800 
 37 H        0.9040     1.3040     2.6550 H     1 <1>   0.0800 
 38 H        2.0500     4.6760     0.3010 H     1 <1>   0.0800 
 39 H        2.4440     3.0920    -0.3010 H     1 <1>   0.0800 
 40 H       -2.5350    -3.8770     1.8330 H     1 <1>   0.1500 
 41 H       -1.1910    -2.5780    -1.3060 H     1 <1>   0.0800 
 42 H       -0.6850    -3.1970     0.2540 H     1 <1>   0.0800 
 43 H       -0.9100    -1.4730     0.0220 H     1 <1>   0.0800 
 44 H        2.5650     3.0790     2.1360 H     1 <1>   0.0800 
 45 H        0.9500     3.7130     2.2570 H     1 <1>   0.0800 
@<TRIPOS>BOND
  1   1   2  2   
  2   2   3  am  
  3   2   4  1   
  4   3   5  1   
  5   3   6  1   
  6   4   7  1   
  7   4  21  1   
  8   4  22  1   
  9   5   8  1   
 10   5  23  1   
 11   5  24  1   
 12   6   9  1   
 13   6  25  1   
 14   6  26  1   
 15   7  10  1   
 16   7  11  1   
 17   7  27  1   
 18   8  12  1   
 19   8  13  2   
 20   9  14  1   
 21   9  28  1   
 22   9  29  1   
 23  10  15  1   
 24  10  30  1   
 25  10  31  1   
 26  11  16  1   
 27  11  32  1   
 28  11  33  1   
 29  12  17  1   
 30  12  18  1   
 31  13  19  1   
 32  13  34  1   
 33  14  35  1   
 34  15  20  1   
 35  15  36  1   
 36  15  37  1   
 37  16  20  1   
 38  16  38  1   
 39  16  39  1   
 40  17  19  2   
 41  17  40  1   
 42  18  41  1   
 43  18  42  1   
 44  18  43  1   
 45  20  44  1   
 46  20  45  1   
@<TRIPOS>SUBSTRUCTURE
  1 ****   2 GROUP 4 **** **** 0

# MOE 2024.06 (io_trps.svl 2023.06)
