@<TRIPOS>MOLECULE
NONAME
46 49 1 0 0 
SMALL
USER_CHARGES


@<TRIPOS>ATOM
  1 S        0.4180    -0.0750    -0.3380 S.3   1 <1>  -0.0800 
  2 C        0.1990     1.6410    -0.2280 C.2   1 <1>   0.4620 
  3 C       -1.0760    -0.2830     0.5320 C.2   1 <1>   0.3250 
  4 N       -0.8870     1.9350     0.4010 N.2   1 <1>  -0.3380 
  5 N        1.1270     2.5080    -0.7750 N.pl3 1 <1>  -0.8220 
  6 N       -1.5970     0.8570     0.8240 N.2   1 <1>  -0.3380 
  7 C       -1.5670    -1.6100     0.8310 C.ar  1 <1>   0.0530 
  8 C        0.9430     3.9790    -0.6510 C.3   1 <1>   0.2090 
  9 C        2.3570     2.0910    -1.5020 C.3   1 <1>   0.2090 
 10 C       -2.7510    -1.7660     1.5580 C.ar  1 <1>  -0.1500 
 11 C       -0.9160    -2.7810     0.4280 C.ar  1 <1>  -0.1500 
 12 C        2.1540     4.5780     0.0640 C.3   1 <1>  -0.1600 
 13 C        3.5790     2.6740    -0.7920 C.3   1 <1>  -0.1600 
 14 C       -3.2580    -3.0130     1.8690 C.ar  1 <1>  -0.1500 
 15 C       -1.4190    -4.0330     0.7360 C.ar  1 <1>  -0.1500 
 16 C        3.4650     4.2000    -0.6460 C.3   1 <1>   0.1000 
 17 C       -2.5920    -4.1530     1.4570 C.ar  1 <1>  -0.1500 
 18 C        4.6740     4.7770     0.0780 C.2   1 <1>   0.2980 
 19 O        4.9140     4.4130     1.3140 O.3   1 <1>  -0.0190 
 20 N        5.5020     5.6050    -0.4200 N.2   1 <1>  -0.5650 
 21 N        5.9900     5.0670     1.6290 N.2   1 <1>  -0.4100 
 22 C        6.3240     5.7580     0.6110 C.2   1 <1>   0.3350 
 23 C        7.5310     6.6950     0.5160 C.3   1 <1>   0.1010 
 24 C        8.6850     6.2620     1.4340 C.3   1 <1>  -0.2400 
 25 C        7.1200     8.1400     0.8330 C.3   1 <1>  -0.2400 
 26 H        0.0480     4.2100    -0.0970 H     1 <1>   0.0800 
 27 H        0.8420     4.4060    -1.6350 H     1 <1>   0.0800 
 28 H        2.3080     2.4610    -2.5120 H     1 <1>   0.0800 
 29 H        2.4490     1.0210    -1.5480 H     1 <1>   0.0800 
 30 H       -3.2830    -0.8890     1.8870 H     1 <1>   0.1500 
 31 H       -0.0030    -2.7290    -0.1350 H     1 <1>   0.1500 
 32 H        2.1650     4.2190     1.0780 H     1 <1>   0.0800 
 33 H        2.0550     5.6490     0.0950 H     1 <1>   0.0800 
 34 H        4.4650     2.4310    -1.3500 H     1 <1>   0.0800 
 35 H        3.6650     2.2160     0.1790 H     1 <1>   0.0800 
 36 H       -4.1720    -3.0980     2.4310 H     1 <1>   0.1500 
 37 H       -0.8970    -4.9170     0.4130 H     1 <1>   0.1500 
 38 H        3.4460     4.6310    -1.6320 H     1 <1>   0.0800 
 39 H       -2.9840    -5.1260     1.6970 H     1 <1>   0.1500 
 40 H        7.8850     6.6600    -0.5000 H     1 <1>   0.0800 
 41 H        8.3820     6.3060     2.4650 H     1 <1>   0.0800 
 42 H        9.5370     6.9040     1.2950 H     1 <1>   0.0800 
 43 H        8.9750     5.2520     1.2060 H     1 <1>   0.0800 
 44 H        6.7480     8.2070     1.8410 H     1 <1>   0.0800 
 45 H        6.3420     8.4550     0.1600 H     1 <1>   0.0800 
 46 H        7.9580     8.8030     0.7240 H     1 <1>   0.0800 
@<TRIPOS>BOND
  1   1   2  1   
  2   1   3  1   
  3   2   4  2   
  4   2   5  1   
  5   3   6  2   
  6   3   7  1   
  7   4   6  1   
  8   5   8  1   
  9   5   9  1   
 10   7  10  ar  
 11   7  11  ar  
 12   8  12  1   
 13   8  26  1   
 14   8  27  1   
 15   9  13  1   
 16   9  28  1   
 17   9  29  1   
 18  10  14  ar  
 19  10  30  1   
 20  11  15  ar  
 21  11  31  1   
 22  12  16  1   
 23  12  32  1   
 24  12  33  1   
 25  13  16  1   
 26  13  34  1   
 27  13  35  1   
 28  14  17  ar  
 29  14  36  1   
 30  15  17  ar  
 31  15  37  1   
 32  16  18  1   
 33  16  38  1   
 34  17  39  1   
 35  18  19  1   
 36  18  20  2   
 37  19  21  1   
 38  20  22  1   
 39  21  22  2   
 40  22  23  1   
 41  23  24  1   
 42  23  25  1   
 43  23  40  1   
 44  24  41  1   
 45  24  42  1   
 46  24  43  1   
 47  25  44  1   
 48  25  45  1   
 49  25  46  1   
@<TRIPOS>SUBSTRUCTURE
  1 ****   5 GROUP 4 **** **** 0

# MOE 2024.06 (io_trps.svl 2023.06)
