@<TRIPOS>MOLECULE
NONAME
52 54 1 0 0 
SMALL
USER_CHARGES


@<TRIPOS>ATOM
  1 S        0.2940     0.5560     0.4500 S.3   1 <1>  -0.3320 
  2 C        1.6120    -0.6030     0.8250 C.ar  1 <1>   0.4120 
  3 C       -1.1360    -0.4980    -0.0600 C.3   1 <1>   0.0700 
  4 N        1.2980    -1.8800     0.6490 N.ar  1 <1>  -0.6200 
  5 C        2.8420    -0.1100     1.2630 C.ar  1 <1>   0.0860 
  6 C       -2.3090     0.4220    -0.3950 C.3   1 <1>  -0.0160 
  7 C        2.2590    -2.7380     0.9470 C.ar  1 <1>   0.1600 
  8 C        3.0920     1.3030     1.3950 C.2   1 <1>   0.5440 
  9 C        3.8200    -1.0450     1.5720 C.ar  1 <1>  -0.1500 
 10 C       -3.5120    -0.3970    -0.8300 C.ar  1 <1>  -0.1440 
 11 C        3.5150    -2.3790     1.4070 C.ar  1 <1>  -0.1500 
 12 O        2.9170     1.8200     2.4830 O.2   1 <1>  -0.5700 
 13 N        3.5480     2.0720     0.3380 N.am  1 <1>  -0.6600 
 14 C       -4.4260    -0.8500     0.1090 C.ar  1 <1>  -0.1500 
 15 C       -3.7040    -0.7040    -2.1690 C.ar  1 <1>  -0.1500 
 16 C        3.5360     3.5680     0.4800 C.3   1 <1>   0.2200 
 17 C        4.0560     1.4460    -0.9230 C.3   1 <1>   0.1400 
 18 C       -5.5200    -1.6000    -0.2850 C.ar  1 <1>  -0.1500 
 19 C       -4.7970    -1.4540    -2.5640 C.ar  1 <1>  -0.1500 
 20 C        2.1340     4.1160     0.1990 C.3   1 <1>  -0.1600 
 21 C        4.5740     4.3070    -0.3720 C.3   1 <1>  -0.1600 
 22 C        3.0300     1.5470    -2.0500 C.3   1 <1>  -0.2400 
 23 C       -5.7070    -1.9030    -1.6230 C.ar  1 <1>  -0.1500 
 24 C        2.1300     5.6400     0.3410 C.3   1 <1>   0.1200 
 25 C        4.4210     5.8170    -0.1690 C.3   1 <1>   0.1200 
 26 O        3.1140     6.1900    -0.4830 O.3   1 <1>  -0.5600 
 27 H       -1.3670    -1.1510     0.7620 H     1 <1>   0.0800 
 28 H       -0.8270    -1.0730    -0.9150 H     1 <1>   0.0800 
 29 H       -2.0230     1.0960    -1.1830 H     1 <1>   0.0800 
 30 H       -2.5610     1.0100     0.4700 H     1 <1>   0.0800 
 31 H        2.0340    -3.7840     0.8200 H     1 <1>   0.1500 
 32 H        4.7830    -0.7260     1.9330 H     1 <1>   0.1500 
 33 H        4.2420    -3.1390     1.6340 H     1 <1>   0.1500 
 34 H       -4.2890    -0.6210     1.1510 H     1 <1>   0.1500 
 35 H       -3.0020    -0.3610    -2.9080 H     1 <1>   0.1500 
 36 H        3.7680     3.8050     1.5060 H     1 <1>   0.0800 
 37 H        4.2790     0.4070    -0.7550 H     1 <1>   0.0800 
 38 H        4.9810     1.9070    -1.2220 H     1 <1>   0.0800 
 39 H       -6.2260    -1.9480     0.4480 H     1 <1>   0.1500 
 40 H       -4.9410    -1.6890    -3.6050 H     1 <1>   0.1500 
 41 H        1.4360     3.6950     0.9000 H     1 <1>   0.0800 
 42 H        1.8150     3.8610    -0.7930 H     1 <1>   0.0800 
 43 H        4.4360     4.1060    -1.4170 H     1 <1>   0.0800 
 44 H        5.5640     4.0080    -0.0810 H     1 <1>   0.0800 
 45 H        2.0930     1.1190    -1.7470 H     1 <1>   0.0800 
 46 H        3.3860     1.0060    -2.9080 H     1 <1>   0.0800 
 47 H        2.8790     2.5690    -2.3420 H     1 <1>   0.0800 
 48 H       -6.5570    -2.4860    -1.9300 H     1 <1>   0.1500 
 49 H        2.3250     5.9380     1.3570 H     1 <1>   0.0800 
 50 H        1.1800     6.0440     0.0340 H     1 <1>   0.0800 
 51 H        5.0820     6.3560    -0.8240 H     1 <1>   0.0800 
 52 H        4.6260     6.1010     0.8500 H     1 <1>   0.0800 
@<TRIPOS>BOND
  1   1   2  1   
  2   1   3  1   
  3   2   4  ar  
  4   2   5  ar  
  5   3   6  1   
  6   3  27  1   
  7   3  28  1   
  8   4   7  ar  
  9   5   8  1   
 10   5   9  ar  
 11   6  10  1   
 12   6  29  1   
 13   6  30  1   
 14   7  11  ar  
 15   7  31  1   
 16   8  12  2   
 17   8  13  am  
 18   9  11  ar  
 19   9  32  1   
 20  10  14  ar  
 21  10  15  ar  
 22  11  33  1   
 23  13  16  1   
 24  13  17  1   
 25  14  18  ar  
 26  14  34  1   
 27  15  19  ar  
 28  15  35  1   
 29  16  20  1   
 30  16  21  1   
 31  16  36  1   
 32  17  22  1   
 33  17  37  1   
 34  17  38  1   
 35  18  23  ar  
 36  18  39  1   
 37  19  23  ar  
 38  19  40  1   
 39  20  24  1   
 40  20  41  1   
 41  20  42  1   
 42  21  25  1   
 43  21  43  1   
 44  21  44  1   
 45  22  45  1   
 46  22  46  1   
 47  22  47  1   
 48  23  48  1   
 49  24  26  1   
 50  24  49  1   
 51  24  50  1   
 52  25  26  1   
 53  25  51  1   
 54  25  52  1   
@<TRIPOS>SUBSTRUCTURE
  1 ****   1 GROUP 4 **** **** 0

# MOE 2024.06 (io_trps.svl 2023.06)
