@<TRIPOS>MOLECULE
NONAME
60 62 1 0 0 
SMALL
USER_CHARGES


@<TRIPOS>ATOM
  1 O       -0.3130     0.4370    -0.4770 O.2   1 <1>  -0.5700 
  2 C       -1.3660     0.9110    -0.8610 C.2   1 <1>   0.5440 
  3 N       -1.3960     2.2270    -1.2840 N.am  1 <1>  -0.6600 
  4 C       -2.5540     0.0830    -0.8420 C.ar  1 <1>   0.0860 
  5 C       -2.6500     3.0180    -1.4230 C.3   1 <1>   0.1400 
  6 C       -0.1460     3.0230    -1.4340 C.3   1 <1>   0.1400 
  7 C       -2.9900    -0.5040     0.3430 C.ar  1 <1>  -0.1500 
  8 C       -3.2970    -0.1560    -1.9950 C.ar  1 <1>  -0.1500 
  9 C       -2.6540     4.1500    -0.3930 C.3   1 <1>  -0.1600 
 10 C       -0.1300     4.1490    -0.3970 C.3   1 <1>  -0.1600 
 11 C       -4.1370    -1.2900     0.4050 C.ar  1 <1>   0.0830 
 12 C       -4.4380    -0.9330    -1.9560 C.ar  1 <1>  -0.1500 
 13 C       -1.3900     5.0300    -0.4960 C.3   1 <1>  -0.0190 
 14 O       -4.5400    -1.8430     1.5870 O.3   1 <1>  -0.3630 
 15 C       -4.8780    -1.5050    -0.7730 C.ar  1 <1>   0.0830 
 16 C       -1.3560     6.1500     0.5460 C.2   1 <1>   0.5690 
 17 C       -3.7630    -1.7620     2.7630 C.3   1 <1>   0.0400 
 18 O       -6.0200    -2.2360    -0.9050 O.3   1 <1>  -0.3620 
 19 O       -1.9550     6.0160     1.5860 O.2   1 <1>  -0.5700 
 20 N       -0.6200     7.2620     0.2410 N.am  1 <1>  -0.4940 
 21 C       -6.6150    -2.9680     0.1420 C.3   1 <1>   0.0400 
 22 C       -0.3370     8.4400     0.9750 C.2   1 <1>  -0.0880 
 23 N       -1.1280     9.0840     1.8810 N.pl3 1 <1>   0.3140 
 24 C        0.7980     9.1740     0.8760 C.2   1 <1>  -0.1810 
 25 N       -0.5290    10.2020     2.3480 N.2   1 <1>  -0.7070 
 26 C       -2.4970     8.7690     2.3080 C.3   1 <1>   0.0160 
 27 C        0.6150    10.2440     1.7470 C.2   1 <1>   0.1080 
 28 C        2.0190     8.9000     0.0150 C.3   1 <1>   0.0210 
 29 C        1.6050    11.3580     2.0040 C.3   1 <1>  -0.0590 
 30 C        1.8700     9.5640    -1.3550 C.3   1 <1>  -0.2400 
 31 H       -3.5180     2.4020    -1.2680 H     1 <1>   0.0800 
 32 H       -2.7010     3.4240    -2.4190 H     1 <1>   0.0800 
 33 H       -0.1110     3.4330    -2.4280 H     1 <1>   0.0800 
 34 H        0.7230     2.4000    -1.3050 H     1 <1>   0.0800 
 35 H       -2.3920    -0.3150     1.2140 H     1 <1>   0.1500 
 36 H       -2.9710     0.2720    -2.9260 H     1 <1>   0.1500 
 37 H       -2.7160     3.7160     0.5910 H     1 <1>   0.0800 
 38 H       -3.5310     4.7580    -0.5340 H     1 <1>   0.0800 
 39 H        0.7520     4.7460    -0.5420 H     1 <1>   0.0800 
 40 H       -0.0700     3.7110     0.5850 H     1 <1>   0.0800 
 41 H       -5.0030    -1.1070    -2.8550 H     1 <1>   0.1500 
 42 H       -1.4010     5.4930    -1.4670 H     1 <1>   0.0800 
 43 H       -4.2640    -2.3200     3.5330 H     1 <1>   0.0800 
 44 H       -3.6790    -0.7310     3.0580 H     1 <1>   0.0800 
 45 H       -2.7940    -2.1910     2.5740 H     1 <1>   0.0800 
 46 H       -0.0940     7.1980    -0.6280 H     1 <1>   0.3700 
 47 H       -7.4750    -3.4770    -0.2510 H     1 <1>   0.0800 
 48 H       -6.9160    -2.2850     0.9170 H     1 <1>   0.0800 
 49 H       -5.9030    -3.6840     0.5150 H     1 <1>   0.0800 
 50 H       -3.0540     8.3900     1.4730 H     1 <1>   0.0800 
 51 H       -2.9650     9.6600     2.6800 H     1 <1>   0.0800 
 52 H       -2.4570     8.0310     3.0870 H     1 <1>   0.0800 
 53 H        2.1420     7.8390    -0.1060 H     1 <1>   0.0800 
 54 H        2.9000     9.2730     0.5080 H     1 <1>   0.0800 
 55 H        2.0070    11.7190     1.0770 H     1 <1>   0.0800 
 56 H        2.4020    10.9940     2.6260 H     1 <1>   0.0800 
 57 H        1.1140    12.1700     2.5090 H     1 <1>   0.0800 
 58 H        0.9960     9.1910    -1.8580 H     1 <1>   0.0800 
 59 H        2.7350     9.3620    -1.9620 H     1 <1>   0.0800 
 60 H        1.7690    10.6290    -1.2410 H     1 <1>   0.0800 
@<TRIPOS>BOND
  1   1   2  2   
  2   2   3  am  
  3   2   4  1   
  4   3   5  1   
  5   3   6  1   
  6   4   7  ar  
  7   4   8  ar  
  8   5   9  1   
  9   5  31  1   
 10   5  32  1   
 11   6  10  1   
 12   6  33  1   
 13   6  34  1   
 14   7  11  ar  
 15   7  35  1   
 16   8  12  ar  
 17   8  36  1   
 18   9  13  1   
 19   9  37  1   
 20   9  38  1   
 21  10  13  1   
 22  10  39  1   
 23  10  40  1   
 24  11  14  1   
 25  11  15  ar  
 26  12  15  ar  
 27  12  41  1   
 28  13  16  1   
 29  13  42  1   
 30  14  17  1   
 31  15  18  1   
 32  16  19  2   
 33  16  20  am  
 34  17  43  1   
 35  17  44  1   
 36  17  45  1   
 37  18  21  1   
 38  20  22  1   
 39  20  46  1   
 40  21  47  1   
 41  21  48  1   
 42  21  49  1   
 43  22  23  1   
 44  22  24  2   
 45  23  25  1   
 46  23  26  1   
 47  24  27  1   
 48  24  28  1   
 49  25  27  2   
 50  26  50  1   
 51  26  51  1   
 52  26  52  1   
 53  27  29  1   
 54  28  30  1   
 55  28  53  1   
 56  28  54  1   
 57  29  55  1   
 58  29  56  1   
 59  29  57  1   
 60  30  58  1   
 61  30  59  1   
 62  30  60  1   
@<TRIPOS>SUBSTRUCTURE
  1 ****   9 GROUP 4 **** **** 0

# MOE 2024.06 (io_trps.svl 2023.06)
