@<TRIPOS>MOLECULE
NONAME
54 57 1 0 0 
SMALL
USER_CHARGES


@<TRIPOS>ATOM
  1 S       -1.3960    -0.2870     2.0580 S.o2  1 <1>   1.0900 
  2 O       -0.1100    -0.7370     2.5360 O.2   1 <1>  -0.6500 
  3 O       -2.0290     0.9030     2.5740 O.2   1 <1>  -0.6500 
  4 C       -2.5060    -1.6650     2.1330 C.3   1 <1>  -0.0550 
  5 C       -1.3320    -0.2390     0.2720 C.3   1 <1>  -0.0550 
  6 C       -2.1560    -2.4990     0.9030 C.3   1 <1>   0.1760 
  7 C       -1.9920    -1.5180    -0.2740 C.3   1 <1>  -0.1600 
  8 N       -3.1900    -3.5250     0.6170 N.pl3 1 <1>   0.3140 
  9 N       -4.5010    -3.2120     0.6140 N.2   1 <1>  -0.7070 
 10 C       -2.9880    -4.8240     0.2800 C.2   1 <1>  -0.3320 
 11 C       -5.1010    -4.3050     0.2610 C.2   1 <1>   0.1080 
 12 C       -4.2070    -5.3510     0.0280 C.2   1 <1>   0.0630 
 13 C       -1.6220    -5.4960     0.2180 C.3   1 <1>  -0.0600 
 14 C       -6.6040    -4.3960     0.1210 C.3   1 <1>  -0.0590 
 15 N       -4.5630    -6.6620    -0.3750 N.am  1 <1>  -0.4930 
 16 C       -4.0450    -7.4680    -1.3410 C.2   1 <1>   0.5690 
 17 O       -3.0780    -7.1950    -2.0150 O.2   1 <1>  -0.5700 
 18 C       -4.7700    -8.7940    -1.5810 C.3   1 <1>   0.1710 
 19 N       -5.7290    -9.1540    -0.4930 N.3   1 <1>  -0.8100 
 20 C       -6.7440   -10.1110    -0.9740 C.3   1 <1>   0.2530 
 21 C       -5.0350    -9.7080     0.6820 C.3   1 <1>   0.1100 
 22 C       -7.6730   -10.5760     0.1450 C.ar  1 <1>  -0.1430 
 23 C       -6.0060    -9.7770     1.8640 C.3   1 <1>  -0.0170 
 24 C       -7.3230   -10.4360     1.4820 C.ar  1 <1>  -0.1430 
 25 C       -8.8860   -11.1650    -0.1830 C.ar  1 <1>  -0.1500 
 26 C       -8.1820   -10.8830     2.4730 C.ar  1 <1>  -0.1500 
 27 C       -9.7410   -11.6110     0.8090 C.ar  1 <1>  -0.1500 
 28 C       -9.3890   -11.4700     2.1390 C.ar  1 <1>  -0.1500 
 29 H       -3.5180    -1.3130     2.0600 H     1 <1>   0.0800 
 30 H       -2.3800    -2.2250     3.0390 H     1 <1>   0.0800 
 31 H       -0.3090    -0.1820    -0.0510 H     1 <1>   0.0800 
 32 H       -1.8530     0.6240    -0.0990 H     1 <1>   0.0800 
 33 H       -1.2160    -2.9900     1.0830 H     1 <1>   0.0800 
 34 H       -1.4040    -1.9550    -1.0620 H     1 <1>   0.0800 
 35 H       -2.9650    -1.2640    -0.6640 H     1 <1>   0.0800 
 36 H       -1.0740    -5.3270     1.1280 H     1 <1>   0.0800 
 37 H       -1.0590    -5.1130    -0.6150 H     1 <1>   0.0800 
 38 H       -1.7290    -6.5570     0.0920 H     1 <1>   0.0800 
 39 H       -7.0320    -3.4100     0.1300 H     1 <1>   0.0800 
 40 H       -7.0110    -4.9610     0.9380 H     1 <1>   0.0800 
 41 H       -6.8570    -4.8750    -0.8070 H     1 <1>   0.0800 
 42 H       -5.4050    -7.0620     0.0520 H     1 <1>   0.3700 
 43 H       -4.0420    -9.5750    -1.7080 H     1 <1>   0.0800 
 44 H       -5.3050    -8.6880    -2.5080 H     1 <1>   0.0800 
 45 H       -6.2590   -10.9740    -1.3980 H     1 <1>   0.0800 
 46 H       -7.3320    -9.6410    -1.7440 H     1 <1>   0.0800 
 47 H       -4.1970    -9.0880     0.9530 H     1 <1>   0.0800 
 48 H       -4.6670   -10.6960     0.4570 H     1 <1>   0.0800 
 49 H       -6.2040    -8.7790     2.2120 H     1 <1>   0.0800 
 50 H       -5.5430   -10.3230     2.6670 H     1 <1>   0.0800 
 51 H       -9.1700   -11.2820    -1.2130 H     1 <1>   0.1500 
 52 H       -7.9160   -10.7720     3.5100 H     1 <1>   0.1500 
 53 H      -10.6800   -12.0670     0.5480 H     1 <1>   0.1500 
 54 H      -10.0530   -11.8160     2.9120 H     1 <1>   0.1500 
@<TRIPOS>BOND
  1   1   2  2   
  2   1   3  2   
  3   1   4  1   
  4   1   5  1   
  5   4   6  1   
  6   4  29  1   
  7   4  30  1   
  8   5   7  1   
  9   5  31  1   
 10   5  32  1   
 11   6   7  1   
 12   6   8  1   
 13   6  33  1   
 14   7  34  1   
 15   7  35  1   
 16   8   9  1   
 17   8  10  1   
 18   9  11  2   
 19  10  12  2   
 20  10  13  1   
 21  11  12  1   
 22  11  14  1   
 23  12  15  1   
 24  13  36  1   
 25  13  37  1   
 26  13  38  1   
 27  14  39  1   
 28  14  40  1   
 29  14  41  1   
 30  15  16  am  
 31  15  42  1   
 32  16  17  2   
 33  16  18  1   
 34  18  19  1   
 35  18  43  1   
 36  18  44  1   
 37  19  20  1   
 38  19  21  1   
 39  20  22  1   
 40  20  45  1   
 41  20  46  1   
 42  21  23  1   
 43  21  47  1   
 44  21  48  1   
 45  22  24  ar  
 46  22  25  ar  
 47  23  24  1   
 48  23  49  1   
 49  23  50  1   
 50  24  26  ar  
 51  25  27  ar  
 52  25  51  1   
 53  26  28  ar  
 54  26  52  1   
 55  27  28  ar  
 56  27  53  1   
 57  28  54  1   
@<TRIPOS>SUBSTRUCTURE
  1 ****  15 GROUP 4 **** **** 0

# MOE 2024.06 (io_trps.svl 2023.06)
