@<TRIPOS>MOLECULE
NONAME
49 51 1 0 0 
SMALL
USER_CHARGES


@<TRIPOS>ATOM
  1 O        2.2880    -1.5700     2.4110 O.2   1 <1>  -0.5700 
  2 C        1.7930    -1.9530     1.3760 C.2   1 <1>   0.5690 
  3 N        1.0790    -1.1640     0.5360 N.am  1 <1>  -0.4930 
  4 C        1.9530    -3.4190     0.9720 C.3   1 <1>   0.1710 
  5 C        0.7190     0.1750     0.6060 C.2   1 <1>   0.3520 
  6 N        1.6240    -3.6790    -0.4660 N.3   1 <1>  -0.8100 
  7 N        0.0200     0.6990    -0.3500 N.2   1 <1>  -0.7070 
  8 C        1.0140     1.0900     1.6120 C.2   1 <1>  -0.1500 
  9 C        1.1240    -5.0430    -0.7030 C.3   1 <1>   0.1100 
 10 C        2.7780    -3.3800    -1.3280 C.3   1 <1>   0.0300 
 11 N       -0.1530     1.9840     0.0220 N.pl3 1 <1>   0.3140 
 12 C        0.4390     2.2410     1.2050 C.2   1 <1>  -0.3020 
 13 C       -0.3410    -5.1780    -0.2580 C.3   1 <1>  -0.0800 
 14 C       -0.9030     2.9270    -0.8140 C.3   1 <1>   0.0160 
 15 C       -0.9460    -6.5240    -0.6460 C.3   1 <1>   0.2090 
 16 C       -1.2800    -4.1630    -0.9060 C.3   1 <1>  -0.1600 
 17 N       -2.4010    -6.2800    -0.8040 N.pl3 1 <1>  -0.8380 
 18 C       -2.6540    -4.8170    -0.8490 C.3   1 <1>   0.2090 
 19 C       -3.2490    -7.0310     0.0040 C.ar  1 <1>   0.1000 
 20 C       -4.1330    -7.9260    -0.5810 C.ar  1 <1>  -0.1500 
 21 C       -3.2400    -6.9130     1.3910 C.ar  1 <1>  -0.1500 
 22 C       -4.9890    -8.6880     0.1930 C.ar  1 <1>  -0.1500 
 23 C       -4.0940    -7.6730     2.1710 C.ar  1 <1>  -0.1500 
 24 C       -4.9700    -8.5630     1.5730 C.ar  1 <1>  -0.1500 
 25 H        0.7700    -1.6330    -0.3170 H     1 <1>   0.3700 
 26 H        1.2990    -3.9840     1.6090 H     1 <1>   0.0800 
 27 H        2.9590    -3.7330     1.1850 H     1 <1>   0.0800 
 28 H        1.5800     0.8850     2.5020 H     1 <1>   0.1500 
 29 H        1.7430    -5.7600    -0.1900 H     1 <1>   0.0800 
 30 H        1.1720    -5.2560    -1.7580 H     1 <1>   0.0800 
 31 H        3.1130    -2.3690    -1.1650 H     1 <1>   0.0800 
 32 H        2.4970    -3.4770    -2.3630 H     1 <1>   0.0800 
 33 H        3.5900    -4.0560    -1.1200 H     1 <1>   0.0800 
 34 H        0.4210     3.2040     1.6810 H     1 <1>   0.1500 
 35 H       -0.4130    -5.0950     0.8110 H     1 <1>   0.0800 
 36 H       -1.8390     2.4780    -1.0900 H     1 <1>   0.0800 
 37 H       -0.3310     3.1380    -1.6980 H     1 <1>   0.0800 
 38 H       -1.0800     3.8330    -0.2670 H     1 <1>   0.0800 
 39 H       -0.7510    -7.2750     0.1010 H     1 <1>   0.0800 
 40 H       -0.5560    -6.8590    -1.5920 H     1 <1>   0.0800 
 41 H       -1.0110    -4.0100    -1.9360 H     1 <1>   0.0800 
 42 H       -1.2700    -3.2140    -0.3990 H     1 <1>   0.0800 
 43 H       -3.2410    -4.5670    -1.7160 H     1 <1>   0.0800 
 44 H       -3.1810    -4.5070     0.0380 H     1 <1>   0.0800 
 45 H       -4.1380    -8.0150    -1.6510 H     1 <1>   0.1500 
 46 H       -2.5620    -6.2210     1.8520 H     1 <1>   0.1500 
 47 H       -5.6680    -9.3780    -0.2760 H     1 <1>   0.1500 
 48 H       -4.0780    -7.5730     3.2420 H     1 <1>   0.1500 
 49 H       -5.6350    -9.1540     2.1770 H     1 <1>   0.1500 
@<TRIPOS>BOND
  1   1   2  2   
  2   2   3  am  
  3   2   4  1   
  4   3   5  1   
  5   3  25  1   
  6   4   6  1   
  7   4  26  1   
  8   4  27  1   
  9   5   7  2   
 10   5   8  1   
 11   6   9  1   
 12   6  10  1   
 13   7  11  1   
 14   8  12  2   
 15   8  28  1   
 16   9  13  1   
 17   9  29  1   
 18   9  30  1   
 19  10  31  1   
 20  10  32  1   
 21  10  33  1   
 22  11  12  1   
 23  11  14  1   
 24  12  34  1   
 25  13  15  1   
 26  13  16  1   
 27  13  35  1   
 28  14  36  1   
 29  14  37  1   
 30  14  38  1   
 31  15  17  1   
 32  15  39  1   
 33  15  40  1   
 34  16  18  1   
 35  16  41  1   
 36  16  42  1   
 37  17  18  1   
 38  17  19  1   
 39  18  43  1   
 40  18  44  1   
 41  19  20  ar  
 42  19  21  ar  
 43  20  22  ar  
 44  20  45  1   
 45  21  23  ar  
 46  21  46  1   
 47  22  24  ar  
 48  22  47  1   
 49  23  24  ar  
 50  23  48  1   
 51  24  49  1   
@<TRIPOS>SUBSTRUCTURE
  1 ****  16 GROUP 4 **** **** 0

# MOE 2024.06 (io_trps.svl 2023.06)
