@<TRIPOS>MOLECULE
NONAME
46 48 1 0 0 
SMALL
USER_CHARGES


@<TRIPOS>ATOM
  1 S       -0.0980    -0.8070    -2.4540 S.3   1 <1>  -0.0800 
  2 C        0.7080    -0.7990    -0.8860 C.2   1 <1>   0.3250 
  3 C        1.1790     0.1560    -3.1220 C.2   1 <1>  -0.1100 
  4 N        1.8120    -0.1360    -0.9100 N.2   1 <1>  -0.5650 
  5 C        0.1050    -1.5010     0.2280 C.ar  1 <1>   0.0530 
  6 C        2.0790     0.4000    -2.1600 C.2   1 <1>   0.0460 
  7 C        0.8650    -1.7910     1.3630 C.ar  1 <1>  -0.1500 
  8 C       -1.2310    -1.9120     0.2380 C.ar  1 <1>  -0.1500 
  9 C        3.3510     1.2180    -2.3280 C.3   1 <1>   0.3210 
 10 C        0.3280    -2.4570     2.4490 C.ar  1 <1>  -0.1500 
 11 C       -1.7750    -2.5790     1.3210 C.ar  1 <1>  -0.1500 
 12 N        3.3240     2.3420    -1.3740 N.am  1 <1>  -0.7300 
 13 C       -0.9960    -2.8540     2.4300 C.ar  1 <1>  -0.1500 
 14 C        3.8220     3.5760    -1.6180 C.2   1 <1>   0.5690 
 15 O        4.3650     3.8320    -2.6660 O.2   1 <1>  -0.5700 
 16 C        3.6890     4.6460    -0.5320 C.3   1 <1>  -0.0190 
 17 C        3.7900     6.0840    -1.0840 C.3   1 <1>  -0.1600 
 18 C        4.7250     4.4210     0.5950 C.3   1 <1>  -0.1600 
 19 C        3.5090     7.1510    -0.0040 C.3   1 <1>   0.2000 
 20 C        5.0060     5.6760     1.4470 C.3   1 <1>  -0.1600 
 21 O        4.2970     8.2840    -0.2780 O.3   1 <1>  -0.5600 
 22 C        3.8240     6.6480     1.4300 C.3   1 <1>   0.2000 
 23 C        3.8350     9.0940    -1.3140 C.3   1 <1>   0.0400 
 24 O        4.1450     7.7270     2.2290 O.3   1 <1>  -0.6800 
 25 H        1.1160     0.4360    -4.1580 H     1 <1>   0.1500 
 26 H        1.8970    -1.4890     1.3910 H     1 <1>   0.1500 
 27 H       -1.8660    -1.7090    -0.6050 H     1 <1>   0.1500 
 28 H        3.4280     1.5870    -3.3360 H     1 <1>   0.0800 
 29 H        4.2050     0.5980    -2.1200 H     1 <1>   0.0800 
 30 H        0.9390    -2.6680     3.3100 H     1 <1>   0.1500 
 31 H       -2.8070    -2.8850     1.3020 H     1 <1>   0.1500 
 32 H        2.8510     2.1060    -0.4980 H     1 <1>   0.3700 
 33 H       -1.4180    -3.3730     3.2730 H     1 <1>   0.1500 
 34 H        2.7050     4.5370    -0.1110 H     1 <1>   0.0800 
 35 H        3.0930     6.2060    -1.8940 H     1 <1>   0.0800 
 36 H        4.7840     6.2240    -1.4750 H     1 <1>   0.0800 
 37 H        4.3720     3.6280     1.2320 H     1 <1>   0.0800 
 38 H        5.6570     4.0930     0.1650 H     1 <1>   0.0800 
 39 H        2.4720     7.4390    -0.0290 H     1 <1>   0.0800 
 40 H        5.8660     6.1830     1.0430 H     1 <1>   0.0800 
 41 H        5.2290     5.3850     2.4580 H     1 <1>   0.0800 
 42 H        2.9610     6.1680     1.8570 H     1 <1>   0.0800 
 43 H        4.5010     9.9340    -1.4040 H     1 <1>   0.0800 
 44 H        2.8440     9.4430    -1.0790 H     1 <1>   0.0800 
 45 H        3.8340     8.5380    -2.2350 H     1 <1>   0.0800 
 46 H        4.5640     8.3850     1.6290 H     1 <1>   0.4000 
@<TRIPOS>BOND
  1   1   2  1   
  2   1   3  1   
  3   2   4  2   
  4   2   5  1   
  5   3   6  2   
  6   3  25  1   
  7   4   6  1   
  8   5   7  ar  
  9   5   8  ar  
 10   6   9  1   
 11   7  10  ar  
 12   7  26  1   
 13   8  11  ar  
 14   8  27  1   
 15   9  12  1   
 16   9  28  1   
 17   9  29  1   
 18  10  13  ar  
 19  10  30  1   
 20  11  13  ar  
 21  11  31  1   
 22  12  14  am  
 23  12  32  1   
 24  13  33  1   
 25  14  15  2   
 26  14  16  1   
 27  16  17  1   
 28  16  18  1   
 29  16  34  1   
 30  17  19  1   
 31  17  35  1   
 32  17  36  1   
 33  18  20  1   
 34  18  37  1   
 35  18  38  1   
 36  19  21  1   
 37  19  22  1   
 38  19  39  1   
 39  20  22  1   
 40  20  40  1   
 41  20  41  1   
 42  21  23  1   
 43  22  24  1   
 44  22  42  1   
 45  23  43  1   
 46  23  44  1   
 47  23  45  1   
 48  24  46  1   
@<TRIPOS>SUBSTRUCTURE
  1 ****  12 GROUP 4 **** **** 0

# MOE 2024.06 (io_trps.svl 2023.06)
