@<TRIPOS>MOLECULE
NONAME
53 56 1 0 0 
SMALL
USER_CHARGES


@<TRIPOS>ATOM
  1 O       -1.1900     0.7810    -2.2850 O.2   1 <1>  -0.5700 
  2 C       -2.0780     1.2670    -1.6100 C.2   1 <1>   0.5440 
  3 N       -3.3230     0.6700    -1.5980 N.am  1 <1>  -0.6600 
  4 C       -1.7930     2.4540    -0.8310 C.ar  1 <1>   0.0860 
  5 C       -3.6720    -0.4410    -2.5290 C.3   1 <1>   0.1400 
  6 C       -4.3550     0.9160    -0.5520 C.3   1 <1>   0.1400 
  7 C       -2.5350     3.6200    -0.9380 C.ar  1 <1>  -0.1500 
  8 C       -0.7480     2.5030     0.0770 C.ar  1 <1>  -0.1500 
  9 C       -3.8690    -1.7330    -1.7320 C.3   1 <1>  -0.1600 
 10 C       -4.5520    -0.3570     0.2730 C.3   1 <1>  -0.1600 
 11 C       -2.2290     4.7180    -0.1560 C.ar  1 <1>   0.1670 
 12 C       -0.5170     3.6480     0.8160 C.ar  1 <1>   0.1670 
 13 C       -4.9100    -1.5700    -0.6090 C.3   1 <1>   0.4240 
 14 N       -1.2410     4.7490     0.7190 N.ar  1 <1>  -0.6200 
 15 C       -3.0430     5.9890    -0.2730 C.3   1 <1>  -0.0970 
 16 C        0.6250     3.6970     1.8090 C.3   1 <1>  -0.0970 
 17 O       -6.0970    -1.2330    -1.2960 O.3   1 <1>  -0.5600 
 18 C       -5.0750    -2.8800     0.2140 C.ar  1 <1>  -0.1440 
 19 C       -7.3080    -1.4450    -0.6480 C.3   1 <1>   0.1200 
 20 C       -4.0160    -3.4480     0.9360 C.ar  1 <1>   0.0820 
 21 C       -6.3110    -3.5270     0.2500 C.ar  1 <1>  -0.1440 
 22 C       -7.4990    -2.9450    -0.4880 C.3   1 <1>  -0.0170 
 23 O       -2.8080    -2.8250     0.9360 O.3   1 <1>  -0.3620 
 24 C       -4.2050    -4.6310     1.6480 C.ar  1 <1>  -0.1500 
 25 C       -6.4860    -4.7040     0.9580 C.ar  1 <1>  -0.1500 
 26 C       -1.6320    -3.4440     1.4070 C.3   1 <1>   0.0400 
 27 C       -5.4340    -5.2580     1.6560 C.ar  1 <1>  -0.1500 
 28 H       -2.8970    -0.5830    -3.2620 H     1 <1>   0.0800 
 29 H       -4.5780    -0.1890    -3.0520 H     1 <1>   0.0800 
 30 H       -5.2790     1.1940    -1.0300 H     1 <1>   0.0800 
 31 H       -4.0620     1.7160     0.1040 H     1 <1>   0.0800 
 32 H       -3.3490     3.6560    -1.6380 H     1 <1>   0.1500 
 33 H       -0.1230     1.6370     0.1930 H     1 <1>   0.1500 
 34 H       -2.9140    -2.0120    -1.3340 H     1 <1>   0.0800 
 35 H       -4.1840    -2.5220    -2.3880 H     1 <1>   0.0800 
 36 H       -5.3130    -0.2040     1.0140 H     1 <1>   0.0800 
 37 H       -3.6380    -0.5420     0.8030 H     1 <1>   0.0800 
 38 H       -3.8250     5.8870    -1.0020 H     1 <1>   0.0800 
 39 H       -2.3990     6.7990    -0.5640 H     1 <1>   0.0800 
 40 H       -3.4810     6.2220     0.6800 H     1 <1>   0.0800 
 41 H        1.1620     2.7670     1.8310 H     1 <1>   0.0800 
 42 H        0.2380     3.9000     2.7900 H     1 <1>   0.0800 
 43 H        1.3030     4.4840     1.5350 H     1 <1>   0.0800 
 44 H       -8.0880    -1.0270    -1.2580 H     1 <1>   0.0800 
 45 H       -7.2960    -0.9490     0.3060 H     1 <1>   0.0800 
 46 H       -7.5870    -3.4020    -1.4570 H     1 <1>   0.0800 
 47 H       -8.4060    -3.1280     0.0590 H     1 <1>   0.0800 
 48 H       -3.4090    -5.0800     2.2090 H     1 <1>   0.1500 
 49 H       -7.4430    -5.1950     0.9690 H     1 <1>   0.1500 
 50 H       -0.8040    -2.7960     1.1840 H     1 <1>   0.0800 
 51 H       -1.5060    -4.3850     0.9000 H     1 <1>   0.0800 
 52 H       -1.7110    -3.5830     2.4700 H     1 <1>   0.0800 
 53 H       -5.5730    -6.1720     2.2060 H     1 <1>   0.1500 
@<TRIPOS>BOND
  1   1   2  2   
  2   2   3  am  
  3   2   4  1   
  4   3   5  1   
  5   3   6  1   
  6   4   7  ar  
  7   4   8  ar  
  8   5   9  1   
  9   5  28  1   
 10   5  29  1   
 11   6  10  1   
 12   6  30  1   
 13   6  31  1   
 14   7  11  ar  
 15   7  32  1   
 16   8  12  ar  
 17   8  33  1   
 18   9  13  1   
 19   9  34  1   
 20   9  35  1   
 21  10  13  1   
 22  10  36  1   
 23  10  37  1   
 24  11  14  ar  
 25  11  15  1   
 26  12  14  ar  
 27  12  16  1   
 28  13  17  1   
 29  13  18  1   
 30  15  38  1   
 31  15  39  1   
 32  15  40  1   
 33  16  41  1   
 34  16  42  1   
 35  16  43  1   
 36  17  19  1   
 37  18  20  ar  
 38  18  21  ar  
 39  19  22  1   
 40  19  44  1   
 41  19  45  1   
 42  20  23  1   
 43  20  24  ar  
 44  21  22  1   
 45  21  25  ar  
 46  22  46  1   
 47  22  47  1   
 48  23  26  1   
 49  24  27  ar  
 50  24  48  1   
 51  25  27  ar  
 52  25  49  1   
 53  26  50  1   
 54  26  51  1   
 55  26  52  1   
 56  27  53  1   
@<TRIPOS>SUBSTRUCTURE
  1 ****  10 GROUP 4 **** **** 0

# MOE 2024.06 (io_trps.svl 2023.06)
