@<TRIPOS>MOLECULE
NONAME
45 47 1 0 0 
SMALL
USER_CHARGES


@<TRIPOS>ATOM
  1 O       -0.5540    -3.1380     1.0460 O.2   1 <1>  -0.5700 
  2 C       -1.7430    -2.9430     0.9540 C.2   1 <1>   0.6900 
  3 N       -2.6330    -3.7330     1.5980 N.am  1 <1>  -0.4900 
  4 N       -2.2280    -1.9190     0.1930 N.am  1 <1>  -0.5390 
  5 C       -3.9770    -3.5420     1.5110 C.2   1 <1>   0.6160 
  6 C       -3.5790    -1.6540     0.0570 C.2   1 <1>  -0.0290 
  7 O       -4.7030    -4.3280     2.0920 O.2   1 <1>  -0.5700 
  8 C       -4.4660    -2.4410     0.7250 C.2   1 <1>  -0.1240 
  9 C       -3.9040    -0.4860    -0.8620 C.3   1 <1>  -0.1020 
 10 C       -5.9850    -2.2440     0.6940 C.3   1 <1>   0.0390 
 11 C       -6.6440    -3.1890    -0.2920 C.2   1 <1>   0.5690 
 12 O       -7.1720    -2.7380    -1.2780 O.2   1 <1>  -0.5700 
 13 N       -6.6090    -4.5180    -0.0370 N.am  1 <1>  -0.7300 
 14 C       -7.1320    -5.5810    -0.9230 C.3   1 <1>   0.2200 
 15 C       -7.9420    -6.5630    -0.0950 C.3   1 <1>  -0.0800 
 16 C       -5.9790    -6.4490    -1.4290 C.3   1 <1>   0.1200 
 17 C       -6.8440    -7.4840     0.4390 C.3   1 <1>   0.1200 
 18 C       -8.9640    -7.3210    -0.9630 C.3   1 <1>  -0.0170 
 19 O       -5.8600    -7.5310    -0.5500 O.3   1 <1>  -0.5600 
 20 C       -9.7850    -8.2970    -0.1340 C.ar  1 <1>  -0.1430 
 21 C       -9.5550    -9.6580    -0.1650 C.ar  1 <1>  -0.1500 
 22 C      -10.8050    -7.8700     0.6920 C.ar  1 <1>  -0.1500 
 23 C      -10.3320   -10.5010     0.6120 C.ar  1 <1>   0.1600 
 24 C      -11.5230    -8.7980     1.4290 C.ar  1 <1>   0.1600 
 25 N      -11.3100   -10.1040     1.4090 N.ar  1 <1>  -0.6200 
 26 H       -2.2800    -4.5090     2.1450 H     1 <1>   0.3700 
 27 H       -1.5140    -1.3640    -0.2790 H     1 <1>   0.3700 
 28 H       -3.3400    -0.5720    -1.7730 H     1 <1>   0.0800 
 29 H       -3.6460     0.4410    -0.3820 H     1 <1>   0.0800 
 30 H       -4.9430    -0.4580    -1.1330 H     1 <1>   0.0800 
 31 H       -6.2420    -1.2360     0.4340 H     1 <1>   0.0800 
 32 H       -6.3990    -2.4210     1.6690 H     1 <1>   0.0800 
 33 H       -6.0730    -4.8500     0.7790 H     1 <1>   0.3700 
 34 H       -7.6930    -5.1460    -1.7330 H     1 <1>   0.0800 
 35 H       -8.4600    -6.0690     0.7080 H     1 <1>   0.0800 
 36 H       -5.0470    -5.9120    -1.4650 H     1 <1>   0.0800 
 37 H       -6.2050    -6.8480    -2.4020 H     1 <1>   0.0800 
 38 H       -7.1840    -8.4820     0.6500 H     1 <1>   0.0800 
 39 H       -6.3940    -7.0660     1.3240 H     1 <1>   0.0800 
 40 H       -8.4610    -7.8520    -1.7520 H     1 <1>   0.0800 
 41 H       -9.6330    -6.6150    -1.4240 H     1 <1>   0.0800 
 42 H       -8.7790   -10.0700    -0.7840 H     1 <1>   0.1500 
 43 H      -11.0480    -6.8270     0.7700 H     1 <1>   0.1500 
 44 H      -10.1370   -11.5590     0.5750 H     1 <1>   0.1500 
 45 H      -12.3140    -8.4460     2.0680 H     1 <1>   0.1500 
@<TRIPOS>BOND
  1   1   2  2   
  2   2   3  am  
  3   2   4  am  
  4   3   5  am  
  5   3  26  1   
  6   4   6  1   
  7   4  27  1   
  8   5   7  2   
  9   5   8  1   
 10   6   8  2   
 11   6   9  1   
 12   8  10  1   
 13   9  28  1   
 14   9  29  1   
 15   9  30  1   
 16  10  11  1   
 17  10  31  1   
 18  10  32  1   
 19  11  12  2   
 20  11  13  am  
 21  13  14  1   
 22  13  33  1   
 23  14  15  1   
 24  14  16  1   
 25  14  34  1   
 26  15  17  1   
 27  15  18  1   
 28  15  35  1   
 29  16  19  1   
 30  16  36  1   
 31  16  37  1   
 32  17  19  1   
 33  17  38  1   
 34  17  39  1   
 35  18  20  1   
 36  18  40  1   
 37  18  41  1   
 38  20  21  ar  
 39  20  22  ar  
 40  21  23  ar  
 41  21  42  1   
 42  22  24  ar  
 43  22  43  1   
 44  23  25  ar  
 45  23  44  1   
 46  24  25  ar  
 47  24  45  1   
@<TRIPOS>SUBSTRUCTURE
  1 ****  13 GROUP 4 **** **** 0

# MOE 2024.06 (io_trps.svl 2023.06)
