@<TRIPOS>MOLECULE
NONAME
48 50 1 0 0 
SMALL
USER_CHARGES


@<TRIPOS>ATOM
  1 O        1.6940    -1.1150    -2.2420 O.2   1 <1>  -0.5700 
  2 C        2.0590    -1.2500    -1.0910 C.2   1 <1>   0.5440 
  3 N        2.7550    -0.2140    -0.4950 N.am  1 <1>  -0.6600 
  4 C        1.7970    -2.4970    -0.3980 C.ar  1 <1>   0.0860 
  5 C        3.3930    -0.3630     0.8700 C.3   1 <1>   0.2200 
  6 C        2.9790     1.0600    -1.2620 C.3   1 <1>   0.1400 
  7 C        0.5650    -2.7830     0.2060 C.ar  1 <1>  -0.1440 
  8 C        2.8120    -3.4500    -0.3030 C.ar  1 <1>  -0.1500 
  9 C        3.1140     0.8390     1.7890 C.3   1 <1>   0.1200 
 10 C        4.9100    -0.6410     0.7430 C.3   1 <1>   0.3430 
 11 C        4.1770     1.9160    -0.8020 C.3   1 <1>  -0.0800 
 12 C        0.3930    -3.9670     0.9050 C.ar  1 <1>  -0.1500 
 13 C       -0.6150    -1.8210     0.1070 C.3   1 <1>  -0.0170 
 14 C        2.6330    -4.6300     0.3930 C.ar  1 <1>  -0.1500 
 15 O        4.0550     1.8510     1.6110 O.3   1 <1>  -0.5600 
 16 N        5.4380    -0.2830    -0.6200 N.4   1 <1>  -0.9590 
 17 C        3.8840     2.6680     0.5040 C.3   1 <1>   0.1200 
 18 C        5.5430     1.1990    -0.7710 C.3   1 <1>   0.3430 
 19 C        1.4210    -4.8870     1.0040 C.ar  1 <1>  -0.1500 
 20 C       -0.5710    -0.7740     1.2220 C.3   1 <1>  -0.2400 
 21 C        6.8180    -0.9000    -0.7940 C.3   1 <1>   0.2370 
 22 C        7.8360    -0.4760     0.2680 C.2   1 <1>   0.9060 
 23 O        7.8630    -1.1170     1.3220 O.co2 1 <1>  -0.9000 
 24 O        8.4780     0.5580     0.0700 O.co2 1 <1>  -0.9000 
 25 H        2.9550    -1.2050     1.3730 H     1 <1>   0.0800 
 26 H        3.1270     0.8170    -2.3010 H     1 <1>   0.0800 
 27 H        2.0780     1.6470    -1.2070 H     1 <1>   0.0800 
 28 H        3.7540    -3.2630    -0.7860 H     1 <1>   0.1500 
 29 H        3.2080     0.5210     2.8130 H     1 <1>   0.0800 
 30 H        2.1220     1.2310     1.6480 H     1 <1>   0.0800 
 31 H        5.0810    -1.6890     0.9240 H     1 <1>   0.0800 
 32 H        5.4520    -0.1020     1.5050 H     1 <1>   0.0800 
 33 H        4.2740     2.6920    -1.5390 H     1 <1>   0.0800 
 34 H       -0.5500    -4.1860     1.3760 H     1 <1>   0.1500 
 35 H       -0.6240    -1.3320    -0.8520 H     1 <1>   0.0800 
 36 H       -1.5360    -2.3740     0.1810 H     1 <1>   0.0800 
 37 H        3.4300    -5.3510     0.4580 H     1 <1>   0.1500 
 38 H        4.7630    -0.6350    -1.3110 H     1 <1>   0.4500 
 39 H        2.8870     3.0750     0.5180 H     1 <1>   0.0800 
 40 H        4.5810     3.4820     0.6140 H     1 <1>   0.0800 
 41 H        6.1470     1.6020     0.0300 H     1 <1>   0.0800 
 42 H        6.0610     1.4110    -1.6920 H     1 <1>   0.0800 
 43 H        1.2730    -5.8040     1.5480 H     1 <1>   0.1500 
 44 H        0.3020    -0.1590     1.1220 H     1 <1>   0.0800 
 45 H       -0.5540    -1.2550     2.1850 H     1 <1>   0.0800 
 46 H       -1.4410    -0.1440     1.1670 H     1 <1>   0.0800 
 47 H        6.7470    -1.9710    -0.7490 H     1 <1>   0.0800 
 48 H        7.2240    -0.6260    -1.7500 H     1 <1>   0.0800 
@<TRIPOS>BOND
  1   1   2  2   
  2   2   3  am  
  3   2   4  1   
  4   3   5  1   
  5   3   6  1   
  6   4   7  ar  
  7   4   8  ar  
  8   5   9  1   
  9   5  10  1   
 10   5  25  1   
 11   6  11  1   
 12   6  26  1   
 13   6  27  1   
 14   7  12  ar  
 15   7  13  1   
 16   8  14  ar  
 17   8  28  1   
 18   9  15  1   
 19   9  29  1   
 20   9  30  1   
 21  10  16  1   
 22  10  31  1   
 23  10  32  1   
 24  11  17  1   
 25  11  18  1   
 26  11  33  1   
 27  12  19  ar  
 28  12  34  1   
 29  13  20  1   
 30  13  35  1   
 31  13  36  1   
 32  14  19  ar  
 33  14  37  1   
 34  15  17  1   
 35  16  18  1   
 36  16  21  1   
 37  16  38  1   
 38  17  39  1   
 39  17  40  1   
 40  18  41  1   
 41  18  42  1   
 42  19  43  1   
 43  20  44  1   
 44  20  45  1   
 45  20  46  1   
 46  21  22  1   
 47  21  47  1   
 48  21  48  1   
 49  22  23  ar  
 50  22  24  ar  
@<TRIPOS>SUBSTRUCTURE
  1 ****   5 GROUP 4 **** **** 0

# MOE 2024.06 (io_trps.svl 2023.06)
