@<TRIPOS>MOLECULE
NONAME
47 50 1 0 0 
SMALL
USER_CHARGES


@<TRIPOS>ATOM
  1 O       -0.4140    -1.2020     0.1230 O.2   1 <1>  -0.5700 
  2 C        0.7450    -1.5160     0.3460 C.2   1 <1>   0.5440 
  3 N        1.0370    -2.3230     1.4200 N.am  1 <1>  -0.4200 
  4 C        1.8280    -1.0870    -0.4920 C.ar  1 <1>   0.0860 
  5 C        2.3330    -2.7280     1.6340 C.2   1 <1>   0.4500 
  6 C       -0.0310    -2.8150     2.3400 C.3   1 <1>   0.2010 
  7 C        3.1100    -1.5500    -0.1720 C.ar  1 <1>   0.1790 
  8 C        1.6700    -0.2440    -1.5960 C.ar  1 <1>  -0.1500 
  9 N        3.3270    -2.3840     0.9070 N.2   1 <1>  -0.6290 
 10 C       -0.2920    -4.3070     2.1560 C.2   1 <1>   0.5690 
 11 C        4.1910    -1.1670    -0.9580 C.ar  1 <1>  -0.1500 
 12 C        2.7520     0.1280    -2.3660 C.ar  1 <1>  -0.1500 
 13 O        0.2640    -5.0670     2.9130 O.2   1 <1>  -0.5700 
 14 N       -1.1140    -4.7710     1.1640 N.am  1 <1>  -0.6600 
 15 C        4.0200    -0.3360    -2.0460 C.ar  1 <1>  -0.1500 
 16 C       -1.8190    -3.9610     0.1350 C.3   1 <1>   0.1400 
 17 C       -1.3110    -6.2180     0.9020 C.3   1 <1>   0.1400 
 18 C       -2.8030    -4.9380    -0.5060 C.3   1 <1>   0.2000 
 19 C       -2.0750    -6.2840    -0.4270 C.3   1 <1>  -0.0800 
 20 O       -3.9450    -4.9830     0.2810 O.3   1 <1>  -0.6800 
 21 C       -2.9810    -7.5220    -0.5660 C.3   1 <1>   0.0200 
 22 C       -2.2030    -8.8260    -0.6280 C.2   1 <1>  -0.0400 
 23 O       -2.8660    -9.9520    -0.5990 O.3   1 <1>  -0.0190 
 24 C       -0.8970    -9.1260    -0.7150 C.2   1 <1>  -0.1500 
 25 N       -2.0770   -10.9850    -0.6580 N.2   1 <1>  -0.4100 
 26 C       -0.8830   -10.5180    -0.7290 C.2   1 <1>   0.1080 
 27 C        0.3610   -11.3730    -0.8140 C.3   1 <1>  -0.0590 
 28 H        2.4970    -3.3790     2.4760 H     1 <1>   0.0600 
 29 H        0.2840    -2.6490     3.3540 H     1 <1>   0.0800 
 30 H       -0.9440    -2.2690     2.1960 H     1 <1>   0.0800 
 31 H        0.6850     0.1160    -1.8420 H     1 <1>   0.1500 
 32 H        5.1690    -1.5320    -0.6990 H     1 <1>   0.1500 
 33 H        2.6190     0.7780    -3.2150 H     1 <1>   0.1500 
 34 H        4.8660    -0.0470    -2.6460 H     1 <1>   0.1500 
 35 H       -2.3230    -3.1080     0.5550 H     1 <1>   0.0800 
 36 H       -1.1070    -3.6320    -0.6020 H     1 <1>   0.0800 
 37 H       -0.3630    -6.7250     0.8460 H     1 <1>   0.0800 
 38 H       -1.8910    -6.6440     1.7040 H     1 <1>   0.0800 
 39 H       -3.0860    -4.6590    -1.5070 H     1 <1>   0.0800 
 40 H       -1.3490    -6.3030    -1.2210 H     1 <1>   0.0800 
 41 H       -3.6810    -5.0810     1.2180 H     1 <1>   0.4000 
 42 H       -3.5690    -7.4350    -1.4630 H     1 <1>   0.0800 
 43 H       -3.6630    -7.5740     0.2640 H     1 <1>   0.0800 
 44 H       -0.0340    -8.4880    -0.7680 H     1 <1>   0.1500 
 45 H        0.8830   -11.1670    -1.7300 H     1 <1>   0.0800 
 46 H        0.0920   -12.4140    -0.7930 H     1 <1>   0.0800 
 47 H        1.0060   -11.1630     0.0190 H     1 <1>   0.0800 
@<TRIPOS>BOND
  1   1   2  2   
  2   2   3  am  
  3   2   4  1   
  4   3   5  1   
  5   3   6  1   
  6   4   7  ar  
  7   4   8  ar  
  8   5   9  2   
  9   5  28  1   
 10   6  10  1   
 11   6  29  1   
 12   6  30  1   
 13   7   9  1   
 14   7  11  ar  
 15   8  12  ar  
 16   8  31  1   
 17  10  13  2   
 18  10  14  am  
 19  11  15  ar  
 20  11  32  1   
 21  12  15  ar  
 22  12  33  1   
 23  14  16  1   
 24  14  17  1   
 25  15  34  1   
 26  16  18  1   
 27  16  35  1   
 28  16  36  1   
 29  17  19  1   
 30  17  37  1   
 31  17  38  1   
 32  18  19  1   
 33  18  20  1   
 34  18  39  1   
 35  19  21  1   
 36  19  40  1   
 37  20  41  1   
 38  21  22  1   
 39  21  42  1   
 40  21  43  1   
 41  22  23  1   
 42  22  24  2   
 43  23  25  1   
 44  24  26  1   
 45  24  44  1   
 46  25  26  2   
 47  26  27  1   
 48  27  45  1   
 49  27  46  1   
 50  27  47  1   
@<TRIPOS>SUBSTRUCTURE
  1 ****  14 GROUP 4 **** **** 0

# MOE 2024.06 (io_trps.svl 2023.06)
