@<TRIPOS>MOLECULE
NONAME
51 54 1 0 0 
SMALL
USER_CHARGES


@<TRIPOS>ATOM
  1 S       -1.0530    -0.9930    -0.6230 S.o2  1 <1>   1.2040 
  2 O       -1.8330    -0.0240    -1.3660 O.2   1 <1>  -0.6500 
  3 O       -0.8040    -2.2820    -1.2210 O.2   1 <1>  -0.6500 
  4 C        0.4470    -0.2620     0.0680 C.ar  1 <1>  -0.0090 
  5 C       -2.0310    -1.3510     0.8180 C.3   1 <1>  -0.0550 
  6 C        1.5400    -1.0540     0.3990 C.ar  1 <1>  -0.1500 
  7 C        0.5280     1.1030     0.3190 C.ar  1 <1>  -0.1500 
  8 C       -3.3050    -2.0740     0.3860 C.3   1 <1>   0.3430 
  9 C        2.6750    -0.5040     0.9690 C.ar  1 <1>  -0.1500 
 10 C        1.6600     1.6600     0.8890 C.ar  1 <1>  -0.1500 
 11 N       -4.1790    -1.2250    -0.4830 N.4   1 <1>  -0.9590 
 12 C        2.7340     0.8540     1.2170 C.ar  1 <1>  -0.1500 
 13 C       -4.8320    -0.1010     0.2700 C.3   1 <1>   0.3430 
 14 C       -5.1890    -2.0540    -1.2040 C.3   1 <1>   0.3430 
 15 C       -5.6270     0.8330    -0.6580 C.3   1 <1>   0.1430 
 16 C       -5.9850    -1.1820    -2.1800 C.3   1 <1>  -0.1600 
 17 C       -6.3250     1.8520     0.2060 C.ar  1 <1>   0.1670 
 18 C       -6.6470     0.0210    -1.4820 C.3   1 <1>  -0.1600 
 19 C       -4.7290     1.7260    -1.5570 C.3   1 <1>  -0.1600 
 20 N       -6.9700     1.5660     1.3090 N.ar  1 <1>  -0.6200 
 21 C       -6.1720     3.1180    -0.2740 C.ar  1 <1>  -0.1430 
 22 C       -5.3580     3.1330    -1.5440 C.3   1 <1>  -0.0170 
 23 C       -7.4640     2.6310     1.9250 C.ar  1 <1>   0.7200 
 24 C       -6.7430     4.1420     0.4430 C.ar  1 <1>   0.1600 
 25 N       -7.3980     3.9020     1.5570 N.ar  1 <1>  -0.6200 
 26 N       -8.1210     2.3940     3.0590 N.pl3 1 <1>  -0.9000 
 27 H       -2.2640    -0.4560     1.3600 H     1 <1>   0.0800 
 28 H       -1.4770    -1.9990     1.4700 H     1 <1>   0.0800 
 29 H        1.5140    -2.1140     0.2060 H     1 <1>   0.1500 
 30 H       -0.2960     1.7480     0.0640 H     1 <1>   0.1500 
 31 H       -3.8570    -2.3870     1.2580 H     1 <1>   0.0800 
 32 H       -3.0190    -2.9610    -0.1590 H     1 <1>   0.0800 
 33 H        3.5150    -1.1320     1.2180 H     1 <1>   0.1500 
 34 H        1.7090     2.7200     1.0760 H     1 <1>   0.1500 
 35 H       -3.5770    -0.7800    -1.2100 H     1 <1>   0.4500 
 36 H        3.6170     1.2850     1.6590 H     1 <1>   0.1500 
 37 H       -4.0930     0.4840     0.7890 H     1 <1>   0.0800 
 38 H       -5.5090    -0.5050     1.0050 H     1 <1>   0.0800 
 39 H       -5.8640    -2.5040    -0.4950 H     1 <1>   0.0800 
 40 H       -4.6960    -2.8420    -1.7520 H     1 <1>   0.0800 
 41 H       -6.7500    -1.7850    -2.6390 H     1 <1>   0.0800 
 42 H       -5.3340    -0.8480    -2.9690 H     1 <1>   0.0800 
 43 H       -7.1260     0.6550    -2.2090 H     1 <1>   0.0800 
 44 H       -7.4170    -0.3420    -0.8210 H     1 <1>   0.0800 
 45 H       -4.6250     1.3540    -2.5610 H     1 <1>   0.0800 
 46 H       -3.7480     1.8040    -1.1230 H     1 <1>   0.0800 
 47 H       -6.0100     3.2700    -2.3910 H     1 <1>   0.0800 
 48 H       -4.6080     3.9050    -1.5330 H     1 <1>   0.0800 
 49 H       -6.6600     5.1620     0.1060 H     1 <1>   0.1500 
 50 H       -8.6800     3.1750     3.3910 H     1 <1>   0.4000 
 51 H       -8.5420     1.4750     3.1500 H     1 <1>   0.4000 
@<TRIPOS>BOND
  1   1   2  2   
  2   1   3  2   
  3   1   4  1   
  4   1   5  1   
  5   4   6  ar  
  6   4   7  ar  
  7   5   8  1   
  8   5  27  1   
  9   5  28  1   
 10   6   9  ar  
 11   6  29  1   
 12   7  10  ar  
 13   7  30  1   
 14   8  11  1   
 15   8  31  1   
 16   8  32  1   
 17   9  12  ar  
 18   9  33  1   
 19  10  12  ar  
 20  10  34  1   
 21  11  13  1   
 22  11  14  1   
 23  11  35  1   
 24  12  36  1   
 25  13  15  1   
 26  13  37  1   
 27  13  38  1   
 28  14  16  1   
 29  14  39  1   
 30  14  40  1   
 31  15  17  1   
 32  15  18  1   
 33  15  19  1   
 34  16  18  1   
 35  16  41  1   
 36  16  42  1   
 37  17  20  ar  
 38  17  21  ar  
 39  18  43  1   
 40  18  44  1   
 41  19  22  1   
 42  19  45  1   
 43  19  46  1   
 44  20  23  ar  
 45  21  22  1   
 46  21  24  ar  
 47  22  47  1   
 48  22  48  1   
 49  23  25  ar  
 50  23  26  1   
 51  24  25  ar  
 52  24  49  1   
 53  26  50  1   
 54  26  51  1   
@<TRIPOS>SUBSTRUCTURE
  1 ****  13 GROUP 4 **** **** 0

# MOE 2024.06 (io_trps.svl 2023.06)
