@<TRIPOS>MOLECULE
NONAME
50 53 1 0 0 
SMALL
USER_CHARGES


@<TRIPOS>ATOM
  1 O        1.1340    -0.2920     2.4490 O.2   1 <1>  -0.5700 
  2 C        1.5920    -0.6870     1.3930 C.2   1 <1>   0.5440 
  3 N        2.1500     0.2260     0.5160 N.am  1 <1>  -0.6600 
  4 C        1.5990    -2.1100     1.1310 C.ar  1 <1>   0.0860 
  5 C        2.8270    -0.1890    -0.7500 C.3   1 <1>   0.1400 
  6 C        2.1700     1.6860     0.8180 C.3   1 <1>   0.1400 
  7 C        0.7720    -2.6970     0.1700 C.ar  1 <1>   0.0830 
  8 C        2.4510    -2.9440     1.8580 C.ar  1 <1>  -0.1500 
  9 C        4.2900    -0.5820    -0.4980 C.3   1 <1>   0.1400 
 10 C        3.5600     2.3150     0.6430 C.3   1 <1>  -0.1600 
 11 O       -0.0900    -1.9210    -0.5340 O.3   1 <1>  -0.3620 
 12 C        0.8290    -4.0740    -0.0670 C.ar  1 <1>   0.0830 
 13 C        2.4980    -4.3070     1.6310 C.ar  1 <1>  -0.1500 
 14 N        5.1610     0.5820    -0.1310 N.am  1 <1>  -0.6600 
 15 C        4.7190     1.3930     1.0410 C.3   1 <1>   0.1400 
 16 C       -1.1400    -2.5660    -1.2260 C.3   1 <1>   0.1200 
 17 O        0.0530    -4.6600    -1.0140 O.3   1 <1>  -0.3630 
 18 C        1.6850    -4.8740     0.6650 C.ar  1 <1>  -0.1500 
 19 C        6.4150     0.7220    -0.6930 C.2   1 <1>   0.7150 
 20 C       -0.6050    -3.8140    -1.9380 C.3   1 <1>   0.1200 
 21 O        6.8730    -0.2050    -1.3390 O.2   1 <1>  -0.5700 
 22 C        7.2000     1.9200    -0.5230 C.2   1 <1>  -0.2370 
 23 N        8.5490     1.9150    -0.2610 N.pl3 1 <1>   0.0480 
 24 C        6.8040     3.2340    -0.5920 C.2   1 <1>  -0.1500 
 25 C        8.9650     3.2000    -0.1570 C.2   1 <1>  -0.3020 
 26 C        9.4190     0.7320    -0.1200 C.3   1 <1>   0.0160 
 27 C        7.9140     4.0370    -0.3560 C.2   1 <1>  -0.1500 
 28 H        2.7850     0.6070    -1.4720 H     1 <1>   0.0800 
 29 H        2.3110    -1.0280    -1.1780 H     1 <1>   0.0800 
 30 H        1.8540     1.8490     1.8350 H     1 <1>   0.0800 
 31 H        1.4610     2.1860     0.1810 H     1 <1>   0.0800 
 32 H        3.0780    -2.5050     2.6140 H     1 <1>   0.1500 
 33 H        4.6600    -1.0400    -1.3990 H     1 <1>   0.0800 
 34 H        4.3390    -1.3220     0.2810 H     1 <1>   0.0800 
 35 H        3.5940     3.1940     1.2610 H     1 <1>   0.0800 
 36 H        3.6850     2.6420    -0.3730 H     1 <1>   0.0800 
 37 H        3.1630    -4.9300     2.2060 H     1 <1>   0.1500 
 38 H        4.4210     0.7410     1.8460 H     1 <1>   0.0800 
 39 H        5.5380     1.9880     1.4050 H     1 <1>   0.0800 
 40 H       -1.5530    -1.8680    -1.9300 H     1 <1>   0.0800 
 41 H       -1.8960    -2.8370    -0.5100 H     1 <1>   0.0800 
 42 H        1.7130    -5.9330     0.4760 H     1 <1>   0.1500 
 43 H        0.1010    -3.5370    -2.7000 H     1 <1>   0.0800 
 44 H       -1.4070    -4.3730    -2.3850 H     1 <1>   0.0800 
 45 H        5.8160     3.6020    -0.7990 H     1 <1>   0.1500 
 46 H        9.9870     3.4620     0.0500 H     1 <1>   0.1500 
 47 H        8.9810     0.0480     0.5820 H     1 <1>   0.0800 
 48 H       10.3890     1.0340     0.2280 H     1 <1>   0.0800 
 49 H        9.5140     0.2500    -1.0760 H     1 <1>   0.0800 
 50 H        7.9190     5.1140    -0.3430 H     1 <1>   0.1500 
@<TRIPOS>BOND
  1   1   2  2   
  2   2   3  am  
  3   2   4  1   
  4   3   5  1   
  5   3   6  1   
  6   4   7  ar  
  7   4   8  ar  
  8   5   9  1   
  9   5  28  1   
 10   5  29  1   
 11   6  10  1   
 12   6  30  1   
 13   6  31  1   
 14   7  11  1   
 15   7  12  ar  
 16   8  13  ar  
 17   8  32  1   
 18   9  14  1   
 19   9  33  1   
 20   9  34  1   
 21  10  15  1   
 22  10  35  1   
 23  10  36  1   
 24  11  16  1   
 25  12  17  1   
 26  12  18  ar  
 27  13  18  ar  
 28  13  37  1   
 29  14  15  1   
 30  14  19  am  
 31  15  38  1   
 32  15  39  1   
 33  16  20  1   
 34  16  40  1   
 35  16  41  1   
 36  17  20  1   
 37  18  42  1   
 38  19  21  2   
 39  19  22  1   
 40  20  43  1   
 41  20  44  1   
 42  22  23  1   
 43  22  24  2   
 44  23  25  1   
 45  23  26  1   
 46  24  27  1   
 47  24  45  1   
 48  25  27  2   
 49  25  46  1   
 50  26  47  1   
 51  26  48  1   
 52  26  49  1   
 53  27  50  1   
@<TRIPOS>SUBSTRUCTURE
  1 ****   9 GROUP 4 **** **** 0

# MOE 2024.06 (io_trps.svl 2023.06)
