@<TRIPOS>MOLECULE
NONAME
57 60 1 0 0 
SMALL
USER_CHARGES


@<TRIPOS>ATOM
  1 O        1.4100    -0.6560     0.5370 O.2   1 <1>  -0.5700 
  2 C        2.3730    -1.3000     0.1950 C.2   1 <1>   0.5690 
  3 N        3.6360    -0.8740     0.5160 N.am  1 <1>  -0.6600 
  4 C        2.1590    -2.5620    -0.6340 C.3   1 <1>  -0.0990 
  5 C        3.8410     0.0560     1.6780 C.3   1 <1>   0.1400 
  6 C        4.8650    -1.1940    -0.2680 C.3   1 <1>   0.1400 
  7 C        0.7770    -3.2110    -0.4220 C.3   1 <1>  -0.1600 
  8 C        4.3460     1.4830     1.3250 C.3   1 <1>   0.4230 
  9 C        5.3940     0.0570    -1.0080 C.3   1 <1>  -0.0800 
 10 C        0.6190    -4.5080    -1.2290 C.3   1 <1>   0.0200 
 11 N        3.9710     2.0000    -0.0520 N.4   1 <1>  -0.9590 
 12 C        5.8610     1.6330     1.5850 C.3   1 <1>   0.1200 
 13 C        6.6880     0.6220    -0.4020 C.3   1 <1>   0.1200 
 14 C        4.3030     1.1210    -1.2290 C.3   1 <1>   0.3430 
 15 C       -0.7300    -5.1560    -0.9810 C.2   1 <1>   0.2980 
 16 C        2.5100     2.3300    -0.0890 C.3   1 <1>   0.2630 
 17 O        6.6210     0.6300     0.9860 O.3   1 <1>  -0.5600 
 18 O       -1.8070    -4.5680    -1.4320 O.3   1 <1>  -0.0190 
 19 N       -0.9210    -6.2460    -0.3630 N.2   1 <1>  -0.5650 
 20 N       -2.7710    -5.3510    -1.0630 N.2   1 <1>  -0.4100 
 21 C       -2.2520    -6.3450    -0.4320 C.2   1 <1>   0.4620 
 22 C       -3.0050    -7.4350     0.1650 C.ar  1 <1>   0.0540 
 23 C       -2.6730    -8.7900     0.0150 C.ar  1 <1>  -0.1440 
 24 C       -4.1290    -7.1260     0.9330 C.ar  1 <1>  -0.1500 
 25 C       -3.4370    -9.7700     0.6290 C.ar  1 <1>  -0.1500 
 26 C       -1.4820    -9.2310    -0.8270 C.3   1 <1>  -0.0970 
 27 C       -4.8900    -8.1060     1.5400 C.ar  1 <1>  -0.1500 
 28 C       -4.5420    -9.4340     1.3910 C.ar  1 <1>  -0.1500 
 29 H        2.2800    -2.3110    -1.6710 H     1 <1>   0.0800 
 30 H        2.9130    -3.2780    -0.3630 H     1 <1>   0.0800 
 31 H        2.9150     0.1590     2.2180 H     1 <1>   0.0800 
 32 H        4.5300    -0.4040     2.3660 H     1 <1>   0.0800 
 33 H        5.6170    -1.5980     0.3900 H     1 <1>   0.0800 
 34 H        4.6470    -1.9530    -0.9980 H     1 <1>   0.0800 
 35 H        0.6440    -3.4300     0.6250 H     1 <1>   0.0800 
 36 H        0.0050    -2.5170    -0.7100 H     1 <1>   0.0800 
 37 H        3.8840     2.1410     2.0410 H     1 <1>   0.0800 
 38 H        5.6680    -0.2800    -1.9920 H     1 <1>   0.0800 
 39 H        1.3880    -5.2060    -0.9490 H     1 <1>   0.0800 
 40 H        0.7150    -4.3060    -2.2810 H     1 <1>   0.0800 
 41 H        4.4900     2.8770    -0.1810 H     1 <1>   0.4500 
 42 H        6.0400     1.5520     2.6430 H     1 <1>   0.0800 
 43 H        6.2260     2.5920     1.2630 H     1 <1>   0.0800 
 44 H        6.9140     1.6130    -0.7600 H     1 <1>   0.0800 
 45 H        7.5120    -0.0220    -0.6600 H     1 <1>   0.0800 
 46 H        3.4090     0.6030    -1.5380 H     1 <1>   0.0800 
 47 H        4.6010     1.7500    -2.0520 H     1 <1>   0.0800 
 48 H        1.9190     1.4380     0.0340 H     1 <1>   0.0800 
 49 H        2.2500     2.7830    -1.0320 H     1 <1>   0.0800 
 50 H        2.2570     3.0170     0.7020 H     1 <1>   0.0800 
 51 H       -4.4080    -6.0940     1.0550 H     1 <1>   0.1500 
 52 H       -3.1790   -10.8090     0.5190 H     1 <1>   0.1500 
 53 H       -1.5120   -10.2880    -1.0190 H     1 <1>   0.0800 
 54 H       -0.5660    -9.0040    -0.3100 H     1 <1>   0.0800 
 55 H       -1.4840    -8.7200    -1.7730 H     1 <1>   0.0800 
 56 H       -5.7500    -7.8370     2.1280 H     1 <1>   0.1500 
 57 H       -5.1280   -10.2040     1.8620 H     1 <1>   0.1500 
@<TRIPOS>BOND
  1   1   2  2   
  2   2   3  am  
  3   2   4  1   
  4   3   5  1   
  5   3   6  1   
  6   4   7  1   
  7   4  29  1   
  8   4  30  1   
  9   5   8  1   
 10   5  31  1   
 11   5  32  1   
 12   6   9  1   
 13   6  33  1   
 14   6  34  1   
 15   7  10  1   
 16   7  35  1   
 17   7  36  1   
 18   8  11  1   
 19   8  12  1   
 20   8  37  1   
 21   9  13  1   
 22   9  14  1   
 23   9  38  1   
 24  10  15  1   
 25  10  39  1   
 26  10  40  1   
 27  11  14  1   
 28  11  16  1   
 29  11  41  1   
 30  12  17  1   
 31  12  42  1   
 32  12  43  1   
 33  13  17  1   
 34  13  44  1   
 35  13  45  1   
 36  14  46  1   
 37  14  47  1   
 38  15  18  1   
 39  15  19  2   
 40  16  48  1   
 41  16  49  1   
 42  16  50  1   
 43  18  20  1   
 44  19  21  1   
 45  20  21  2   
 46  21  22  1   
 47  22  23  ar  
 48  22  24  ar  
 49  23  25  ar  
 50  23  26  1   
 51  24  27  ar  
 52  24  51  1   
 53  25  28  ar  
 54  25  52  1   
 55  26  53  1   
 56  26  54  1   
 57  26  55  1   
 58  27  28  ar  
 59  27  56  1   
 60  28  57  1   
@<TRIPOS>SUBSTRUCTURE
  1 ****   7 GROUP 4 **** **** 0

# MOE 2024.06 (io_trps.svl 2023.06)
