@<TRIPOS>MOLECULE
NONAME
54 57 1 0 0 
SMALL
USER_CHARGES


@<TRIPOS>ATOM
  1 O       -1.2360     2.3170    -3.2900 O.2   1 <1>  -0.5700 
  2 C       -0.5920     2.6500    -2.3210 C.2   1 <1>   0.5690 
  3 N       -1.0540     2.4490    -1.0450 N.am  1 <1>  -0.6600 
  4 C        0.7710     3.3220    -2.5710 C.3   1 <1>   0.2700 
  5 C       -0.2310     2.8030     0.1530 C.3   1 <1>   0.1400 
  6 C       -2.3390     1.7420    -0.7800 C.3   1 <1>   0.2840 
  7 N        1.6200     3.5690    -1.3470 N.pl3 1 <1>  -0.8380 
  8 C        0.8070     3.8990    -0.1380 C.3   1 <1>   0.2090 
  9 C       -2.1090     0.5550     0.1450 C.ar  1 <1>  -0.1440 
 10 C        2.8430     4.1930    -1.5390 C.ar  1 <1>   0.4100 
 11 C       -2.6370     0.5420     1.4270 C.ar  1 <1>  -0.1500 
 12 C       -1.3600    -0.5270    -0.2930 C.ar  1 <1>  -0.1500 
 13 N        3.0090     5.3700    -0.9600 N.ar  1 <1>  -0.6200 
 14 C        3.8420     3.5930    -2.3230 C.ar  1 <1>   0.1600 
 15 C       -2.4130    -0.5390     2.2610 C.ar  1 <1>  -0.1500 
 16 C       -1.1340    -1.6100     0.5390 C.ar  1 <1>  -0.1500 
 17 C        4.2040     5.9390    -1.2020 C.ar  1 <1>   0.3960 
 18 N        5.0180     4.1210    -2.5870 N.ar  1 <1>  -0.6200 
 19 C       -1.6630    -1.6200     1.8270 C.ar  1 <1>   0.0830 
 20 C        4.5550     7.2470    -0.6400 C.2   1 <1>   0.5440 
 21 C        5.1570     5.3060    -2.0070 C.ar  1 <1>   0.1600 
 22 O       -1.4900    -2.6370     2.7070 O.3   1 <1>  -0.3630 
 23 O        5.3330     7.9620    -1.2510 O.2   1 <1>  -0.5700 
 24 N        4.0800     7.7260     0.5680 N.am  1 <1>  -0.6600 
 25 C       -0.7670    -3.7950     2.3550 C.3   1 <1>   0.0400 
 26 C        4.4380     9.0630     1.0930 C.3   1 <1>   0.1400 
 27 C        3.2480     6.9820     1.5390 C.3   1 <1>   0.1400 
 28 C        3.6010     9.2240     2.3580 C.3   1 <1>  -0.1600 
 29 C        3.3280     7.7970     2.8240 C.3   1 <1>  -0.1600 
 30 H        0.5860     4.2630    -3.0570 H     1 <1>   0.0800 
 31 H        1.3150     2.7010    -3.2590 H     1 <1>   0.0800 
 32 H        0.2830     1.9210     0.4960 H     1 <1>   0.0800 
 33 H       -0.8770     3.1380     0.9450 H     1 <1>   0.0800 
 34 H       -2.7740     1.3900    -1.7000 H     1 <1>   0.0800 
 35 H       -3.0320     2.4340    -0.3340 H     1 <1>   0.0800 
 36 H        1.4550     4.0060     0.7150 H     1 <1>   0.0800 
 37 H        0.3040     4.8390    -0.2930 H     1 <1>   0.0800 
 38 H       -3.2250     1.3690     1.7850 H     1 <1>   0.1500 
 39 H       -0.9480    -0.5220    -1.2880 H     1 <1>   0.1500 
 40 H        3.6300     2.6250    -2.7370 H     1 <1>   0.1500 
 41 H       -2.8200    -0.5550     3.2560 H     1 <1>   0.1500 
 42 H       -0.5490    -2.4290     0.1690 H     1 <1>   0.1500 
 43 H        6.0910     5.8140    -2.1750 H     1 <1>   0.1500 
 44 H       -0.7760    -4.4630     3.1970 H     1 <1>   0.0800 
 45 H        0.2440    -3.5170     2.1180 H     1 <1>   0.0800 
 46 H       -1.2470    -4.2630     1.5130 H     1 <1>   0.0800 
 47 H        4.2200     9.8290     0.3680 H     1 <1>   0.0800 
 48 H        5.4890     9.0770     1.3270 H     1 <1>   0.0800 
 49 H        3.6180     5.9810     1.6810 H     1 <1>   0.0800 
 50 H        2.2350     6.9500     1.1770 H     1 <1>   0.0800 
 51 H        2.6750     9.7100     2.1020 H     1 <1>   0.0800 
 52 H        4.1110     9.8100     3.1010 H     1 <1>   0.0800 
 53 H        4.1560     7.4410     3.4120 H     1 <1>   0.0800 
 54 H        2.4260     7.7200     3.4050 H     1 <1>   0.0800 
@<TRIPOS>BOND
  1   1   2  2   
  2   2   3  am  
  3   2   4  1   
  4   3   5  1   
  5   3   6  1   
  6   4   7  1   
  7   4  30  1   
  8   4  31  1   
  9   5   8  1   
 10   5  32  1   
 11   5  33  1   
 12   6   9  1   
 13   6  34  1   
 14   6  35  1   
 15   7   8  1   
 16   7  10  1   
 17   8  36  1   
 18   8  37  1   
 19   9  11  ar  
 20   9  12  ar  
 21  10  13  ar  
 22  10  14  ar  
 23  11  15  ar  
 24  11  38  1   
 25  12  16  ar  
 26  12  39  1   
 27  13  17  ar  
 28  14  18  ar  
 29  14  40  1   
 30  15  19  ar  
 31  15  41  1   
 32  16  19  ar  
 33  16  42  1   
 34  17  20  1   
 35  17  21  ar  
 36  18  21  ar  
 37  19  22  1   
 38  20  23  2   
 39  20  24  am  
 40  21  43  1   
 41  22  25  1   
 42  24  26  1   
 43  24  27  1   
 44  25  44  1   
 45  25  45  1   
 46  25  46  1   
 47  26  28  1   
 48  26  47  1   
 49  26  48  1   
 50  27  29  1   
 51  27  49  1   
 52  27  50  1   
 53  28  29  1   
 54  28  51  1   
 55  28  52  1   
 56  29  53  1   
 57  29  54  1   
@<TRIPOS>SUBSTRUCTURE
  1 ****   8 GROUP 4 **** **** 0

# MOE 2024.06 (io_trps.svl 2023.06)
