@<TRIPOS>MOLECULE
NONAME
41 43 1 0 0 
SMALL
USER_CHARGES


@<TRIPOS>ATOM
  1 S       -0.0730    -0.3310     0.7800 S.3   1 <1>  -0.0800 
  2 C       -1.4260    -0.9510    -0.1130 C.2   1 <1>   0.4420 
  3 C       -0.4730     1.2320     0.1570 C.2   1 <1>   0.1980 
  4 N       -2.0310    -0.0270    -0.7690 N.2   1 <1>  -0.3380 
  5 N       -1.6610    -2.3070    -0.0200 N.am  1 <1>  -0.4940 
  6 N       -1.4840     1.2140    -0.6090 N.2   1 <1>  -0.3380 
  7 C        0.3720     2.4190     0.5620 C.3   1 <1>   0.0200 
  8 C       -2.7220    -3.0440    -0.4880 C.2   1 <1>   0.5440 
  9 C       -0.2210     3.6850    -0.0690 C.3   1 <1>   0.3430 
 10 O       -3.7140    -2.4880    -0.9030 O.2   1 <1>  -0.5700 
 11 C       -2.6580    -4.4910    -0.4410 C.ar  1 <1>   0.0860 
 12 N        0.5080     4.9370     0.3250 N.4   1 <1>  -0.9590 
 13 C       -3.7940    -5.2380    -0.1240 C.ar  1 <1>  -0.1500 
 14 C       -1.4610    -5.1800    -0.7080 C.ar  1 <1>  -0.1500 
 15 C       -0.2880     6.1310    -0.1010 C.3   1 <1>   0.2630 
 16 C        1.8860     5.0080    -0.2590 C.3   1 <1>   0.2630 
 17 C       -3.7420    -6.6200    -0.0540 C.ar  1 <1>   0.2270 
 18 C       -1.3870    -6.5600    -0.6460 C.ar  1 <1>  -0.1500 
 19 N       -4.8080    -7.4580     0.2630 N.2   1 <1>  -0.5650 
 20 C       -2.5390    -7.2460    -0.3150 C.ar  1 <1>   0.0400 
 21 C       -4.4650    -8.6810     0.2510 C.2   1 <1>   0.1980 
 22 S       -2.7770    -8.9710    -0.1530 S.3   1 <1>  -0.0800 
 23 C       -5.3190    -9.8940     0.5360 C.3   1 <1>  -0.0600 
 24 H       -0.9710    -2.8300     0.5110 H     1 <1>   0.3700 
 25 H        1.3760     2.2550     0.2170 H     1 <1>   0.0800 
 26 H        0.3640     2.4990     1.6330 H     1 <1>   0.0800 
 27 H       -1.2520     3.7590     0.2390 H     1 <1>   0.0800 
 28 H       -0.2150     3.5790    -1.1430 H     1 <1>   0.0800 
 29 H        0.5810     4.9640     1.3540 H     1 <1>   0.4500 
 30 H       -4.7300    -4.7450     0.0710 H     1 <1>   0.1500 
 31 H       -0.5790    -4.6270    -0.9820 H     1 <1>   0.1500 
 32 H       -0.3980     6.1460    -1.1740 H     1 <1>   0.0800 
 33 H        0.2040     7.0400     0.2070 H     1 <1>   0.0800 
 34 H       -1.2700     6.1060     0.3440 H     1 <1>   0.0800 
 35 H        1.8400     4.9680    -1.3360 H     1 <1>   0.0800 
 36 H        2.4900     4.1870     0.0910 H     1 <1>   0.0800 
 37 H        2.3670     5.9300     0.0290 H     1 <1>   0.0800 
 38 H       -0.4740    -7.0930    -0.8500 H     1 <1>   0.1500 
 39 H       -6.3220    -9.5850     0.7670 H     1 <1>   0.0800 
 40 H       -4.9180   -10.4340     1.3730 H     1 <1>   0.0800 
 41 H       -5.3400   -10.5350    -0.3250 H     1 <1>   0.0800 
@<TRIPOS>BOND
  1   1   2  1   
  2   1   3  1   
  3   2   4  2   
  4   2   5  1   
  5   3   6  2   
  6   3   7  1   
  7   4   6  1   
  8   5   8  am  
  9   5  24  1   
 10   7   9  1   
 11   7  25  1   
 12   7  26  1   
 13   8  10  2   
 14   8  11  1   
 15   9  12  1   
 16   9  27  1   
 17   9  28  1   
 18  11  13  ar  
 19  11  14  ar  
 20  12  15  1   
 21  12  16  1   
 22  12  29  1   
 23  13  17  ar  
 24  13  30  1   
 25  14  18  ar  
 26  14  31  1   
 27  15  32  1   
 28  15  33  1   
 29  15  34  1   
 30  16  35  1   
 31  16  36  1   
 32  16  37  1   
 33  17  19  1   
 34  17  20  ar  
 35  18  20  ar  
 36  18  38  1   
 37  19  21  2   
 38  20  22  1   
 39  21  22  1   
 40  21  23  1   
 41  23  39  1   
 42  23  40  1   
 43  23  41  1   
@<TRIPOS>SUBSTRUCTURE
  1 ****   5 GROUP 4 **** **** 0

# MOE 2024.06 (io_trps.svl 2023.06)
