@<TRIPOS>MOLECULE
NONAME
47 49 1 0 0 
SMALL
USER_CHARGES


@<TRIPOS>ATOM
  1 O       -0.7830    -0.2780    -2.4610 O.2   1 <1>  -0.5700 
  2 C        0.1440    -1.0190    -2.2260 C.2   1 <1>   0.5690 
  3 N        1.2490    -0.6270    -1.5220 N.am  1 <1>  -0.4940 
  4 C        0.0690    -2.4800    -2.7080 C.3   1 <1>   0.2610 
  5 C        1.5090     0.5870    -0.8480 C.2   1 <1>  -0.0880 
  6 O        1.1920    -3.2430    -2.2700 O.3   1 <1>  -0.3630 
  7 C        0.0450    -2.5840    -4.2370 C.3   1 <1>  -0.2400 
  8 N        2.2570     0.7080     0.2840 N.pl3 1 <1>   0.3140 
  9 C        1.0890     1.8320    -1.1660 C.2   1 <1>  -0.1500 
 10 C        1.4030    -3.5790    -0.9710 C.ar  1 <1>   0.0820 
 11 N        2.3420     2.0060     0.6740 N.2   1 <1>  -0.7070 
 12 C        2.8500    -0.4180     1.0660 C.3   1 <1>   0.1760 
 13 C        1.6370     2.6600    -0.1960 C.2   1 <1>   0.1390 
 14 C        0.5010    -3.3200     0.0560 C.ar  1 <1>  -0.1500 
 15 C        2.6130    -4.1860    -0.6780 C.ar  1 <1>  -0.1500 
 16 C        2.4020    -0.4530     2.5300 C.3   1 <1>  -0.1600 
 17 C        4.3730    -0.3590     1.1420 C.3   1 <1>  -0.1600 
 18 C        0.8160    -3.6530     1.3620 C.ar  1 <1>   0.0820 
 19 C        2.9310    -4.5240     0.6250 C.ar  1 <1>  -0.1500 
 20 C        3.5270    -1.1690     3.2890 C.3   1 <1>  -0.1600 
 21 C        4.7200    -1.2590     2.3280 C.3   1 <1>  -0.1600 
 22 O       -0.1100    -3.3510     2.3050 O.3   1 <1>  -0.3620 
 23 C        2.0370    -4.2580     1.6470 C.ar  1 <1>  -0.1500 
 24 C        0.0720    -3.7040     3.6580 C.3   1 <1>   0.0400 
 25 H        1.9240    -1.3850    -1.3870 H     1 <1>   0.3700 
 26 H       -0.8210    -2.9380    -2.3150 H     1 <1>   0.0800 
 27 H        0.9320    -2.1420    -4.6540 H     1 <1>   0.0800 
 28 H       -0.8110    -2.0580    -4.6220 H     1 <1>   0.0800 
 29 H       -0.0230    -3.6130    -4.5380 H     1 <1>   0.0800 
 30 H        0.4650     2.1290    -1.9880 H     1 <1>   0.1500 
 31 H        2.5690    -1.3480     0.6100 H     1 <1>   0.0800 
 32 H        1.4980     3.7280    -0.1610 H     1 <1>   0.1500 
 33 H       -0.4510    -2.8570    -0.1220 H     1 <1>   0.1500 
 34 H        3.3050    -4.3940    -1.4760 H     1 <1>   0.1500 
 35 H        1.4600    -0.9610     2.6360 H     1 <1>   0.0800 
 36 H        2.3100     0.5510     2.9100 H     1 <1>   0.0800 
 37 H        4.6850     0.6500     1.3590 H     1 <1>   0.0800 
 38 H        4.8370    -0.6960     0.2320 H     1 <1>   0.0800 
 39 H        3.8740    -4.9970     0.8430 H     1 <1>   0.1500 
 40 H        3.2190    -2.1550     3.5890 H     1 <1>   0.0800 
 41 H        3.7910    -0.6060     4.1680 H     1 <1>   0.0800 
 42 H        5.6380    -0.9510     2.8000 H     1 <1>   0.0800 
 43 H        4.8270    -2.2740     1.9870 H     1 <1>   0.0800 
 44 H        2.3060    -4.5290     2.6500 H     1 <1>   0.1500 
 45 H       -0.8000    -3.3920     4.2040 H     1 <1>   0.0800 
 46 H        0.9410    -3.1980     4.0390 H     1 <1>   0.0800 
 47 H        0.1840    -4.7720     3.7290 H     1 <1>   0.0800 
@<TRIPOS>BOND
  1   1   2  2   
  2   2   3  am  
  3   2   4  1   
  4   3   5  1   
  5   3  25  1   
  6   4   6  1   
  7   4   7  1   
  8   4  26  1   
  9   5   8  1   
 10   5   9  2   
 11   6  10  1   
 12   7  27  1   
 13   7  28  1   
 14   7  29  1   
 15   8  11  1   
 16   8  12  1   
 17   9  13  1   
 18   9  30  1   
 19  10  14  ar  
 20  10  15  ar  
 21  11  13  2   
 22  12  16  1   
 23  12  17  1   
 24  12  31  1   
 25  13  32  1   
 26  14  18  ar  
 27  14  33  1   
 28  15  19  ar  
 29  15  34  1   
 30  16  20  1   
 31  16  35  1   
 32  16  36  1   
 33  17  21  1   
 34  17  37  1   
 35  17  38  1   
 36  18  22  1   
 37  18  23  ar  
 38  19  23  ar  
 39  19  39  1   
 40  20  21  1   
 41  20  40  1   
 42  20  41  1   
 43  21  42  1   
 44  21  43  1   
 45  22  24  1   
 46  23  44  1   
 47  24  45  1   
 48  24  46  1   
 49  24  47  1   
@<TRIPOS>SUBSTRUCTURE
  1 ****   3 GROUP 4 **** **** 0

# MOE 2024.06 (io_trps.svl 2023.06)
