@<TRIPOS>MOLECULE
NONAME
55 58 1 0 0 
SMALL
USER_CHARGES


@<TRIPOS>ATOM
  1 O       -0.6990     0.2940    -0.7830 O.2   1 <1>  -0.5700 
  2 C       -1.7170     0.9550    -0.6710 C.2   1 <1>   0.7160 
  3 N       -2.9290     0.3530    -0.9320 N.am  1 <1>  -0.6600 
  4 C       -1.6390     2.3380    -0.2620 C.2   1 <1>  -0.0860 
  5 C       -4.2190     0.8060    -0.3280 C.3   1 <1>   0.1400 
  6 C       -3.0270    -0.9900    -1.5820 C.3   1 <1>   0.1400 
  7 C       -0.7940     2.8820     0.7130 C.2   1 <1>   0.1080 
  8 C       -2.3340     3.4260    -0.7010 C.2   1 <1>  -0.3020 
  9 C       -4.7960    -0.2730     0.6090 C.3   1 <1>   0.1900 
 10 C       -3.6400    -2.0220    -0.6220 C.3   1 <1>   0.1100 
 11 N       -0.9590     4.1560     0.8690 N.2   1 <1>  -0.7070 
 12 C        0.2180     2.1030     1.5240 C.3   1 <1>  -0.0590 
 13 N       -1.9100     4.4960    -0.0150 N.pl3 1 <1>   0.3140 
 14 N       -4.9500    -1.5660    -0.1040 N.3   1 <1>  -0.8100 
 15 C       -6.1450     0.1880     1.1930 C.3   1 <1>   0.1200 
 16 C       -2.3710     5.8890    -0.1630 C.3   1 <1>   0.0960 
 17 C       -5.5640    -2.5680     0.7990 C.3   1 <1>   0.3330 
 18 O       -6.6700    -0.7890     2.0450 O.3   1 <1>  -0.5600 
 19 C       -1.6440     6.5840    -1.3230 C.3   1 <1>  -0.1600 
 20 C       -5.8550    -3.8720     0.0580 C.ar  1 <1>  -0.1430 
 21 C       -6.8740    -2.0240     1.4100 C.3   1 <1>   0.1200 
 22 C       -2.1190     8.0310    -1.4930 C.3   1 <1>  -0.2400 
 23 C       -6.4980    -3.8640    -1.1730 C.ar  1 <1>  -0.1500 
 24 C       -5.4800    -5.0870     0.6140 C.ar  1 <1>  -0.1500 
 25 C       -6.7630    -5.0490    -1.8360 C.ar  1 <1>  -0.1500 
 26 C       -5.7440    -6.2730    -0.0490 C.ar  1 <1>  -0.1500 
 27 C       -6.3860    -6.2550    -1.2740 C.ar  1 <1>  -0.1500 
 28 H       -4.0770     1.7090     0.2390 H     1 <1>   0.0800 
 29 H       -4.9230     1.0100    -1.1150 H     1 <1>   0.0800 
 30 H       -3.6500    -0.9120    -2.4560 H     1 <1>   0.0800 
 31 H       -2.0580    -1.3320    -1.9010 H     1 <1>   0.0800 
 32 H       -3.0880     3.4760    -1.4640 H     1 <1>   0.1500 
 33 H       -4.1090    -0.3970     1.4300 H     1 <1>   0.0800 
 34 H       -2.9580    -2.1940     0.1930 H     1 <1>   0.0800 
 35 H       -3.7610    -2.9490    -1.1560 H     1 <1>   0.0800 
 36 H       -0.2450     1.2380     1.9600 H     1 <1>   0.0800 
 37 H        0.6150     2.7210     2.3090 H     1 <1>   0.0800 
 38 H        1.0230     1.7880     0.8870 H     1 <1>   0.0800 
 39 H       -6.8560     0.3770     0.4070 H     1 <1>   0.0800 
 40 H       -6.0160     1.0860     1.7710 H     1 <1>   0.0800 
 41 H       -3.4310     5.8810    -0.3360 H     1 <1>   0.0800 
 42 H       -2.1750     6.4060     0.7580 H     1 <1>   0.0800 
 43 H       -4.8840    -2.7710     1.6090 H     1 <1>   0.0800 
 44 H       -0.5850     6.5800    -1.1270 H     1 <1>   0.0800 
 45 H       -1.8220     6.0430    -2.2370 H     1 <1>   0.0800 
 46 H       -7.2500    -2.7130     2.1430 H     1 <1>   0.0800 
 47 H       -7.6180    -1.8970     0.6440 H     1 <1>   0.0800 
 48 H       -1.9300     8.5970    -0.5970 H     1 <1>   0.0800 
 49 H       -3.1730     8.0630    -1.7090 H     1 <1>   0.0800 
 50 H       -1.5910     8.4970    -2.3070 H     1 <1>   0.0800 
 51 H       -6.7880    -2.9270    -1.6160 H     1 <1>   0.1500 
 52 H       -4.9800    -5.1180     1.5660 H     1 <1>   0.1500 
 53 H       -7.2620    -5.0310    -2.7900 H     1 <1>   0.1500 
 54 H       -5.4500    -7.2110     0.3890 H     1 <1>   0.1500 
 55 H       -6.5920    -7.1770    -1.7890 H     1 <1>   0.1500 
@<TRIPOS>BOND
  1   1   2  2   
  2   2   3  am  
  3   2   4  1   
  4   3   5  1   
  5   3   6  1   
  6   4   7  1   
  7   4   8  2   
  8   5   9  1   
  9   5  28  1   
 10   5  29  1   
 11   6  10  1   
 12   6  30  1   
 13   6  31  1   
 14   7  11  2   
 15   7  12  1   
 16   8  13  1   
 17   8  32  1   
 18   9  14  1   
 19   9  15  1   
 20   9  33  1   
 21  10  14  1   
 22  10  34  1   
 23  10  35  1   
 24  11  13  1   
 25  12  36  1   
 26  12  37  1   
 27  12  38  1   
 28  13  16  1   
 29  14  17  1   
 30  15  18  1   
 31  15  39  1   
 32  15  40  1   
 33  16  19  1   
 34  16  41  1   
 35  16  42  1   
 36  17  20  1   
 37  17  21  1   
 38  17  43  1   
 39  18  21  1   
 40  19  22  1   
 41  19  44  1   
 42  19  45  1   
 43  20  23  ar  
 44  20  24  ar  
 45  21  46  1   
 46  21  47  1   
 47  22  48  1   
 48  22  49  1   
 49  22  50  1   
 50  23  25  ar  
 51  23  51  1   
 52  24  26  ar  
 53  24  52  1   
 54  25  27  ar  
 55  25  53  1   
 56  26  27  ar  
 57  26  54  1   
 58  27  55  1   
@<TRIPOS>SUBSTRUCTURE
  1 ****   5 GROUP 4 **** **** 0

# MOE 2024.06 (io_trps.svl 2023.06)
