@<TRIPOS>MOLECULE
NONAME
39 41 1 0 0 
SMALL
USER_CHARGES


@<TRIPOS>ATOM
  1 O       -1.0520    -0.5470     0.7570 O.3   1 <1>  -0.5600 
  2 C       -1.4470     0.7610     1.0310 C.3   1 <1>   0.1200 
  3 C       -1.2410    -1.0170    -0.5370 C.3   1 <1>   0.1200 
  4 C       -2.9780     0.9580     0.9910 C.3   1 <1>   0.4230 
  5 C       -2.7190    -1.3430    -0.8030 C.3   1 <1>  -0.0800 
  6 N       -3.4760     1.1170    -0.4400 N.4   1 <1>  -0.9590 
  7 C       -3.7180    -0.0990     1.8640 C.3   1 <1>   0.2090 
  8 C       -3.4080    -2.0900     0.3590 C.3   1 <1>   0.2090 
  9 C       -3.5370    -0.1340    -1.2860 C.3   1 <1>   0.3430 
 10 C       -4.8360     1.7390    -0.4310 C.3   1 <1>   0.2630 
 11 N       -4.3670    -1.1960     1.0740 N.pl3 1 <1>  -0.8380 
 12 C       -5.7320    -1.2660     0.8800 C.ar  1 <1>   0.7200 
 13 N       -6.1540    -1.9610    -0.1740 N.ar  1 <1>  -0.6200 
 14 N       -6.4990    -0.5790     1.7210 N.ar  1 <1>  -0.6200 
 15 C       -7.4510    -2.0430    -0.3430 C.ar  1 <1>   0.1670 
 16 C       -7.7930    -0.6770     1.5350 C.ar  1 <1>   0.1600 
 17 C       -8.3280    -1.4100     0.5040 C.ar  1 <1>  -0.1500 
 18 C       -7.9450    -2.8690    -1.5120 C.3   1 <1>  -0.0970 
 19 H       -1.0970     0.9760     2.0260 H     1 <1>   0.0800 
 20 H       -0.9440     1.4290     0.3540 H     1 <1>   0.0800 
 21 H       -0.8460    -0.3040    -1.2410 H     1 <1>   0.0800 
 22 H       -0.6610    -1.9210    -0.6180 H     1 <1>   0.0800 
 23 H       -3.1410     1.9020     1.4820 H     1 <1>   0.0800 
 24 H       -2.7160    -2.0330    -1.6270 H     1 <1>   0.0800 
 25 H       -2.8320     1.7630    -0.9090 H     1 <1>   0.4500 
 26 H       -4.4460     0.4180     2.4620 H     1 <1>   0.0800 
 27 H       -3.0270    -0.5400     2.5620 H     1 <1>   0.0800 
 28 H       -2.6780    -2.4630     1.0570 H     1 <1>   0.0800 
 29 H       -3.9260    -2.9520    -0.0260 H     1 <1>   0.0800 
 30 H       -4.5630    -0.4590    -1.3560 H     1 <1>   0.0800 
 31 H       -3.2210     0.1120    -2.2860 H     1 <1>   0.0800 
 32 H       -5.5420     1.0850     0.0560 H     1 <1>   0.0800 
 33 H       -5.1760     1.9160    -1.4380 H     1 <1>   0.0800 
 34 H       -4.8190     2.6780     0.0970 H     1 <1>   0.0800 
 35 H       -8.4460    -0.1610     2.2200 H     1 <1>   0.1500 
 36 H       -9.3910    -1.4810     0.3720 H     1 <1>   0.1500 
 37 H       -9.0190    -2.8740    -1.5560 H     1 <1>   0.0800 
 38 H       -7.5990    -3.8810    -1.4080 H     1 <1>   0.0800 
 39 H       -7.5610    -2.4650    -2.4310 H     1 <1>   0.0800 
@<TRIPOS>BOND
  1   1   2  1   
  2   1   3  1   
  3   2   4  1   
  4   2  19  1   
  5   2  20  1   
  6   3   5  1   
  7   3  21  1   
  8   3  22  1   
  9   4   6  1   
 10   4   7  1   
 11   4  23  1   
 12   5   8  1   
 13   5   9  1   
 14   5  24  1   
 15   6   9  1   
 16   6  10  1   
 17   6  25  1   
 18   7  11  1   
 19   7  26  1   
 20   7  27  1   
 21   8  11  1   
 22   8  28  1   
 23   8  29  1   
 24   9  30  1   
 25   9  31  1   
 26  10  32  1   
 27  10  33  1   
 28  10  34  1   
 29  11  12  1   
 30  12  13  ar  
 31  12  14  ar  
 32  13  15  ar  
 33  14  16  ar  
 34  15  17  ar  
 35  15  18  1   
 36  16  17  ar  
 37  16  35  1   
 38  17  36  1   
 39  18  37  1   
 40  18  38  1   
 41  18  39  1   
@<TRIPOS>SUBSTRUCTURE
  1 ****  11 GROUP 4 **** **** 0

# MOE 2024.06 (io_trps.svl 2023.06)
