@<TRIPOS>MOLECULE
NONAME
58 62 1 0 0 
SMALL
USER_CHARGES


@<TRIPOS>ATOM
  1 O       -0.8870     0.1960     1.2760 O.2   1 <1>  -0.5700 
  2 C       -1.6110     0.0830     0.2980 C.2   1 <1>   0.5440 
  3 N       -2.2580    -1.1250     0.1440 N.am  1 <1>  -0.6600 
  4 C       -1.7660     1.2150    -0.6270 C.ar  1 <1>   0.3960 
  5 C       -2.1150    -2.3210     0.9640 C.3   1 <1>   0.2200 
  6 C       -3.4730    -1.4630    -0.5700 C.3   1 <1>   0.2200 
  7 N       -2.1250     1.0090    -1.9080 N.ar  1 <1>  -0.6200 
  8 C       -1.5260     2.5040    -0.1440 C.ar  1 <1>  -0.1500 
  9 C       -2.1030    -3.4320    -0.1230 C.3   1 <1>   0.0610 
 10 C       -3.4680    -2.2460     1.6990 C.3   1 <1>  -0.1600 
 11 C       -3.0710    -2.8100    -1.1850 C.3   1 <1>  -0.1600 
 12 C       -4.4190    -1.7120     0.6110 C.3   1 <1>  -0.1600 
 13 C       -2.2300     2.0680    -2.6770 C.ar  1 <1>   0.4100 
 14 C       -1.6490     3.6100    -0.9570 C.ar  1 <1>  -0.1500 
 15 C       -2.5680    -4.7730     0.4700 C.2   1 <1>   0.5690 
 16 C       -0.6770    -3.7100    -0.6850 C.3   1 <1>  -0.0170 
 17 N       -2.5640     1.7910    -3.9600 N.pl3 1 <1>  -0.9000 
 18 C       -2.0130     3.3740    -2.2590 C.ar  1 <1>  -0.1500 
 19 O       -2.1560    -5.0910     1.5600 O.2   1 <1>  -0.5700 
 20 N       -3.3780    -5.5910    -0.2630 N.am  1 <1>  -0.6550 
 21 C        0.0390    -2.5990    -1.4500 C.ar  1 <1>  -0.1440 
 22 C       -3.9550    -6.9130     0.0940 C.3   1 <1>   0.2250 
 23 C       -0.0230    -2.5370    -2.8350 C.ar  1 <1>  -0.1500 
 24 C        0.7870    -1.6520    -0.7690 C.ar  1 <1>  -0.1500 
 25 C       -4.6590    -6.9970     1.4750 C.3   1 <1>   0.0000 
 26 C       -2.9490    -7.9810     0.6000 C.3   1 <1>   0.0000 
 27 C        0.6340    -1.5330    -3.5250 C.ar  1 <1>  -0.1500 
 28 C        1.4430    -0.6450    -1.4550 C.ar  1 <1>  -0.1500 
 29 C       -4.0430    -8.4140     1.6120 C.3   1 <1>   0.0000 
 30 C        1.3650    -0.5830    -2.8340 C.ar  1 <1>  -0.1500 
 31 H       -1.2560    -2.3120     1.6130 H     1 <1>   0.0800 
 32 H       -3.8190    -0.7260    -1.2730 H     1 <1>   0.0800 
 33 H       -1.2390     2.6320     0.8850 H     1 <1>   0.1500 
 34 H       -3.7930    -3.1810     2.1150 H     1 <1>   0.0800 
 35 H       -3.3850    -1.5340     2.5020 H     1 <1>   0.0800 
 36 H       -3.9500    -3.3900    -1.3870 H     1 <1>   0.0800 
 37 H       -2.5770    -2.6220    -2.1180 H     1 <1>   0.0800 
 38 H       -4.8680    -0.7850     0.9230 H     1 <1>   0.0800 
 39 H       -5.1950    -2.4140     0.3640 H     1 <1>   0.0800 
 40 H       -1.4680     4.6050    -0.5880 H     1 <1>   0.1500 
 41 H       -0.0450    -4.0030     0.1360 H     1 <1>   0.0800 
 42 H       -0.7320    -4.5660    -1.3340 H     1 <1>   0.0800 
 43 H       -2.4940     0.7910    -4.1580 H     1 <1>   0.4000 
 44 H       -2.1340     2.3680    -4.6820 H     1 <1>   0.4000 
 45 H       -2.1330     4.1810    -2.9560 H     1 <1>   0.1500 
 46 H       -3.6360    -5.2870    -1.2000 H     1 <1>   0.3700 
 47 H       -4.5790    -7.2920    -0.6960 H     1 <1>   0.0000 
 48 H       -0.5830    -3.2710    -3.3860 H     1 <1>   0.1500 
 49 H        0.8540    -1.6840     0.3050 H     1 <1>   0.1500 
 50 H       -4.2810    -6.3190     2.2190 H     1 <1>   0.0000 
 51 H       -5.7320    -7.0120     1.4130 H     1 <1>   0.0000 
 52 H       -2.7260    -8.7420    -0.1260 H     1 <1>   0.0000 
 53 H       -2.0780    -7.5860     1.0910 H     1 <1>   0.0000 
 54 H        0.5760    -1.4890    -4.5980 H     1 <1>   0.1500 
 55 H        2.0070     0.0900    -0.9100 H     1 <1>   0.1500 
 56 H       -4.6860    -9.1840     1.2200 H     1 <1>   0.0000 
 57 H       -3.6630    -8.6300     2.5950 H     1 <1>   0.0000 
 58 H        1.8720     0.2020    -3.3660 H     1 <1>   0.1500 
@<TRIPOS>BOND
  1   1   2  2   
  2   2   3  am  
  3   2   4  1   
  4   3   5  1   
  5   3   6  1   
  6   4   7  ar  
  7   4   8  ar  
  8   5   9  1   
  9   5  10  1   
 10   5  31  1   
 11   6  11  1   
 12   6  12  1   
 13   6  32  1   
 14   7  13  ar  
 15   8  14  ar  
 16   8  33  1   
 17   9  11  1   
 18   9  15  1   
 19   9  16  1   
 20  10  12  1   
 21  10  34  1   
 22  10  35  1   
 23  11  36  1   
 24  11  37  1   
 25  12  38  1   
 26  12  39  1   
 27  13  17  1   
 28  13  18  ar  
 29  14  18  ar  
 30  14  40  1   
 31  15  19  2   
 32  15  20  am  
 33  16  21  1   
 34  16  41  1   
 35  16  42  1   
 36  17  43  1   
 37  17  44  1   
 38  18  45  1   
 39  20  22  1   
 40  20  46  1   
 41  21  23  ar  
 42  21  24  ar  
 43  22  25  1   
 44  22  26  1   
 45  22  47  1   
 46  23  27  ar  
 47  23  48  1   
 48  24  28  ar  
 49  24  49  1   
 50  25  29  1   
 51  25  50  1   
 52  25  51  1   
 53  26  29  1   
 54  26  52  1   
 55  26  53  1   
 56  27  30  ar  
 57  27  54  1   
 58  28  30  ar  
 59  28  55  1   
 60  29  56  1   
 61  29  57  1   
 62  30  58  1   
@<TRIPOS>SUBSTRUCTURE
  1 ****   3 GROUP 4 **** **** 0

# MOE 2024.06 (io_trps.svl 2023.06)
