@<TRIPOS>MOLECULE
NONAME
41 42 1 0 0 
SMALL
USER_CHARGES


@<TRIPOS>ATOM
  1 S       -0.2450     1.5930    -0.9900 S.o2  1 <1>   1.3330 
  2 O       -0.1920     0.3740    -1.7640 O.2   1 <1>  -0.6500 
  3 O       -1.0010     2.7130    -1.5060 O.2   1 <1>  -0.6500 
  4 N        1.3580     2.0960    -0.7560 N.am  1 <1>  -0.8490 
  5 C       -0.8850     1.1830     0.6460 C.3   1 <1>  -0.0550 
  6 C        2.3030     0.9990    -0.5310 C.3   1 <1>   0.1160 
  7 C        1.8410     2.9520    -1.8440 C.3   1 <1>   0.1160 
  8 C       -0.9060     2.2480     1.7740 C.3   1 <1>  -0.0800 
  9 C       -1.4930     3.6080     1.3780 C.3   1 <1>   0.2000 
 10 C        0.4800     2.5810     2.3380 C.3   1 <1>   0.1400 
 11 O       -2.1000     4.1400     2.5050 O.3   1 <1>  -0.6800 
 12 C       -0.2880     4.4850     1.0300 C.3   1 <1>   0.1400 
 13 N        0.8630     3.8900     1.7600 N.am  1 <1>  -0.6600 
 14 C        2.1920     4.2010     1.5160 C.2   1 <1>   0.7160 
 15 O        3.0310     3.5220     2.0900 O.2   1 <1>  -0.5700 
 16 C        2.6380     5.2710     0.6180 C.2   1 <1>   0.2030 
 17 N        1.9030     6.1460    -0.0540 N.2   1 <1>  -0.7070 
 18 C        3.9930     5.4960     0.3390 C.2   1 <1>  -0.1500 
 19 N        2.7670     6.9180    -0.7530 N.pl3 1 <1>   0.3140 
 20 C        4.0410     6.5290    -0.5220 C.2   1 <1>  -0.3020 
 21 C        2.3210     8.0350    -1.6520 C.3   1 <1>   0.8560 
 22 F        2.6910     7.7880    -2.9080 F     1 <1>  -0.3400 
 23 F        2.9430     9.1670    -1.3270 F     1 <1>  -0.3400 
 24 H       -1.8980     0.8600     0.5070 H     1 <1>   0.0800 
 25 H       -0.3490     0.3290     1.0100 H     1 <1>   0.0800 
 26 H        3.2720     1.3950    -0.2780 H     1 <1>   0.0800 
 27 H        2.3900     0.3890    -1.4150 H     1 <1>   0.0800 
 28 H        1.9700     0.3810     0.2840 H     1 <1>   0.0800 
 29 H        2.8510     3.2710    -1.6490 H     1 <1>   0.0800 
 30 H        1.2240     3.8310    -1.9250 H     1 <1>   0.0800 
 31 H        1.8100     2.4200    -2.7800 H     1 <1>   0.0800 
 32 H       -1.4970     1.8200     2.5660 H     1 <1>   0.0800 
 33 H       -2.2280     3.5610     0.5920 H     1 <1>   0.0800 
 34 H        1.2040     1.8220     2.0940 H     1 <1>   0.0800 
 35 H        0.4320     2.6820     3.4090 H     1 <1>   0.0800 
 36 H       -1.4090     4.3890     3.1510 H     1 <1>   0.4000 
 37 H       -0.4450     5.5100     1.3170 H     1 <1>   0.0800 
 38 H       -0.0960     4.4470    -0.0260 H     1 <1>   0.0800 
 39 H        4.8070     4.9280     0.7550 H     1 <1>   0.1500 
 40 H        4.8900     7.0070    -0.9770 H     1 <1>   0.1500 
 41 H        1.2600     8.1960    -1.6240 H     1 <1>   0.0800 
@<TRIPOS>BOND
  1   1   2  2   
  2   1   3  2   
  3   1   4  am  
  4   1   5  1   
  5   4   6  1   
  6   4   7  1   
  7   5   8  1   
  8   5  24  1   
  9   5  25  1   
 10   6  26  1   
 11   6  27  1   
 12   6  28  1   
 13   7  29  1   
 14   7  30  1   
 15   7  31  1   
 16   8   9  1   
 17   8  10  1   
 18   8  32  1   
 19   9  11  1   
 20   9  12  1   
 21   9  33  1   
 22  10  13  1   
 23  10  34  1   
 24  10  35  1   
 25  11  36  1   
 26  12  13  1   
 27  12  37  1   
 28  12  38  1   
 29  13  14  am  
 30  14  15  2   
 31  14  16  1   
 32  16  17  2   
 33  16  18  1   
 34  17  19  1   
 35  18  20  2   
 36  18  39  1   
 37  19  20  1   
 38  19  21  1   
 39  20  40  1   
 40  21  22  1   
 41  21  23  1   
 42  21  41  1   
@<TRIPOS>SUBSTRUCTURE
  1 ****  14 GROUP 4 **** **** 0

# MOE 2024.06 (io_trps.svl 2023.06)
