@<TRIPOS>MOLECULE
NONAME
44 46 1 0 0 
SMALL
USER_CHARGES


@<TRIPOS>ATOM
  1 O       -0.1160    -0.0230    -0.2700 O.3   1 <1>  -0.6800 
  2 C        1.0270    -0.3950    -0.9710 C.3   1 <1>   0.2000 
  3 C        1.8140    -1.3940    -0.1240 C.3   1 <1>  -0.0800 
  4 C        1.9610     0.8170    -1.1270 C.3   1 <1>   0.2090 
  5 C        2.6830    -0.4950     0.7580 C.3   1 <1>   0.2090 
  6 C        2.6610    -2.3170    -1.0230 C.3   1 <1>   0.0210 
  7 N        3.0350     0.6680    -0.0930 N.pl3 1 <1>  -0.8380 
  8 C        3.5830    -3.1990    -0.2080 C.2   1 <1>   0.1080 
  9 C        4.3750     0.8550    -0.4000 C.ar  1 <1>   0.4100 
 10 N        3.1610    -4.1780     0.5290 N.2   1 <1>  -0.7070 
 11 C        4.9640    -3.0490    -0.1480 C.2   1 <1>  -0.1500 
 12 N        4.7530     0.4480    -1.6090 N.ar  1 <1>  -0.6200 
 13 C        5.2570     1.4150     0.5380 C.ar  1 <1>   0.0730 
 14 N        4.2770    -4.6890     1.0830 N.pl3 1 <1>   0.3000 
 15 C        5.3820    -4.0200     0.6900 C.2   1 <1>  -0.3320 
 16 C        6.0250     0.5910    -1.9160 C.ar  1 <1>   0.1670 
 17 C        4.7720     1.8260     1.8210 C.1   1 <1>   0.4840 
 18 C        6.5950     1.5560     0.1950 C.ar  1 <1>  -0.1430 
 19 C        6.7900    -4.3530     1.1470 C.3   1 <1>  -0.0600 
 20 C        6.9700     1.1300    -1.0620 C.ar  1 <1>  -0.1500 
 21 C        6.4250     0.1180    -3.2970 C.3   1 <1>  -0.0970 
 22 N        4.4540     2.1510     2.8700 N.1   1 <1>  -0.5570 
 23 C        7.6300     2.1510     1.1440 C.3   1 <1>  -0.0970 
 24 H       -0.6520    -0.8090    -0.0540 H     1 <1>   0.4000 
 25 H        0.7200    -0.7920    -1.9230 H     1 <1>   0.0800 
 26 H        1.1740    -2.0090     0.4820 H     1 <1>   0.0800 
 27 H        1.4230     1.7360    -0.9740 H     1 <1>   0.0800 
 28 H        2.3830     0.8220    -2.1160 H     1 <1>   0.0800 
 29 H        3.5580    -0.9980     1.1300 H     1 <1>   0.0800 
 30 H        2.1060    -0.1420     1.5970 H     1 <1>   0.0800 
 31 H        3.2500    -1.7390    -1.7110 H     1 <1>   0.0800 
 32 H        2.0120    -2.9510    -1.6000 H     1 <1>   0.0800 
 33 H        5.5370    -2.3010    -0.6690 H     1 <1>   0.1500 
 34 H        4.2500    -5.4910     1.7230 H     1 <1>   0.2700 
 35 H        7.4940    -3.6750     0.6960 H     1 <1>   0.0800 
 36 H        7.0480    -5.3570     0.8580 H     1 <1>   0.0800 
 37 H        6.8660    -4.2640     2.2160 H     1 <1>   0.0800 
 38 H        7.9930     1.2150    -1.3820 H     1 <1>   0.1500 
 39 H        7.4750     0.2650    -3.4710 H     1 <1>   0.0800 
 40 H        5.8700     0.6650    -4.0370 H     1 <1>   0.0800 
 41 H        6.1980    -0.9270    -3.3980 H     1 <1>   0.0800 
 42 H        8.6040     2.1740     0.6900 H     1 <1>   0.0800 
 43 H        7.6890     1.5640     2.0440 H     1 <1>   0.0800 
 44 H        7.3550     3.1580     1.4070 H     1 <1>   0.0800 
@<TRIPOS>BOND
  1   1   2  1   
  2   1  24  1   
  3   2   3  1   
  4   2   4  1   
  5   2  25  1   
  6   3   5  1   
  7   3   6  1   
  8   3  26  1   
  9   4   7  1   
 10   4  27  1   
 11   4  28  1   
 12   5   7  1   
 13   5  29  1   
 14   5  30  1   
 15   6   8  1   
 16   6  31  1   
 17   6  32  1   
 18   7   9  1   
 19   8  10  2   
 20   8  11  1   
 21   9  12  ar  
 22   9  13  ar  
 23  10  14  1   
 24  11  15  2   
 25  11  33  1   
 26  12  16  ar  
 27  13  17  1   
 28  13  18  ar  
 29  14  15  1   
 30  14  34  1   
 31  15  19  1   
 32  16  20  ar  
 33  16  21  1   
 34  17  22  3   
 35  18  20  ar  
 36  18  23  1   
 37  19  35  1   
 38  19  36  1   
 39  19  37  1   
 40  20  38  1   
 41  21  39  1   
 42  21  40  1   
 43  21  41  1   
 44  23  42  1   
 45  23  43  1   
 46  23  44  1   
@<TRIPOS>SUBSTRUCTURE
  1 ****   9 GROUP 4 **** **** 0

# MOE 2024.06 (io_trps.svl 2023.06)
