@<TRIPOS>MOLECULE
NONAME
54 56 1 0 0 
SMALL
USER_CHARGES


@<TRIPOS>ATOM
  1 F        1.1110     1.7680     1.1750 F     1 <1>  -0.1900 
  2 C        2.3610     2.1420     1.2110 C.ar  1 <1>   0.1900 
  3 C        2.8540     2.9020     0.1720 C.ar  1 <1>  -0.1500 
  4 C        3.1380     1.7620     2.2870 C.ar  1 <1>  -0.1500 
  5 C        4.1840     3.3200     0.1910 C.ar  1 <1>   0.0860 
  6 C        4.4630     2.1600     2.3200 C.ar  1 <1>  -0.1440 
  7 C        4.7380     4.1350    -0.8770 C.2   1 <1>   0.5440 
  8 C        4.9690     2.9260     1.2790 C.ar  1 <1>  -0.1500 
  9 C        5.3470     1.7500     3.4850 C.3   1 <1>  -0.0960 
 10 O        5.9170     4.0630    -1.1730 O.2   1 <1>  -0.5700 
 11 N        3.9860     5.0740    -1.5470 N.am  1 <1>  -0.6600 
 12 C        4.2870     5.4210    -2.9780 C.3   1 <1>   0.1400 
 13 C        3.2040     6.0950    -0.7980 C.3   1 <1>   0.1400 
 14 C        5.5660     6.2740    -3.1410 C.3   1 <1>   0.3430 
 15 C        4.1340     7.1840    -0.2440 C.3   1 <1>  -0.1600 
 16 N        5.9900     6.8750    -1.8460 N.4   1 <1>  -0.9590 
 17 C        5.0330     7.8650    -1.2820 C.3   1 <1>   0.3430 
 18 C        7.4030     7.3360    -1.8180 C.3   1 <1>   0.5240 
 19 C        7.8560     7.4530    -0.3700 C.2   1 <1>   0.0460 
 20 N        7.6150     8.5750     0.3380 N.2   1 <1>  -0.5650 
 21 C        8.4990     6.5330     0.3860 C.2   1 <1>  -0.3320 
 22 C        8.1270     8.3300     1.4990 C.2   1 <1>   0.0060 
 23 N        8.6820     7.1020     1.5920 N.pl3 1 <1>   0.0330 
 24 C        8.9670     5.1220     0.0660 C.3   1 <1>  -0.0600 
 25 C        8.1160     9.3130     2.6560 C.3   1 <1>   0.0200 
 26 C        9.5290     9.8120     2.9780 C.3   1 <1>  -0.2400 
 27 H        2.2080     3.1600    -0.6470 H     1 <1>   0.1500 
 28 H        2.7090     1.1660     3.0740 H     1 <1>   0.1500 
 29 H        6.0020     3.2280     1.3010 H     1 <1>   0.1500 
 30 H        4.8080     1.8400     4.4110 H     1 <1>   0.0800 
 31 H        6.2220     2.3720     3.5400 H     1 <1>   0.0800 
 32 H        5.6580     0.7270     3.3640 H     1 <1>   0.0800 
 33 H        3.4510     5.9480    -3.4040 H     1 <1>   0.0800 
 34 H        4.4060     4.5120    -3.5420 H     1 <1>   0.0800 
 35 H        2.6800     5.6280     0.0190 H     1 <1>   0.0800 
 36 H        2.4650     6.5320    -1.4480 H     1 <1>   0.0800 
 37 H        5.4110     7.0370    -3.8850 H     1 <1>   0.0800 
 38 H        6.3480     5.6220    -3.4950 H     1 <1>   0.0800 
 39 H        4.7470     6.7780     0.5420 H     1 <1>   0.0800 
 40 H        3.5220     7.9430     0.2090 H     1 <1>   0.0800 
 41 H        5.9770     6.0660    -1.1950 H     1 <1>   0.4500 
 42 H        5.5710     8.6640    -0.7980 H     1 <1>   0.0800 
 43 H        4.4350     8.2970    -2.0680 H     1 <1>   0.0800 
 44 H        7.5060     8.2890    -2.3090 H     1 <1>   0.0800 
 45 H        8.0300     6.6160    -2.3150 H     1 <1>   0.0800 
 46 H        9.1500     6.7050     2.4120 H     1 <1>   0.2700 
 47 H        8.7030     4.8470    -0.9390 H     1 <1>   0.0800 
 48 H        8.5060     4.4180     0.7360 H     1 <1>   0.0800 
 49 H       10.0350     5.0510     0.1700 H     1 <1>   0.0800 
 50 H        7.6860     8.8440     3.5230 H     1 <1>   0.0800 
 51 H        7.4970    10.1530     2.3940 H     1 <1>   0.0800 
 52 H       10.1610     8.9980     3.2840 H     1 <1>   0.0800 
 53 H        9.4910    10.5370     3.7720 H     1 <1>   0.0800 
 54 H        9.9590    10.2770     2.1090 H     1 <1>   0.0800 
@<TRIPOS>BOND
  1   1   2  1   
  2   2   3  ar  
  3   2   4  ar  
  4   3   5  ar  
  5   3  27  1   
  6   4   6  ar  
  7   4  28  1   
  8   5   7  1   
  9   5   8  ar  
 10   6   8  ar  
 11   6   9  1   
 12   7  10  2   
 13   7  11  am  
 14   8  29  1   
 15   9  30  1   
 16   9  31  1   
 17   9  32  1   
 18  11  12  1   
 19  11  13  1   
 20  12  14  1   
 21  12  33  1   
 22  12  34  1   
 23  13  15  1   
 24  13  35  1   
 25  13  36  1   
 26  14  16  1   
 27  14  37  1   
 28  14  38  1   
 29  15  17  1   
 30  15  39  1   
 31  15  40  1   
 32  16  17  1   
 33  16  18  1   
 34  16  41  1   
 35  17  42  1   
 36  17  43  1   
 37  18  19  1   
 38  18  44  1   
 39  18  45  1   
 40  19  20  1   
 41  19  21  2   
 42  20  22  2   
 43  21  23  1   
 44  21  24  1   
 45  22  23  1   
 46  22  25  1   
 47  23  46  1   
 48  24  47  1   
 49  24  48  1   
 50  24  49  1   
 51  25  26  1   
 52  25  50  1   
 53  25  51  1   
 54  26  52  1   
 55  26  53  1   
 56  26  54  1   
@<TRIPOS>SUBSTRUCTURE
  1 ****   7 GROUP 4 **** **** 0

# MOE 2024.06 (io_trps.svl 2023.06)
