@<TRIPOS>MOLECULE
NONAME
49 51 1 0 0 
SMALL
USER_CHARGES


@<TRIPOS>ATOM
  1 S       -2.7380    -0.4980     1.1150 S.3   1 <1>  -0.3320 
  2 C       -2.8030     0.5250    -0.3610 C.ar  1 <1>   0.4120 
  3 C       -2.5480     0.6890     2.5190 C.3   1 <1>  -0.0100 
  4 N       -2.7470     1.8290    -0.1300 N.ar  1 <1>  -0.6200 
  5 C       -2.9130    -0.0880    -1.6110 C.ar  1 <1>   0.0860 
  6 C       -2.7780     2.5910    -1.2110 C.ar  1 <1>   0.1600 
  7 C       -2.9990    -1.5190    -1.7720 C.2   1 <1>   0.5440 
  8 C       -2.9370     0.7490    -2.7180 C.ar  1 <1>  -0.1500 
  9 C       -2.8680     2.1090    -2.5060 C.ar  1 <1>  -0.1500 
 10 O       -2.0430    -2.1140    -2.2300 O.2   1 <1>  -0.5700 
 11 N       -4.1480    -2.2230    -1.4760 N.am  1 <1>  -0.6600 
 12 C       -5.4080    -1.6160    -0.9460 C.3   1 <1>   0.1400 
 13 C       -4.1990    -3.7170    -1.5170 C.3   1 <1>   0.1400 
 14 C       -5.8350    -2.3020     0.3650 C.3   1 <1>   0.2950 
 15 C       -4.7150    -4.2920    -0.1780 C.3   1 <1>   0.2000 
 16 O       -5.9260    -3.6840     0.1750 O.3   1 <1>  -0.5600 
 17 C       -7.2020    -1.8030     0.8420 C.3   1 <1>  -0.1950 
 18 C       -4.9790    -5.8020    -0.2310 C.3   1 <1>  -0.1600 
 19 C       -7.3180    -0.5560     1.6620 C.3   1 <1>  -0.2000 
 20 C       -7.6010    -1.8960     2.2810 C.3   1 <1>  -0.2000 
 21 C       -3.7040    -6.6290    -0.4610 C.3   1 <1>  -0.1600 
 22 C       -4.0080    -8.1310    -0.4100 C.3   1 <1>  -0.1600 
 23 C       -2.7400    -8.9580    -0.6420 C.3   1 <1>  -0.2400 
 24 H       -2.4950     0.1190     3.4280 H     1 <1>   0.0800 
 25 H       -3.4030     1.3410     2.5190 H     1 <1>   0.0800 
 26 H       -1.6420     1.2450     2.3580 H     1 <1>   0.0800 
 27 H       -2.7270     3.6560    -1.0590 H     1 <1>   0.1500 
 28 H       -3.0030     0.3340    -3.7090 H     1 <1>   0.1500 
 29 H       -2.8830     2.7930    -3.3360 H     1 <1>   0.1500 
 30 H       -5.2890    -0.5640    -0.7660 H     1 <1>   0.0800 
 31 H       -6.1900    -1.7390    -1.6740 H     1 <1>   0.0800 
 32 H       -4.8520    -4.0260    -2.3130 H     1 <1>   0.0800 
 33 H       -3.2220    -4.1180    -1.7190 H     1 <1>   0.0800 
 34 H       -5.1010    -2.1180     1.1310 H     1 <1>   0.0800 
 35 H       -3.9990    -4.0850     0.6000 H     1 <1>   0.0800 
 36 H       -7.9710    -1.9810     0.1110 H     1 <1>   0.1000 
 37 H       -5.4180    -6.0960     0.7070 H     1 <1>   0.0800 
 38 H       -5.6890    -6.0080    -1.0130 H     1 <1>   0.0800 
 39 H       -6.4260    -0.0330     1.9630 H     1 <1>   0.1000 
 40 H       -8.1430     0.1110     1.4790 H     1 <1>   0.1000 
 41 H       -8.6170    -2.1640     2.5120 H     1 <1>   0.1000 
 42 H       -6.8970    -2.3090     2.9830 H     1 <1>   0.1000 
 43 H       -3.2780    -6.3910    -1.4200 H     1 <1>   0.0800 
 44 H       -2.9780    -6.3870     0.2970 H     1 <1>   0.0800 
 45 H       -4.4240    -8.3850     0.5500 H     1 <1>   0.0800 
 46 H       -4.7350    -8.3790    -1.1650 H     1 <1>   0.0800 
 47 H       -2.0060    -8.7410     0.1140 H     1 <1>   0.0800 
 48 H       -2.3180    -8.7370    -1.6070 H     1 <1>   0.0800 
 49 H       -2.9720   -10.0070    -0.6030 H     1 <1>   0.0800 
@<TRIPOS>BOND
  1   1   2  1   
  2   1   3  1   
  3   2   4  ar  
  4   2   5  ar  
  5   3  24  1   
  6   3  25  1   
  7   3  26  1   
  8   4   6  ar  
  9   5   7  1   
 10   5   8  ar  
 11   6   9  ar  
 12   6  27  1   
 13   7  10  2   
 14   7  11  am  
 15   8   9  ar  
 16   8  28  1   
 17   9  29  1   
 18  11  12  1   
 19  11  13  1   
 20  12  14  1   
 21  12  30  1   
 22  12  31  1   
 23  13  15  1   
 24  13  32  1   
 25  13  33  1   
 26  14  16  1   
 27  14  17  1   
 28  14  34  1   
 29  15  16  1   
 30  15  18  1   
 31  15  35  1   
 32  17  19  1   
 33  17  20  1   
 34  17  36  1   
 35  18  21  1   
 36  18  37  1   
 37  18  38  1   
 38  19  20  1   
 39  19  39  1   
 40  19  40  1   
 41  20  41  1   
 42  20  42  1   
 43  21  22  1   
 44  21  43  1   
 45  21  44  1   
 46  22  23  1   
 47  22  45  1   
 48  22  46  1   
 49  23  47  1   
 50  23  48  1   
 51  23  49  1   
@<TRIPOS>SUBSTRUCTURE
  1 ****  11 GROUP 4 **** **** 0

# MOE 2024.06 (io_trps.svl 2023.06)
