@<TRIPOS>MOLECULE
NONAME
45 48 1 0 0 
SMALL
USER_CHARGES


@<TRIPOS>ATOM
  1 O        1.2060     0.8540     0.0230 O.3   1 <1>  -0.6800 
  2 C        2.2600     0.2960    -0.6950 C.3   1 <1>   0.2000 
  3 C        2.4600    -1.1360    -0.2040 C.3   1 <1>  -0.0800 
  4 C        3.5510     0.9840    -0.2560 C.3   1 <1>   0.3430 
  5 C        3.2620    -0.9700     1.1000 C.3   1 <1>   0.3430 
  6 C        3.2090    -1.9780    -1.2600 C.3   1 <1>  -0.0170 
  7 N        3.8220     0.4180     1.1040 N.4   1 <1>  -0.9590 
  8 C        3.5630    -3.3640    -0.7490 C.ar  1 <1>   0.1670 
  9 C        5.2380     0.5190     1.6030 C.3   1 <1>   0.4230 
 10 N        4.6870    -3.4580    -0.0530 N.ar  1 <1>  -0.6200 
 11 C        2.7270    -4.4360    -1.0260 C.ar  1 <1>  -0.1500 
 12 C        5.6680     1.9990     1.6670 C.3   1 <1>  -0.0170 
 13 C        6.2480    -0.1420     0.6370 C.3   1 <1>  -0.0170 
 14 C        4.9950    -4.6750     0.3730 C.ar  1 <1>   0.1600 
 15 C        3.0570    -5.6930    -0.5680 C.ar  1 <1>  -0.1500 
 16 C        6.3660     2.2110     0.3440 C.ar  1 <1>  -0.1440 
 17 C        6.6940     1.0080    -0.2320 C.ar  1 <1>  -0.1440 
 18 C        4.2270    -5.8050     0.1500 C.ar  1 <1>  -0.1500 
 19 C        6.6690     3.4030    -0.2860 C.ar  1 <1>  -0.1500 
 20 C        7.3360     0.9590    -1.4550 C.ar  1 <1>  -0.1500 
 21 C        7.3100     3.3650    -1.5140 C.ar  1 <1>  -0.1500 
 22 C        7.6420     2.1490    -2.0960 C.ar  1 <1>  -0.1500 
 23 H        0.3390     0.5750    -0.3420 H     1 <1>   0.4000 
 24 H        2.0650     0.3940    -1.7500 H     1 <1>   0.0800 
 25 H        1.5190    -1.6170     0.0010 H     1 <1>   0.0800 
 26 H        3.4430     2.0560    -0.2360 H     1 <1>   0.0800 
 27 H        4.3440     0.7200    -0.9350 H     1 <1>   0.0800 
 28 H        4.0490    -1.6980     1.1760 H     1 <1>   0.0800 
 29 H        2.6050    -1.0940     1.9450 H     1 <1>   0.0800 
 30 H        4.1170    -1.4900    -1.5680 H     1 <1>   0.0800 
 31 H        2.5930    -2.0770    -2.1370 H     1 <1>   0.0800 
 32 H        3.2080     0.9590     1.7280 H     1 <1>   0.4500 
 33 H        5.3050     0.0680     2.5790 H     1 <1>   0.0800 
 34 H        1.8270    -4.2990    -1.5980 H     1 <1>   0.1500 
 35 H        4.8420     2.6720     1.8110 H     1 <1>   0.0800 
 36 H        6.3840     2.1370     2.4570 H     1 <1>   0.0800 
 37 H        7.0970    -0.5010     1.1900 H     1 <1>   0.0800 
 38 H        5.8350    -0.9510     0.0660 H     1 <1>   0.0800 
 39 H        5.9100    -4.7830     0.9310 H     1 <1>   0.1500 
 40 H        2.4330    -6.5490    -0.7640 H     1 <1>   0.1500 
 41 H        4.5450    -6.7590     0.5310 H     1 <1>   0.1500 
 42 H        6.4180     4.3480     0.1650 H     1 <1>   0.1500 
 43 H        7.5980     0.0160    -1.9050 H     1 <1>   0.1500 
 44 H        7.5570     4.2830    -2.0190 H     1 <1>   0.1500 
 45 H        8.1440     2.1310    -3.0480 H     1 <1>   0.1500 
@<TRIPOS>BOND
  1   1   2  1   
  2   1  23  1   
  3   2   3  1   
  4   2   4  1   
  5   2  24  1   
  6   3   5  1   
  7   3   6  1   
  8   3  25  1   
  9   4   7  1   
 10   4  26  1   
 11   4  27  1   
 12   5   7  1   
 13   5  28  1   
 14   5  29  1   
 15   6   8  1   
 16   6  30  1   
 17   6  31  1   
 18   7   9  1   
 19   7  32  1   
 20   8  10  ar  
 21   8  11  ar  
 22   9  12  1   
 23   9  13  1   
 24   9  33  1   
 25  10  14  ar  
 26  11  15  ar  
 27  11  34  1   
 28  12  16  1   
 29  12  35  1   
 30  12  36  1   
 31  13  17  1   
 32  13  37  1   
 33  13  38  1   
 34  14  18  ar  
 35  14  39  1   
 36  15  18  ar  
 37  15  40  1   
 38  16  17  ar  
 39  16  19  ar  
 40  17  20  ar  
 41  18  41  1   
 42  19  21  ar  
 43  19  42  1   
 44  20  22  ar  
 45  20  43  1   
 46  21  22  ar  
 47  21  44  1   
 48  22  45  1   
@<TRIPOS>SUBSTRUCTURE
  1 ****   7 GROUP 4 **** **** 0

# MOE 2024.06 (io_trps.svl 2023.06)
