@<TRIPOS>MOLECULE
NONAME
38 39 1 0 0 
SMALL
USER_CHARGES


@<TRIPOS>ATOM
  1 CL      -2.6260    -1.4540     3.1470 Cl    1 <1>  -0.1770 
  2 C       -3.1610    -1.5510     1.4830 C.ar  1 <1>   0.1770 
  3 C       -3.5710    -0.4070     0.8080 C.ar  1 <1>   0.0820 
  4 C       -3.1540    -2.7900     0.8690 C.ar  1 <1>  -0.1500 
  5 O       -3.5330     0.7900     1.4460 O.3   1 <1>  -0.3630 
  6 C       -4.0080    -0.5290    -0.5180 C.ar  1 <1>   0.0820 
  7 C       -3.5630    -2.9060    -0.4530 C.ar  1 <1>  -0.1440 
  8 C       -2.3080     1.4830     1.3690 C.3   1 <1>   0.0400 
  9 O       -4.4680     0.4920    -1.2890 O.3   1 <1>  -0.3630 
 10 C       -3.9840    -1.7710    -1.1320 C.ar  1 <1>  -0.1500 
 11 C       -3.5690    -4.2550    -1.1490 C.3   1 <1>   0.4860 
 12 C       -5.2420     1.5280    -0.7200 C.3   1 <1>   0.0400 
 13 N       -4.5190    -5.1380    -0.4530 N.4   1 <1>  -0.9590 
 14 C       -4.5790    -6.5510    -0.8630 C.3   1 <1>   0.3430 
 15 C       -5.9100    -4.6720    -0.2710 C.3   1 <1>   0.3430 
 16 C       -5.6410    -7.0750     0.0700 C.3   1 <1>  -0.1860 
 17 C       -6.6730    -5.9340     0.1310 C.3   1 <1>  -0.1600 
 18 C       -4.9270    -7.3100     1.3840 C.2   1 <1>   0.9060 
 19 O       -4.8840    -8.4500     1.8300 O.co2 1 <1>  -0.9000 
 20 O       -4.3320    -6.3500     1.8990 O.co2 1 <1>  -0.9000 
 21 H       -2.8330    -3.6490     1.4380 H     1 <1>   0.1500 
 22 H       -2.4170     2.4190     1.8850 H     1 <1>   0.0800 
 23 H       -2.0700     1.6560     0.3330 H     1 <1>   0.0800 
 24 H       -1.5400     0.8930     1.8380 H     1 <1>   0.0800 
 25 H       -4.3080    -1.8310    -2.1570 H     1 <1>   0.1500 
 26 H       -2.5800    -4.6820    -1.1120 H     1 <1>   0.0800 
 27 H       -3.8600    -4.1390    -2.1790 H     1 <1>   0.0800 
 28 H       -5.8130     1.9900    -1.5050 H     1 <1>   0.0800 
 29 H       -4.5840     2.2540    -0.2780 H     1 <1>   0.0800 
 30 H       -5.9020     1.1130     0.0210 H     1 <1>   0.0800 
 31 H       -4.1860    -5.2430     0.5420 H     1 <1>   0.4500 
 32 H       -3.6380    -7.0560    -0.7050 H     1 <1>   0.0800 
 33 H       -4.8920    -6.6390    -1.8900 H     1 <1>   0.0800 
 34 H       -6.3000    -4.2750    -1.1930 H     1 <1>   0.0800 
 35 H       -5.9610    -3.9220     0.5030 H     1 <1>   0.0800 
 36 H       -6.0620    -8.0020    -0.2730 H     1 <1>   0.0800 
 37 H       -7.4770    -6.1050    -0.5620 H     1 <1>   0.0800 
 38 H       -7.0850    -5.8350     1.1210 H     1 <1>   0.0800 
@<TRIPOS>BOND
  1   1   2  1   
  2   2   3  ar  
  3   2   4  ar  
  4   3   5  1   
  5   3   6  ar  
  6   4   7  ar  
  7   4  21  1   
  8   5   8  1   
  9   6   9  1   
 10   6  10  ar  
 11   7  10  ar  
 12   7  11  1   
 13   8  22  1   
 14   8  23  1   
 15   8  24  1   
 16   9  12  1   
 17  10  25  1   
 18  11  13  1   
 19  11  26  1   
 20  11  27  1   
 21  12  28  1   
 22  12  29  1   
 23  12  30  1   
 24  13  14  1   
 25  13  15  1   
 26  13  31  1   
 27  14  16  1   
 28  14  32  1   
 29  14  33  1   
 30  15  17  1   
 31  15  34  1   
 32  15  35  1   
 33  16  17  1   
 34  16  18  1   
 35  16  36  1   
 36  17  37  1   
 37  17  38  1   
 38  18  19  ar  
 39  18  20  ar  
@<TRIPOS>SUBSTRUCTURE
  1 ****   7 GROUP 4 **** **** 0

# MOE 2024.06 (io_trps.svl 2023.06)
