@<TRIPOS>MOLECULE
NONAME
43 45 1 0 0 
SMALL
USER_CHARGES


@<TRIPOS>ATOM
  1 CL       0.9070     0.2830     1.9830 Cl    1 <1>  -0.1770 
  2 C        1.9410     1.2070     0.9090 C.ar  1 <1>   0.1770 
  3 C        2.9700     0.5800     0.1950 C.ar  1 <1>   0.1000 
  4 C        1.7000     2.5610     0.8130 C.ar  1 <1>  -0.1500 
  5 N        3.2210    -0.7910     0.2880 N.pl3 1 <1>  -0.8380 
  6 C        3.7400     1.3970    -0.6300 C.ar  1 <1>  -0.1500 
  7 C        2.4810     3.3790    -0.0030 C.ar  1 <1>   0.0860 
  8 C        2.1990    -1.7630    -0.1680 C.3   1 <1>   0.2090 
  9 C        4.5750    -1.3970     0.2380 C.3   1 <1>   0.2090 
 10 C        3.5010     2.7550    -0.7270 C.ar  1 <1>  -0.1500 
 11 C        2.2320     4.8060    -0.0830 C.2   1 <1>   0.5440 
 12 C        2.9950    -2.9160    -0.7650 C.3   1 <1>  -0.1600 
 13 C        4.3290    -2.8770    -0.0260 C.3   1 <1>  -0.1600 
 14 O        1.1460     5.2710     0.2050 O.2   1 <1>  -0.5700 
 15 N        3.2120     5.6710    -0.4690 N.am  1 <1>  -0.7300 
 16 C        3.0860     7.1520    -0.4590 C.3   1 <1>   0.3200 
 17 C        4.3350     7.7870     0.1320 C.2   1 <1>   0.2980 
 18 O        4.4760     7.8010     1.4330 O.3   1 <1>  -0.0190 
 19 N        5.2920     8.3040    -0.5300 N.2   1 <1>  -0.5650 
 20 N        5.6280     8.3700     1.6170 N.2   1 <1>  -0.4100 
 21 C        6.0990     8.6490     0.4670 C.2   1 <1>   0.3350 
 22 C        7.4410     9.3230     0.2190 C.3   1 <1>   0.2510 
 23 S        8.6620     8.1080    -0.3850 S.3   1 <1>  -0.4600 
 24 C       10.1630     9.0950    -0.6210 C.3   1 <1>  -0.0100 
 25 H        0.8970     2.9930     1.3830 H     1 <1>   0.1500 
 26 H        4.5280     0.9630    -1.2150 H     1 <1>   0.1500 
 27 H        1.5330    -1.3200    -0.8900 H     1 <1>   0.0800 
 28 H        1.6350    -2.1030     0.6840 H     1 <1>   0.0800 
 29 H        5.0930    -1.2430     1.1690 H     1 <1>   0.0800 
 30 H        5.1460    -0.9760    -0.5700 H     1 <1>   0.0800 
 31 H        4.1170     3.3380    -1.3870 H     1 <1>   0.1500 
 32 H        3.1500    -2.7250    -1.8130 H     1 <1>   0.0800 
 33 H        2.4850    -3.8550    -0.6480 H     1 <1>   0.0800 
 34 H        4.2380    -3.3870     0.9180 H     1 <1>   0.0800 
 35 H        5.1270    -3.3230    -0.5910 H     1 <1>   0.0800 
 36 H        4.1650     5.3320    -0.6130 H     1 <1>   0.3700 
 37 H        2.2280     7.4570     0.1140 H     1 <1>   0.0800 
 38 H        2.9610     7.4980    -1.4690 H     1 <1>   0.0800 
 39 H        7.8290     9.7390     1.1300 H     1 <1>   0.0800 
 40 H        7.3470    10.0870    -0.5300 H     1 <1>   0.0800 
 41 H       10.9330     8.4350    -0.9800 H     1 <1>   0.0800 
 42 H       10.4370     9.5200     0.3280 H     1 <1>   0.0800 
 43 H        9.9500     9.8610    -1.3450 H     1 <1>   0.0800 
@<TRIPOS>BOND
  1   1   2  1   
  2   2   3  ar  
  3   2   4  ar  
  4   3   5  1   
  5   3   6  ar  
  6   4   7  ar  
  7   4  25  1   
  8   5   8  1   
  9   5   9  1   
 10   6  10  ar  
 11   6  26  1   
 12   7  10  ar  
 13   7  11  1   
 14   8  12  1   
 15   8  27  1   
 16   8  28  1   
 17   9  13  1   
 18   9  29  1   
 19   9  30  1   
 20  10  31  1   
 21  11  14  2   
 22  11  15  am  
 23  12  13  1   
 24  12  32  1   
 25  12  33  1   
 26  13  34  1   
 27  13  35  1   
 28  15  16  1   
 29  15  36  1   
 30  16  17  1   
 31  16  37  1   
 32  16  38  1   
 33  17  18  1   
 34  17  19  2   
 35  18  20  1   
 36  19  21  1   
 37  20  21  2   
 38  21  22  1   
 39  22  23  1   
 40  22  39  1   
 41  22  40  1   
 42  23  24  1   
 43  24  41  1   
 44  24  42  1   
 45  24  43  1   
@<TRIPOS>SUBSTRUCTURE
  1 ****  10 GROUP 4 **** **** 0

# MOE 2024.06 (io_trps.svl 2023.06)
