@<TRIPOS>MOLECULE
NONAME
50 53 1 0 0 
SMALL
USER_CHARGES


@<TRIPOS>ATOM
  1 O        0.2110     1.4580     1.1850 O.2   1 <1>  -0.5700 
  2 C       -0.4010     2.0800     0.3370 C.2   1 <1>   0.5440 
  3 N       -1.7400     1.8060     0.1410 N.am  1 <1>  -0.6600 
  4 C        0.2930     3.1100    -0.4130 C.ar  1 <1>   0.0860 
  5 C       -2.6920     2.7420    -0.5390 C.3   1 <1>   0.1400 
  6 C       -2.4080     0.6450     0.7930 C.3   1 <1>   0.1400 
  7 C        0.2690     3.1460    -1.8060 C.ar  1 <1>  -0.1500 
  8 C        1.0180     4.1040     0.2460 C.ar  1 <1>  -0.1500 
  9 C       -3.7330     3.2870     0.4590 C.3   1 <1>   0.1440 
 10 C       -3.4440     1.1430     1.8090 C.3   1 <1>  -0.1600 
 11 C        0.9210     4.1450    -2.5020 C.ar  1 <1>   0.0830 
 12 C        1.6740     5.1050    -0.4500 C.ar  1 <1>  -0.1500 
 13 C       -4.6940     4.1840    -0.2970 C.ar  1 <1>   0.1660 
 14 C       -4.4490     2.1150     1.1650 C.3   1 <1>  -0.1600 
 15 C       -3.0890     4.2730     1.4710 C.3   1 <1>  -0.1600 
 16 O        0.8650     4.1490    -3.8420 O.3   1 <1>  -0.5320 
 17 C        1.6250     5.1310    -1.8320 C.ar  1 <1>  -0.1500 
 18 N       -5.6370     3.7750    -1.1100 N.ar  1 <1>  -0.6200 
 19 C       -4.4520     5.5010    -0.0450 C.ar  1 <1>  -0.1430 
 20 C       -3.3010     5.6890     0.9110 C.3   1 <1>  -0.0170 
 21 C       -6.3640     4.7420    -1.6770 C.ar  1 <1>   0.7200 
 22 C       -5.2470     6.4260    -0.6720 C.ar  1 <1>   0.1600 
 23 N       -6.2060     6.0570    -1.4880 N.ar  1 <1>  -0.6200 
 24 N       -7.3760     4.3480    -2.5330 N.pl3 1 <1>  -0.8380 
 25 C       -7.7520     2.9150    -2.6970 C.3   1 <1>   0.1290 
 26 C       -8.3380     5.3360    -3.0970 C.3   1 <1>   0.1290 
 27 H       -3.2010     2.2100    -1.3250 H     1 <1>   0.0800 
 28 H       -2.1740     3.5690    -0.9880 H     1 <1>   0.0800 
 29 H       -1.6870     0.0160     1.2870 H     1 <1>   0.0800 
 30 H       -2.8950     0.0540     0.0350 H     1 <1>   0.0800 
 31 H       -0.2630     2.3870    -2.3490 H     1 <1>   0.1500 
 32 H        1.0650     4.0790     1.3220 H     1 <1>   0.1500 
 33 H       -2.9260     1.6250     2.6200 H     1 <1>   0.0800 
 34 H       -3.9700     0.2980     2.2160 H     1 <1>   0.0800 
 35 H        2.2250     5.8600     0.0850 H     1 <1>   0.1500 
 36 H       -5.0310     1.5760     0.4370 H     1 <1>   0.0800 
 37 H       -5.1320     2.4900     1.9070 H     1 <1>   0.0800 
 38 H       -2.0490     4.0660     1.6500 H     1 <1>   0.0800 
 39 H       -3.6080     4.2070     2.4110 H     1 <1>   0.0800 
 40 H        1.3600     4.8820    -4.2480 H     1 <1>   0.4500 
 41 H        2.1340     5.9080    -2.3730 H     1 <1>   0.1500 
 42 H       -2.4310     6.0190     0.3700 H     1 <1>   0.0800 
 43 H       -3.5390     6.3920     1.6910 H     1 <1>   0.0800 
 44 H       -5.0950     7.4780    -0.5050 H     1 <1>   0.1500 
 45 H       -6.8710     2.2960    -2.7200 H     1 <1>   0.0800 
 46 H       -8.2860     2.7700    -3.6190 H     1 <1>   0.0800 
 47 H       -8.3730     2.6090    -1.8740 H     1 <1>   0.0800 
 48 H       -7.8080     6.1940    -3.4740 H     1 <1>   0.0800 
 49 H       -9.0180     5.6560    -2.3270 H     1 <1>   0.0800 
 50 H       -8.8970     4.9010    -3.9070 H     1 <1>   0.0800 
@<TRIPOS>BOND
  1   1   2  2   
  2   2   3  am  
  3   2   4  1   
  4   3   5  1   
  5   3   6  1   
  6   4   7  ar  
  7   4   8  ar  
  8   5   9  1   
  9   5  27  1   
 10   5  28  1   
 11   6  10  1   
 12   6  29  1   
 13   6  30  1   
 14   7  11  ar  
 15   7  31  1   
 16   8  12  ar  
 17   8  32  1   
 18   9  13  1   
 19   9  14  1   
 20   9  15  1   
 21  10  14  1   
 22  10  33  1   
 23  10  34  1   
 24  11  16  1   
 25  11  17  ar  
 26  12  17  ar  
 27  12  35  1   
 28  13  18  ar  
 29  13  19  ar  
 30  14  36  1   
 31  14  37  1   
 32  15  20  1   
 33  15  38  1   
 34  15  39  1   
 35  16  40  1   
 36  17  41  1   
 37  18  21  ar  
 38  19  20  1   
 39  19  22  ar  
 40  20  42  1   
 41  20  43  1   
 42  21  23  ar  
 43  21  24  1   
 44  22  23  ar  
 45  22  44  1   
 46  24  25  1   
 47  24  26  1   
 48  25  45  1   
 49  25  46  1   
 50  25  47  1   
 51  26  48  1   
 52  26  49  1   
 53  26  50  1   
@<TRIPOS>SUBSTRUCTURE
  1 ****   5 GROUP 4 **** **** 0

# MOE 2024.06 (io_trps.svl 2023.06)
