@<TRIPOS>MOLECULE
NONAME
41 43 1 0 0 
SMALL
USER_CHARGES


@<TRIPOS>ATOM
  1 O        1.5990     0.3390     1.4520 O.3   1 <1>  -0.6800 
  2 C        1.8380    -0.2030     0.1920 C.3   1 <1>   0.2000 
  3 C        2.5940    -1.5180     0.3750 C.3   1 <1>  -0.0800 
  4 C        2.8480     0.6850    -0.5380 C.3   1 <1>   0.3430 
  5 C        4.0610    -1.0810     0.5520 C.3   1 <1>   0.3430 
  6 C        2.4090    -2.4550    -0.8390 C.3   1 <1>  -0.0170 
  7 N        4.1770     0.3130     0.0280 N.4   1 <1>  -0.9590 
  8 C        2.9910    -3.8410    -0.5910 C.ar  1 <1>   0.1670 
  9 C        4.5920     1.2630     1.0910 C.3   1 <1>   0.4860 
 10 N        4.3090    -3.9180    -0.4980 N.ar  1 <1>  -0.6200 
 11 C        2.1460    -4.9460    -0.4780 C.ar  1 <1>   0.1600 
 12 C        4.8340     2.6220     0.4680 C.ar  1 <1>  -0.1440 
 13 C        4.7210    -5.1610    -0.2960 C.ar  1 <1>   0.1600 
 14 N        2.5570    -6.1830    -0.2660 N.ar  1 <1>  -0.6200 
 15 C        5.7600     2.7670    -0.5660 C.ar  1 <1>   0.4100 
 16 C        4.1330     3.7280     0.8970 C.ar  1 <1>  -0.1500 
 17 C        3.8740    -6.2560    -0.1830 C.ar  1 <1>   0.1600 
 18 N        6.0070     3.8940    -1.1910 N.ar  1 <1>  -0.6200 
 19 N        6.4930     1.7290    -1.0470 N.pl3 1 <1>  -0.9000 
 20 C        4.3980     4.9220     0.2560 C.ar  1 <1>  -0.1500 
 21 C        5.3290     4.9480    -0.7670 C.ar  1 <1>   0.1600 
 22 H        0.8420    -0.1040     1.8920 H     1 <1>   0.4000 
 23 H        0.9020    -0.2900    -0.3330 H     1 <1>   0.0800 
 24 H        2.2530    -2.0390     1.2530 H     1 <1>   0.0800 
 25 H        2.6210     1.7310    -0.4060 H     1 <1>   0.0800 
 26 H        2.8310     0.4520    -1.5890 H     1 <1>   0.0800 
 27 H        4.7320    -1.7360     0.0210 H     1 <1>   0.0800 
 28 H        4.3170    -1.1060     1.5990 H     1 <1>   0.0800 
 29 H        2.8790    -2.0390    -1.7140 H     1 <1>   0.0800 
 30 H        1.3600    -2.5540    -1.0550 H     1 <1>   0.0800 
 31 H        4.9160     0.4020    -0.6960 H     1 <1>   0.4500 
 32 H        3.8260     1.3320     1.8460 H     1 <1>   0.0800 
 33 H        5.5030     0.9220     1.5530 H     1 <1>   0.0800 
 34 H        1.0830    -4.8060    -0.5670 H     1 <1>   0.1500 
 35 H        5.7820    -5.3250    -0.2160 H     1 <1>   0.1500 
 36 H        3.4070     3.6830     1.6930 H     1 <1>   0.1500 
 37 H        4.3030    -7.2290    -0.0180 H     1 <1>   0.1500 
 38 H        6.7740     1.9700    -2.0060 H     1 <1>   0.4000 
 39 H        7.3790     1.6310    -0.5420 H     1 <1>   0.4000 
 40 H        3.8880     5.8250     0.5440 H     1 <1>   0.1500 
 41 H        5.5260     5.8850    -1.2620 H     1 <1>   0.1500 
@<TRIPOS>BOND
  1   1   2  1   
  2   1  22  1   
  3   2   3  1   
  4   2   4  1   
  5   2  23  1   
  6   3   5  1   
  7   3   6  1   
  8   3  24  1   
  9   4   7  1   
 10   4  25  1   
 11   4  26  1   
 12   5   7  1   
 13   5  27  1   
 14   5  28  1   
 15   6   8  1   
 16   6  29  1   
 17   6  30  1   
 18   7   9  1   
 19   7  31  1   
 20   8  10  ar  
 21   8  11  ar  
 22   9  12  1   
 23   9  32  1   
 24   9  33  1   
 25  10  13  ar  
 26  11  14  ar  
 27  11  34  1   
 28  12  15  ar  
 29  12  16  ar  
 30  13  17  ar  
 31  13  35  1   
 32  14  17  ar  
 33  15  18  ar  
 34  15  19  1   
 35  16  20  ar  
 36  16  36  1   
 37  17  37  1   
 38  18  21  ar  
 39  19  38  1   
 40  19  39  1   
 41  20  21  ar  
 42  20  40  1   
 43  21  41  1   
@<TRIPOS>SUBSTRUCTURE
  1 ****   7 GROUP 4 **** **** 0

# MOE 2024.06 (io_trps.svl 2023.06)
