@<TRIPOS>MOLECULE
NONAME
48 50 1 0 0 
SMALL
USER_CHARGES


@<TRIPOS>ATOM
  1 F       -2.5170    -2.4670    -4.1580 F     1 <1>  -0.1900 
  2 C       -2.7900    -2.3620    -2.8860 C.ar  1 <1>   0.1900 
  3 C       -3.1560    -3.4950    -2.1880 C.ar  1 <1>  -0.1500 
  4 C       -2.7040    -1.1190    -2.2880 C.ar  1 <1>  -0.1500 
  5 C       -3.4500    -3.3830    -0.8390 C.ar  1 <1>   0.0830 
  6 C       -2.9950    -1.0120    -0.9380 C.ar  1 <1>  -0.1500 
  7 O       -3.8130    -4.5220    -0.2020 O.3   1 <1>  -0.3630 
  8 C       -3.3650    -2.1370    -0.2150 C.ar  1 <1>  -0.1500 
  9 C       -4.2780    -4.5000     1.1410 C.3   1 <1>   0.1810 
 10 C       -4.7650    -5.8790     1.5800 C.2   1 <1>   0.5690 
 11 O       -4.2240    -6.3770     2.5400 O.2   1 <1>  -0.5700 
 12 N       -5.7830    -6.5290     0.9200 N.am  1 <1>  -0.6600 
 13 C       -6.2240    -7.8910     1.3740 C.3   1 <1>   0.1400 
 14 C       -6.3960    -6.0100    -0.3500 C.3   1 <1>   0.1400 
 15 C       -6.5730    -8.7340     0.1350 C.3   1 <1>   0.4230 
 16 C       -7.7820    -6.6190    -0.6050 C.3   1 <1>  -0.1600 
 17 N       -6.6780   -10.2190     0.3240 N.4   1 <1>  -0.9590 
 18 C       -7.8530    -8.1770    -0.5170 C.3   1 <1>  -0.1060 
 19 C       -6.8050   -10.9200    -0.9830 C.3   1 <1>   0.3430 
 20 C       -5.6510   -10.8290     1.2100 C.3   1 <1>   0.2630 
 21 C       -9.0930    -8.5610     0.3130 C.2   1 <1>   0.9060 
 22 C       -7.9480    -8.8150    -1.9220 C.3   1 <1>  -0.1600 
 23 C       -7.9620   -10.3530    -1.8170 C.3   1 <1>  -0.1600 
 24 O      -10.1880    -8.1120    -0.0190 O.co2 1 <1>  -0.9000 
 25 O       -8.9740    -9.3560     1.2590 O.co2 1 <1>  -0.9000 
 26 H       -3.2100    -4.4460    -2.6840 H     1 <1>   0.1500 
 27 H       -2.4160    -0.2600    -2.8670 H     1 <1>   0.1500 
 28 H       -2.9310    -0.0540    -0.4500 H     1 <1>   0.1500 
 29 H       -3.5770    -2.0210     0.8310 H     1 <1>   0.1500 
 30 H       -3.4640    -4.1910     1.7710 H     1 <1>   0.0800 
 31 H       -5.0860    -3.7970     1.2150 H     1 <1>   0.0800 
 32 H       -5.4280    -8.3510     1.9270 H     1 <1>   0.0800 
 33 H       -7.0800    -7.7920     2.0200 H     1 <1>   0.0800 
 34 H       -6.4940    -4.9390    -0.3010 H     1 <1>   0.0800 
 35 H       -5.7430    -6.2460    -1.1730 H     1 <1>   0.0800 
 36 H       -5.7630    -8.5700    -0.5540 H     1 <1>   0.0800 
 37 H       -8.4440    -6.1920     0.1310 H     1 <1>   0.0800 
 38 H       -8.1530    -6.2840    -1.5580 H     1 <1>   0.0800 
 39 H       -7.6150   -10.2860     0.8100 H     1 <1>   0.4500 
 40 H       -5.8860   -10.8080    -1.5340 H     1 <1>   0.0800 
 41 H       -6.9730   -11.9710    -0.8160 H     1 <1>   0.0800 
 42 H       -4.6650   -10.6680     0.8060 H     1 <1>   0.0800 
 43 H       -5.8260   -11.8880     1.3030 H     1 <1>   0.0800 
 44 H       -5.7040   -10.3910     2.1930 H     1 <1>   0.0800 
 45 H       -8.8560    -8.4870    -2.4040 H     1 <1>   0.0800 
 46 H       -7.1170    -8.4980    -2.5290 H     1 <1>   0.0800 
 47 H       -7.9250   -10.7780    -2.8040 H     1 <1>   0.0800 
 48 H       -8.8910   -10.6720    -1.3750 H     1 <1>   0.0800 
@<TRIPOS>BOND
  1   1   2  1   
  2   2   3  ar  
  3   2   4  ar  
  4   3   5  ar  
  5   3  26  1   
  6   4   6  ar  
  7   4  27  1   
  8   5   7  1   
  9   5   8  ar  
 10   6   8  ar  
 11   6  28  1   
 12   7   9  1   
 13   8  29  1   
 14   9  10  1   
 15   9  30  1   
 16   9  31  1   
 17  10  11  2   
 18  10  12  am  
 19  12  13  1   
 20  12  14  1   
 21  13  15  1   
 22  13  32  1   
 23  13  33  1   
 24  14  16  1   
 25  14  34  1   
 26  14  35  1   
 27  15  17  1   
 28  15  18  1   
 29  15  36  1   
 30  16  18  1   
 31  16  37  1   
 32  16  38  1   
 33  17  19  1   
 34  17  20  1   
 35  17  39  1   
 36  18  21  1   
 37  18  22  1   
 38  19  23  1   
 39  19  40  1   
 40  19  41  1   
 41  20  42  1   
 42  20  43  1   
 43  20  44  1   
 44  21  24  ar  
 45  21  25  ar  
 46  22  23  1   
 47  22  45  1   
 48  22  46  1   
 49  23  47  1   
 50  23  48  1   
@<TRIPOS>SUBSTRUCTURE
  1 ****  14 GROUP 4 **** **** 0

# MOE 2024.06 (io_trps.svl 2023.06)
