@<TRIPOS>MOLECULE
NONAME
52 55 1 0 0 
SMALL
USER_CHARGES


@<TRIPOS>ATOM
  1 O        2.2240    -3.2240    -1.8150 O.2   1 <1>  -0.5700 
  2 C        1.9650    -2.1070    -1.4020 C.2   1 <1>   0.8410 
  3 N        0.6610    -1.6950    -1.4140 N.2   1 <1>  -0.6610 
  4 N        2.9740    -1.2890    -0.9190 N.am  1 <1>  -0.4690 
  5 C        0.4050    -0.5140    -0.9780 C.2   1 <1>   0.3760 
  6 C        2.6760    -0.0340    -0.4490 C.2   1 <1>  -0.0410 
  7 C        4.3790    -1.8030    -0.8380 C.3   1 <1>   0.2010 
  8 C        1.3850     0.3700    -0.4770 C.2   1 <1>  -0.1360 
  9 C        4.5490    -2.8730     0.2510 C.2   1 <1>   0.5690 
 10 O        4.3820    -2.5110     1.3930 O.2   1 <1>  -0.5700 
 11 N        4.8720    -4.1920    -0.0050 N.am  1 <1>  -0.6600 
 12 C        5.0300    -5.1140     1.1720 C.3   1 <1>   0.2200 
 13 C        4.8640    -4.8170    -1.3560 C.3   1 <1>   0.1400 
 14 C        5.9420    -6.3410     0.9070 C.3   1 <1>   0.1200 
 15 C        3.6240    -5.4830     1.7090 C.3   1 <1>   0.3430 
 16 C        4.0660    -6.1280    -1.3810 C.3   1 <1>  -0.0800 
 17 O        5.2580    -7.4240     0.3300 O.3   1 <1>  -0.5600 
 18 N        2.8540    -6.4360     0.8370 N.4   1 <1>  -0.9590 
 19 C        4.9600    -7.3390    -1.0340 C.3   1 <1>   0.1200 
 20 C        2.7320    -6.0390    -0.6030 C.3   1 <1>   0.3430 
 21 C        1.5490    -6.8160     1.4260 C.3   1 <1>   0.4860 
 22 C        1.0310    -8.0370     0.6910 C.ar  1 <1>  -0.1440 
 23 C        1.6750    -9.2600     0.8220 C.ar  1 <1>  -0.1500 
 24 C       -0.0820    -7.9360    -0.1310 C.ar  1 <1>  -0.1500 
 25 C        1.2140   -10.3670     0.1320 C.ar  1 <1>  -0.1500 
 26 C       -0.5420    -9.0450    -0.8200 C.ar  1 <1>  -0.1500 
 27 C        0.1070   -10.2600    -0.6900 C.ar  1 <1>  -0.1500 
 28 H       -0.6140    -0.1680    -0.9850 H     1 <1>   0.0600 
 29 H        3.4720     0.5860    -0.0670 H     1 <1>   0.1500 
 30 H        4.6800    -2.1660    -1.8000 H     1 <1>   0.0800 
 31 H        5.0350    -0.9880    -0.5930 H     1 <1>   0.0800 
 32 H        1.0760     1.3380    -0.1290 H     1 <1>   0.1500 
 33 H        5.5230    -4.5500     1.9460 H     1 <1>   0.0800 
 34 H        4.4260    -4.1540    -2.0770 H     1 <1>   0.0800 
 35 H        5.8790    -4.9930    -1.6720 H     1 <1>   0.0800 
 36 H        6.3190    -6.6950     1.8510 H     1 <1>   0.0800 
 37 H        6.7890    -6.0780     0.2960 H     1 <1>   0.0800 
 38 H        3.0640    -4.5710     1.8370 H     1 <1>   0.0800 
 39 H        3.7490    -5.9280     2.6810 H     1 <1>   0.0800 
 40 H        3.7930    -6.2600    -2.4130 H     1 <1>   0.0800 
 41 H        3.4440    -7.2870     0.8010 H     1 <1>   0.4500 
 42 H        5.8870    -7.3060    -1.5810 H     1 <1>   0.0800 
 43 H        4.4530    -8.2510    -1.3010 H     1 <1>   0.0800 
 44 H        2.0350    -6.7030    -1.0880 H     1 <1>   0.0800 
 45 H        2.3280    -5.0460    -0.6690 H     1 <1>   0.0800 
 46 H        1.6670    -7.0560     2.4700 H     1 <1>   0.0800 
 47 H        0.8490    -6.0010     1.3360 H     1 <1>   0.0800 
 48 H        2.5360    -9.3690     1.4590 H     1 <1>   0.1500 
 49 H       -0.6040    -7.0000    -0.2460 H     1 <1>   0.1500 
 50 H        1.7130   -11.3160     0.2340 H     1 <1>   0.1500 
 51 H       -1.4070    -8.9660    -1.4580 H     1 <1>   0.1500 
 52 H       -0.2520   -11.1220    -1.2260 H     1 <1>   0.1500 
@<TRIPOS>BOND
  1   1   2  2   
  2   2   3  1   
  3   2   4  am  
  4   3   5  2   
  5   4   6  1   
  6   4   7  1   
  7   5   8  1   
  8   5  28  1   
  9   6   8  2   
 10   6  29  1   
 11   7   9  1   
 12   7  30  1   
 13   7  31  1   
 14   8  32  1   
 15   9  10  2   
 16   9  11  am  
 17  11  12  1   
 18  11  13  1   
 19  12  14  1   
 20  12  15  1   
 21  12  33  1   
 22  13  16  1   
 23  13  34  1   
 24  13  35  1   
 25  14  17  1   
 26  14  36  1   
 27  14  37  1   
 28  15  18  1   
 29  15  38  1   
 30  15  39  1   
 31  16  19  1   
 32  16  20  1   
 33  16  40  1   
 34  17  19  1   
 35  18  20  1   
 36  18  21  1   
 37  18  41  1   
 38  19  42  1   
 39  19  43  1   
 40  20  44  1   
 41  20  45  1   
 42  21  22  1   
 43  21  46  1   
 44  21  47  1   
 45  22  23  ar  
 46  22  24  ar  
 47  23  25  ar  
 48  23  48  1   
 49  24  26  ar  
 50  24  49  1   
 51  25  27  ar  
 52  25  50  1   
 53  26  27  ar  
 54  26  51  1   
 55  27  52  1   
@<TRIPOS>SUBSTRUCTURE
  1 ****  20 GROUP 4 **** **** 0

# MOE 2024.06 (io_trps.svl 2023.06)
