@<TRIPOS>MOLECULE
NONAME
50 52 1 0 0 
SMALL
USER_CHARGES


@<TRIPOS>ATOM
  1 CL       0.5100    -0.2990     0.9210 Cl    1 <1>  -0.1770 
  2 C        0.1590    -1.9610     0.5260 C.ar  1 <1>   0.1770 
  3 C       -0.0700    -2.8650     1.5490 C.ar  1 <1>  -0.1500 
  4 C        0.1160    -2.3470    -0.8020 C.ar  1 <1>  -0.1500 
  5 C       -0.3510    -4.1860     1.2400 C.ar  1 <1>  -0.1500 
  6 C       -0.1640    -3.6670    -1.1130 C.ar  1 <1>  -0.1500 
  7 C       -0.3970    -4.5750    -0.0930 C.ar  1 <1>   0.1020 
  8 S       -0.7590    -6.2690    -0.5840 S.3   1 <1>  -0.3320 
  9 C       -1.1190    -7.2120     0.9770 C.3   1 <1>   0.1310 
 10 C       -1.4730    -8.6610     0.6670 C.2   1 <1>   0.5690 
 11 O       -0.7830    -9.5190     1.1660 O.2   1 <1>  -0.5700 
 12 N       -2.5560    -9.0020    -0.1090 N.am  1 <1>  -0.6600 
 13 C       -2.7690   -10.4050    -0.5550 C.3   1 <1>   0.1400 
 14 C       -3.6450    -8.0830    -0.5340 C.3   1 <1>   0.1400 
 15 C       -4.0750   -10.9440     0.0670 C.3   1 <1>   0.4230 
 16 C       -4.9570    -8.5570     0.1090 C.3   1 <1>  -0.1600 
 17 N       -4.3230   -12.4240    -0.1760 N.4   1 <1>  -0.9590 
 18 C       -5.3240   -10.0430    -0.1870 C.3   1 <1>   0.0000 
 19 C       -5.7130   -12.8640     0.1680 C.3   1 <1>   0.3430 
 20 C       -3.9710   -12.8760    -1.5620 C.3   1 <1>   0.2630 
 21 C       -6.4300   -10.4830     0.8170 C.3   1 <1>  -0.1600 
 22 C       -5.9290   -10.1470    -1.6190 C.3   1 <1>   0.1200 
 23 C       -6.3330   -11.9660     1.2420 C.3   1 <1>  -0.1600 
 24 O       -4.9680   -10.0670    -2.6120 O.3   1 <1>  -0.6800 
 25 H       -0.0270    -2.5330     2.5710 H     1 <1>   0.1500 
 26 H        0.3000    -1.6240    -1.5770 H     1 <1>   0.1500 
 27 H       -0.5230    -4.8830     2.0370 H     1 <1>   0.1500 
 28 H       -0.2020    -3.9930    -2.1370 H     1 <1>   0.1500 
 29 H       -0.2300    -7.1730     1.5780 H     1 <1>   0.0800 
 30 H       -1.9300    -6.7210     1.4790 H     1 <1>   0.0800 
 31 H       -2.8010   -10.4180    -1.6270 H     1 <1>   0.0800 
 32 H       -1.9460   -11.0220    -0.2420 H     1 <1>   0.0800 
 33 H       -3.4430    -7.0720    -0.2270 H     1 <1>   0.0800 
 34 H       -3.7180    -8.0870    -1.6090 H     1 <1>   0.0800 
 35 H       -3.9000   -10.8540     1.1260 H     1 <1>   0.0800 
 36 H       -4.8450    -8.4100     1.1690 H     1 <1>   0.0800 
 37 H       -5.7540    -7.9080    -0.2100 H     1 <1>   0.0800 
 38 H       -3.6850   -12.9090     0.4710 H     1 <1>   0.4500 
 39 H       -6.3330   -12.8220    -0.7110 H     1 <1>   0.0800 
 40 H       -5.6980   -13.8870     0.5110 H     1 <1>   0.0800 
 41 H       -4.5860   -12.3730    -2.2900 H     1 <1>   0.0800 
 42 H       -4.1240   -13.9380    -1.6600 H     1 <1>   0.0800 
 43 H       -2.9380   -12.6610    -1.7810 H     1 <1>   0.0800 
 44 H       -6.3830    -9.8970     1.7190 H     1 <1>   0.0800 
 45 H       -7.4030   -10.2950     0.3940 H     1 <1>   0.0800 
 46 H       -6.6340    -9.3480    -1.7790 H     1 <1>   0.0800 
 47 H       -6.4510   -11.0760    -1.7570 H     1 <1>   0.0800 
 48 H       -7.3190   -12.3290     1.4790 H     1 <1>   0.0800 
 49 H       -5.7470   -12.0500     2.1410 H     1 <1>   0.0800 
 50 H       -5.3760    -9.8310    -3.4740 H     1 <1>   0.4000 
@<TRIPOS>BOND
  1   1   2  1   
  2   2   3  ar  
  3   2   4  ar  
  4   3   5  ar  
  5   3  25  1   
  6   4   6  ar  
  7   4  26  1   
  8   5   7  ar  
  9   5  27  1   
 10   6   7  ar  
 11   6  28  1   
 12   7   8  1   
 13   8   9  1   
 14   9  10  1   
 15   9  29  1   
 16   9  30  1   
 17  10  11  2   
 18  10  12  am  
 19  12  13  1   
 20  12  14  1   
 21  13  15  1   
 22  13  31  1   
 23  13  32  1   
 24  14  16  1   
 25  14  33  1   
 26  14  34  1   
 27  15  17  1   
 28  15  18  1   
 29  15  35  1   
 30  16  18  1   
 31  16  36  1   
 32  16  37  1   
 33  17  19  1   
 34  17  20  1   
 35  17  38  1   
 36  18  21  1   
 37  18  22  1   
 38  19  23  1   
 39  19  39  1   
 40  19  40  1   
 41  20  41  1   
 42  20  42  1   
 43  20  43  1   
 44  21  23  1   
 45  21  44  1   
 46  21  45  1   
 47  22  24  1   
 48  22  46  1   
 49  22  47  1   
 50  23  48  1   
 51  23  49  1   
 52  24  50  1   
@<TRIPOS>SUBSTRUCTURE
  1 ****  14 GROUP 4 **** **** 0

# MOE 2024.06 (io_trps.svl 2023.06)
