@<TRIPOS>MOLECULE
NONAME
41 43 1 0 0 
SMALL
USER_CHARGES


@<TRIPOS>ATOM
  1 O       -0.5640     1.0010     1.2580 O.2   1 <1>  -0.5700 
  2 C       -0.3420     2.0030     0.6170 C.2   1 <1>   0.5770 
  3 N       -1.3380     2.9270     0.3850 N.am  1 <1>  -0.6600 
  4 C        1.0680     2.1760     0.0610 C.3   1 <1>   0.0530 
  5 C       -2.7060     2.7380     0.9610 C.3   1 <1>   0.1400 
  6 C       -1.2490     4.1260    -0.4960 C.3   1 <1>   0.1400 
  7 C        1.7670     3.4560     0.5450 C.3   1 <1>   0.2580 
  8 C        2.1360     1.5160     0.9520 C.3   1 <1>   0.2580 
  9 C        1.2370     1.8390    -1.4400 C.3   1 <1>  -0.2400 
 10 C       -3.7640     2.5620    -0.1580 C.3   1 <1>   0.0000 
 11 C       -2.2650     4.0070    -1.6380 C.3   1 <1>  -0.1600 
 12 O        2.9350     2.6760     0.7520 O.3   1 <1>  -0.5160 
 13 C       -5.1870     2.3740     0.4090 C.3   1 <1>   0.2000 
 14 C       -3.6930     3.7730    -1.1130 C.3   1 <1>  -0.1600 
 15 C       -3.5490     1.2280    -0.8960 C.3   1 <1>  -0.1600 
 16 O       -5.4230     3.1290     1.5450 O.3   1 <1>  -0.6800 
 17 C       -5.3490     0.8850     0.7230 C.3   1 <1>  -0.1600 
 18 C       -4.2120     0.1670    -0.0150 C.3   1 <1>  -0.1600 
 19 H       -2.7270     1.8900     1.6240 H     1 <1>   0.0800 
 20 H       -2.9420     3.6090     1.5470 H     1 <1>   0.0800 
 21 H       -1.4660     5.0030     0.0900 H     1 <1>   0.0800 
 22 H       -0.2670     4.2410    -0.9120 H     1 <1>   0.0800 
 23 H        1.4120     3.8440     1.4860 H     1 <1>   0.0000 
 24 H        1.9440     4.2000    -0.2110 H     1 <1>   0.0000 
 25 H        2.6170     0.6500     0.5330 H     1 <1>   0.0000 
 26 H        1.8850     1.4270     1.9970 H     1 <1>   0.0000 
 27 H        2.2610     1.9690    -1.7470 H     1 <1>   0.0800 
 28 H        0.6150     2.4700    -2.0470 H     1 <1>   0.0800 
 29 H        0.9560     0.8150    -1.6140 H     1 <1>   0.0800 
 30 H       -2.2450     4.9090    -2.2230 H     1 <1>   0.0800 
 31 H       -1.9740     3.1960    -2.2820 H     1 <1>   0.0800 
 32 H       -5.9120     2.6630    -0.3330 H     1 <1>   0.0800 
 33 H       -4.3630     3.6330    -1.9440 H     1 <1>   0.0800 
 34 H       -4.0170     4.6510    -0.5810 H     1 <1>   0.0800 
 35 H       -4.0550     1.2530    -1.8450 H     1 <1>   0.0800 
 36 H       -2.5110     1.0020    -1.0700 H     1 <1>   0.0800 
 37 H       -4.9630     2.7330     2.3080 H     1 <1>   0.4000 
 38 H       -5.2800     0.6860     1.7780 H     1 <1>   0.0800 
 39 H       -6.3020     0.5440     0.3600 H     1 <1>   0.0800 
 40 H       -3.4940    -0.2030     0.6980 H     1 <1>   0.0800 
 41 H       -4.5730    -0.6610    -0.6010 H     1 <1>   0.0800 
@<TRIPOS>BOND
  1   1   2  2   
  2   2   3  am  
  3   2   4  1   
  4   3   5  1   
  5   3   6  1   
  6   4   7  1   
  7   4   8  1   
  8   4   9  1   
  9   5  10  1   
 10   5  19  1   
 11   5  20  1   
 12   6  11  1   
 13   6  21  1   
 14   6  22  1   
 15   7  12  1   
 16   7  23  1   
 17   7  24  1   
 18   8  12  1   
 19   8  25  1   
 20   8  26  1   
 21   9  27  1   
 22   9  28  1   
 23   9  29  1   
 24  10  13  1   
 25  10  14  1   
 26  10  15  1   
 27  11  14  1   
 28  11  30  1   
 29  11  31  1   
 30  13  16  1   
 31  13  17  1   
 32  13  32  1   
 33  14  33  1   
 34  14  34  1   
 35  15  18  1   
 36  15  35  1   
 37  15  36  1   
 38  16  37  1   
 39  17  18  1   
 40  17  38  1   
 41  17  39  1   
 42  18  40  1   
 43  18  41  1   
@<TRIPOS>SUBSTRUCTURE
  1 ****   3 GROUP 4 **** **** 0

# MOE 2024.06 (io_trps.svl 2023.06)
