@<TRIPOS>MOLECULE
NONAME
41 42 1 0 0 
SMALL
USER_CHARGES


@<TRIPOS>ATOM
  1 O        1.3520    -0.0540    -1.6390 O.2   1 <1>  -0.5700 
  2 C        1.4460    -0.4230    -0.4880 C.2   1 <1>   0.7800 
  3 O        2.2760     0.1600     0.3760 O.3   1 <1>  -0.4300 
  4 N        0.7300    -1.4910    -0.0320 N.am  1 <1>  -0.6600 
  5 C        3.0980     1.2850     0.1420 C.3   1 <1>   0.2800 
  6 C       -0.2820    -2.1450    -0.9130 C.3   1 <1>   0.3640 
  7 C        1.1170    -2.2610     1.1960 C.3   1 <1>   0.1400 
  8 C        4.1410     0.9670    -0.9360 C.3   1 <1>  -0.2400 
  9 C        2.2390     2.5030    -0.2170 C.3   1 <1>  -0.2400 
 10 C        3.8090     1.5440     1.4710 C.3   1 <1>  -0.2400 
 11 C       -1.5770    -2.3560    -0.1140 C.ar  1 <1>  -0.1440 
 12 C        0.3560    -3.4540    -1.4540 C.3   1 <1>   0.3430 
 13 C        1.0160    -3.7890     0.9670 C.3   1 <1>   0.3430 
 14 C       -2.2970    -3.5400    -0.0550 C.ar  1 <1>  -0.1500 
 15 C       -2.1080    -1.3040     0.6120 C.ar  1 <1>  -0.1500 
 16 N        1.2830    -4.1540    -0.4710 N.4   1 <1>  -0.9060 
 17 C       -3.4470    -3.6110     0.7140 C.ar  1 <1>   0.1600 
 18 C       -3.2650    -1.4790     1.3520 C.ar  1 <1>   0.1600 
 19 N       -3.9380    -2.6130     1.4250 N.ar  1 <1>  -0.6200 
 20 H       -0.5260    -1.5120    -1.7500 H     1 <1>   0.0800 
 21 H        0.4770    -1.9760     2.0140 H     1 <1>   0.0800 
 22 H        2.1270    -2.0170     1.4780 H     1 <1>   0.0800 
 23 H        3.6820     0.8480    -1.9000 H     1 <1>   0.0800 
 24 H        4.6840     0.0740    -0.6850 H     1 <1>   0.0800 
 25 H        4.8420     1.7780    -1.0130 H     1 <1>   0.0800 
 26 H        1.7780     2.3860    -1.1800 H     1 <1>   0.0800 
 27 H        2.8540     3.3840    -0.2590 H     1 <1>   0.0800 
 28 H        1.4770     2.6580     0.5250 H     1 <1>   0.0800 
 29 H        4.4030     0.6930     1.7530 H     1 <1>   0.0800 
 30 H        3.0920     1.7460     2.2470 H     1 <1>   0.0800 
 31 H        4.4610     2.3950     1.3860 H     1 <1>   0.0800 
 32 H        0.9170    -3.2010    -2.3390 H     1 <1>   0.0800 
 33 H       -0.4280    -4.1200    -1.7670 H     1 <1>   0.0800 
 34 H        0.0230    -4.1080     1.2390 H     1 <1>   0.0800 
 35 H        1.7090    -4.2930     1.6220 H     1 <1>   0.0800 
 36 H       -2.0110    -4.4240    -0.5900 H     1 <1>   0.1500 
 37 H       -1.6340    -0.3370     0.6140 H     1 <1>   0.1500 
 38 H        2.2400    -3.8430    -0.6880 H     1 <1>   0.4500 
 39 H        1.2610    -5.1730    -0.6060 H     1 <1>   0.4500 
 40 H       -3.9970    -4.5370     0.7480 H     1 <1>   0.1500 
 41 H       -3.6560    -0.6450     1.9100 H     1 <1>   0.1500 
@<TRIPOS>BOND
  1   1   2  2   
  2   2   3  1   
  3   2   4  am  
  4   3   5  1   
  5   4   6  1   
  6   4   7  1   
  7   5   8  1   
  8   5   9  1   
  9   5  10  1   
 10   6  11  1   
 11   6  12  1   
 12   6  20  1   
 13   7  13  1   
 14   7  21  1   
 15   7  22  1   
 16   8  23  1   
 17   8  24  1   
 18   8  25  1   
 19   9  26  1   
 20   9  27  1   
 21   9  28  1   
 22  10  29  1   
 23  10  30  1   
 24  10  31  1   
 25  11  14  ar  
 26  11  15  ar  
 27  12  16  1   
 28  12  32  1   
 29  12  33  1   
 30  13  16  1   
 31  13  34  1   
 32  13  35  1   
 33  14  17  ar  
 34  14  36  1   
 35  15  18  ar  
 36  15  37  1   
 37  16  38  1   
 38  16  39  1   
 39  17  19  ar  
 40  17  40  1   
 41  18  19  ar  
 42  18  41  1   
@<TRIPOS>SUBSTRUCTURE
  1 ****   4 GROUP 4 **** **** 0

# MOE 2024.06 (io_trps.svl 2023.06)
