@<TRIPOS>MOLECULE
NONAME
44 46 1 0 0 
SMALL
USER_CHARGES


@<TRIPOS>ATOM
  1 O       -2.4910     1.3140     2.7980 O.2   1 <1>  -0.5700 
  2 C       -2.6590     1.6380     1.6440 C.2   1 <1>   0.5690 
  3 N       -3.4830     0.9160     0.8200 N.am  1 <1>  -0.6600 
  4 C       -1.8780     2.8290     1.1390 C.3   1 <1>   0.1570 
  5 C       -3.7400     1.1930    -0.6250 C.3   1 <1>   0.1400 
  6 C       -3.7880    -0.5070     1.1180 C.3   1 <1>   0.1400 
  7 N       -0.8400     2.3690     0.2070 N.pl3 1 <1>   0.3140 
  8 C       -4.3990    -0.0800    -1.1610 C.3   1 <1>   0.2000 
  9 C       -3.8700    -1.1910    -0.2520 C.3   1 <1>  -0.0800 
 10 N       -0.6940     2.9540    -1.0120 N.2   1 <1>  -0.7070 
 11 C       -0.0210     1.2850     0.3380 C.2   1 <1>  -0.0680 
 12 O       -5.7690     0.0170    -0.9750 O.3   1 <1>  -0.6800 
 13 C       -2.4890    -1.6800    -0.7420 C.3   1 <1>  -0.0170 
 14 C        0.2180     2.2500    -1.6030 C.2   1 <1>   0.1080 
 15 N        0.0640     0.4160     1.4390 N.pl3 1 <1>  -0.8840 
 16 C        0.6720     1.1970    -0.8180 C.2   1 <1>  -0.1500 
 17 C       -1.9010    -2.7640     0.1490 C.ar  1 <1>   0.1670 
 18 C        0.7080     2.5680    -2.9960 C.3   1 <1>  -0.0590 
 19 N       -0.9370    -2.3920     0.9790 N.ar  1 <1>  -0.6200 
 20 C       -2.3850    -4.0600     0.0540 C.ar  1 <1>  -0.1500 
 21 C       -0.4410    -3.3490     1.7480 C.ar  1 <1>   0.1600 
 22 C       -1.8590    -5.0460     0.8610 C.ar  1 <1>  -0.1500 
 23 C       -0.8590    -4.6690     1.7300 C.ar  1 <1>  -0.1500 
 24 H       -1.4010     3.3290     1.9590 H     1 <1>   0.0800 
 25 H       -2.5310     3.5130     0.6340 H     1 <1>   0.0800 
 26 H       -4.3680     2.0560    -0.7600 H     1 <1>   0.0800 
 27 H       -2.8090     1.3440    -1.1410 H     1 <1>   0.0800 
 28 H       -3.0340    -0.9450     1.7510 H     1 <1>   0.0800 
 29 H       -4.7360    -0.5630     1.6240 H     1 <1>   0.0800 
 30 H       -4.2110    -0.2440    -2.2090 H     1 <1>   0.0800 
 31 H       -4.5470    -2.0270    -0.2260 H     1 <1>   0.0800 
 32 H       -5.9480     0.3060    -0.0580 H     1 <1>   0.4000 
 33 H       -1.7950    -0.8580    -0.7900 H     1 <1>   0.0800 
 34 H       -2.5840    -2.0740    -1.7380 H     1 <1>   0.0800 
 35 H       -0.6440     0.5640     2.1770 H     1 <1>   0.4000 
 36 H        0.0080    -0.5850     1.1770 H     1 <1>   0.4000 
 37 H        1.4170     0.4700    -1.0790 H     1 <1>   0.1500 
 38 H        1.4500     1.8560    -3.3040 H     1 <1>   0.0800 
 39 H        1.1390     3.5530    -3.0060 H     1 <1>   0.0800 
 40 H       -0.1170     2.5410    -3.6830 H     1 <1>   0.0800 
 41 H       -3.1670    -4.2980    -0.6430 H     1 <1>   0.1500 
 42 H        0.3420    -3.0670     2.4320 H     1 <1>   0.1500 
 43 H       -2.2120    -6.0620     0.8140 H     1 <1>   0.1500 
 44 H       -0.4050    -5.3870     2.3880 H     1 <1>   0.1500 
@<TRIPOS>BOND
  1   1   2  2   
  2   2   3  am  
  3   2   4  1   
  4   3   5  1   
  5   3   6  1   
  6   4   7  1   
  7   4  24  1   
  8   4  25  1   
  9   5   8  1   
 10   5  26  1   
 11   5  27  1   
 12   6   9  1   
 13   6  28  1   
 14   6  29  1   
 15   7  10  1   
 16   7  11  1   
 17   8   9  1   
 18   8  12  1   
 19   8  30  1   
 20   9  13  1   
 21   9  31  1   
 22  10  14  2   
 23  11  15  1   
 24  11  16  2   
 25  12  32  1   
 26  13  17  1   
 27  13  33  1   
 28  13  34  1   
 29  14  16  1   
 30  14  18  1   
 31  15  35  1   
 32  15  36  1   
 33  16  37  1   
 34  17  19  ar  
 35  17  20  ar  
 36  18  38  1   
 37  18  39  1   
 38  18  40  1   
 39  19  21  ar  
 40  20  22  ar  
 41  20  41  1   
 42  21  23  ar  
 43  21  42  1   
 44  22  23  ar  
 45  22  43  1   
 46  23  44  1   
@<TRIPOS>SUBSTRUCTURE
  1 ****  13 GROUP 4 **** **** 0

# MOE 2024.06 (io_trps.svl 2023.06)
