@<TRIPOS>MOLECULE
NONAME
56 59 1 0 0 
SMALL
USER_CHARGES


@<TRIPOS>ATOM
  1 O       -0.5050     1.0000    -0.9360 O.2   1 <1>  -0.5700 
  2 C       -0.5620     2.1980    -0.7750 C.2   1 <1>   0.5690 
  3 N       -1.4900     2.8090     0.0250 N.am  1 <1>  -0.5090 
  4 C        0.4340     3.0700    -1.5340 C.3   1 <1>   0.1810 
  5 C       -1.6770     4.2940     0.0000 C.3   1 <1>   0.3640 
  6 C       -2.4620     2.0550     0.8510 C.3   1 <1>   0.0490 
  7 O        0.6470     4.2970    -0.8860 O.3   1 <1>  -0.5600 
  8 C       -3.0160     4.6220    -0.6630 C.ar  1 <1>  -0.1440 
  9 C       -0.5290     5.0740    -0.7020 C.3   1 <1>   0.2610 
 10 C       -2.4810     2.2950     2.3290 C.3   1 <1>  -0.2000 
 11 C       -1.9730     0.9970     1.7880 C.3   1 <1>  -0.2000 
 12 C       -3.8390     5.5940    -0.1090 C.ar  1 <1>   0.1600 
 13 C       -3.4420     3.9780    -1.8120 C.ar  1 <1>  -0.1500 
 14 C       -0.2110     6.3370     0.1050 C.2   1 <1>   0.5690 
 15 N       -5.0190     5.9550    -0.5890 N.ar  1 <1>  -0.6200 
 16 C       -4.6660     4.3450    -2.3260 C.ar  1 <1>  -0.1500 
 17 O       -1.1190     7.0760     0.4050 O.2   1 <1>  -0.5700 
 18 N        1.0810     6.5690     0.4640 N.am  1 <1>  -0.7300 
 19 C       -5.4040     5.3240    -1.6850 C.ar  1 <1>   0.1600 
 20 C        1.6900     7.6860     1.2090 C.3   1 <1>   0.3000 
 21 C        1.5000     8.9950     0.4140 C.3   1 <1>  -0.1600 
 22 C        3.1690     7.2910     1.4200 C.3   1 <1>  -0.1600 
 23 C        0.9950     7.8020     2.5710 C.3   1 <1>  -0.2400 
 24 C        2.4110     9.1670    -0.8140 C.3   1 <1>  -0.1600 
 25 C        4.1520     8.4500     1.6670 C.3   1 <1>  -0.1600 
 26 C        3.7330     9.8680    -0.4650 C.3   1 <1>  -0.1600 
 27 C        4.7190     9.0260     0.3580 C.3   1 <1>  -0.1600 
 28 H        0.0750     3.2580    -2.5290 H     1 <1>   0.0800 
 29 H        1.3780     2.5610    -1.5920 H     1 <1>   0.0800 
 30 H       -1.7190     4.6230     1.0240 H     1 <1>   0.0800 
 31 H       -3.3980     1.8880     0.3430 H     1 <1>   0.1000 
 32 H       -0.8570     5.3890    -1.6760 H     1 <1>   0.0800 
 33 H       -1.7650     2.9610     2.7770 H     1 <1>   0.1000 
 34 H       -3.4260     2.2930     2.8430 H     1 <1>   0.1000 
 35 H       -2.5720     0.1130     1.9190 H     1 <1>   0.1000 
 36 H       -0.9180     0.7870     1.8170 H     1 <1>   0.1000 
 37 H       -3.5130     6.1110     0.7790 H     1 <1>   0.1500 
 38 H       -2.8570     3.2120    -2.2920 H     1 <1>   0.1500 
 39 H       -5.0500     3.8770    -3.2140 H     1 <1>   0.1500 
 40 H        1.7570     5.8710     0.1420 H     1 <1>   0.3700 
 41 H       -6.3610     5.6020    -2.0930 H     1 <1>   0.1500 
 42 H        0.4760     9.0590     0.0950 H     1 <1>   0.0800 
 43 H        1.6500     9.8310     1.0730 H     1 <1>   0.0800 
 44 H        3.2240     6.6220     2.2610 H     1 <1>   0.0800 
 45 H        3.5220     6.7380     0.5680 H     1 <1>   0.0800 
 46 H        1.5020     8.5230     3.1850 H     1 <1>   0.0800 
 47 H        1.0000     6.8570     3.0830 H     1 <1>   0.0800 
 48 H       -0.0220     8.1300     2.4550 H     1 <1>   0.0800 
 49 H        2.5920     8.2220    -1.2960 H     1 <1>   0.0800 
 50 H        1.8920     9.7900    -1.5230 H     1 <1>   0.0800 
 51 H        3.7020     9.2260     2.2620 H     1 <1>   0.0800 
 52 H        4.9820     8.0620     2.2310 H     1 <1>   0.0800 
 53 H        4.2210    10.1460    -1.3830 H     1 <1>   0.0800 
 54 H        3.5230    10.7820     0.0640 H     1 <1>   0.0800 
 55 H        5.5610     9.6500     0.6020 H     1 <1>   0.0800 
 56 H        5.0940     8.2240    -0.2540 H     1 <1>   0.0800 
@<TRIPOS>BOND
  1   1   2  2   
  2   2   3  am  
  3   2   4  1   
  4   3   5  1   
  5   3   6  1   
  6   4   7  1   
  7   4  28  1   
  8   4  29  1   
  9   5   8  1   
 10   5   9  1   
 11   5  30  1   
 12   6  10  1   
 13   6  11  1   
 14   6  31  1   
 15   7   9  1   
 16   8  12  ar  
 17   8  13  ar  
 18   9  14  1   
 19   9  32  1   
 20  10  11  1   
 21  10  33  1   
 22  10  34  1   
 23  11  35  1   
 24  11  36  1   
 25  12  15  ar  
 26  12  37  1   
 27  13  16  ar  
 28  13  38  1   
 29  14  17  2   
 30  14  18  am  
 31  15  19  ar  
 32  16  19  ar  
 33  16  39  1   
 34  18  20  1   
 35  18  40  1   
 36  19  41  1   
 37  20  21  1   
 38  20  22  1   
 39  20  23  1   
 40  21  24  1   
 41  21  42  1   
 42  21  43  1   
 43  22  25  1   
 44  22  44  1   
 45  22  45  1   
 46  23  46  1   
 47  23  47  1   
 48  23  48  1   
 49  24  26  1   
 50  24  49  1   
 51  24  50  1   
 52  25  27  1   
 53  25  51  1   
 54  25  52  1   
 55  26  27  1   
 56  26  53  1   
 57  26  54  1   
 58  27  55  1   
 59  27  56  1   
@<TRIPOS>SUBSTRUCTURE
  1 ****   9 GROUP 4 **** **** 0

# MOE 2024.06 (io_trps.svl 2023.06)
