@<TRIPOS>MOLECULE
NONAME
30 31 1 0 0 
SMALL
USER_CHARGES


@<TRIPOS>ATOM
  1 CL      -0.5110    -0.1200     1.7180 Cl    1 <1>  -0.1770 
  2 C       -1.8960    -0.9560     1.0500 C.ar  1 <1>   0.1770 
  3 C       -1.7740    -2.2110     0.5080 C.ar  1 <1>   0.1600 
  4 C       -3.1420    -0.3780     1.0520 C.ar  1 <1>   0.1600 
  5 N       -2.8070    -2.8490     0.0030 N.ar  1 <1>  -0.6200 
  6 N       -4.1900    -0.9950     0.5520 N.ar  1 <1>  -0.6200 
  7 C       -3.9800    -2.2120     0.0440 C.ar  1 <1>   0.7200 
  8 N       -5.0690    -2.8710    -0.4840 N.pl3 1 <1>  -0.8380 
  9 C       -5.1160    -4.3590    -0.6280 C.3   1 <1>   0.2090 
 10 C       -6.3130    -2.1700    -0.9010 C.3   1 <1>   0.2090 
 11 C       -6.3210    -4.9310     0.1390 C.3   1 <1>   0.2000 
 12 C       -7.4930    -2.7030    -0.0850 C.3   1 <1>  -0.1600 
 13 O       -6.4350    -6.2920    -0.1220 O.3   1 <1>  -0.6800 
 14 C       -7.6480    -4.2340    -0.2260 C.3   1 <1>  -0.0800 
 15 C       -8.7950    -4.7830     0.6390 C.3   1 <1>   0.1200 
 16 O       -9.9870    -4.1720     0.2840 O.3   1 <1>  -0.6800 
 17 H       -0.8120    -2.6930     0.4900 H     1 <1>   0.1500 
 18 H       -3.2730     0.6040     1.4700 H     1 <1>   0.1500 
 19 H       -5.1990    -4.5980    -1.6730 H     1 <1>   0.0800 
 20 H       -4.2210    -4.8150    -0.2430 H     1 <1>   0.0800 
 21 H       -6.2300    -1.1050    -0.7680 H     1 <1>   0.0800 
 22 H       -6.4800    -2.3530    -1.9490 H     1 <1>   0.0800 
 23 H       -6.1300    -4.8250     1.1940 H     1 <1>   0.0800 
 24 H       -7.3400    -2.4380     0.9470 H     1 <1>   0.0800 
 25 H       -8.3840    -2.2080    -0.4260 H     1 <1>   0.0800 
 26 H       -6.6850    -6.4420    -1.0530 H     1 <1>   0.4000 
 27 H       -7.8660    -4.4540    -1.2570 H     1 <1>   0.0800 
 28 H       -8.6180    -4.5990     1.6850 H     1 <1>   0.0800 
 29 H       -8.9160    -5.8420     0.4880 H     1 <1>   0.0800 
 30 H       -9.9680    -3.2250     0.5190 H     1 <1>   0.4000 
@<TRIPOS>BOND
  1   1   2  1   
  2   2   3  ar  
  3   2   4  ar  
  4   3   5  ar  
  5   3  17  1   
  6   4   6  ar  
  7   4  18  1   
  8   5   7  ar  
  9   6   7  ar  
 10   7   8  1   
 11   8   9  1   
 12   8  10  1   
 13   9  11  1   
 14   9  19  1   
 15   9  20  1   
 16  10  12  1   
 17  10  21  1   
 18  10  22  1   
 19  11  13  1   
 20  11  14  1   
 21  11  23  1   
 22  12  14  1   
 23  12  24  1   
 24  12  25  1   
 25  13  26  1   
 26  14  15  1   
 27  14  27  1   
 28  15  16  1   
 29  15  28  1   
 30  15  29  1   
 31  16  30  1   
@<TRIPOS>SUBSTRUCTURE
  1 ****   8 GROUP 4 **** **** 0

# MOE 2024.06 (io_trps.svl 2023.06)
