@<TRIPOS>MOLECULE
NONAME
62 64 1 0 0 
SMALL
USER_CHARGES


@<TRIPOS>ATOM
  1 F       -1.1520    -0.7200     1.7130 F     1 <1>  -0.1900 
  2 C       -2.2680    -0.1630     1.3170 C.ar  1 <1>   0.1900 
  3 C       -2.2940     0.8170     0.3180 C.ar  1 <1>   0.0830 
  4 C       -3.4240    -0.5940     1.9390 C.ar  1 <1>  -0.1500 
  5 O       -1.2280     1.3230    -0.3660 O.3   1 <1>  -0.3630 
  6 C       -3.5270     1.3440    -0.0320 C.ar  1 <1>  -0.1500 
  7 C       -4.6380    -0.0480     1.5650 C.ar  1 <1>  -0.1500 
  8 C        0.1030     0.9300    -0.1160 C.3   1 <1>   0.0400 
  9 C       -4.7140     0.9280     0.5700 C.ar  1 <1>   0.0530 
 10 C       -5.9730     1.5050     0.1770 C.2   1 <1>   0.0870 
 11 O       -6.0950     2.8060     0.1100 O.3   1 <1>  -0.0190 
 12 C       -7.1750     0.9720    -0.1760 C.2   1 <1>  -0.0860 
 13 N       -7.2900     3.1880    -0.2500 N.2   1 <1>  -0.4100 
 14 C       -7.9600     2.1050    -0.4280 C.2   1 <1>   0.3720 
 15 C       -7.5900    -0.3900    -0.3100 C.2   1 <1>   0.7160 
 16 N       -9.3060     2.1000    -0.8280 N.pl3 1 <1>  -0.8210 
 17 O       -6.8370    -1.3260    -0.1080 O.2   1 <1>  -0.5700 
 18 N       -8.8650    -0.6950    -0.6790 N.am  1 <1>  -0.7300 
 19 C       -9.5030     2.7430    -2.1590 C.3   1 <1>   0.1290 
 20 C      -10.2000     2.7260     0.1880 C.3   1 <1>   0.1290 
 21 C       -9.3510    -2.0410    -1.0730 C.3   1 <1>   0.1400 
 22 C       -9.3100    -3.0290     0.1320 C.3   1 <1>   0.4230 
 23 N       -8.7460    -4.3560    -0.3230 N.4   1 <1>  -0.9590 
 24 C      -10.6700    -3.1700     0.8970 C.3   1 <1>  -0.0800 
 25 C       -8.7360    -5.4590     0.6670 C.3   1 <1>   0.3430 
 26 C       -7.3190    -4.2400    -0.7430 C.3   1 <1>   0.3430 
 27 C      -11.6110    -1.9490     0.7870 C.3   1 <1>  -0.2400 
 28 C      -10.4510    -3.3990     2.4080 C.3   1 <1>  -0.2400 
 29 C       -7.7750    -6.4820     0.0820 C.3   1 <1>  -0.1600 
 30 C       -6.8030    -5.6730    -0.7780 C.3   1 <1>  -0.1600 
 31 H       -3.3690    -1.3460     2.7060 H     1 <1>   0.1500 
 32 H       -3.5630     2.1010    -0.7960 H     1 <1>   0.1500 
 33 H       -5.5390    -0.3780     2.0490 H     1 <1>   0.1500 
 34 H        0.7450     1.4900    -0.7710 H     1 <1>   0.0800 
 35 H        0.2030    -0.1210    -0.3190 H     1 <1>   0.0800 
 36 H        0.3470     1.1510     0.9080 H     1 <1>   0.0800 
 37 H       -9.4510     0.1300    -0.8980 H     1 <1>   0.3700 
 38 H       -8.8210     2.3190    -2.8770 H     1 <1>   0.0800 
 39 H       -9.3140     3.8020    -2.0930 H     1 <1>   0.0800 
 40 H      -10.5100     2.5850    -2.5030 H     1 <1>   0.0800 
 41 H      -10.0290     2.2780     1.1520 H     1 <1>   0.0800 
 42 H      -11.2310     2.5790    -0.0840 H     1 <1>   0.0800 
 43 H      -10.0010     3.7820     0.2590 H     1 <1>   0.0800 
 44 H       -8.7120    -2.3850    -1.8650 H     1 <1>   0.0800 
 45 H      -10.3360    -1.9640    -1.4920 H     1 <1>   0.0800 
 46 H       -8.6070    -2.6100     0.8340 H     1 <1>   0.0800 
 47 H       -9.2850    -4.6850    -1.1310 H     1 <1>   0.4500 
 48 H      -11.2090    -4.0090     0.4920 H     1 <1>   0.0800 
 49 H       -9.7200    -5.8730     0.8240 H     1 <1>   0.0800 
 50 H       -8.3390    -5.1000     1.6030 H     1 <1>   0.0800 
 51 H       -6.7670    -3.6790    -0.0040 H     1 <1>   0.0800 
 52 H       -7.2120    -3.7560    -1.7000 H     1 <1>   0.0800 
 53 H      -11.1080    -1.0460     1.0860 H     1 <1>   0.0800 
 54 H      -12.4680    -2.0770     1.4260 H     1 <1>   0.0800 
 55 H      -11.9940    -1.8250    -0.2100 H     1 <1>   0.0800 
 56 H       -9.9140    -2.5710     2.8390 H     1 <1>   0.0800 
 57 H       -9.9120    -4.2980     2.6280 H     1 <1>   0.0800 
 58 H      -11.3980    -3.4760     2.9150 H     1 <1>   0.0800 
 59 H       -8.3180    -7.1860    -0.5240 H     1 <1>   0.0800 
 60 H       -7.2680    -7.0210     0.8650 H     1 <1>   0.0800 
 61 H       -5.7990    -5.7100    -0.3910 H     1 <1>   0.0800 
 62 H       -6.7940    -6.0390    -1.7900 H     1 <1>   0.0800 
@<TRIPOS>BOND
  1   1   2  1   
  2   2   3  ar  
  3   2   4  ar  
  4   3   5  1   
  5   3   6  ar  
  6   4   7  ar  
  7   4  31  1   
  8   5   8  1   
  9   6   9  ar  
 10   6  32  1   
 11   7   9  ar  
 12   7  33  1   
 13   8  34  1   
 14   8  35  1   
 15   8  36  1   
 16   9  10  1   
 17  10  11  1   
 18  10  12  2   
 19  11  13  1   
 20  12  14  1   
 21  12  15  1   
 22  13  14  2   
 23  14  16  1   
 24  15  17  2   
 25  15  18  am  
 26  16  19  1   
 27  16  20  1   
 28  18  21  1   
 29  18  37  1   
 30  19  38  1   
 31  19  39  1   
 32  19  40  1   
 33  20  41  1   
 34  20  42  1   
 35  20  43  1   
 36  21  22  1   
 37  21  44  1   
 38  21  45  1   
 39  22  23  1   
 40  22  24  1   
 41  22  46  1   
 42  23  25  1   
 43  23  26  1   
 44  23  47  1   
 45  24  27  1   
 46  24  28  1   
 47  24  48  1   
 48  25  29  1   
 49  25  49  1   
 50  25  50  1   
 51  26  30  1   
 52  26  51  1   
 53  26  52  1   
 54  27  53  1   
 55  27  54  1   
 56  27  55  1   
 57  28  56  1   
 58  28  57  1   
 59  28  58  1   
 60  29  30  1   
 61  29  59  1   
 62  29  60  1   
 63  30  61  1   
 64  30  62  1   
@<TRIPOS>SUBSTRUCTURE
  1 ****  17 GROUP 4 **** **** 0

# MOE 2024.06 (io_trps.svl 2023.06)
