@<TRIPOS>MOLECULE
NONAME
44 46 1 0 0 
SMALL
USER_CHARGES


@<TRIPOS>ATOM
  1 O       -1.9170    -2.2360    -1.0470 O.co2 1 <1>  -0.9000 
  2 C       -2.6540    -1.3410    -1.4800 C.2   1 <1>   0.9790 
  3 O       -3.5100    -1.6450    -2.3280 O.co2 1 <1>  -0.9000 
  4 C       -2.8560    -0.1270    -0.7220 C.ar  1 <1>  -0.1790 
  5 C       -3.5790    -0.1890     0.4760 C.ar  1 <1>  -0.1440 
  6 C       -2.3890     1.1110    -1.1550 C.ar  1 <1>  -0.1500 
  7 C       -3.8110     0.9620     1.2130 C.ar  1 <1>  -0.1500 
  8 C       -4.0840    -1.5440     0.9650 C.3   1 <1>   0.4870 
  9 C       -2.6270     2.2570    -0.4180 C.ar  1 <1>  -0.1500 
 10 C       -3.3380     2.1830     0.7660 C.ar  1 <1>  -0.1500 
 11 N       -4.9510    -2.2150    -0.0530 N.4   1 <1>  -0.9590 
 12 C       -6.3870    -1.8700    -0.0420 C.3   1 <1>   0.4230 
 13 C       -4.6290    -3.6690    -0.1010 C.3   1 <1>   0.2630 
 14 C       -7.1270    -2.5350    -1.2010 C.3   1 <1>  -0.1600 
 15 C       -6.6320    -0.3820    -0.2740 C.3   1 <1>  -0.1600 
 16 C       -8.3680    -1.6680    -1.4400 C.3   1 <1>  -0.0800 
 17 C       -8.0500    -0.2880    -0.8450 C.3   1 <1>  -0.0800 
 18 C       -9.6250    -2.1740    -0.7180 C.3   1 <1>  -0.1600 
 19 C       -9.1260    -0.0120     0.2150 C.3   1 <1>  -0.1600 
 20 C      -10.2850    -0.9150    -0.1780 C.3   1 <1>   0.2000 
 21 O      -11.0540    -1.2130     0.9240 O.3   1 <1>  -0.6800 
 22 H       -1.8390     1.1670    -2.0790 H     1 <1>   0.1500 
 23 H       -4.3560     0.9220     2.1390 H     1 <1>   0.1500 
 24 H       -4.6170    -1.4340     1.8930 H     1 <1>   0.0800 
 25 H       -3.2150    -2.1570     1.1450 H     1 <1>   0.0800 
 26 H       -2.2580     3.2050    -0.7680 H     1 <1>   0.1500 
 27 H       -3.5180     3.0770     1.3380 H     1 <1>   0.1500 
 28 H       -4.5810    -1.8750    -0.9770 H     1 <1>   0.4500 
 29 H       -6.8430    -2.1680     0.8880 H     1 <1>   0.0800 
 30 H       -4.9410    -4.1600     0.8050 H     1 <1>   0.0800 
 31 H       -3.5640    -3.7980    -0.2280 H     1 <1>   0.0800 
 32 H       -5.1150    -4.1300    -0.9440 H     1 <1>   0.0800 
 33 H       -6.5110    -2.4940    -2.0850 H     1 <1>   0.0800 
 34 H       -7.3830    -3.5570    -0.9910 H     1 <1>   0.0800 
 35 H       -6.5200     0.1970     0.6240 H     1 <1>   0.0800 
 36 H       -5.9450    -0.0190    -1.0210 H     1 <1>   0.0800 
 37 H       -8.5690    -1.5770    -2.4960 H     1 <1>   0.0800 
 38 H       -8.0980     0.4670    -1.6140 H     1 <1>   0.0800 
 39 H       -9.3560    -2.8220     0.0970 H     1 <1>   0.0800 
 40 H      -10.2810    -2.6950    -1.3920 H     1 <1>   0.0800 
 41 H       -9.4230     1.0220     0.2120 H     1 <1>   0.0800 
 42 H       -8.7690    -0.2820     1.1940 H     1 <1>   0.0800 
 43 H      -10.9050    -0.4480    -0.9250 H     1 <1>   0.0800 
 44 H      -10.5170    -1.6380     1.6160 H     1 <1>   0.4000 
@<TRIPOS>BOND
  1   1   2  ar  
  2   2   3  ar  
  3   2   4  1   
  4   4   5  ar  
  5   4   6  ar  
  6   5   7  ar  
  7   5   8  1   
  8   6   9  ar  
  9   6  22  1   
 10   7  10  ar  
 11   7  23  1   
 12   8  11  1   
 13   8  24  1   
 14   8  25  1   
 15   9  10  ar  
 16   9  26  1   
 17  10  27  1   
 18  11  12  1   
 19  11  13  1   
 20  11  28  1   
 21  12  14  1   
 22  12  15  1   
 23  12  29  1   
 24  13  30  1   
 25  13  31  1   
 26  13  32  1   
 27  14  16  1   
 28  14  33  1   
 29  14  34  1   
 30  15  17  1   
 31  15  35  1   
 32  15  36  1   
 33  16  17  1   
 34  16  18  1   
 35  16  37  1   
 36  17  19  1   
 37  17  38  1   
 38  18  20  1   
 39  18  39  1   
 40  18  40  1   
 41  19  20  1   
 42  19  41  1   
 43  19  42  1   
 44  20  21  1   
 45  20  43  1   
 46  21  44  1   
@<TRIPOS>SUBSTRUCTURE
  1 ****  15 GROUP 4 **** **** 0

# MOE 2024.06 (io_trps.svl 2023.06)
