@<TRIPOS>MOLECULE
NONAME
51 54 1 0 0 
SMALL
USER_CHARGES


@<TRIPOS>ATOM
  1 O       -1.0320    -1.9140     0.2840 O.2   1 <1>  -0.5700 
  2 C        0.0120    -2.4620     0.0390 C.2   1 <1>   0.5690 
  3 N        0.2770    -2.9650    -1.1840 N.am  1 <1>  -0.7300 
  4 C        1.0730    -2.6190     1.1060 C.3   1 <1>  -0.0990 
  5 C        1.5360    -3.6630    -1.5180 C.3   1 <1>   0.1400 
  6 C        2.4680    -2.3120     0.5280 C.3   1 <1>  -0.0800 
  7 C        2.7300    -2.9350    -0.8670 C.3   1 <1>  -0.0800 
  8 C        3.6120    -2.7770     1.4390 C.3   1 <1>  -0.1600 
  9 C        3.9580    -3.8380    -0.6950 C.3   1 <1>  -0.1600 
 10 C        4.7100    -3.2070     0.4740 C.3   1 <1>   0.2200 
 11 N        5.7330    -4.0870     1.1200 N.am  1 <1>  -0.6600 
 12 C        6.9860    -3.6490     1.4870 C.2   1 <1>   0.5690 
 13 C        5.3560    -5.5130     1.3730 C.3   1 <1>   0.0600 
 14 O        7.8230    -4.4030     1.9200 O.2   1 <1>  -0.5700 
 15 C        7.3880    -2.1870     1.3670 C.3   1 <1>  -0.0990 
 16 C        7.9380    -1.8610    -0.0320 C.3   1 <1>  -0.0990 
 17 C        8.1080    -0.3610    -0.2330 C.2   1 <1>   0.3890 
 18 N        9.2900     0.1330    -0.1140 N.2   1 <1>  -0.6290 
 19 C        6.9240     0.4220    -0.5450 C.2   1 <1>   0.6300 
 20 C        9.4360     1.5030    -0.2970 C.ar  1 <1>   0.1790 
 21 O        5.7950    -0.0340    -0.6530 O.2   1 <1>  -0.5700 
 22 N        7.0820     1.7630    -0.7250 N.am  1 <1>  -0.5470 
 23 C        8.3420     2.3360    -0.6040 C.ar  1 <1>   0.1170 
 24 C       10.6970     2.0740    -0.1750 C.ar  1 <1>  -0.1500 
 25 C        8.5390     3.7030    -0.7790 C.ar  1 <1>  -0.1500 
 26 C       10.8830     3.4310    -0.3500 C.ar  1 <1>  -0.1500 
 27 C        9.8010     4.2470    -0.6530 C.ar  1 <1>  -0.1500 
 28 H       -0.4530    -2.8870    -1.8960 H     1 <1>   0.3700 
 29 H        0.8580    -1.9600     1.9270 H     1 <1>   0.0800 
 30 H        1.0270    -3.6310     1.4630 H     1 <1>   0.0800 
 31 H        1.4670    -4.6720    -1.1500 H     1 <1>   0.0800 
 32 H        1.6640    -3.6970    -2.5860 H     1 <1>   0.0800 
 33 H        2.5420    -1.2420     0.4130 H     1 <1>   0.0800 
 34 H        3.0110    -2.1280    -1.5250 H     1 <1>   0.0800 
 35 H        3.2980    -3.6150     2.0340 H     1 <1>   0.0800 
 36 H        3.9470    -1.9850     2.0840 H     1 <1>   0.0800 
 37 H        4.5630    -3.8600    -1.5840 H     1 <1>   0.0800 
 38 H        3.6340    -4.8320    -0.4500 H     1 <1>   0.0800 
 39 H        5.1740    -2.3190     0.0910 H     1 <1>   0.0800 
 40 H        4.3380    -5.5820     1.7090 H     1 <1>   0.0800 
 41 H        5.9870    -5.9450     2.1320 H     1 <1>   0.0800 
 42 H        5.4740    -6.0840     0.4690 H     1 <1>   0.0800 
 43 H        6.5510    -1.5620     1.6130 H     1 <1>   0.0800 
 44 H        8.1540    -1.9850     2.0960 H     1 <1>   0.0800 
 45 H        7.2810    -2.2440    -0.7920 H     1 <1>   0.0800 
 46 H        8.8880    -2.3520    -0.1570 H     1 <1>   0.0800 
 47 H        6.2500     2.3080    -0.9450 H     1 <1>   0.3700 
 48 H       11.5290     1.4350     0.0600 H     1 <1>   0.1500 
 49 H        7.7030     4.3370    -1.0140 H     1 <1>   0.1500 
 50 H       11.8660     3.8590    -0.2520 H     1 <1>   0.1500 
 51 H        9.9530     5.3040    -0.7880 H     1 <1>   0.1500 
@<TRIPOS>BOND
  1   1   2  2   
  2   2   3  am  
  3   2   4  1   
  4   3   5  1   
  5   3  28  1   
  6   4   6  1   
  7   4  29  1   
  8   4  30  1   
  9   5   7  1   
 10   5  31  1   
 11   5  32  1   
 12   6   7  1   
 13   6   8  1   
 14   6  33  1   
 15   7   9  1   
 16   7  34  1   
 17   8  10  1   
 18   8  35  1   
 19   8  36  1   
 20   9  10  1   
 21   9  37  1   
 22   9  38  1   
 23  10  11  1   
 24  10  39  1   
 25  11  12  am  
 26  11  13  1   
 27  12  14  2   
 28  12  15  1   
 29  13  40  1   
 30  13  41  1   
 31  13  42  1   
 32  15  16  1   
 33  15  43  1   
 34  15  44  1   
 35  16  17  1   
 36  16  45  1   
 37  16  46  1   
 38  17  18  2   
 39  17  19  1   
 40  18  20  1   
 41  19  21  2   
 42  19  22  am  
 43  20  23  ar  
 44  20  24  ar  
 45  22  23  1   
 46  22  47  1   
 47  23  25  ar  
 48  24  26  ar  
 49  24  48  1   
 50  25  27  ar  
 51  25  49  1   
 52  26  27  ar  
 53  26  50  1   
 54  27  51  1   
@<TRIPOS>SUBSTRUCTURE
  1 ****  21 GROUP 4 **** **** 0

# MOE 2024.06 (io_trps.svl 2023.06)
