@<TRIPOS>MOLECULE
NONAME
59 62 1 0 0 
SMALL
USER_CHARGES


@<TRIPOS>ATOM
  1 O       -4.4760     3.5270    -0.3100 O.2   1 <1>  -0.5700 
  2 C       -3.3620     3.0610    -0.1370 C.2   1 <1>   0.5440 
  3 N       -3.0320     1.9050    -0.8270 N.am  1 <1>  -0.6600 
  4 C       -2.4620     3.7390     0.7930 C.ar  1 <1>   0.3960 
  5 C       -1.8120     1.0810    -0.5640 C.3   1 <1>   0.1400 
  6 C       -3.8710     1.3740    -1.9460 C.3   1 <1>   0.1400 
  7 N       -1.1580     3.8830     0.5070 N.ar  1 <1>  -0.6200 
  8 C       -3.0140     4.2470     1.9720 C.ar  1 <1>   0.1600 
  9 C       -2.1580    -0.4170    -0.5090 C.3   1 <1>   0.1200 
 10 C       -4.0970    -0.1380    -1.7930 C.3   1 <1>   0.1200 
 11 C       -0.4850     4.5690     1.4150 C.ar  1 <1>   0.4100 
 12 N       -2.3530     4.9020     2.9150 N.ar  1 <1>  -0.6200 
 13 O       -2.8770    -0.8070    -1.6430 O.3   1 <1>  -0.5600 
 14 N        0.8490     4.8350     1.1360 N.pl3 1 <1>  -0.8380 
 15 C       -1.0830     5.0440     2.5950 C.ar  1 <1>   0.1600 
 16 C        1.3370     6.2410     1.0700 C.3   1 <1>   0.4330 
 17 C        1.6300     3.9840     0.2050 C.3   1 <1>   0.2090 
 18 C        0.2250     7.2390     0.7250 C.ar  1 <1>  -0.1430 
 19 C        2.4570     6.2310     0.0270 C.3   1 <1>  -0.1600 
 20 C        2.9020     4.7740    -0.0610 C.3   1 <1>  -0.1600 
 21 C       -0.5810     7.0540    -0.3900 C.ar  1 <1>  -0.1500 
 22 C       -0.0180     8.3270     1.5500 C.ar  1 <1>  -0.1500 
 23 C       -1.6200     7.9220    -0.6670 C.ar  1 <1>  -0.1500 
 24 C       -1.0550     9.2020     1.2750 C.ar  1 <1>  -0.1500 
 25 C       -1.8640     9.0030     0.1650 C.ar  1 <1>  -0.1430 
 26 C       -3.0140     9.9440    -0.1320 C.3   1 <1>   0.4860 
 27 N       -2.4690    11.1920    -0.7390 N.4   1 <1>  -0.9590 
 28 C       -3.5150    12.2530    -0.8380 C.3   1 <1>   0.2630 
 29 C       -1.8360    10.9250    -2.0690 C.3   1 <1>   0.2630 
 30 H       -1.3580     1.3560     0.3700 H     1 <1>   0.0800 
 31 H       -1.0950     1.2520    -1.3470 H     1 <1>   0.0800 
 32 H       -3.3700     1.5620    -2.8790 H     1 <1>   0.0800 
 33 H       -4.8250     1.8700    -1.9790 H     1 <1>   0.0800 
 34 H       -4.0670     4.0990     2.1360 H     1 <1>   0.1500 
 35 H       -2.7470    -0.6360     0.3650 H     1 <1>   0.0800 
 36 H       -1.2580    -1.0040    -0.4740 H     1 <1>   0.0800 
 37 H       -4.5820    -0.5300    -2.6690 H     1 <1>   0.0800 
 38 H       -4.7140    -0.3420    -0.9350 H     1 <1>   0.0800 
 39 H       -0.4530     5.5690     3.2870 H     1 <1>   0.1500 
 40 H        1.7620     6.4830     2.0290 H     1 <1>   0.0800 
 41 H        1.0830     3.8480    -0.7130 H     1 <1>   0.0800 
 42 H        1.8390     3.0250     0.6480 H     1 <1>   0.0800 
 43 H        3.2600     6.8870     0.3090 H     1 <1>   0.0800 
 44 H        2.0740     6.5460    -0.9260 H     1 <1>   0.0800 
 45 H        3.3310     4.5310    -1.0160 H     1 <1>   0.0800 
 46 H        3.6160     4.5570     0.7140 H     1 <1>   0.0800 
 47 H       -0.4100     6.2060    -1.0340 H     1 <1>   0.1500 
 48 H        0.5920     8.4910     2.4220 H     1 <1>   0.1500 
 49 H       -2.2350     7.7290    -1.5290 H     1 <1>   0.1500 
 50 H       -1.2270    10.0270     1.9450 H     1 <1>   0.1500 
 51 H       -3.5290    10.1700     0.7870 H     1 <1>   0.0800 
 52 H       -3.7110     9.4720    -0.8050 H     1 <1>   0.0800 
 53 H       -1.7220    11.5080    -0.1020 H     1 <1>   0.4500 
 54 H       -4.3120    11.9360    -1.4910 H     1 <1>   0.0800 
 55 H       -3.0890    13.1620    -1.2310 H     1 <1>   0.0800 
 56 H       -3.9300    12.4650     0.1350 H     1 <1>   0.0800 
 57 H       -2.5660    10.5420    -2.7630 H     1 <1>   0.0800 
 58 H       -1.0450    10.1990    -1.9670 H     1 <1>   0.0800 
 59 H       -1.4160    11.8310    -2.4730 H     1 <1>   0.0800 
@<TRIPOS>BOND
  1   1   2  2   
  2   2   3  am  
  3   2   4  1   
  4   3   5  1   
  5   3   6  1   
  6   4   7  ar  
  7   4   8  ar  
  8   5   9  1   
  9   5  30  1   
 10   5  31  1   
 11   6  10  1   
 12   6  32  1   
 13   6  33  1   
 14   7  11  ar  
 15   8  12  ar  
 16   8  34  1   
 17   9  13  1   
 18   9  35  1   
 19   9  36  1   
 20  10  13  1   
 21  10  37  1   
 22  10  38  1   
 23  11  14  1   
 24  11  15  ar  
 25  12  15  ar  
 26  14  16  1   
 27  14  17  1   
 28  15  39  1   
 29  16  18  1   
 30  16  19  1   
 31  16  40  1   
 32  17  20  1   
 33  17  41  1   
 34  17  42  1   
 35  18  21  ar  
 36  18  22  ar  
 37  19  20  1   
 38  19  43  1   
 39  19  44  1   
 40  20  45  1   
 41  20  46  1   
 42  21  23  ar  
 43  21  47  1   
 44  22  24  ar  
 45  22  48  1   
 46  23  25  ar  
 47  23  49  1   
 48  24  25  ar  
 49  24  50  1   
 50  25  26  1   
 51  26  27  1   
 52  26  51  1   
 53  26  52  1   
 54  27  28  1   
 55  27  29  1   
 56  27  53  1   
 57  28  54  1   
 58  28  55  1   
 59  28  56  1   
 60  29  57  1   
 61  29  58  1   
 62  29  59  1   
@<TRIPOS>SUBSTRUCTURE
  1 ****   7 GROUP 4 **** **** 0

# MOE 2024.06 (io_trps.svl 2023.06)
