@<TRIPOS>MOLECULE
NONAME
59 63 1 0 0 
SMALL
USER_CHARGES


@<TRIPOS>ATOM
  1 O       -0.5830     0.9310    -0.3830 O.2   1 <1>  -0.5700 
  2 C        0.4260     1.6180    -0.4120 C.2   1 <1>   0.5440 
  3 N        0.4200     2.7610    -1.1720 N.am  1 <1>  -0.6600 
  4 C        1.5840     1.2460     0.3610 C.ar  1 <1>   0.0860 
  5 C        1.5760     3.6870    -1.1490 C.3   1 <1>   0.7690 
  6 C       -0.8740     3.4610    -1.4190 C.3   1 <1>   0.1400 
  7 C        2.7740     1.9420     0.1420 C.ar  1 <1>   0.1000 
  8 C        1.5730     0.2270     1.3160 C.ar  1 <1>  -0.1500 
  9 N        2.8240     2.9400    -0.8210 N.pl3 1 <1>  -0.8380 
 10 C        1.2620     4.8030    -0.1570 C.2   1 <1>  -0.3320 
 11 C       -1.2260     4.3380    -0.2030 C.3   1 <1>   0.0210 
 12 C        3.9110     1.6170     0.8760 C.ar  1 <1>  -0.1500 
 13 C        2.7060    -0.0910     2.0390 C.ar  1 <1>  -0.1500 
 14 C        3.6470     2.6550    -2.0270 C.3   1 <1>   0.1290 
 15 N        2.1470     5.6910     0.4050 N.pl3 1 <1>   0.0480 
 16 C        0.0060     5.0970     0.2550 C.2   1 <1>  -0.1810 
 17 C        3.8810     0.6090     1.8190 C.ar  1 <1>  -0.1500 
 18 C        1.4170     6.5570     1.1970 C.ar  1 <1>  -0.1520 
 19 C        3.6230     5.7060     0.2770 C.3   1 <1>   0.1570 
 20 C        0.0730     6.1990     1.1290 C.ar  1 <1>   0.0000 
 21 C        1.8100     7.6480     1.9830 C.ar  1 <1>  -0.1500 
 22 C        4.0970     6.2540    -1.0640 C.2   1 <1>   0.5690 
 23 C       -0.8840     6.9150     1.8530 C.ar  1 <1>  -0.1500 
 24 C        0.8600     8.3480     2.6890 C.ar  1 <1>  -0.1500 
 25 O        3.4590     6.0350    -2.0670 O.2   1 <1>  -0.5700 
 26 N        5.2440     6.9690    -1.2000 N.am  1 <1>  -0.7300 
 27 C       -0.4890     7.9810     2.6270 C.ar  1 <1>  -0.1500 
 28 C        6.3670     7.2990    -0.3170 C.3   1 <1>   0.3000 
 29 C        5.9490     8.4080     0.6480 C.3   1 <1>  -0.2400 
 30 C        6.8670     6.0560     0.4230 C.3   1 <1>  -0.2400 
 31 C        7.4780     7.8170    -1.2290 C.3   1 <1>  -0.2400 
 32 H        1.6820     4.1300    -2.1250 H     1 <1>   0.0800 
 33 H       -1.6600     2.7490    -1.6030 H     1 <1>   0.0800 
 34 H       -0.7750     4.0820    -2.2930 H     1 <1>   0.0800 
 35 H        0.6570    -0.3130     1.4850 H     1 <1>   0.1500 
 36 H       -1.5790     3.7150     0.5990 H     1 <1>   0.0800 
 37 H       -2.0080     5.0260    -0.4680 H     1 <1>   0.0800 
 38 H        4.8170     2.1650     0.7000 H     1 <1>   0.1500 
 39 H        2.6770    -0.8790     2.7720 H     1 <1>   0.1500 
 40 H        4.0330     3.5720    -2.4370 H     1 <1>   0.0800 
 41 H        3.0450     2.1620    -2.7720 H     1 <1>   0.0800 
 42 H        4.4740     2.0140    -1.7750 H     1 <1>   0.0800 
 43 H        4.7650     0.3650     2.3820 H     1 <1>   0.1500 
 44 H        3.9980     4.7120     0.4080 H     1 <1>   0.0800 
 45 H        4.0140     6.3010     1.0710 H     1 <1>   0.0800 
 46 H        2.8420     7.9390     2.0330 H     1 <1>   0.1500 
 47 H       -1.9150     6.6190     1.7930 H     1 <1>   0.1500 
 48 H        1.1440     9.1880     3.2990 H     1 <1>   0.1500 
 49 H        5.3920     7.3030    -2.1530 H     1 <1>   0.3700 
 50 H       -1.2130     8.5420     3.1900 H     1 <1>   0.1500 
 51 H        5.2000     8.0700     1.3370 H     1 <1>   0.0800 
 52 H        5.5660     9.2530     0.1040 H     1 <1>   0.0800 
 53 H        6.7970     8.7340     1.2220 H     1 <1>   0.0800 
 54 H        6.1720     5.7280     1.1700 H     1 <1>   0.0800 
 55 H        7.7900     6.2790     0.9260 H     1 <1>   0.0800 
 56 H        7.0490     5.2550    -0.2710 H     1 <1>   0.0800 
 57 H        7.1520     8.6880    -1.7690 H     1 <1>   0.0800 
 58 H        7.7750     7.0580    -1.9310 H     1 <1>   0.0800 
 59 H        8.3400     8.0900    -0.6480 H     1 <1>   0.0800 
@<TRIPOS>BOND
  1   1   2  2   
  2   2   3  am  
  3   2   4  1   
  4   3   5  1   
  5   3   6  1   
  6   4   7  ar  
  7   4   8  ar  
  8   5   9  1   
  9   5  10  1   
 10   5  32  1   
 11   6  11  1   
 12   6  33  1   
 13   6  34  1   
 14   7   9  1   
 15   7  12  ar  
 16   8  13  ar  
 17   8  35  1   
 18   9  14  1   
 19  10  15  1   
 20  10  16  2   
 21  11  16  1   
 22  11  36  1   
 23  11  37  1   
 24  12  17  ar  
 25  12  38  1   
 26  13  17  ar  
 27  13  39  1   
 28  14  40  1   
 29  14  41  1   
 30  14  42  1   
 31  15  18  1   
 32  15  19  1   
 33  16  20  1   
 34  17  43  1   
 35  18  20  ar  
 36  18  21  ar  
 37  19  22  1   
 38  19  44  1   
 39  19  45  1   
 40  20  23  ar  
 41  21  24  ar  
 42  21  46  1   
 43  22  25  2   
 44  22  26  am  
 45  23  27  ar  
 46  23  47  1   
 47  24  27  ar  
 48  24  48  1   
 49  26  28  1   
 50  26  49  1   
 51  27  50  1   
 52  28  29  1   
 53  28  30  1   
 54  28  31  1   
 55  29  51  1   
 56  29  52  1   
 57  29  53  1   
 58  30  54  1   
 59  30  55  1   
 60  30  56  1   
 61  31  57  1   
 62  31  58  1   
 63  31  59  1   
@<TRIPOS>SUBSTRUCTURE
  1 ****  10 GROUP 4 **** **** 0

# MOE 2024.06 (io_trps.svl 2023.06)
