@<TRIPOS>MOLECULE
NONAME
61 63 1 0 0 
SMALL
USER_CHARGES


@<TRIPOS>ATOM
  1 O        0.0650     1.6300     2.7530 O.2   1 <1>  -0.5700 
  2 C       -0.8750     2.2540     2.3130 C.2   1 <1>   0.5690 
  3 N       -1.8770     1.6190     1.6030 N.am  1 <1>  -0.6600 
  4 C       -0.9150     3.7500     2.6430 C.3   1 <1>   0.1810 
  5 C       -2.9580     2.3540     0.8780 C.3   1 <1>   0.2200 
  6 C       -1.8510     0.1280     1.4860 C.3   1 <1>   0.0600 
  7 O       -0.1380     4.5430     1.7540 O.3   1 <1>  -0.3620 
  8 C       -4.3080     2.2580     1.5810 C.3   1 <1>  -0.1600 
  9 C       -3.2380     1.8580    -0.5410 C.3   1 <1>  -0.1600 
 10 C       -0.6650     4.8410     0.5440 C.ar  1 <1>   0.0820 
 11 C       -5.3210     2.6440     0.4930 C.3   1 <1>  -0.0800 
 12 C       -4.6280     2.4240    -0.8560 C.3   1 <1>  -0.0800 
 13 C       -0.2670     4.1150    -0.5800 C.ar  1 <1>  -0.1440 
 14 C       -1.5960     5.8740     0.4370 C.ar  1 <1>  -0.1440 
 15 C       -6.5980     1.7930     0.4480 C.3   1 <1>  -0.1600 
 16 C       -5.5500     1.4940    -1.6600 C.3   1 <1>  -0.1600 
 17 C       -0.8470     4.4000    -1.8130 C.ar  1 <1>  -0.1440 
 18 C        0.7940     3.0190    -0.4580 C.3   1 <1>  -0.0970 
 19 C       -2.1590     6.1430    -0.7960 C.ar  1 <1>  -0.1500 
 20 C       -1.9960     6.7310     1.6310 C.3   1 <1>  -0.0970 
 21 C       -6.9420     1.6580    -1.0400 C.3   1 <1>   0.4230 
 22 C       -1.7910     5.4100    -1.9090 C.ar  1 <1>  -0.1500 
 23 C       -0.4680     3.6380    -3.0760 C.3   1 <1>  -0.0970 
 24 N       -7.6070     2.9010    -1.5510 N.4   1 <1>  -0.9590 
 25 C       -8.9070     3.1900    -0.8630 C.3   1 <1>   0.2630 
 26 C       -7.8550     2.8570    -3.0290 C.3   1 <1>   0.2630 
 27 H       -0.4970     3.8860     3.6220 H     1 <1>   0.0800 
 28 H       -1.9210     4.1170     2.6570 H     1 <1>   0.0800 
 29 H       -2.7080     3.3930     0.7950 H     1 <1>   0.0800 
 30 H       -2.8470    -0.2730     1.5080 H     1 <1>   0.0800 
 31 H       -1.3000    -0.3070     2.3030 H     1 <1>   0.0800 
 32 H       -1.3710    -0.1530     0.5650 H     1 <1>   0.0800 
 33 H       -4.4710     1.2520     1.9190 H     1 <1>   0.0800 
 34 H       -4.3560     2.9280     2.4210 H     1 <1>   0.0800 
 35 H       -2.4980     2.2200    -1.2310 H     1 <1>   0.0800 
 36 H       -3.2610     0.7860    -0.5750 H     1 <1>   0.0800 
 37 H       -5.5710     3.6880     0.5890 H     1 <1>   0.0800 
 38 H       -4.5200     3.3750    -1.3540 H     1 <1>   0.0800 
 39 H       -7.3810     2.1930     1.0620 H     1 <1>   0.0800 
 40 H       -6.3800     0.8040     0.8130 H     1 <1>   0.0800 
 41 H       -5.2540     0.4710    -1.5040 H     1 <1>   0.0800 
 42 H       -5.4970     1.6800    -2.7160 H     1 <1>   0.0800 
 43 H        1.4870     3.0690    -1.2760 H     1 <1>   0.0800 
 44 H        0.3220     2.0540    -0.4550 H     1 <1>   0.0800 
 45 H        1.3660     3.1180     0.4460 H     1 <1>   0.0800 
 46 H       -2.8790     6.9350    -0.9010 H     1 <1>   0.1500 
 47 H       -2.3090     7.7070     1.3060 H     1 <1>   0.0800 
 48 H       -1.1620     6.8590     2.2980 H     1 <1>   0.0800 
 49 H       -2.8050     6.2700     2.1650 H     1 <1>   0.0800 
 50 H       -7.5620     0.7950    -1.2260 H     1 <1>   0.0800 
 51 H       -2.2370     5.6440    -2.8590 H     1 <1>   0.1500 
 52 H       -1.1380     3.8680    -3.8830 H     1 <1>   0.0800 
 53 H       -0.5060     2.5780    -2.9000 H     1 <1>   0.0800 
 54 H        0.5280     3.9080    -3.3760 H     1 <1>   0.0800 
 55 H       -6.9540     3.6730    -1.3530 H     1 <1>   0.4500 
 56 H       -9.5820     2.3550    -0.9710 H     1 <1>   0.0800 
 57 H       -9.3700     4.0630    -1.2930 H     1 <1>   0.0800 
 58 H       -8.7530     3.3760     0.1860 H     1 <1>   0.0800 
 59 H       -8.4610     2.0020    -3.2810 H     1 <1>   0.0800 
 60 H       -6.9270     2.7970    -3.5720 H     1 <1>   0.0800 
 61 H       -8.3700     3.7490    -3.3470 H     1 <1>   0.0800 
@<TRIPOS>BOND
  1   1   2  2   
  2   2   3  am  
  3   2   4  1   
  4   3   5  1   
  5   3   6  1   
  6   4   7  1   
  7   4  27  1   
  8   4  28  1   
  9   5   8  1   
 10   5   9  1   
 11   5  29  1   
 12   6  30  1   
 13   6  31  1   
 14   6  32  1   
 15   7  10  1   
 16   8  11  1   
 17   8  33  1   
 18   8  34  1   
 19   9  12  1   
 20   9  35  1   
 21   9  36  1   
 22  10  13  ar  
 23  10  14  ar  
 24  11  12  1   
 25  11  15  1   
 26  11  37  1   
 27  12  16  1   
 28  12  38  1   
 29  13  17  ar  
 30  13  18  1   
 31  14  19  ar  
 32  14  20  1   
 33  15  21  1   
 34  15  39  1   
 35  15  40  1   
 36  16  21  1   
 37  16  41  1   
 38  16  42  1   
 39  17  22  ar  
 40  17  23  1   
 41  18  43  1   
 42  18  44  1   
 43  18  45  1   
 44  19  22  ar  
 45  19  46  1   
 46  20  47  1   
 47  20  48  1   
 48  20  49  1   
 49  21  24  1   
 50  21  50  1   
 51  22  51  1   
 52  23  52  1   
 53  23  53  1   
 54  23  54  1   
 55  24  25  1   
 56  24  26  1   
 57  24  55  1   
 58  25  56  1   
 59  25  57  1   
 60  25  58  1   
 61  26  59  1   
 62  26  60  1   
 63  26  61  1   
@<TRIPOS>SUBSTRUCTURE
  1 ****   5 GROUP 4 **** **** 0

# MOE 2024.06 (io_trps.svl 2023.06)
