@<TRIPOS>MOLECULE
NONAME
41 43 1 0 0 
SMALL
USER_CHARGES


@<TRIPOS>ATOM
  1 CL       1.5810     0.7190    -1.7620 Cl    1 <1>  -0.1770 
  2 C        0.6410     1.8200    -0.7790 C.ar  1 <1>   0.1770 
  3 C        1.1690     2.4100     0.3670 C.ar  1 <1>  -0.1440 
  4 C       -0.6520     2.0790    -1.1960 C.ar  1 <1>  -0.1500 
  5 C        0.3570     3.2830     1.0810 C.ar  1 <1>  -0.1500 
  6 C        2.5880     2.1460     0.8730 C.3   1 <1>   0.3640 
  7 C       -1.4470     2.9460    -0.4680 C.ar  1 <1>  -0.1500 
  8 C       -0.9380     3.5480     0.6690 C.ar  1 <1>  -0.1500 
  9 N        2.7090     0.7040     1.1950 N.am  1 <1>  -0.7300 
 10 C        3.6920     2.6580    -0.0980 C.3   1 <1>   0.2610 
 11 C        3.7110    -0.0820     0.7460 C.2   1 <1>   0.5690 
 12 O        4.9070     1.9250     0.0420 O.3   1 <1>  -0.5600 
 13 C        3.9400     4.1510     0.1470 C.2   1 <1>   0.5690 
 14 O        3.7590    -1.2500     1.0390 O.2   1 <1>  -0.5700 
 15 C        4.7790     0.5340    -0.1590 C.3   1 <1>   0.1810 
 16 O        3.0110     4.9230     0.1280 O.2   1 <1>  -0.5700 
 17 N        5.2090     4.5760     0.3890 N.am  1 <1>  -0.7300 
 18 C        5.6410     5.9770     0.5970 C.3   1 <1>   0.1400 
 19 C        6.7660     6.3250    -0.3810 C.3   1 <1>   0.0000 
 20 C        8.1080     5.5810    -0.1430 C.3   1 <1>   0.0000 
 21 C        7.5220     7.6380    -0.0490 C.3   1 <1>   0.0000 
 22 C        8.8170     6.9130    -0.5010 C.3   1 <1>   0.0000 
 23 H       -1.0300     1.6060    -2.0840 H     1 <1>   0.1500 
 24 H        0.7280     3.7730     1.9660 H     1 <1>   0.1500 
 25 H        2.7170     2.6800     1.7990 H     1 <1>   0.0800 
 26 H       -2.4540     3.1550    -0.7870 H     1 <1>   0.1500 
 27 H       -1.5520     4.2290     1.2350 H     1 <1>   0.1500 
 28 H        1.9680     0.2770     1.7520 H     1 <1>   0.3700 
 29 H        3.3690     2.5510    -1.1160 H     1 <1>   0.0800 
 30 H        4.5280     0.3570    -1.1890 H     1 <1>   0.0800 
 31 H        5.7300     0.0810     0.0530 H     1 <1>   0.0800 
 32 H        5.9440     3.8600     0.3890 H     1 <1>   0.3700 
 33 H        4.8100     6.6450     0.4420 H     1 <1>   0.0800 
 34 H        5.9810     6.0910     1.6120 H     1 <1>   0.0800 
 35 H        6.4570     6.2970    -1.4120 H     1 <1>   0.0000 
 36 H        8.2610     5.2970     0.8850 H     1 <1>   0.0000 
 37 H        8.2950     4.7860    -0.8420 H     1 <1>   0.0000 
 38 H        7.2480     8.4690    -0.6760 H     1 <1>   0.0000 
 39 H        7.5290     7.8740     1.0010 H     1 <1>   0.0000 
 40 H        9.0030     7.0140    -1.5560 H     1 <1>   0.0000 
 41 H        9.6740     7.1290     0.1120 H     1 <1>   0.0000 
@<TRIPOS>BOND
  1   1   2  1   
  2   2   3  ar  
  3   2   4  ar  
  4   3   5  ar  
  5   3   6  1   
  6   4   7  ar  
  7   4  23  1   
  8   5   8  ar  
  9   5  24  1   
 10   6   9  1   
 11   6  10  1   
 12   6  25  1   
 13   7   8  ar  
 14   7  26  1   
 15   8  27  1   
 16   9  11  am  
 17   9  28  1   
 18  10  12  1   
 19  10  13  1   
 20  10  29  1   
 21  11  14  2   
 22  11  15  1   
 23  12  15  1   
 24  13  16  2   
 25  13  17  am  
 26  15  30  1   
 27  15  31  1   
 28  17  18  1   
 29  17  32  1   
 30  18  19  1   
 31  18  33  1   
 32  18  34  1   
 33  19  20  1   
 34  19  21  1   
 35  19  35  1   
 36  20  22  1   
 37  20  36  1   
 38  20  37  1   
 39  21  22  1   
 40  21  38  1   
 41  21  39  1   
 42  22  40  1   
 43  22  41  1   
@<TRIPOS>SUBSTRUCTURE
  1 ****  10 GROUP 4 **** **** 0

# MOE 2024.06 (io_trps.svl 2023.06)
