@<TRIPOS>MOLECULE
NONAME
45 47 1 0 0 
SMALL
USER_CHARGES


@<TRIPOS>ATOM
  1 O        3.2960    -1.4350    -1.9570 O.2   1 <1>  -0.5700 
  2 C        2.4520    -1.3320    -1.0830 C.2   1 <1>   0.5440 
  3 N        2.2250    -0.1030    -0.5300 N.am  1 <1>  -0.4930 
  4 C        1.7050    -2.4930    -0.6270 C.ar  1 <1>   0.0860 
  5 C        2.7750     1.1690    -0.8170 C.2   1 <1>   0.0630 
  6 C        0.4980    -2.4150     0.1090 C.ar  1 <1>   0.1000 
  7 C        2.2020    -3.7680    -0.9190 C.ar  1 <1>  -0.1500 
  8 C        3.8120     1.5150    -1.6830 C.2   1 <1>   0.1390 
  9 C        2.3770     2.3400    -0.2820 C.2   1 <1>  -0.3020 
 10 N       -0.1200    -1.2050     0.4420 N.pl3 1 <1>  -0.8380 
 11 C       -0.1310    -3.5940     0.5090 C.ar  1 <1>  -0.1500 
 12 C        1.5650    -4.9220    -0.5110 C.ar  1 <1>  -0.1500 
 13 N        4.0430     2.7960    -1.6900 N.2   1 <1>  -0.7070 
 14 N        3.1530     3.3100    -0.8200 N.pl3 1 <1>   0.3140 
 15 C       -0.9950    -0.5490    -0.5840 C.3   1 <1>   0.2090 
 16 C       -0.5000    -0.8960     1.8600 C.3   1 <1>   0.2090 
 17 C        0.3900    -4.8340     0.2100 C.ar  1 <1>  -0.1500 
 18 C        3.0900     4.7710    -0.5400 C.3   1 <1>   0.1760 
 19 C       -2.4820    -0.6360    -0.2020 C.3   1 <1>   0.1200 
 20 C       -2.0260    -0.9240     2.0760 C.3   1 <1>   0.1200 
 21 C        3.3760     5.0540     0.9420 C.3   1 <1>  -0.2400 
 22 C        1.7290     5.3460    -0.9580 C.3   1 <1>  -0.2400 
 23 O       -2.6900    -0.1690     1.1020 O.3   1 <1>  -0.5600 
 24 H        1.4230    -0.1200     0.1130 H     1 <1>   0.3700 
 25 H        3.1180    -3.8540    -1.4800 H     1 <1>   0.1500 
 26 H        4.3590     0.8050    -2.2780 H     1 <1>   0.1500 
 27 H        1.6030     2.5370     0.4340 H     1 <1>   0.1500 
 28 H       -1.0510    -3.5370     1.0580 H     1 <1>   0.1500 
 29 H        1.9800    -5.8860    -0.7530 H     1 <1>   0.1500 
 30 H       -0.8460    -1.0170    -1.5430 H     1 <1>   0.0800 
 31 H       -0.7170     0.4870    -0.6780 H     1 <1>   0.0800 
 32 H       -0.1350     0.0840     2.1130 H     1 <1>   0.0800 
 33 H       -0.0310    -1.6000     2.5250 H     1 <1>   0.0800 
 34 H       -0.1140    -5.7300     0.5300 H     1 <1>   0.1500 
 35 H        3.8570     5.2380    -1.1320 H     1 <1>   0.0800 
 36 H       -2.8280    -1.6520    -0.2660 H     1 <1>   0.0800 
 37 H       -3.0700    -0.0280    -0.8660 H     1 <1>   0.0800 
 38 H       -2.2690    -0.5060     3.0360 H     1 <1>   0.0800 
 39 H       -2.3980    -1.9320     2.0390 H     1 <1>   0.0800 
 40 H        2.6190     4.6170     1.5690 H     1 <1>   0.0800 
 41 H        3.3940     6.1150     1.1160 H     1 <1>   0.0800 
 42 H        4.3360     4.6510     1.2110 H     1 <1>   0.0800 
 43 H        0.9350     4.9140    -0.3760 H     1 <1>   0.0800 
 44 H        1.5540     5.1470    -2.0000 H     1 <1>   0.0800 
 45 H        1.7200     6.4110    -0.8120 H     1 <1>   0.0800 
@<TRIPOS>BOND
  1   1   2  2   
  2   2   3  am  
  3   2   4  1   
  4   3   5  1   
  5   3  24  1   
  6   4   6  ar  
  7   4   7  ar  
  8   5   8  1   
  9   5   9  2   
 10   6  10  1   
 11   6  11  ar  
 12   7  12  ar  
 13   7  25  1   
 14   8  13  2   
 15   8  26  1   
 16   9  14  1   
 17   9  27  1   
 18  10  15  1   
 19  10  16  1   
 20  11  17  ar  
 21  11  28  1   
 22  12  17  ar  
 23  12  29  1   
 24  13  14  1   
 25  14  18  1   
 26  15  19  1   
 27  15  30  1   
 28  15  31  1   
 29  16  20  1   
 30  16  32  1   
 31  16  33  1   
 32  17  34  1   
 33  18  21  1   
 34  18  22  1   
 35  18  35  1   
 36  19  23  1   
 37  19  36  1   
 38  19  37  1   
 39  20  23  1   
 40  20  38  1   
 41  20  39  1   
 42  21  40  1   
 43  21  41  1   
 44  21  42  1   
 45  22  43  1   
 46  22  44  1   
 47  22  45  1   
@<TRIPOS>SUBSTRUCTURE
  1 ****   3 GROUP 4 **** **** 0

# MOE 2024.06 (io_trps.svl 2023.06)
