@<TRIPOS>MOLECULE
NONAME
50 52 1 0 0 
SMALL
USER_CHARGES


@<TRIPOS>ATOM
  1 O       -1.9280     1.1390    -2.3550 O.2   1 <1>  -0.5700 
  2 C       -2.8420     1.2240    -1.5710 C.2   1 <1>   0.5690 
  3 N       -3.8050     0.2750    -1.5080 N.am  1 <1>  -0.7300 
  4 C       -2.9380     2.4110    -0.6120 C.3   1 <1>  -0.0190 
  5 C       -3.7950    -0.9770    -2.2790 C.3   1 <1>   0.2840 
  6 C       -2.0520     3.6050    -1.0280 C.3   1 <1>  -0.1600 
  7 C       -2.6190     1.9770     0.8390 C.3   1 <1>  -0.1600 
  8 C       -4.6250    -1.9880    -1.5120 C.ar  1 <1>  -0.1440 
  9 C       -2.2790     4.8430    -0.1340 C.3   1 <1>   0.2000 
 10 C       -2.2280     3.1430     1.7690 C.3   1 <1>  -0.1600 
 11 C       -4.0740    -2.6690    -0.4390 C.ar  1 <1>  -0.1500 
 12 C       -5.9430    -2.2300    -1.8610 C.ar  1 <1>  -0.1500 
 13 O       -1.0600     5.5340    -0.0060 O.3   1 <1>  -0.5600 
 14 C       -2.8030     4.4750     1.2790 C.3   1 <1>   0.2000 
 15 C       -4.8200    -3.5870     0.2830 C.ar  1 <1>  -0.1430 
 16 C       -6.6940    -3.1440    -1.1450 C.ar  1 <1>  -0.1500 
 17 C       -0.6910     6.2990    -1.1120 C.3   1 <1>   0.0400 
 18 O       -2.4310     5.4570     2.1730 O.3   1 <1>  -0.6800 
 19 C       -6.1430    -3.8260    -0.0720 C.ar  1 <1>  -0.1430 
 20 C       -4.1630    -4.2950     1.4630 C.3   1 <1>  -0.0170 
 21 C       -7.0080    -4.8360     0.6730 C.3   1 <1>  -0.0170 
 22 C       -4.9390    -5.5360     1.9190 C.3   1 <1>  -0.1600 
 23 C       -6.4310    -5.2160     2.0420 C.3   1 <1>  -0.1600 
 24 H       -4.5400     0.3140    -0.8010 H     1 <1>   0.3700 
 25 H       -3.9590     2.7490    -0.6460 H     1 <1>   0.0800 
 26 H       -4.2130    -0.8020    -3.2550 H     1 <1>   0.0800 
 27 H       -2.7840    -1.3300    -2.3960 H     1 <1>   0.0800 
 28 H       -2.2580     3.8640    -2.0510 H     1 <1>   0.0800 
 29 H       -1.0220     3.2980    -0.9610 H     1 <1>   0.0800 
 30 H       -3.4780     1.4710     1.2440 H     1 <1>   0.0800 
 31 H       -1.8070     1.2690     0.8300 H     1 <1>   0.0800 
 32 H       -3.0010     5.5010    -0.5890 H     1 <1>   0.0800 
 33 H       -1.1540     3.2260     1.7900 H     1 <1>   0.0800 
 34 H       -2.5700     2.9400     2.7690 H     1 <1>   0.0800 
 35 H       -3.0510    -2.4790    -0.1620 H     1 <1>   0.1500 
 36 H       -6.3910    -1.7100    -2.6900 H     1 <1>   0.1500 
 37 H       -3.8780     4.4210     1.2790 H     1 <1>   0.0800 
 38 H       -7.7160    -3.3250    -1.4300 H     1 <1>   0.1500 
 39 H        0.2350     6.7940    -0.8800 H     1 <1>   0.0800 
 40 H       -1.4540     7.0330    -1.3080 H     1 <1>   0.0800 
 41 H       -0.5520     5.6580    -1.9650 H     1 <1>   0.0800 
 42 H       -1.5770     5.8130     1.8350 H     1 <1>   0.4000 
 43 H       -3.1600    -4.5820     1.2020 H     1 <1>   0.0800 
 44 H       -4.1040    -3.5980     2.2810 H     1 <1>   0.0800 
 45 H       -7.9990    -4.4380     0.8070 H     1 <1>   0.0800 
 46 H       -7.0860    -5.7210     0.0670 H     1 <1>   0.0800 
 47 H       -4.8000    -6.3260     1.2000 H     1 <1>   0.0800 
 48 H       -4.5540    -5.8740     2.8660 H     1 <1>   0.0800 
 49 H       -6.5660    -4.3960     2.7260 H     1 <1>   0.0800 
 50 H       -6.9600    -6.0680     2.4310 H     1 <1>   0.0800 
@<TRIPOS>BOND
  1   1   2  2   
  2   2   3  am  
  3   2   4  1   
  4   3   5  1   
  5   3  24  1   
  6   4   6  1   
  7   4   7  1   
  8   4  25  1   
  9   5   8  1   
 10   5  26  1   
 11   5  27  1   
 12   6   9  1   
 13   6  28  1   
 14   6  29  1   
 15   7  10  1   
 16   7  30  1   
 17   7  31  1   
 18   8  11  ar  
 19   8  12  ar  
 20   9  13  1   
 21   9  14  1   
 22   9  32  1   
 23  10  14  1   
 24  10  33  1   
 25  10  34  1   
 26  11  15  ar  
 27  11  35  1   
 28  12  16  ar  
 29  12  36  1   
 30  13  17  1   
 31  14  18  1   
 32  14  37  1   
 33  15  19  ar  
 34  15  20  1   
 35  16  19  ar  
 36  16  38  1   
 37  17  39  1   
 38  17  40  1   
 39  17  41  1   
 40  18  42  1   
 41  19  21  1   
 42  20  22  1   
 43  20  43  1   
 44  20  44  1   
 45  21  23  1   
 46  21  45  1   
 47  21  46  1   
 48  22  23  1   
 49  22  47  1   
 50  22  48  1   
 51  23  49  1   
 52  23  50  1   
@<TRIPOS>SUBSTRUCTURE
  1 ****   3 GROUP 4 **** **** 0

# MOE 2024.06 (io_trps.svl 2023.06)
