@<TRIPOS>MOLECULE
NONAME
50 52 1 0 0 
SMALL
USER_CHARGES


@<TRIPOS>ATOM
  1 O       -0.4360     0.6500    -1.9330 O.2   1 <1>  -0.5700 
  2 C       -0.3250     1.7470    -1.4180 C.2   1 <1>   0.5440 
  3 N       -1.4550     2.3940    -0.9660 N.am  1 <1>  -0.6600 
  4 C        0.9870     2.3530    -1.2820 C.ar  1 <1>   0.0860 
  5 C       -2.8130     1.8440    -1.2490 C.3   1 <1>   0.1400 
  6 C       -1.3830     3.6360    -0.1430 C.3   1 <1>   0.1400 
  7 C        1.9380     1.9000    -0.3560 C.ar  1 <1>  -0.1440 
  8 C        1.3130     3.4400    -2.0930 C.ar  1 <1>  -0.1500 
  9 C       -3.8450     2.9720    -1.3150 C.3   1 <1>  -0.1600 
 10 C       -2.5970     3.7140     0.7800 C.3   1 <1>  -0.1600 
 11 C        3.1680     2.5420    -0.2710 C.ar  1 <1>  -0.1500 
 12 C        1.5850     0.6980     0.5290 C.3   1 <1>  -0.0170 
 13 C        2.5360     4.0720    -1.9980 C.ar  1 <1>  -0.1500 
 14 C       -3.9100     3.8290    -0.0250 C.3   1 <1>   0.2800 
 15 C        3.4660     3.6210    -1.0830 C.ar  1 <1>  -0.1500 
 16 C        2.5390     0.4270     1.6980 C.3   1 <1>  -0.2400 
 17 O       -4.0340     5.1560    -0.4790 O.3   1 <1>  -0.5600 
 18 C       -5.1310     3.4430     0.8490 C.3   1 <1>  -0.1600 
 19 C       -4.5440     6.1150     0.4040 C.3   1 <1>   0.1200 
 20 C       -6.3580     4.3180     0.5730 C.3   1 <1>   0.2800 
 21 C       -5.9970     5.7910     0.7890 C.3   1 <1>  -0.1600 
 22 O       -6.6910     4.1780    -0.7480 O.3   1 <1>  -0.6800 
 23 C       -7.5800     3.8920     1.3820 C.3   1 <1>  -0.2400 
 24 H       -3.0760     1.1440    -0.4740 H     1 <1>   0.0800 
 25 H       -2.8020     1.3140    -2.1870 H     1 <1>   0.0800 
 26 H       -1.3640     4.4940    -0.7940 H     1 <1>   0.0800 
 27 H       -0.4840     3.6350     0.4490 H     1 <1>   0.0800 
 28 H        0.5870     3.7860    -2.8090 H     1 <1>   0.1500 
 29 H       -4.8030     2.5380    -1.5320 H     1 <1>   0.0800 
 30 H       -3.5820     3.5930    -2.1530 H     1 <1>   0.0800 
 31 H       -2.4860     4.5400     1.4550 H     1 <1>   0.0800 
 32 H       -2.6120     2.8200     1.3780 H     1 <1>   0.0800 
 33 H        3.9200     2.2150     0.4230 H     1 <1>   0.1500 
 34 H        1.5410    -0.1810    -0.0930 H     1 <1>   0.0800 
 35 H        0.6010     0.8470     0.9390 H     1 <1>   0.0800 
 36 H        2.7660     4.9100    -2.6350 H     1 <1>   0.1500 
 37 H        4.4230     4.1070    -1.0040 H     1 <1>   0.1500 
 38 H        3.5140     0.1520     1.3350 H     1 <1>   0.0800 
 39 H        2.1620    -0.3860     2.2930 H     1 <1>   0.0800 
 40 H        2.6230     1.2980     2.3240 H     1 <1>   0.0800 
 41 H       -4.8740     3.5620     1.8860 H     1 <1>   0.0800 
 42 H       -5.3760     2.4040     0.7200 H     1 <1>   0.0800 
 43 H       -4.4930     7.0720    -0.0860 H     1 <1>   0.0800 
 44 H       -3.9180     6.1480     1.2780 H     1 <1>   0.0800 
 45 H       -6.6760     6.4200     0.2420 H     1 <1>   0.0800 
 46 H       -6.1160     6.0390     1.8280 H     1 <1>   0.0800 
 47 H       -5.9330     4.5240    -1.2650 H     1 <1>   0.4000 
 48 H       -7.3780     3.9730     2.4340 H     1 <1>   0.0800 
 49 H       -7.8350     2.8720     1.1600 H     1 <1>   0.0800 
 50 H       -8.4180     4.5230     1.1460 H     1 <1>   0.0800 
@<TRIPOS>BOND
  1   1   2  2   
  2   2   3  am  
  3   2   4  1   
  4   3   5  1   
  5   3   6  1   
  6   4   7  ar  
  7   4   8  ar  
  8   5   9  1   
  9   5  24  1   
 10   5  25  1   
 11   6  10  1   
 12   6  26  1   
 13   6  27  1   
 14   7  11  ar  
 15   7  12  1   
 16   8  13  ar  
 17   8  28  1   
 18   9  14  1   
 19   9  29  1   
 20   9  30  1   
 21  10  14  1   
 22  10  31  1   
 23  10  32  1   
 24  11  15  ar  
 25  11  33  1   
 26  12  16  1   
 27  12  34  1   
 28  12  35  1   
 29  13  15  ar  
 30  13  36  1   
 31  14  17  1   
 32  14  18  1   
 33  15  37  1   
 34  16  38  1   
 35  16  39  1   
 36  16  40  1   
 37  17  19  1   
 38  18  20  1   
 39  18  41  1   
 40  18  42  1   
 41  19  21  1   
 42  19  43  1   
 43  19  44  1   
 44  20  21  1   
 45  20  22  1   
 46  20  23  1   
 47  21  45  1   
 48  21  46  1   
 49  22  47  1   
 50  23  48  1   
 51  23  49  1   
 52  23  50  1   
@<TRIPOS>SUBSTRUCTURE
  1 ****   6 GROUP 4 **** **** 0

# MOE 2024.06 (io_trps.svl 2023.06)
