@<TRIPOS>MOLECULE
NONAME
54 57 1 0 0 
SMALL
USER_CHARGES


@<TRIPOS>ATOM
  1 S        0.2250    -1.1640    -1.7420 S.3   1 <1>  -0.0800 
  2 C       -0.8590    -0.4480    -0.5750 C.2   1 <1>   0.1980 
  3 C       -0.5360    -2.6960    -1.4620 C.2   1 <1>  -0.1100 
  4 N       -1.6810    -1.2650    -0.0560 N.2   1 <1>  -0.5650 
  5 C       -0.7160     1.0360    -0.3010 C.3   1 <1>   0.0200 
  6 C       -1.5300    -2.5740    -0.5540 C.2   1 <1>   0.1410 
  7 C       -1.4620     1.8700    -1.3530 C.3   1 <1>  -0.1600 
  8 C       -2.3620    -3.6910    -0.1030 C.2   1 <1>   0.7160 
  9 C       -1.3560     3.3710    -1.0630 C.3   1 <1>  -0.2400 
 10 O       -1.8480    -4.7940    -0.0250 O.2   1 <1>  -0.5700 
 11 N       -3.7080    -3.5800     0.2080 N.am  1 <1>  -0.6600 
 12 C       -4.5800    -2.4440    -0.2330 C.3   1 <1>   0.1400 
 13 C       -4.4590    -4.6890     0.8630 C.3   1 <1>   0.1400 
 14 C       -5.3740    -1.8570     0.9490 C.3   1 <1>   0.1430 
 15 C       -5.2740    -4.1520     2.0460 C.3   1 <1>  -0.1600 
 16 C       -6.2530    -0.7400     0.4170 C.ar  1 <1>   0.1670 
 17 C       -6.1830    -2.9790     1.6340 C.3   1 <1>  -0.1600 
 18 C       -4.4610    -1.1050     1.9530 C.3   1 <1>  -0.1600 
 19 N       -7.3420    -0.9010    -0.2930 N.ar  1 <1>  -0.6200 
 20 C       -5.7580     0.4850     0.7490 C.ar  1 <1>  -0.1430 
 21 C       -4.4850     0.3780     1.5500 C.3   1 <1>  -0.0160 
 22 C       -7.9520     0.2270    -0.6640 C.ar  1 <1>   0.7200 
 23 C       -6.4500     1.5890     0.3220 C.ar  1 <1>   0.1600 
 24 N       -7.5500     1.4720    -0.3850 N.ar  1 <1>  -0.6200 
 25 N       -9.1080     0.0950    -1.4110 N.pl3 1 <1>  -0.8380 
 26 C       -9.5150    -1.2010    -2.0200 C.3   1 <1>   0.1290 
 27 C      -10.0270     1.2420    -1.6500 C.3   1 <1>   0.1290 
 28 H       -0.1720    -3.5540    -1.9980 H     1 <1>   0.1500 
 29 H        0.3270     1.2960    -0.2920 H     1 <1>   0.0800 
 30 H       -1.1190     1.2430     0.6740 H     1 <1>   0.0800 
 31 H       -2.5000     1.5810    -1.3630 H     1 <1>   0.0800 
 32 H       -1.0540     1.6650    -2.3280 H     1 <1>   0.0800 
 33 H       -1.7820     3.6020    -0.1030 H     1 <1>   0.0800 
 34 H       -1.8890     3.9270    -1.8150 H     1 <1>   0.0800 
 35 H       -0.3270     3.6860    -1.0720 H     1 <1>   0.0800 
 36 H       -5.2780    -2.8170    -0.9630 H     1 <1>   0.0800 
 37 H       -4.0130    -1.6690    -0.7130 H     1 <1>   0.0800 
 38 H       -3.7830    -5.4510     1.2150 H     1 <1>   0.0800 
 39 H       -5.1170    -5.1380     0.1380 H     1 <1>   0.0800 
 40 H       -4.5950    -3.8390     2.8200 H     1 <1>   0.0800 
 41 H       -5.8770    -4.9470     2.4470 H     1 <1>   0.0800 
 42 H       -6.9260    -3.3420     0.9450 H     1 <1>   0.0800 
 43 H       -6.7030    -2.5900     2.4920 H     1 <1>   0.0800 
 44 H       -3.4600    -1.4980     1.9790 H     1 <1>   0.0800 
 45 H       -4.8760    -1.1860     2.9420 H     1 <1>   0.0800 
 46 H       -3.6430     0.6130     0.9220 H     1 <1>   0.0800 
 47 H       -4.4950     1.0240     2.4110 H     1 <1>   0.0800 
 48 H       -6.0990     2.5770     0.5600 H     1 <1>   0.1500 
 49 H       -8.6480    -1.7900    -2.2650 H     1 <1>   0.0800 
 50 H      -10.0720    -1.0280    -2.9230 H     1 <1>   0.0800 
 51 H      -10.1250    -1.7490    -1.3230 H     1 <1>   0.0800 
 52 H       -9.9910     1.9320    -0.8240 H     1 <1>   0.0800 
 53 H      -11.0390     0.8920    -1.7530 H     1 <1>   0.0800 
 54 H       -9.7330     1.7560    -2.5470 H     1 <1>   0.0800 
@<TRIPOS>BOND
  1   1   2  1   
  2   1   3  1   
  3   2   4  2   
  4   2   5  1   
  5   3   6  2   
  6   3  28  1   
  7   4   6  1   
  8   5   7  1   
  9   5  29  1   
 10   5  30  1   
 11   6   8  1   
 12   7   9  1   
 13   7  31  1   
 14   7  32  1   
 15   8  10  2   
 16   8  11  am  
 17   9  33  1   
 18   9  34  1   
 19   9  35  1   
 20  11  12  1   
 21  11  13  1   
 22  12  14  1   
 23  12  36  1   
 24  12  37  1   
 25  13  15  1   
 26  13  38  1   
 27  13  39  1   
 28  14  16  1   
 29  14  17  1   
 30  14  18  1   
 31  15  17  1   
 32  15  40  1   
 33  15  41  1   
 34  16  19  ar  
 35  16  20  ar  
 36  17  42  1   
 37  17  43  1   
 38  18  21  1   
 39  18  44  1   
 40  18  45  1   
 41  19  22  ar  
 42  20  21  1   
 43  20  23  ar  
 44  21  46  1   
 45  21  47  1   
 46  22  24  ar  
 47  22  25  1   
 48  23  24  ar  
 49  23  48  1   
 50  25  26  1   
 51  25  27  1   
 52  26  49  1   
 53  26  50  1   
 54  26  51  1   
 55  27  52  1   
 56  27  53  1   
 57  27  54  1   
@<TRIPOS>SUBSTRUCTURE
  1 ****  12 GROUP 4 **** **** 0

# MOE 2024.06 (io_trps.svl 2023.06)
