@<TRIPOS>MOLECULE
NONAME
54 56 1 0 0 
SMALL
USER_CHARGES


@<TRIPOS>ATOM
  1 O        1.6300     0.2040    -2.1510 O.2   1 <1>  -0.5700 
  2 C        1.7450    -0.1750    -1.0070 C.2   1 <1>   0.5690 
  3 N        1.3420     0.6060     0.0560 N.am  1 <1>  -0.6600 
  4 C        2.3630    -1.5700    -0.7970 C.3   1 <1>   0.1710 
  5 C        1.4010     0.1750     1.4800 C.3   1 <1>   0.0600 
  6 C        0.7270     1.9470    -0.1490 C.3   1 <1>   0.0600 
  7 N        1.4800    -2.5870    -0.1460 N.3   1 <1>  -0.8100 
  8 C        0.2890    -2.8630    -0.9830 C.3   1 <1>   0.1100 
  9 C        2.2540    -3.7880     0.1750 C.3   1 <1>   0.1100 
 10 C       -0.8840    -3.3950    -0.1450 C.3   1 <1>   0.2090 
 11 C        1.4490    -4.8070     0.9850 C.3   1 <1>  -0.1600 
 12 N       -0.9070    -4.8860     0.0810 N.pl3 1 <1>  -0.8380 
 13 C        0.4260    -5.5680     0.1400 C.3   1 <1>   0.2090 
 14 C       -2.0630    -5.5440     0.3690 C.ar  1 <1>   0.1000 
 15 C       -2.3280    -6.9050    -0.0080 C.ar  1 <1>   0.0000 
 16 C       -3.0480    -4.8970     1.1210 C.ar  1 <1>  -0.1500 
 17 C       -3.4160    -7.5910     0.5700 C.ar  1 <1>   0.3610 
 18 C       -1.5960    -7.6020    -0.9840 C.ar  1 <1>  -0.1500 
 19 C       -4.1380    -5.5650     1.6050 C.ar  1 <1>   0.2110 
 20 N       -4.2900    -6.8770     1.3590 N.ar  1 <1>  -0.1790 
 21 C       -3.6450    -8.9610     0.3100 C.ar  1 <1>  -0.1430 
 22 C       -1.8440    -8.9170    -1.2690 C.ar  1 <1>  -0.1500 
 23 C       -2.8570    -9.6180    -0.6150 C.ar  1 <1>  -0.1430 
 24 C       -4.7730    -9.6950     1.0480 C.3   1 <1>  -0.0970 
 25 C       -3.0380   -11.0860    -0.9880 C.3   1 <1>  -0.0970 
 26 H        3.2460    -1.4350    -0.2010 H     1 <1>   0.0800 
 27 H        2.6770    -1.9400    -1.7570 H     1 <1>   0.0800 
 28 H        2.0480    -0.6740     1.6090 H     1 <1>   0.0800 
 29 H        0.4140    -0.0940     1.8140 H     1 <1>   0.0800 
 30 H        1.7730     0.9790     2.0900 H     1 <1>   0.0800 
 31 H        0.6830     2.1950    -1.1960 H     1 <1>   0.0800 
 32 H        1.3130     2.6960     0.3540 H     1 <1>   0.0800 
 33 H       -0.2730     1.9530     0.2460 H     1 <1>   0.0800 
 34 H        0.5230    -3.5360    -1.7910 H     1 <1>   0.0800 
 35 H       -0.0490    -1.9410    -1.4230 H     1 <1>   0.0800 
 36 H        3.1050    -3.4950     0.7670 H     1 <1>   0.0800 
 37 H        2.6230    -4.2410    -0.7300 H     1 <1>   0.0800 
 38 H       -1.7910    -3.1250    -0.6560 H     1 <1>   0.0800 
 39 H       -0.8770    -2.8860     0.8030 H     1 <1>   0.0800 
 40 H        0.9850    -4.3450     1.8380 H     1 <1>   0.0800 
 41 H        2.1510    -5.5300     1.3590 H     1 <1>   0.0800 
 42 H        0.2970    -6.5410     0.5830 H     1 <1>   0.0800 
 43 H        0.8080    -5.7080    -0.8570 H     1 <1>   0.0800 
 44 H       -2.9320    -3.8560     1.3610 H     1 <1>   0.1500 
 45 H       -0.8290    -7.0880    -1.5330 H     1 <1>   0.1500 
 46 H       -4.8780    -5.0540     2.1990 H     1 <1>   0.1500 
 47 H       -5.0920    -7.3890     1.7280 H     1 <1>   0.4570 
 48 H       -1.2470    -9.4160    -2.0150 H     1 <1>   0.1500 
 49 H       -4.7470    -9.4800     2.1010 H     1 <1>   0.0800 
 50 H       -4.6900   -10.7620     0.9590 H     1 <1>   0.0800 
 51 H       -5.7300    -9.4110     0.6450 H     1 <1>   0.0800 
 52 H       -4.0570   -11.2810    -1.2690 H     1 <1>   0.0800 
 53 H       -2.7730   -11.7160    -0.1570 H     1 <1>   0.0800 
 54 H       -2.4140   -11.3580    -1.8210 H     1 <1>   0.0800 
@<TRIPOS>BOND
  1   1   2  2   
  2   2   3  am  
  3   2   4  1   
  4   3   5  1   
  5   3   6  1   
  6   4   7  1   
  7   4  26  1   
  8   4  27  1   
  9   5  28  1   
 10   5  29  1   
 11   5  30  1   
 12   6  31  1   
 13   6  32  1   
 14   6  33  1   
 15   7   8  1   
 16   7   9  1   
 17   8  10  1   
 18   8  34  1   
 19   8  35  1   
 20   9  11  1   
 21   9  36  1   
 22   9  37  1   
 23  10  12  1   
 24  10  38  1   
 25  10  39  1   
 26  11  13  1   
 27  11  40  1   
 28  11  41  1   
 29  12  13  1   
 30  12  14  1   
 31  13  42  1   
 32  13  43  1   
 33  14  15  ar  
 34  14  16  ar  
 35  15  17  ar  
 36  15  18  ar  
 37  16  19  ar  
 38  16  44  1   
 39  17  20  ar  
 40  17  21  ar  
 41  18  22  ar  
 42  18  45  1   
 43  19  20  ar  
 44  19  46  1   
 45  20  47  1   
 46  21  23  ar  
 47  21  24  1   
 48  22  23  ar  
 49  22  48  1   
 50  23  25  1   
 51  24  49  1   
 52  24  50  1   
 53  24  51  1   
 54  25  52  1   
 55  25  53  1   
 56  25  54  1   
@<TRIPOS>SUBSTRUCTURE
  1 ****  12 GROUP 4 **** **** 0

# MOE 2024.06 (io_trps.svl 2023.06)
