@<TRIPOS>MOLECULE
NONAME
59 61 1 0 0 
SMALL
USER_CHARGES


@<TRIPOS>ATOM
  1 S        0.5270    -0.2440    -0.2940 S.o2  1 <1>   1.3330 
  2 O        0.1490    -0.3060     1.0980 O.2   1 <1>  -0.6500 
  3 O        0.7020    -1.4450    -1.0750 O.2   1 <1>  -0.6500 
  4 N       -0.4950     0.8340    -1.1150 N.am  1 <1>  -0.8490 
  5 C        2.0810     0.6440    -0.3450 C.3   1 <1>  -0.0550 
  6 C       -0.7120     0.4740    -2.5220 C.3   1 <1>   0.1160 
  7 C       -1.7910     1.0100    -0.4460 C.3   1 <1>   0.1160 
  8 C        3.2490    -0.1600     0.2700 C.3   1 <1>  -0.0800 
  9 C        4.6460     0.4450     0.1320 C.3   1 <1>   0.4230 
 10 C        3.1320    -0.4070     1.7870 C.3   1 <1>   0.1200 
 11 N        4.5910     1.9020     0.4700 N.4   1 <1>  -0.9060 
 12 C        5.3330    -0.2690     1.2890 C.3   1 <1>   0.1200 
 13 O        4.4000    -0.1180     2.3040 O.3   1 <1>  -0.5600 
 14 C        5.8540     2.6640     0.3360 C.3   1 <1>   0.4230 
 15 C        5.7000     3.9880     1.0850 C.3   1 <1>  -0.1600 
 16 C        6.1700     2.9150    -1.1420 C.3   1 <1>  -0.1600 
 17 C        6.9370     4.8690     0.9140 C.3   1 <1>   0.3430 
 18 C        7.4020     3.8110    -1.3010 C.3   1 <1>   0.3430 
 19 N        7.2120     5.0760    -0.5390 N.4   1 <1>  -0.9590 
 20 C        8.3760     5.9970    -0.7310 C.3   1 <1>   0.4860 
 21 C        7.9980     7.3510    -0.1680 C.ar  1 <1>  -0.1440 
 22 C        7.1110     8.1710    -0.8530 C.ar  1 <1>  -0.1500 
 23 C        8.5270     7.7770     1.0430 C.ar  1 <1>  -0.1500 
 24 C        6.7430     9.3940    -0.3210 C.ar  1 <1>  -0.1500 
 25 C        8.1580     9.0010     1.5710 C.ar  1 <1>  -0.1500 
 26 C        7.2640     9.8080     0.8910 C.ar  1 <1>  -0.1500 
 27 H        2.3050     0.8600    -1.3710 H     1 <1>   0.0800 
 28 H        1.9480     1.5720     0.1750 H     1 <1>   0.0800 
 29 H       -1.2980     1.2320    -3.0140 H     1 <1>   0.0800 
 30 H       -1.2290    -0.4700    -2.5940 H     1 <1>   0.0800 
 31 H        0.2310     0.3870    -3.0350 H     1 <1>   0.0800 
 32 H       -2.3980     1.7160    -0.9860 H     1 <1>   0.0800 
 33 H       -1.6460     1.3870     0.5520 H     1 <1>   0.0800 
 34 H       -2.3130     0.0690    -0.3860 H     1 <1>   0.0800 
 35 H        3.2640    -1.1280    -0.2060 H     1 <1>   0.0800 
 36 H        5.0980     0.2550    -0.8280 H     1 <1>   0.0800 
 37 H        2.8910    -1.4350     2.0070 H     1 <1>   0.0800 
 38 H        2.4160     0.2370     2.2710 H     1 <1>   0.0800 
 39 H        3.8260     2.3600    -0.0330 H     1 <1>   0.4500 
 40 H        4.3210     1.8830     1.4710 H     1 <1>   0.4500 
 41 H        6.2710     0.1630     1.5870 H     1 <1>   0.0800 
 42 H        5.4620    -1.3220     1.0930 H     1 <1>   0.0800 
 43 H        6.6620     2.1070     0.7850 H     1 <1>   0.0800 
 44 H        4.8390     4.5310     0.7340 H     1 <1>   0.0800 
 45 H        5.5690     3.7970     2.1370 H     1 <1>   0.0800 
 46 H        6.3720     1.9830    -1.6390 H     1 <1>   0.0800 
 47 H        5.3370     3.3850    -1.6340 H     1 <1>   0.0800 
 48 H        7.7890     4.4040     1.3860 H     1 <1>   0.0800 
 49 H        6.7670     5.8200     1.3970 H     1 <1>   0.0800 
 50 H        7.5550     4.0310    -2.3470 H     1 <1>   0.0800 
 51 H        8.2780     3.2970    -0.9380 H     1 <1>   0.0800 
 52 H        6.4180     5.6050    -0.9300 H     1 <1>   0.4500 
 53 H        9.2510     5.6180    -0.2270 H     1 <1>   0.0800 
 54 H        8.6040     6.1040    -1.7800 H     1 <1>   0.0800 
 55 H        6.6990     7.8830    -1.8050 H     1 <1>   0.1500 
 56 H        9.2320     7.1740     1.5890 H     1 <1>   0.1500 
 57 H        6.0550    10.0330    -0.8500 H     1 <1>   0.1500 
 58 H        8.5680     9.3340     2.5100 H     1 <1>   0.1500 
 59 H        6.9780    10.7620     1.3030 H     1 <1>   0.1500 
@<TRIPOS>BOND
  1   1   2  2   
  2   1   3  2   
  3   1   4  am  
  4   1   5  1   
  5   4   6  1   
  6   4   7  1   
  7   5   8  1   
  8   5  27  1   
  9   5  28  1   
 10   6  29  1   
 11   6  30  1   
 12   6  31  1   
 13   7  32  1   
 14   7  33  1   
 15   7  34  1   
 16   8   9  1   
 17   8  10  1   
 18   8  35  1   
 19   9  11  1   
 20   9  12  1   
 21   9  36  1   
 22  10  13  1   
 23  10  37  1   
 24  10  38  1   
 25  11  14  1   
 26  11  39  1   
 27  11  40  1   
 28  12  13  1   
 29  12  41  1   
 30  12  42  1   
 31  14  15  1   
 32  14  16  1   
 33  14  43  1   
 34  15  17  1   
 35  15  44  1   
 36  15  45  1   
 37  16  18  1   
 38  16  46  1   
 39  16  47  1   
 40  17  19  1   
 41  17  48  1   
 42  17  49  1   
 43  18  19  1   
 44  18  50  1   
 45  18  51  1   
 46  19  20  1   
 47  19  52  1   
 48  20  21  1   
 49  20  53  1   
 50  20  54  1   
 51  21  22  ar  
 52  21  23  ar  
 53  22  24  ar  
 54  22  55  1   
 55  23  25  ar  
 56  23  56  1   
 57  24  26  ar  
 58  24  57  1   
 59  25  26  ar  
 60  25  58  1   
 61  26  59  1   
@<TRIPOS>SUBSTRUCTURE
  1 ****  11 GROUP 4 **** **** 0

# MOE 2024.06 (io_trps.svl 2023.06)
