@<TRIPOS>MOLECULE
NONAME
28 29 1 0 0 
SMALL
USER_CHARGES


@<TRIPOS>ATOM
  1 F        0.6640     0.5840    -1.8020 F     1 <1>  -0.1900 
  2 C        1.7050     0.7600    -1.0260 C.ar  1 <1>   0.1900 
  3 C        1.7920     1.8460    -0.1470 C.ar  1 <1>   0.0820 
  4 C        2.7060    -0.1900    -1.1200 C.ar  1 <1>  -0.1500 
  5 O        0.8720     2.8390     0.0310 O.3   1 <1>  -0.3630 
  6 C        2.9320     1.9420     0.6360 C.ar  1 <1>  -0.1500 
  7 C        3.8320    -0.0870    -0.3160 C.ar  1 <1>  -0.1080 
  8 C       -0.2510     2.9940    -0.8060 C.3   1 <1>   0.0400 
  9 C        3.9390     0.9940     0.5490 C.ar  1 <1>  -0.1500 
 10 C        4.9540    -1.1300    -0.3890 C.3   1 <1>   0.0370 
 11 C        6.0880    -0.7290    -1.3450 C.2   1 <1>   0.8710 
 12 C        4.4560    -2.6010    -0.5810 C.3   1 <1>   0.0000 
 13 C        5.4580    -1.6060     1.0120 C.3   1 <1>   0.0000 
 14 O        6.0390    -1.0860    -2.5300 O.co2 1 <1>  -0.9000 
 15 O        7.0330    -0.0520    -0.9150 O.co2 1 <1>  -0.9000 
 16 C        5.5530    -3.0350     0.4230 C.3   1 <1>   0.0000 
 17 H        2.6100    -0.9980    -1.8220 H     1 <1>   0.1500 
 18 H        3.0340     2.7710     1.3120 H     1 <1>   0.1500 
 19 H       -0.7590     3.8970    -0.5200 H     1 <1>   0.0800 
 20 H       -0.9050     2.1510    -0.6740 H     1 <1>   0.0800 
 21 H        0.0810     3.0690    -1.8270 H     1 <1>   0.0800 
 22 H        4.8250     1.1000     1.1520 H     1 <1>   0.1500 
 23 H        4.5880    -3.0070    -1.5680 H     1 <1>   0.0000 
 24 H        3.4680    -2.7700    -0.1870 H     1 <1>   0.0000 
 25 H        4.7030    -1.5380     1.7780 H     1 <1>   0.0000 
 26 H        6.4050    -1.2030     1.3230 H     1 <1>   0.0000 
 27 H        6.5010    -3.2320    -0.0500 H     1 <1>   0.0000 
 28 H        5.2410    -3.8080     1.1020 H     1 <1>   0.0000 
@<TRIPOS>BOND
  1   1   2  1   
  2   2   3  ar  
  3   2   4  ar  
  4   3   5  1   
  5   3   6  ar  
  6   4   7  ar  
  7   4  17  1   
  8   5   8  1   
  9   6   9  ar  
 10   6  18  1   
 11   7   9  ar  
 12   7  10  1   
 13   8  19  1   
 14   8  20  1   
 15   8  21  1   
 16   9  22  1   
 17  10  11  1   
 18  10  12  1   
 19  10  13  1   
 20  11  14  ar  
 21  11  15  ar  
 22  12  16  1   
 23  12  23  1   
 24  12  24  1   
 25  13  16  1   
 26  13  25  1   
 27  13  26  1   
 28  16  27  1   
 29  16  28  1   
@<TRIPOS>SUBSTRUCTURE
  1 ****   7 GROUP 4 **** **** 0

# MOE 2024.06 (io_trps.svl 2023.06)
