@<TRIPOS>MOLECULE
NONAME
52 54 1 0 0 
SMALL
USER_CHARGES


@<TRIPOS>ATOM
  1 O       -1.7570     1.4920    -3.2100 O.2   1 <1>  -0.5700 
  2 C       -2.5010     1.9920    -2.4010 C.2   1 <1>   0.5690 
  3 N       -3.2080     1.2360    -1.5030 N.am  1 <1>  -0.6600 
  4 C       -2.4980     3.4940    -2.3170 C.3   1 <1>  -0.0380 
  5 C       -4.1760     1.7360    -0.4850 C.3   1 <1>   0.1400 
  6 C       -2.5950     0.0130    -0.9460 C.3   1 <1>   0.1400 
  7 C       -1.6990     3.8100    -1.0830 C.2   1 <1>   0.5690 
  8 C       -3.6370     1.2360     0.8610 C.3   1 <1>   0.2000 
  9 C       -2.4180     0.3640     0.5310 C.3   1 <1>  -0.0800 
 10 O       -2.2690     4.3140    -0.1450 O.2   1 <1>  -0.5700 
 11 N       -0.3890     3.4230    -1.0550 N.am  1 <1>  -0.5470 
 12 O       -3.2510     2.2980     1.6630 O.3   1 <1>  -0.6800 
 13 C       -2.2690    -0.8560     1.4500 C.3   1 <1>   0.0200 
 14 C        0.4780     3.3000     0.0410 C.ar  1 <1>   0.1170 
 15 C       -1.1270    -1.7450     0.9950 C.2   1 <1>  -0.0400 
 16 C        1.3570     2.2140     0.1190 C.ar  1 <1>  -0.1430 
 17 C        0.4740     4.2490     1.0560 C.ar  1 <1>  -0.1500 
 18 O        0.0930    -1.2780     0.9560 O.3   1 <1>  -0.0190 
 19 C       -1.0950    -3.0180     0.5760 C.2   1 <1>  -0.1500 
 20 C        2.2080     2.0930     1.2170 C.ar  1 <1>  -0.1430 
 21 C        1.3630     1.1740    -1.0070 C.3   1 <1>  -0.0970 
 22 C        1.3160     4.1260     2.1420 C.ar  1 <1>  -0.1500 
 23 N        0.9390    -2.1700     0.5270 N.2   1 <1>  -0.4100 
 24 C        0.2520    -3.2300     0.2930 C.2   1 <1>   0.1080 
 25 C        2.1780     3.0500     2.2200 C.ar  1 <1>  -0.1500 
 26 C        3.1840     0.9340     1.3730 C.3   1 <1>  -0.0970 
 27 C        0.8370    -4.5260    -0.2230 C.3   1 <1>  -0.0590 
 28 H       -2.0190     3.9160    -3.1800 H     1 <1>   0.0800 
 29 H       -3.4950     3.8810    -2.2490 H     1 <1>   0.0800 
 30 H       -4.2910     2.8030    -0.4930 H     1 <1>   0.0800 
 31 H       -5.1330     1.2830    -0.6760 H     1 <1>   0.0800 
 32 H       -3.2720    -0.8150    -1.0740 H     1 <1>   0.0800 
 33 H       -1.6530    -0.2220    -1.4130 H     1 <1>   0.0800 
 34 H       -4.3990     0.6860     1.3870 H     1 <1>   0.0800 
 35 H       -1.5240     0.9610     0.6090 H     1 <1>   0.0800 
 36 H       -0.0760     2.9090    -1.8810 H     1 <1>   0.3700 
 37 H       -2.7260     2.9600     1.1490 H     1 <1>   0.4000 
 38 H       -3.1800    -1.4270     1.4560 H     1 <1>   0.0800 
 39 H       -2.0760    -0.5220     2.4550 H     1 <1>   0.0800 
 40 H       -0.1910     5.0910     1.0000 H     1 <1>   0.1500 
 41 H       -1.8900    -3.7320     0.4690 H     1 <1>   0.1500 
 42 H        1.8660     0.2680    -0.7310 H     1 <1>   0.0800 
 43 H        1.8540     1.5790    -1.8730 H     1 <1>   0.0800 
 44 H        0.3610     0.8980    -1.2730 H     1 <1>   0.0800 
 45 H        1.2990     4.8640     2.9240 H     1 <1>   0.1500 
 46 H        2.8270     2.9640     3.0730 H     1 <1>   0.1500 
 47 H        3.8160     1.0690     2.2310 H     1 <1>   0.0800 
 48 H        3.8130     0.8580     0.5040 H     1 <1>   0.0800 
 49 H        2.6430     0.0130     1.4980 H     1 <1>   0.0800 
 50 H        0.3860    -4.7810    -1.1640 H     1 <1>   0.0800 
 51 H        0.6560    -5.3140     0.4840 H     1 <1>   0.0800 
 52 H        1.8970    -4.4200    -0.3630 H     1 <1>   0.0800 
@<TRIPOS>BOND
  1   1   2  2   
  2   2   3  am  
  3   2   4  1   
  4   3   5  1   
  5   3   6  1   
  6   4   7  1   
  7   4  28  1   
  8   4  29  1   
  9   5   8  1   
 10   5  30  1   
 11   5  31  1   
 12   6   9  1   
 13   6  32  1   
 14   6  33  1   
 15   7  10  2   
 16   7  11  am  
 17   8   9  1   
 18   8  12  1   
 19   8  34  1   
 20   9  13  1   
 21   9  35  1   
 22  11  14  1   
 23  11  36  1   
 24  12  37  1   
 25  13  15  1   
 26  13  38  1   
 27  13  39  1   
 28  14  16  ar  
 29  14  17  ar  
 30  15  18  1   
 31  15  19  2   
 32  16  20  ar  
 33  16  21  1   
 34  17  22  ar  
 35  17  40  1   
 36  18  23  1   
 37  19  24  1   
 38  19  41  1   
 39  20  25  ar  
 40  20  26  1   
 41  21  42  1   
 42  21  43  1   
 43  21  44  1   
 44  22  25  ar  
 45  22  45  1   
 46  23  24  2   
 47  24  27  1   
 48  25  46  1   
 49  26  47  1   
 50  26  48  1   
 51  26  49  1   
 52  27  50  1   
 53  27  51  1   
 54  27  52  1   
@<TRIPOS>SUBSTRUCTURE
  1 ****   9 GROUP 4 **** **** 0

# MOE 2024.06 (io_trps.svl 2023.06)
