@<TRIPOS>MOLECULE
NONAME
47 49 1 0 0 
SMALL
USER_CHARGES


@<TRIPOS>ATOM
  1 S        1.2150     1.0230     1.2340 S.3   1 <1>  -0.0800 
  2 C        2.0440    -0.2080     0.2890 C.2   1 <1>  -0.1400 
  3 C       -0.3390     0.2560     0.9640 C.2   1 <1>  -0.1100 
  4 C        1.1550    -1.1090    -0.1770 C.2   1 <1>  -0.1500 
  5 C        3.5530    -0.0530     0.1530 C.3   1 <1>   0.4690 
  6 C       -0.1980    -0.8460     0.2070 C.2   1 <1>  -0.1500 
  7 N        3.7780     1.0410    -0.8040 N.pl3 1 <1>  -0.8690 
  8 C        4.2500    -1.3120    -0.3790 C.3   1 <1>  -0.1600 
  9 C        4.7450     1.9930    -0.6440 C.ar  1 <1>   0.4100 
 10 C        4.2180    -2.4830     0.6190 C.3   1 <1>  -0.1600 
 11 N        5.7420     1.7280     0.1900 N.ar  1 <1>  -0.6200 
 12 C        4.6560     3.1850    -1.3560 C.ar  1 <1>  -0.1500 
 13 C        4.9370    -3.7090     0.0500 C.3   1 <1>  -0.2400 
 14 C        6.6620     2.6690     0.3180 C.ar  1 <1>   0.1600 
 15 C        5.6170     4.1550    -1.2040 C.ar  1 <1>  -0.1500 
 16 C        6.6650     3.9060    -0.3220 C.ar  1 <1>   0.0860 
 17 C        7.7230     4.8570    -0.0720 C.2   1 <1>   0.5440 
 18 O        8.8690     4.4580     0.0230 O.2   1 <1>  -0.5700 
 19 N        7.4790     6.2070     0.0770 N.am  1 <1>  -0.6600 
 20 C        6.1960     6.7660     0.5990 C.3   1 <1>   0.1400 
 21 C        8.5800     7.2180     0.0300 C.3   1 <1>   0.1400 
 22 C        6.4350     7.5600     1.8960 C.3   1 <1>   0.1200 
 23 C        8.6810     7.9720     1.3650 C.3   1 <1>   0.1200 
 24 O        7.4400     8.5170     1.7160 O.3   1 <1>  -0.5600 
 25 H       -1.2030     0.7190     1.4070 H     1 <1>   0.1500 
 26 H        1.3900    -1.9640    -0.7880 H     1 <1>   0.1500 
 27 H        3.9660     0.2040     1.1150 H     1 <1>   0.0800 
 28 H       -0.9960    -1.4980    -0.1030 H     1 <1>   0.1500 
 29 H        2.9030     1.3260    -1.2410 H     1 <1>   0.4000 
 30 H        5.2780    -1.0620    -0.5780 H     1 <1>   0.0800 
 31 H        3.7930    -1.6050    -1.3060 H     1 <1>   0.0800 
 32 H        3.2020    -2.7490     0.8530 H     1 <1>   0.0800 
 33 H        4.7010    -2.1850     1.5350 H     1 <1>   0.0800 
 34 H        3.8310     3.3310    -2.0270 H     1 <1>   0.1500 
 35 H        4.4600    -4.0380    -0.8570 H     1 <1>   0.0800 
 36 H        4.9110    -4.5150     0.7620 H     1 <1>   0.0800 
 37 H        5.9650    -3.4760    -0.1640 H     1 <1>   0.0800 
 38 H        7.4830     2.4550     0.9820 H     1 <1>   0.1500 
 39 H        5.5730     5.0800    -1.7510 H     1 <1>   0.1500 
 40 H        5.4910     5.9800     0.8020 H     1 <1>   0.0800 
 41 H        5.7670     7.4200    -0.1400 H     1 <1>   0.0800 
 42 H        8.3780     7.9220    -0.7580 H     1 <1>   0.0800 
 43 H        9.5240     6.7480    -0.1860 H     1 <1>   0.0800 
 44 H        6.7280     6.9010     2.6950 H     1 <1>   0.0800 
 45 H        5.5380     8.0780     2.1870 H     1 <1>   0.0800 
 46 H        9.3850     8.7800     1.2830 H     1 <1>   0.0800 
 47 H        9.0050     7.3080     2.1480 H     1 <1>   0.0800 
@<TRIPOS>BOND
  1   1   2  1   
  2   1   3  1   
  3   2   4  2   
  4   2   5  1   
  5   3   6  2   
  6   3  25  1   
  7   4   6  1   
  8   4  26  1   
  9   5   7  1   
 10   5   8  1   
 11   5  27  1   
 12   6  28  1   
 13   7   9  1   
 14   7  29  1   
 15   8  10  1   
 16   8  30  1   
 17   8  31  1   
 18   9  11  ar  
 19   9  12  ar  
 20  10  13  1   
 21  10  32  1   
 22  10  33  1   
 23  11  14  ar  
 24  12  15  ar  
 25  12  34  1   
 26  13  35  1   
 27  13  36  1   
 28  13  37  1   
 29  14  16  ar  
 30  14  38  1   
 31  15  16  ar  
 32  15  39  1   
 33  16  17  1   
 34  17  18  2   
 35  17  19  am  
 36  19  20  1   
 37  19  21  1   
 38  20  22  1   
 39  20  40  1   
 40  20  41  1   
 41  21  23  1   
 42  21  42  1   
 43  21  43  1   
 44  22  24  1   
 45  22  44  1   
 46  22  45  1   
 47  23  24  1   
 48  23  46  1   
 49  23  47  1   
@<TRIPOS>SUBSTRUCTURE
  1 ****   9 GROUP 4 **** **** 0

# MOE 2024.06 (io_trps.svl 2023.06)
