@<TRIPOS>MOLECULE
NONAME
59 61 1 0 0 
SMALL
USER_CHARGES


@<TRIPOS>ATOM
  1 O        0.9770     1.3510    -1.0620 O.2   1 <1>  -0.5700 
  2 C        0.5860     2.4880    -0.9440 C.2   1 <1>   0.5690 
  3 N       -0.5430     2.8090    -0.2380 N.am  1 <1>  -0.6600 
  4 C        1.3810     3.5980    -1.6300 C.3   1 <1>   0.1810 
  5 C       -1.0230     4.2290    -0.1270 C.3   1 <1>   0.3640 
  6 C       -1.3270     1.7850     0.5130 C.3   1 <1>   0.0600 
  7 O        1.1770     4.8540    -1.0300 O.3   1 <1>  -0.5600 
  8 C       -2.5040     4.2930    -0.5250 C.ar  1 <1>  -0.1430 
  9 C       -0.1890     5.2350    -0.9630 C.3   1 <1>   0.2610 
 10 C       -3.4830     4.8370     0.3080 C.ar  1 <1>  -0.1430 
 11 C       -2.8810     3.7840    -1.7630 C.ar  1 <1>  -0.1500 
 12 C       -0.3120     6.6350    -0.3560 C.2   1 <1>   0.5690 
 13 C       -4.8040     4.8630    -0.1160 C.ar  1 <1>  -0.1500 
 14 C       -3.1620     5.4150     1.6800 C.3   1 <1>  -0.0960 
 15 C       -4.2000     3.8140    -2.1760 C.ar  1 <1>  -0.1500 
 16 O       -1.2720     7.3200    -0.6160 O.2   1 <1>  -0.5700 
 17 N        0.6670     7.0840     0.4710 N.am  1 <1>  -0.7300 
 18 C       -5.1640     4.3570    -1.3500 C.ar  1 <1>  -0.1500 
 19 C        0.7320     8.4300     1.0660 C.3   1 <1>   0.2840 
 20 C        2.1310     8.9840     0.8560 C.ar  1 <1>  -0.1430 
 21 C        3.0420     9.0280     1.9000 C.ar  1 <1>  -0.1500 
 22 C        2.5100     9.4460    -0.3940 C.ar  1 <1>  -0.1500 
 23 C        4.3130     9.5360     1.6980 C.ar  1 <1>  -0.1500 
 24 C        3.7810     9.9550    -0.5990 C.ar  1 <1>  -0.1500 
 25 C        4.6880    10.0090     0.4490 C.ar  1 <1>  -0.1430 
 26 C        6.0750    10.5820     0.2310 C.3   1 <1>   0.4860 
 27 N        5.9680    12.0670     0.1360 N.4   1 <1>  -0.9590 
 28 C        7.2440    12.6830    -0.3360 C.3   1 <1>   0.2630 
 29 C        5.5160    12.6700     1.4300 C.3   1 <1>   0.2630 
 30 H        1.1000     3.6600    -2.6650 H     1 <1>   0.0800 
 31 H        2.4300     3.3720    -1.5670 H     1 <1>   0.0800 
 32 H       -0.9120     4.5080     0.9030 H     1 <1>   0.0800 
 33 H       -1.4830     2.1120     1.5260 H     1 <1>   0.0800 
 34 H       -0.8050     0.8440     0.5330 H     1 <1>   0.0800 
 35 H       -2.2830     1.6360     0.0410 H     1 <1>   0.0800 
 36 H       -0.5660     5.2770    -1.9690 H     1 <1>   0.0800 
 37 H       -2.1450     3.3500    -2.4170 H     1 <1>   0.1500 
 38 H       -5.5680     5.2840     0.5140 H     1 <1>   0.1500 
 39 H       -4.0510     5.7800     2.1620 H     1 <1>   0.0800 
 40 H       -2.4770     6.2380     1.5860 H     1 <1>   0.0800 
 41 H       -2.7280     4.6600     2.3110 H     1 <1>   0.0800 
 42 H       -4.4750     3.4160    -3.1370 H     1 <1>   0.1500 
 43 H        1.5300     6.5340     0.5260 H     1 <1>   0.3700 
 44 H       -6.1920     4.3850    -1.6660 H     1 <1>   0.1500 
 45 H        0.0060     9.0770     0.6020 H     1 <1>   0.0800 
 46 H        0.5050     8.3650     2.1160 H     1 <1>   0.0800 
 47 H        2.7630     8.6620     2.8740 H     1 <1>   0.1500 
 48 H        1.8090     9.4030    -1.2120 H     1 <1>   0.1500 
 49 H        5.0010     9.5540     2.5270 H     1 <1>   0.1500 
 50 H        4.0450    10.2980    -1.5840 H     1 <1>   0.1500 
 51 H        6.4820    10.1800    -0.6830 H     1 <1>   0.0800 
 52 H        6.7240    10.3040     1.0460 H     1 <1>   0.0800 
 53 H        5.2260    12.2450    -0.5580 H     1 <1>   0.4500 
 54 H        8.0350    12.4990     0.3730 H     1 <1>   0.0800 
 55 H        7.1250    13.7490    -0.4480 H     1 <1>   0.0800 
 56 H        7.5310    12.2700    -1.2900 H     1 <1>   0.0800 
 57 H        6.2350    12.4750     2.2080 H     1 <1>   0.0800 
 58 H        4.5660    12.2520     1.7250 H     1 <1>   0.0800 
 59 H        5.4000    13.7370     1.3250 H     1 <1>   0.0800 
@<TRIPOS>BOND
  1   1   2  2   
  2   2   3  am  
  3   2   4  1   
  4   3   5  1   
  5   3   6  1   
  6   4   7  1   
  7   4  30  1   
  8   4  31  1   
  9   5   8  1   
 10   5   9  1   
 11   5  32  1   
 12   6  33  1   
 13   6  34  1   
 14   6  35  1   
 15   7   9  1   
 16   8  10  ar  
 17   8  11  ar  
 18   9  12  1   
 19   9  36  1   
 20  10  13  ar  
 21  10  14  1   
 22  11  15  ar  
 23  11  37  1   
 24  12  16  2   
 25  12  17  am  
 26  13  18  ar  
 27  13  38  1   
 28  14  39  1   
 29  14  40  1   
 30  14  41  1   
 31  15  18  ar  
 32  15  42  1   
 33  17  19  1   
 34  17  43  1   
 35  18  44  1   
 36  19  20  1   
 37  19  45  1   
 38  19  46  1   
 39  20  21  ar  
 40  20  22  ar  
 41  21  23  ar  
 42  21  47  1   
 43  22  24  ar  
 44  22  48  1   
 45  23  25  ar  
 46  23  49  1   
 47  24  25  ar  
 48  24  50  1   
 49  25  26  1   
 50  26  27  1   
 51  26  51  1   
 52  26  52  1   
 53  27  28  1   
 54  27  29  1   
 55  27  53  1   
 56  28  54  1   
 57  28  55  1   
 58  28  56  1   
 59  29  57  1   
 60  29  58  1   
 61  29  59  1   
@<TRIPOS>SUBSTRUCTURE
  1 ****  17 GROUP 4 **** **** 0

# MOE 2024.06 (io_trps.svl 2023.06)
