@<TRIPOS>MOLECULE
NONAME
47 49 1 0 0 
SMALL
USER_CHARGES


@<TRIPOS>ATOM
  1 S        1.3550    -1.0760     2.8570 S.3   1 <1>  -0.0800 
  2 C        1.2780    -0.2940     1.3010 C.2   1 <1>   0.1980 
  3 C        0.7170    -2.5180     2.1300 C.2   1 <1>  -0.1100 
  4 N        0.8330    -1.0340     0.3680 N.2   1 <1>  -0.5650 
  5 C        1.7410     1.1540     1.1940 C.3   1 <1>   0.5230 
  6 C        0.4940    -2.3260     0.8090 C.2   1 <1>   0.1410 
  7 N        1.4400     1.6740    -0.1840 N.4   1 <1>  -0.9590 
  8 C       -0.0450    -3.3120    -0.1260 C.2   1 <1>   0.7160 
  9 C        2.3140     2.8160    -0.5830 C.3   1 <1>   0.2630 
 10 C       -0.0140     1.9900    -0.3470 C.3   1 <1>   0.2630 
 11 O       -0.3900    -3.0010    -1.2500 O.2   1 <1>  -0.5700 
 12 N       -0.1750    -4.6200     0.2460 N.am  1 <1>  -0.7300 
 13 C       -0.6260    -5.7260    -0.6290 C.3   1 <1>   0.2200 
 14 C       -1.9380    -6.2800    -0.0930 C.3   1 <1>  -0.0800 
 15 C        0.3050    -6.9140    -0.4370 C.3   1 <1>   0.1200 
 16 C       -1.4730    -7.3040     0.9550 C.3   1 <1>   0.1200 
 17 C       -2.7740    -6.9290    -1.2120 C.3   1 <1>  -0.0170 
 18 O       -0.1010    -7.4970     0.7610 O.3   1 <1>  -0.5600 
 19 C       -4.0870    -7.4840    -0.6790 C.ar  1 <1>  -0.1430 
 20 C       -5.1360    -6.6570    -0.3350 C.ar  1 <1>  -0.1500 
 21 C       -4.3000    -8.8380    -0.5150 C.ar  1 <1>  -0.1500 
 22 C       -6.3120    -7.2060     0.1500 C.ar  1 <1>   0.1600 
 23 C       -5.5140    -9.2850    -0.0210 C.ar  1 <1>   0.1600 
 24 N       -6.5240    -8.5010     0.3180 N.ar  1 <1>  -0.6200 
 25 H        0.5690    -3.3710     2.7680 H     1 <1>   0.1500 
 26 H        2.8020     1.1850     1.3750 H     1 <1>   0.0800 
 27 H        1.2460     1.7540     1.9380 H     1 <1>   0.0800 
 28 H        1.6200     0.8570    -0.7990 H     1 <1>   0.4500 
 29 H        2.1420     3.6650     0.0580 H     1 <1>   0.0800 
 30 H        2.1050     3.1050    -1.6010 H     1 <1>   0.0800 
 31 H        3.3530     2.5350    -0.5160 H     1 <1>   0.0800 
 32 H       -0.3040     2.7940     0.3090 H     1 <1>   0.0800 
 33 H       -0.6110     1.1210    -0.1190 H     1 <1>   0.0800 
 34 H       -0.2200     2.2810    -1.3650 H     1 <1>   0.0800 
 35 H        0.1570    -4.9380     1.1580 H     1 <1>   0.3700 
 36 H       -0.6810    -5.4100    -1.6570 H     1 <1>   0.0800 
 37 H       -2.5260    -5.5050     0.3660 H     1 <1>   0.0800 
 38 H        1.3410    -6.6280    -0.3720 H     1 <1>   0.0800 
 39 H        0.1740    -7.6400    -1.2210 H     1 <1>   0.0800 
 40 H       -1.9680    -8.2540     0.8590 H     1 <1>   0.0800 
 41 H       -1.6140    -6.9290     1.9540 H     1 <1>   0.0800 
 42 H       -2.2160    -7.7180    -1.6860 H     1 <1>   0.0800 
 43 H       -2.9940    -6.1920    -1.9650 H     1 <1>   0.0800 
 44 H       -5.0530    -5.5900    -0.4390 H     1 <1>   0.1500 
 45 H       -3.5360    -9.5520    -0.7640 H     1 <1>   0.1500 
 46 H       -7.1200    -6.5460     0.4140 H     1 <1>   0.1500 
 47 H       -5.6620   -10.3450     0.1020 H     1 <1>   0.1500 
@<TRIPOS>BOND
  1   1   2  1   
  2   1   3  1   
  3   2   4  2   
  4   2   5  1   
  5   3   6  2   
  6   3  25  1   
  7   4   6  1   
  8   5   7  1   
  9   5  26  1   
 10   5  27  1   
 11   6   8  1   
 12   7   9  1   
 13   7  10  1   
 14   7  28  1   
 15   8  11  2   
 16   8  12  am  
 17   9  29  1   
 18   9  30  1   
 19   9  31  1   
 20  10  32  1   
 21  10  33  1   
 22  10  34  1   
 23  12  13  1   
 24  12  35  1   
 25  13  14  1   
 26  13  15  1   
 27  13  36  1   
 28  14  16  1   
 29  14  17  1   
 30  14  37  1   
 31  15  18  1   
 32  15  38  1   
 33  15  39  1   
 34  16  18  1   
 35  16  40  1   
 36  16  41  1   
 37  17  19  1   
 38  17  42  1   
 39  17  43  1   
 40  19  20  ar  
 41  19  21  ar  
 42  20  22  ar  
 43  20  44  1   
 44  21  23  ar  
 45  21  45  1   
 46  22  24  ar  
 47  22  46  1   
 48  23  24  ar  
 49  23  47  1   
@<TRIPOS>SUBSTRUCTURE
  1 ****  12 GROUP 4 **** **** 0

# MOE 2024.06 (io_trps.svl 2023.06)
