@<TRIPOS>MOLECULE
NONAME
49 52 1 0 0 
SMALL
USER_CHARGES


@<TRIPOS>ATOM
  1 O       -1.3240    -0.1580    -0.7410 O.2   1 <1>  -0.5700 
  2 C       -1.8530     0.8950    -0.4090 C.2   1 <1>   0.7160 
  3 N       -3.2340     0.8860    -0.2450 N.am  1 <1>  -0.6600 
  4 C       -1.0080     2.0760    -0.2120 C.2   1 <1>   0.2030 
  5 C       -4.0760    -0.2580    -0.7000 C.3   1 <1>   0.1400 
  6 C       -3.9870     1.9880     0.4070 C.3   1 <1>   0.1400 
  7 N       -1.3470     3.3610    -0.2940 N.2   1 <1>  -0.7070 
  8 C        0.3600     1.9940     0.0870 C.2   1 <1>  -0.1810 
  9 C       -5.0680     0.1670    -1.7950 C.3   1 <1>   0.1400 
 10 C       -4.6090     2.8800    -0.6710 C.3   1 <1>  -0.1600 
 11 N       -0.2200     4.0600    -0.0520 N.pl3 1 <1>   0.3000 
 12 C        0.8120     3.2360     0.1800 C.2   1 <1>  -0.3320 
 13 C        1.4390     0.9740     0.3170 C.3   1 <1>   0.0210 
 14 N       -6.2120     0.9640    -1.2430 N.am  1 <1>  -0.6600 
 15 C       -6.0080     2.4450    -1.1320 C.3   1 <1>   0.1400 
 16 C        2.2770     3.3390     0.4930 C.3   1 <1>   0.0200 
 17 C        2.6710     1.8500     0.6640 C.3   1 <1>  -0.1600 
 18 C       -7.4340     0.4230    -0.9080 C.2   1 <1>   0.5690 
 19 O       -8.3260     1.1040    -0.4580 O.2   1 <1>  -0.5700 
 20 C       -7.7460    -1.0590    -1.0880 C.3   1 <1>   0.0440 
 21 C       -6.9440    -1.9510    -0.1500 C.ar  1 <1>  -0.1430 
 22 C       -6.9070    -1.6790     1.2110 C.ar  1 <1>   0.1600 
 23 C       -6.2340    -3.0340    -0.6320 C.ar  1 <1>  -0.1500 
 24 N       -6.2200    -2.3760     2.1030 N.ar  1 <1>  -0.6200 
 25 C       -5.5160    -3.7700     0.2860 C.ar  1 <1>  -0.1500 
 26 C       -5.5410    -3.4030     1.6200 C.ar  1 <1>   0.1600 
 27 H       -4.6000    -0.6680     0.1430 H     1 <1>   0.0800 
 28 H       -3.4550    -1.0400    -1.0990 H     1 <1>   0.0800 
 29 H       -3.3250     2.5680     1.0250 H     1 <1>   0.0800 
 30 H       -4.7510     1.5840     1.0490 H     1 <1>   0.0800 
 31 H       -5.4380    -0.7170    -2.2780 H     1 <1>   0.0800 
 32 H       -4.5490     0.7390    -2.5450 H     1 <1>   0.0800 
 33 H       -3.9450     2.9500    -1.5150 H     1 <1>   0.0800 
 34 H       -4.6980     3.8740    -0.2730 H     1 <1>   0.0800 
 35 H       -0.1860     5.0860    -0.0570 H     1 <1>   0.2700 
 36 H        1.6010     0.4020    -0.5800 H     1 <1>   0.0800 
 37 H        1.1770     0.3170     1.1270 H     1 <1>   0.0800 
 38 H       -6.2220     2.8970    -2.0850 H     1 <1>   0.0800 
 39 H       -6.7170     2.8440    -0.4260 H     1 <1>   0.0800 
 40 H        2.4450     3.8960     1.3980 H     1 <1>   0.0800 
 41 H        2.8080     3.7900    -0.3280 H     1 <1>   0.0800 
 42 H        3.4990     1.6030     0.0230 H     1 <1>   0.0800 
 43 H        2.9590     1.6710     1.6840 H     1 <1>   0.0800 
 44 H       -7.5780    -1.3280    -2.1130 H     1 <1>   0.0800 
 45 H       -8.7920    -1.2140    -0.8910 H     1 <1>   0.0800 
 46 H       -7.4670    -0.8380     1.5880 H     1 <1>   0.1500 
 47 H       -6.2330    -3.3000    -1.6750 H     1 <1>   0.1500 
 48 H       -4.9400    -4.6230    -0.0250 H     1 <1>   0.1500 
 49 H       -4.9740    -3.9840     2.3280 H     1 <1>   0.1500 
@<TRIPOS>BOND
  1   1   2  2   
  2   2   3  am  
  3   2   4  1   
  4   3   5  1   
  5   3   6  1   
  6   4   7  2   
  7   4   8  1   
  8   5   9  1   
  9   5  27  1   
 10   5  28  1   
 11   6  10  1   
 12   6  29  1   
 13   6  30  1   
 14   7  11  1   
 15   8  12  2   
 16   8  13  1   
 17   9  14  1   
 18   9  31  1   
 19   9  32  1   
 20  10  15  1   
 21  10  33  1   
 22  10  34  1   
 23  11  12  1   
 24  11  35  1   
 25  12  16  1   
 26  13  17  1   
 27  13  36  1   
 28  13  37  1   
 29  14  15  1   
 30  14  18  am  
 31  15  38  1   
 32  15  39  1   
 33  16  17  1   
 34  16  40  1   
 35  16  41  1   
 36  17  42  1   
 37  17  43  1   
 38  18  19  2   
 39  18  20  1   
 40  20  21  1   
 41  20  44  1   
 42  20  45  1   
 43  21  22  ar  
 44  21  23  ar  
 45  22  24  ar  
 46  22  46  1   
 47  23  25  ar  
 48  23  47  1   
 49  24  26  ar  
 50  25  26  ar  
 51  25  48  1   
 52  26  49  1   
@<TRIPOS>SUBSTRUCTURE
  1 ****   3 GROUP 4 **** **** 0

# MOE 2024.06 (io_trps.svl 2023.06)
