@<TRIPOS>MOLECULE
NONAME
57 60 1 0 0 
SMALL
USER_CHARGES


@<TRIPOS>ATOM
  1 S       -0.2340     0.7720    -1.8750 S.3   1 <1>  -0.2860 
  2 C       -0.8630     1.5030    -0.3650 C.2   1 <1>   0.2420 
  3 C        1.1930    -0.2610    -1.3190 C.3   1 <1>   0.1500 
  4 N       -0.3610     1.2550     0.7910 N.2   1 <1>  -0.5650 
  5 N       -1.9340     2.3390    -0.3850 N.pl3 1 <1>   0.0480 
  6 C        2.4180     0.6480    -1.1640 C.3   1 <1>  -0.1600 
  7 C        1.4190    -1.3550    -2.3680 C.3   1 <1>  -0.1600 
  8 C       -1.1530     1.9750     1.6310 C.ar  1 <1>   0.2270 
  9 C       -2.1340     2.6540     0.9270 C.ar  1 <1>  -0.1520 
 10 C       -2.8390     2.6220    -1.5200 C.3   1 <1>   0.1570 
 11 C        3.6720    -0.1760    -0.8370 C.3   1 <1>  -0.1600 
 12 C        2.6740    -2.1770    -2.0390 C.3   1 <1>  -0.1600 
 13 C       -1.0940     2.0740     3.0200 C.ar  1 <1>  -0.1500 
 14 C       -3.0750     3.4470     1.5910 C.ar  1 <1>  -0.1500 
 15 C       -4.2790     2.2860    -1.1720 C.2   1 <1>   0.5690 
 16 C        3.9050    -1.2730    -1.8860 C.3   1 <1>  -0.1600 
 17 C       -2.0210     2.8510     3.6790 C.ar  1 <1>  -0.1500 
 18 C       -3.0110     3.5360     2.9640 C.ar  1 <1>  -0.1500 
 19 O       -5.0800     3.1870    -1.2590 O.2   1 <1>  -0.5700 
 20 N       -4.6600     1.0280    -0.7640 N.am  1 <1>  -0.6600 
 21 C       -6.0440     0.8070    -0.2180 C.3   1 <1>   0.1400 
 22 C       -3.7470    -0.1630    -0.7620 C.3   1 <1>   0.1400 
 23 C       -6.0120    -0.1720     0.9670 C.3   1 <1>   0.2000 
 24 C       -4.5410    -1.4710    -0.7030 C.3   1 <1>  -0.1600 
 25 O       -5.2020     0.3850     1.9480 O.3   1 <1>  -0.6800 
 26 C       -5.4720    -1.5600     0.5340 C.3   1 <1>  -0.0800 
 27 C       -4.8220    -2.3170     1.7080 C.3   1 <1>   0.1200 
 28 O       -4.5910    -3.6370     1.3460 O.3   1 <1>  -0.6800 
 29 H        0.9230    -0.7010    -0.3740 H     1 <1>   0.0800 
 30 H        2.5780     1.1910    -2.0790 H     1 <1>   0.0800 
 31 H        2.2390     1.3590    -0.3760 H     1 <1>   0.0800 
 32 H        0.5610    -2.0020    -2.4020 H     1 <1>   0.0800 
 33 H        1.5390    -0.9000    -3.3360 H     1 <1>   0.0800 
 34 H       -2.7680     3.6670    -1.7560 H     1 <1>   0.0800 
 35 H       -2.5470     2.0580    -2.3840 H     1 <1>   0.0800 
 36 H        4.5290     0.4740    -0.7950 H     1 <1>   0.0800 
 37 H        3.5540    -0.6300     0.1330 H     1 <1>   0.0800 
 38 H        2.5150    -2.7180    -1.1210 H     1 <1>   0.0800 
 39 H        2.8490    -2.8970    -2.8200 H     1 <1>   0.0800 
 40 H       -0.3260     1.5380     3.5440 H     1 <1>   0.1500 
 41 H       -3.8360     3.9760     1.0420 H     1 <1>   0.1500 
 42 H        4.7560    -1.8680    -1.6010 H     1 <1>   0.0800 
 43 H        4.1300    -0.8140    -2.8350 H     1 <1>   0.0800 
 44 H       -1.9930     2.9370     4.7510 H     1 <1>   0.1500 
 45 H       -3.7260     4.1350     3.5010 H     1 <1>   0.1500 
 46 H       -6.4770     1.7370     0.1090 H     1 <1>   0.0800 
 47 H       -6.6700     0.4110    -0.9980 H     1 <1>   0.0800 
 48 H       -3.1380    -0.1600    -1.6500 H     1 <1>   0.0800 
 49 H       -3.0970    -0.1150     0.0960 H     1 <1>   0.0800 
 50 H       -6.9950    -0.2790     1.3940 H     1 <1>   0.0800 
 51 H       -5.1310    -1.5420    -1.6000 H     1 <1>   0.0800 
 52 H       -3.8540    -2.2990    -0.7200 H     1 <1>   0.0800 
 53 H       -4.4560     0.8500     1.5130 H     1 <1>   0.4000 
 54 H       -6.3320    -2.1310     0.2320 H     1 <1>   0.0800 
 55 H       -5.4610    -2.3120     2.5750 H     1 <1>   0.0800 
 56 H       -3.8760    -1.8750     1.9720 H     1 <1>   0.0800 
 57 H       -5.4340    -4.1150     1.2280 H     1 <1>   0.4000 
@<TRIPOS>BOND
  1   1   2  1   
  2   1   3  1   
  3   2   4  2   
  4   2   5  1   
  5   3   6  1   
  6   3   7  1   
  7   3  29  1   
  8   4   8  1   
  9   5   9  1   
 10   5  10  1   
 11   6  11  1   
 12   6  30  1   
 13   6  31  1   
 14   7  12  1   
 15   7  32  1   
 16   7  33  1   
 17   8   9  ar  
 18   8  13  ar  
 19   9  14  ar  
 20  10  15  1   
 21  10  34  1   
 22  10  35  1   
 23  11  16  1   
 24  11  36  1   
 25  11  37  1   
 26  12  16  1   
 27  12  38  1   
 28  12  39  1   
 29  13  17  ar  
 30  13  40  1   
 31  14  18  ar  
 32  14  41  1   
 33  15  19  2   
 34  15  20  am  
 35  16  42  1   
 36  16  43  1   
 37  17  18  ar  
 38  17  44  1   
 39  18  45  1   
 40  20  21  1   
 41  20  22  1   
 42  21  23  1   
 43  21  46  1   
 44  21  47  1   
 45  22  24  1   
 46  22  48  1   
 47  22  49  1   
 48  23  25  1   
 49  23  26  1   
 50  23  50  1   
 51  24  26  1   
 52  24  51  1   
 53  24  52  1   
 54  25  53  1   
 55  26  27  1   
 56  26  54  1   
 57  27  28  1   
 58  27  55  1   
 59  27  56  1   
 60  28  57  1   
@<TRIPOS>SUBSTRUCTURE
  1 ****   2 GROUP 4 **** **** 0

# MOE 2024.06 (io_trps.svl 2023.06)
