@<TRIPOS>MOLECULE
NONAME
38 40 1 0 0 
SMALL
USER_CHARGES


@<TRIPOS>ATOM
  1 O       -0.1290    -0.4100     0.7160 O.3   1 <1>  -0.5600 
  2 C        0.5140     0.8090     0.9120 C.3   1 <1>   0.1200 
  3 C       -1.5060    -0.2280     0.5810 C.3   1 <1>   0.1200 
  4 C       -0.3510     1.8290     0.1870 C.3   1 <1>   0.2890 
  5 C       -1.7480     1.2760     0.4100 C.3   1 <1>  -0.0800 
  6 N       -0.2150     3.1980     0.7470 N.pl3 1 <1>  -0.8690 
  7 C       -2.7240     1.6250    -0.7250 C.3   1 <1>  -0.0170 
  8 C        0.5060     4.2450     0.3200 C.ar  1 <1>   0.4100 
  9 C       -4.0920     1.0080    -0.4810 C.ar  1 <1>  -0.1430 
 10 N        0.3850     5.3280     1.0540 N.ar  1 <1>  -0.6200 
 11 C        1.3390     4.1970    -0.8140 C.ar  1 <1>  -0.1500 
 12 C       -4.9780     1.5440     0.4310 C.ar  1 <1>  -0.1500 
 13 C       -4.5200    -0.1180    -1.1560 C.ar  1 <1>  -0.1500 
 14 C        1.0770     6.3880     0.6910 C.ar  1 <1>   0.7710 
 15 C        2.0350     5.3080    -1.1600 C.ar  1 <1>   0.2110 
 16 C       -6.2110     0.9420     0.6240 C.ar  1 <1>   0.1600 
 17 C       -5.7740    -0.6410    -0.8890 C.ar  1 <1>   0.1600 
 18 N        1.8880     6.4100    -0.3830 N.ar  1 <1>  -0.1790 
 19 N        0.9410     7.4710     1.4500 N.pl3 1 <1>  -0.9000 
 20 N       -6.6290    -0.1390    -0.0130 N.ar  1 <1>  -0.6200 
 21 H        0.5410     1.0000     1.9700 H     1 <1>   0.0800 
 22 H        1.5090     0.7480     0.5090 H     1 <1>   0.0800 
 23 H       -1.8250    -0.7920    -0.2780 H     1 <1>   0.0800 
 24 H       -1.9930    -0.6090     1.4630 H     1 <1>   0.0800 
 25 H       -0.1070     1.8100    -0.8600 H     1 <1>   0.0800 
 26 H       -2.1390     1.6440     1.3420 H     1 <1>   0.0800 
 27 H       -0.7380     3.3450     1.6170 H     1 <1>   0.4000 
 28 H       -2.3340     1.2770    -1.6660 H     1 <1>   0.0800 
 29 H       -2.8270     2.6950    -0.7910 H     1 <1>   0.0800 
 30 H        1.4130     3.2900    -1.3820 H     1 <1>   0.1500 
 31 H       -4.7240     2.4230     0.9950 H     1 <1>   0.1500 
 32 H       -3.8940    -0.5960    -1.8870 H     1 <1>   0.1500 
 33 H        2.6920     5.3460    -2.0160 H     1 <1>   0.1500 
 34 H       -6.8880     1.3740     1.3400 H     1 <1>   0.1500 
 35 H       -6.0910    -1.5200    -1.4240 H     1 <1>   0.1500 
 36 H        2.3770     7.2800    -0.5760 H     1 <1>   0.4570 
 37 H        1.3800     8.3880     1.3540 H     1 <1>   0.4000 
 38 H        0.3120     7.4020     2.2580 H     1 <1>   0.4000 
@<TRIPOS>BOND
  1   1   2  1   
  2   1   3  1   
  3   2   4  1   
  4   2  21  1   
  5   2  22  1   
  6   3   5  1   
  7   3  23  1   
  8   3  24  1   
  9   4   5  1   
 10   4   6  1   
 11   4  25  1   
 12   5   7  1   
 13   5  26  1   
 14   6   8  1   
 15   6  27  1   
 16   7   9  1   
 17   7  28  1   
 18   7  29  1   
 19   8  10  ar  
 20   8  11  ar  
 21   9  12  ar  
 22   9  13  ar  
 23  10  14  ar  
 24  11  15  ar  
 25  11  30  1   
 26  12  16  ar  
 27  12  31  1   
 28  13  17  ar  
 29  13  32  1   
 30  14  18  ar  
 31  14  19  1   
 32  15  18  ar  
 33  15  33  1   
 34  16  20  ar  
 35  16  34  1   
 36  17  20  ar  
 37  17  35  1   
 38  18  36  1   
 39  19  37  1   
 40  19  38  1   
@<TRIPOS>SUBSTRUCTURE
  1 ****   5 GROUP 4 **** **** 0

# MOE 2024.06 (io_trps.svl 2023.06)
