@<TRIPOS>MOLECULE
NONAME
47 49 1 0 0 
SMALL
USER_CHARGES


@<TRIPOS>ATOM
  1 O       -2.6440     0.5420    -3.6350 O.2   1 <1>  -0.5700 
  2 C       -2.0110     0.7810    -2.6350 C.2   1 <1>   0.5690 
  3 N       -1.6160    -0.2080    -1.7930 N.am  1 <1>  -0.7300 
  4 C       -1.6630     2.2280    -2.3100 C.3   1 <1>   0.1810 
  5 C       -1.9450    -1.6450    -1.9300 C.3   1 <1>   0.2200 
  6 O       -1.3790     2.3860    -0.9260 O.3   1 <1>  -0.3630 
  7 C       -2.9870    -2.0690    -0.9040 C.3   1 <1>  -0.0800 
  8 C       -0.7510    -2.4760    -1.4800 C.3   1 <1>   0.1200 
  9 C       -1.1150     3.6060    -0.3960 C.ar  1 <1>   0.0820 
 10 C       -2.1440    -2.3540     0.3430 C.3   1 <1>   0.1200 
 11 C       -4.1450    -1.0800    -0.6700 C.3   1 <1>  -0.0160 
 12 O       -0.8220    -2.5100    -0.0860 O.3   1 <1>  -0.5600 
 13 C       -0.9430     3.6660     0.9760 C.ar  1 <1>  -0.1500 
 14 C       -1.0130     4.7730    -1.1510 C.ar  1 <1>  -0.1500 
 15 C       -5.1380    -1.6340     0.3400 C.ar  1 <1>  -0.1440 
 16 C       -0.6750     4.8680     1.6060 C.ar  1 <1>   0.0820 
 17 C       -0.7440     5.9780    -0.5260 C.ar  1 <1>  -0.1500 
 18 C       -6.0880    -2.5710    -0.0120 C.ar  1 <1>  -0.1500 
 19 C       -5.1400    -1.2300     1.6590 C.ar  1 <1>  -0.1500 
 20 O       -0.5260     4.8310     2.9550 O.3   1 <1>  -0.3620 
 21 C       -0.5750     6.0320     0.8470 C.ar  1 <1>  -0.1500 
 22 C       -6.9660    -3.0490     0.9470 C.ar  1 <1>   0.1600 
 23 C       -6.0620    -1.7710     2.5400 C.ar  1 <1>   0.1600 
 24 C       -0.2330     5.9980     3.6920 C.3   1 <1>   0.0400 
 25 N       -6.9740    -2.6730     2.2160 N.ar  1 <1>  -0.6200 
 26 H       -1.1170     0.0420    -0.9320 H     1 <1>   0.3700 
 27 H       -2.4980     2.8560    -2.5590 H     1 <1>   0.0800 
 28 H       -0.7960     2.5220    -2.8720 H     1 <1>   0.0800 
 29 H       -2.2400    -1.8700    -2.9410 H     1 <1>   0.0800 
 30 H       -3.4050    -3.0050    -1.2280 H     1 <1>   0.0800 
 31 H        0.1900    -2.0540    -1.7860 H     1 <1>   0.0800 
 32 H       -0.8350    -3.4870    -1.8380 H     1 <1>   0.0800 
 33 H       -2.4610    -3.2530     0.8440 H     1 <1>   0.0800 
 34 H       -2.1640    -1.5270     1.0320 H     1 <1>   0.0800 
 35 H       -4.6490    -0.8940    -1.6030 H     1 <1>   0.0800 
 36 H       -3.7710    -0.1370    -0.3130 H     1 <1>   0.0800 
 37 H       -1.0180     2.7700     1.5620 H     1 <1>   0.1500 
 38 H       -1.1380     4.7660    -2.2170 H     1 <1>   0.1500 
 39 H       -0.6660     6.8800    -1.1100 H     1 <1>   0.1500 
 40 H       -6.1550    -2.9330    -1.0210 H     1 <1>   0.1500 
 41 H       -4.4360    -0.4990     2.0120 H     1 <1>   0.1500 
 42 H       -0.3690     6.9800     1.3050 H     1 <1>   0.1500 
 43 H       -7.7000    -3.7800     0.6550 H     1 <1>   0.1500 
 44 H       -6.0480    -1.4430     3.5650 H     1 <1>   0.1500 
 45 H       -0.1540     5.7250     4.7290 H     1 <1>   0.0800 
 46 H       -1.0340     6.7040     3.5600 H     1 <1>   0.0800 
 47 H        0.7020     6.4030     3.3480 H     1 <1>   0.0800 
@<TRIPOS>BOND
  1   1   2  2   
  2   2   3  am  
  3   2   4  1   
  4   3   5  1   
  5   3  26  1   
  6   4   6  1   
  7   4  27  1   
  8   4  28  1   
  9   5   7  1   
 10   5   8  1   
 11   5  29  1   
 12   6   9  1   
 13   7  10  1   
 14   7  11  1   
 15   7  30  1   
 16   8  12  1   
 17   8  31  1   
 18   8  32  1   
 19   9  13  ar  
 20   9  14  ar  
 21  10  12  1   
 22  10  33  1   
 23  10  34  1   
 24  11  15  1   
 25  11  35  1   
 26  11  36  1   
 27  13  16  ar  
 28  13  37  1   
 29  14  17  ar  
 30  14  38  1   
 31  15  18  ar  
 32  15  19  ar  
 33  16  20  1   
 34  16  21  ar  
 35  17  21  ar  
 36  17  39  1   
 37  18  22  ar  
 38  18  40  1   
 39  19  23  ar  
 40  19  41  1   
 41  20  24  1   
 42  21  42  1   
 43  22  25  ar  
 44  22  43  1   
 45  23  25  ar  
 46  23  44  1   
 47  24  45  1   
 48  24  46  1   
 49  24  47  1   
@<TRIPOS>SUBSTRUCTURE
  1 ****   6 GROUP 4 **** **** 0

# MOE 2024.06 (io_trps.svl 2023.06)
