@<TRIPOS>MOLECULE
NONAME
50 53 1 0 0 
SMALL
USER_CHARGES


@<TRIPOS>ATOM
  1 O        0.4490    -0.4610    -0.9730 O.3   1 <1>  -0.2800 
  2 C        0.7060     0.8450    -0.8980 C.ar  1 <1>   0.1400 
  3 C        1.2740    -1.0780    -0.1300 C.2   1 <1>  -0.0400 
  4 C        1.7190     1.0810     0.0120 C.ar  1 <1>   0.0000 
  5 C        0.0890     1.8740    -1.5940 C.ar  1 <1>  -0.1500 
  6 C        2.0770    -0.1950     0.4990 C.2   1 <1>  -0.1810 
  7 C        1.1800    -2.5880    -0.0260 C.3   1 <1>   0.5230 
  8 C        2.1380     2.3920     0.2430 C.ar  1 <1>  -0.1500 
  9 C        0.5100     3.1660    -1.3580 C.ar  1 <1>  -0.1500 
 10 C        3.1710    -0.4070     1.5310 C.3   1 <1>  -0.0590 
 11 N       -0.0460    -2.9740     0.7300 N.4   1 <1>  -0.9590 
 12 C        1.5330     3.4290    -0.4410 C.ar  1 <1>  -0.1430 
 13 C       -1.3250    -2.4890     0.1390 C.3   1 <1>   0.3430 
 14 C       -0.2090    -4.4380     0.9630 C.3   1 <1>   0.3430 
 15 C        1.9650     4.8670    -0.2130 C.3   1 <1>  -0.0970 
 16 C       -2.3860    -3.3880     0.7720 C.3   1 <1>   0.2000 
 17 C       -1.7050    -4.7560     0.7930 C.3   1 <1>  -0.0800 
 18 O       -2.5640    -2.9820     2.0890 O.3   1 <1>  -0.6800 
 19 C       -1.9760    -5.5430    -0.5050 C.3   1 <1>  -0.0170 
 20 C       -1.0790    -6.7680    -0.6020 C.ar  1 <1>  -0.1430 
 21 C       -1.1650    -7.8090     0.3020 C.ar  1 <1>  -0.1500 
 22 C       -0.1290    -6.9000    -1.5960 C.ar  1 <1>  -0.1500 
 23 C       -0.3060    -8.8890     0.1860 C.ar  1 <1>   0.1600 
 24 C        0.6810    -8.0240    -1.6230 C.ar  1 <1>   0.1600 
 25 N        0.6220    -9.0120    -0.7480 N.ar  1 <1>  -0.6200 
 26 H       -0.6940     1.6550    -2.2970 H     1 <1>   0.1500 
 27 H        2.0520    -2.9600     0.4860 H     1 <1>   0.0800 
 28 H        1.1590    -3.0110    -1.0170 H     1 <1>   0.0800 
 29 H        2.9260     2.5760     0.9500 H     1 <1>   0.1500 
 30 H        0.0480     3.9840    -1.8850 H     1 <1>   0.1500 
 31 H        4.1060    -0.0320     1.1510 H     1 <1>   0.0800 
 32 H        3.2890    -1.4480     1.7670 H     1 <1>   0.0800 
 33 H        2.9300     0.1280     2.4330 H     1 <1>   0.0800 
 34 H       -0.0100    -2.5150     1.6520 H     1 <1>   0.4500 
 35 H       -1.5040    -1.4490     0.3630 H     1 <1>   0.0800 
 36 H       -1.3160    -2.6270    -0.9290 H     1 <1>   0.0800 
 37 H        0.3800    -5.0070     0.2610 H     1 <1>   0.0800 
 38 H        0.1090    -4.6870     1.9620 H     1 <1>   0.0800 
 39 H        2.3140     5.2950    -1.1360 H     1 <1>   0.0800 
 40 H        2.7580     4.9210     0.5100 H     1 <1>   0.0800 
 41 H        1.1330     5.4460     0.1460 H     1 <1>   0.0800 
 42 H       -3.3330    -3.3570     0.2590 H     1 <1>   0.0800 
 43 H       -2.0500    -5.3480     1.6230 H     1 <1>   0.0800 
 44 H       -3.3740    -3.3740     2.4800 H     1 <1>   0.4000 
 45 H       -1.8140    -4.9180    -1.3670 H     1 <1>   0.0800 
 46 H       -3.0040    -5.8620    -0.5290 H     1 <1>   0.0800 
 47 H       -1.8910    -7.8010     1.0950 H     1 <1>   0.1500 
 48 H       -0.0070    -6.1520    -2.3570 H     1 <1>   0.1500 
 49 H       -0.3840    -9.6940     0.8980 H     1 <1>   0.1500 
 50 H        1.4160    -8.1170    -2.4060 H     1 <1>   0.1500 
@<TRIPOS>BOND
  1   1   2  1   
  2   1   3  1   
  3   2   4  ar  
  4   2   5  ar  
  5   3   6  2   
  6   3   7  1   
  7   4   6  1   
  8   4   8  ar  
  9   5   9  ar  
 10   5  26  1   
 11   6  10  1   
 12   7  11  1   
 13   7  27  1   
 14   7  28  1   
 15   8  12  ar  
 16   8  29  1   
 17   9  12  ar  
 18   9  30  1   
 19  10  31  1   
 20  10  32  1   
 21  10  33  1   
 22  11  13  1   
 23  11  14  1   
 24  11  34  1   
 25  12  15  1   
 26  13  16  1   
 27  13  35  1   
 28  13  36  1   
 29  14  17  1   
 30  14  37  1   
 31  14  38  1   
 32  15  39  1   
 33  15  40  1   
 34  15  41  1   
 35  16  17  1   
 36  16  18  1   
 37  16  42  1   
 38  17  19  1   
 39  17  43  1   
 40  18  44  1   
 41  19  20  1   
 42  19  45  1   
 43  19  46  1   
 44  20  21  ar  
 45  20  22  ar  
 46  21  23  ar  
 47  21  47  1   
 48  22  24  ar  
 49  22  48  1   
 50  23  25  ar  
 51  23  49  1   
 52  24  25  ar  
 53  24  50  1   
@<TRIPOS>SUBSTRUCTURE
  1 ****   7 GROUP 4 **** **** 0

# MOE 2024.06 (io_trps.svl 2023.06)
