@<TRIPOS>MOLECULE
NONAME
54 57 1 0 0 
SMALL
USER_CHARGES


@<TRIPOS>ATOM
  1 O        2.2980     5.0610    -1.6270 O.co2 1 <1>  -0.9000 
  2 C        2.0530     4.2490    -0.7190 C.2   1 <1>   0.9060 
  3 O        2.9420     3.4400    -0.4100 O.co2 1 <1>  -0.9000 
  4 C        0.7310     4.3030     0.0930 C.3   1 <1>   0.0380 
  5 C       -0.2310     3.2020    -0.3950 C.ar  1 <1>  -0.1440 
  6 C        1.1130     4.2190     1.5770 C.3   1 <1>   0.2090 
  7 C        0.0210     5.6860     0.0620 C.3   1 <1>  -0.1600 
  8 C       -0.5780     2.0920     0.3670 C.ar  1 <1>  -0.1500 
  9 C       -0.7700     3.3220    -1.6700 C.ar  1 <1>  -0.1500 
 10 N        1.5110     5.6160     1.9240 N.pl3 1 <1>  -0.8380 
 11 C        0.4040     6.4240     1.3530 C.3   1 <1>   0.2090 
 12 C       -1.4570     1.1430    -0.1260 C.ar  1 <1>  -0.1500 
 13 C       -1.6480     2.3750    -2.1650 C.ar  1 <1>  -0.1500 
 14 C        2.8110     5.9660     1.7100 C.ar  1 <1>   0.4100 
 15 C       -1.9960     1.2840    -1.3910 C.ar  1 <1>  -0.1500 
 16 N        3.0600     7.0550     1.0080 N.ar  1 <1>  -0.6200 
 17 C        3.8380     5.0440     1.9840 C.ar  1 <1>  -0.1500 
 18 C        4.0100     6.9150     0.0940 C.ar  1 <1>   0.7710 
 19 C        4.8810     4.9860     1.1210 C.ar  1 <1>   0.2180 
 20 N        4.8670     5.8810     0.1060 N.ar  1 <1>  -0.1790 
 21 N        4.1500     7.8550    -0.8700 N.pl3 1 <1>  -0.8380 
 22 C        6.0210     3.9790     1.2270 C.3   1 <1>  -0.0170 
 23 C        4.1300     7.4620    -2.3220 C.3   1 <1>   0.2090 
 24 C        3.6690     9.2610    -0.6610 C.3   1 <1>   0.2090 
 25 C        6.3030     3.2380    -0.0880 C.3   1 <1>  -0.2400 
 26 C        2.7980     7.8570    -2.9920 C.3   1 <1>   0.1200 
 27 C        2.3550     9.5170    -1.4170 C.3   1 <1>   0.1200 
 28 O        2.5100     9.2100    -2.7720 O.3   1 <1>  -0.5600 
 29 H        1.8840     3.4910     1.7580 H     1 <1>   0.0800 
 30 H        0.2550     3.9570     2.1700 H     1 <1>   0.0800 
 31 H       -1.0480     5.5720     0.0370 H     1 <1>   0.0800 
 32 H        0.3140     6.2620    -0.7960 H     1 <1>   0.0800 
 33 H       -0.1670     1.9390     1.3470 H     1 <1>   0.1500 
 34 H       -0.4940     4.1610    -2.2870 H     1 <1>   0.1500 
 35 H       -0.4210     6.4200     2.0440 H     1 <1>   0.0800 
 36 H        0.6810     7.4460     1.1590 H     1 <1>   0.0800 
 37 H       -1.7170     0.2900     0.4760 H     1 <1>   0.1500 
 38 H       -2.0540     2.4890    -3.1550 H     1 <1>   0.1500 
 39 H       -2.6780     0.5460    -1.7740 H     1 <1>   0.1500 
 40 H        3.7250     4.3750     2.8140 H     1 <1>   0.1500 
 41 H        5.4390     5.7720    -0.7160 H     1 <1>   0.4570 
 42 H        5.7710     3.2510     1.9800 H     1 <1>   0.0800 
 43 H        6.9120     4.4870     1.5480 H     1 <1>   0.0800 
 44 H        4.2540     6.3980    -2.4350 H     1 <1>   0.0800 
 45 H        4.9370     7.9510    -2.8390 H     1 <1>   0.0800 
 46 H        4.4160     9.9470    -1.0200 H     1 <1>   0.0800 
 47 H        3.5220     9.4600     0.3860 H     1 <1>   0.0800 
 48 H        5.4120     2.7400    -0.4320 H     1 <1>   0.0800 
 49 H        7.0620     2.4910     0.0680 H     1 <1>   0.0800 
 50 H        6.6420     3.9070    -0.8570 H     1 <1>   0.0800 
 51 H        1.9880     7.2650    -2.6050 H     1 <1>   0.0800 
 52 H        2.8550     7.6970    -4.0540 H     1 <1>   0.0800 
 53 H        2.0770    10.5530    -1.3420 H     1 <1>   0.0800 
 54 H        1.5630     8.9120    -1.0100 H     1 <1>   0.0800 
@<TRIPOS>BOND
  1   1   2  ar  
  2   2   3  ar  
  3   2   4  1   
  4   4   5  1   
  5   4   6  1   
  6   4   7  1   
  7   5   8  ar  
  8   5   9  ar  
  9   6  10  1   
 10   6  29  1   
 11   6  30  1   
 12   7  11  1   
 13   7  31  1   
 14   7  32  1   
 15   8  12  ar  
 16   8  33  1   
 17   9  13  ar  
 18   9  34  1   
 19  10  11  1   
 20  10  14  1   
 21  11  35  1   
 22  11  36  1   
 23  12  15  ar  
 24  12  37  1   
 25  13  15  ar  
 26  13  38  1   
 27  14  16  ar  
 28  14  17  ar  
 29  15  39  1   
 30  16  18  ar  
 31  17  19  ar  
 32  17  40  1   
 33  18  20  ar  
 34  18  21  1   
 35  19  20  ar  
 36  19  22  1   
 37  20  41  1   
 38  21  23  1   
 39  21  24  1   
 40  22  25  1   
 41  22  42  1   
 42  22  43  1   
 43  23  26  1   
 44  23  44  1   
 45  23  45  1   
 46  24  27  1   
 47  24  46  1   
 48  24  47  1   
 49  25  48  1   
 50  25  49  1   
 51  25  50  1   
 52  26  28  1   
 53  26  51  1   
 54  26  52  1   
 55  27  28  1   
 56  27  53  1   
 57  27  54  1   
@<TRIPOS>SUBSTRUCTURE
  1 ****   2 GROUP 4 **** **** 0

# MOE 2024.06 (io_trps.svl 2023.06)
