@<TRIPOS>MOLECULE
NONAME
48 50 1 0 0 
SMALL
USER_CHARGES


@<TRIPOS>ATOM
  1 O       -0.0710     0.3110     0.8030 O.2   1 <1>  -0.5700 
  2 C       -0.9610     1.1350     0.7270 C.2   1 <1>   0.5690 
  3 N       -1.9740     0.9510    -0.1950 N.am  1 <1>  -0.6600 
  4 C       -0.8850     2.3470     1.7150 C.3   1 <1>   0.3410 
  5 C       -1.9810    -0.2800    -1.0660 C.3   1 <1>   0.1400 
  6 C       -3.0960     1.8920    -0.4920 C.3   1 <1>   0.1400 
  7 O       -1.0920     3.6090     1.0870 O.3   1 <1>  -0.3630 
  8 C       -1.9970     2.2280     2.7710 C.3   1 <1>  -0.2400 
  9 C        0.4530     2.4540     2.4800 C.3   1 <1>  -0.2400 
 10 C       -3.3800    -0.6870    -1.5750 C.3   1 <1>   0.2000 
 11 C       -4.4560     1.2170    -0.2530 C.3   1 <1>  -0.1600 
 12 C       -0.5010     4.0820    -0.0440 C.ar  1 <1>   0.0820 
 13 O       -3.6520    -0.0560    -2.7790 O.3   1 <1>  -0.6800 
 14 C       -4.4710    -0.3000    -0.5710 C.3   1 <1>  -0.1860 
 15 C       -0.9890     5.3250    -0.5250 C.ar  1 <1>   0.0000 
 16 C        0.5050     3.4260    -0.7170 C.ar  1 <1>  -0.1500 
 17 C       -5.8280    -0.7850    -1.0410 C.2   1 <1>   0.9060 
 18 C       -0.4270     5.8700    -1.7020 C.ar  1 <1>   0.0000 
 19 C       -2.0190     6.0540     0.1120 C.ar  1 <1>  -0.1500 
 20 C        1.0560     3.9710    -1.8790 C.ar  1 <1>  -0.1500 
 21 O       -6.5240    -1.4420    -0.2640 O.co2 1 <1>  -0.9000 
 22 O       -6.1860    -0.5160    -2.1970 O.co2 1 <1>  -0.9000 
 23 C        0.5990     5.1650    -2.3590 C.ar  1 <1>  -0.1500 
 24 C       -0.9100     7.1020    -2.1880 C.ar  1 <1>  -0.1500 
 25 C       -2.4690     7.2480    -0.3800 C.ar  1 <1>  -0.1500 
 26 C       -1.9080     7.7790    -1.5450 C.ar  1 <1>  -0.1500 
 27 H       -1.3220    -0.1340    -1.9030 H     1 <1>   0.0800 
 28 H       -1.5990    -1.1020    -0.4870 H     1 <1>   0.0800 
 29 H       -3.0440     2.7910     0.0880 H     1 <1>   0.0800 
 30 H       -3.0230     2.1760    -1.5280 H     1 <1>   0.0800 
 31 H       -1.8790     1.3120     3.3210 H     1 <1>   0.0800 
 32 H       -2.9640     2.2100     2.3050 H     1 <1>   0.0800 
 33 H       -1.9560     3.0510     3.4600 H     1 <1>   0.0800 
 34 H        0.6010     1.5740     3.0800 H     1 <1>   0.0800 
 35 H        0.4520     3.3130     3.1250 H     1 <1>   0.0800 
 36 H        1.2820     2.5280     1.8030 H     1 <1>   0.0800 
 37 H       -3.4090    -1.7470    -1.7650 H     1 <1>   0.0800 
 38 H       -4.7640     1.3610     0.7670 H     1 <1>   0.0800 
 39 H       -5.1800     1.7150    -0.8740 H     1 <1>   0.0800 
 40 H       -4.6470    -0.1200    -2.8890 H     1 <1>   0.4000 
 41 H       -4.2560    -0.8270     0.3400 H     1 <1>   0.0800 
 42 H        0.9020     2.4850    -0.3910 H     1 <1>   0.1500 
 43 H       -2.4540     5.6510     1.0090 H     1 <1>   0.1500 
 44 H        1.8400     3.4350    -2.3860 H     1 <1>   0.1500 
 45 H        1.0200     5.5860    -3.2540 H     1 <1>   0.1500 
 46 H       -0.4740     7.5050    -3.0840 H     1 <1>   0.1500 
 47 H       -3.2540     7.7900     0.1180 H     1 <1>   0.1500 
 48 H       -2.2730     8.7190    -1.9210 H     1 <1>   0.1500 
@<TRIPOS>BOND
  1   1   2  2   
  2   2   3  am  
  3   2   4  1   
  4   3   5  1   
  5   3   6  1   
  6   4   7  1   
  7   4   8  1   
  8   4   9  1   
  9   5  10  1   
 10   5  27  1   
 11   5  28  1   
 12   6  11  1   
 13   6  29  1   
 14   6  30  1   
 15   7  12  1   
 16   8  31  1   
 17   8  32  1   
 18   8  33  1   
 19   9  34  1   
 20   9  35  1   
 21   9  36  1   
 22  10  13  1   
 23  10  14  1   
 24  10  37  1   
 25  11  14  1   
 26  11  38  1   
 27  11  39  1   
 28  12  15  ar  
 29  12  16  ar  
 30  13  40  1   
 31  14  17  1   
 32  14  41  1   
 33  15  18  ar  
 34  15  19  ar  
 35  16  20  ar  
 36  16  42  1   
 37  17  21  ar  
 38  17  22  ar  
 39  18  23  ar  
 40  18  24  ar  
 41  19  25  ar  
 42  19  43  1   
 43  20  23  ar  
 44  20  44  1   
 45  23  45  1   
 46  24  26  ar  
 47  24  46  1   
 48  25  26  ar  
 49  25  47  1   
 50  26  48  1   
@<TRIPOS>SUBSTRUCTURE
  1 ****   6 GROUP 4 **** **** 0

# MOE 2024.06 (io_trps.svl 2023.06)
