@<TRIPOS>MOLECULE
NONAME
59 63 1 0 0 
SMALL
USER_CHARGES


@<TRIPOS>ATOM
  1 O        0.2820     1.4170     1.7440 O.2   1 <1>  -0.5700 
  2 C        0.2730     1.7750     0.5800 C.2   1 <1>   0.6900 
  3 N       -0.8160     2.4260     0.0660 N.am  1 <1>  -0.6600 
  4 N        1.3260     1.5250    -0.2370 N.am  1 <1>  -0.7300 
  5 C       -2.0920     2.4610     0.8490 C.3   1 <1>   0.1400 
  6 C       -0.7800     3.1940    -1.2130 C.3   1 <1>   0.1400 
  7 C        2.5760     0.8070     0.0560 C.3   1 <1>   0.3000 
  8 C       -3.3390     2.5790    -0.0610 C.3   1 <1>   0.0000 
  9 C       -1.7920     4.3410    -1.1830 C.3   1 <1>  -0.1600 
 10 C        2.2920    -0.6540     0.4530 C.3   1 <1>  -0.1600 
 11 C        3.4230     0.8150    -1.2310 C.3   1 <1>  -0.1600 
 12 C        3.3700     1.5100     1.1740 C.3   1 <1>  -0.1600 
 13 C       -4.6070     2.5500     0.8180 C.3   1 <1>   0.2000 
 14 C       -3.2340     3.8660    -0.9260 C.3   1 <1>  -0.1600 
 15 C       -3.5050     1.2990    -0.9070 C.3   1 <1>  -0.1600 
 16 C        3.6170    -1.4000     0.7000 C.3   1 <1>  -0.0800 
 17 C        4.7550     0.0750    -1.0030 C.3   1 <1>  -0.0800 
 18 C        4.6990     0.7690     1.4230 C.3   1 <1>  -0.0800 
 19 O       -5.6980     3.0210     0.0770 O.3   1 <1>  -0.5600 
 20 C       -4.8440     1.0690     1.1360 C.3   1 <1>  -0.1600 
 21 C       -4.1790     0.2700     0.0080 C.3   1 <1>  -0.1600 
 22 C        4.4600    -1.3800    -0.5890 C.3   1 <1>  -0.1600 
 23 C        4.3960    -0.6880     1.8240 C.3   1 <1>  -0.1600 
 24 C        5.5330     0.7750     0.1280 C.3   1 <1>  -0.1600 
 25 C       -6.7480     3.5350     0.8340 C.3   1 <1>   0.0400 
 26 H        1.1660     1.6900    -1.2230 H     1 <1>   0.3700 
 27 H       -2.1580     1.5710     1.4510 H     1 <1>   0.0800 
 28 H       -2.0540     3.3030     1.5170 H     1 <1>   0.0800 
 29 H        0.2050     3.5990    -1.3650 H     1 <1>   0.0800 
 30 H       -1.0100     2.5310    -2.0290 H     1 <1>   0.0800 
 31 H       -1.4970     5.0230    -0.4040 H     1 <1>   0.0800 
 32 H       -1.7520     4.8820    -2.1120 H     1 <1>   0.0800 
 33 H        1.7030    -0.6810     1.3520 H     1 <1>   0.0800 
 34 H        1.7360    -1.1440    -0.3260 H     1 <1>   0.0800 
 35 H        2.8840     0.3310    -2.0260 H     1 <1>   0.0800 
 36 H        3.6280     1.8290    -1.5260 H     1 <1>   0.0800 
 37 H        3.5670     2.5300     0.8970 H     1 <1>   0.0800 
 38 H        2.7980     1.5150     2.0840 H     1 <1>   0.0800 
 39 H       -4.4910     3.1550     1.7020 H     1 <1>   0.0800 
 40 H       -3.7340     3.7070    -1.8660 H     1 <1>   0.0800 
 41 H       -3.7550     4.6700    -0.4360 H     1 <1>   0.0800 
 42 H       -4.1710     1.4980    -1.7290 H     1 <1>   0.0800 
 43 H       -2.5780     0.9250    -1.3010 H     1 <1>   0.0800 
 44 H        3.4130    -2.4180     0.9880 H     1 <1>   0.0800 
 45 H        5.3400     0.0850    -1.9070 H     1 <1>   0.0800 
 46 H        5.2440     1.2590     2.2120 H     1 <1>   0.0800 
 47 H       -4.3640     0.8260     2.0670 H     1 <1>   0.0800 
 48 H       -5.8910     0.8360     1.2200 H     1 <1>   0.0800 
 49 H       -3.4410    -0.3990     0.4180 H     1 <1>   0.0800 
 50 H       -4.9050    -0.3040    -0.5420 H     1 <1>   0.0800 
 51 H        3.9290    -1.8840    -1.3780 H     1 <1>   0.0800 
 52 H        5.3830    -1.9080    -0.4280 H     1 <1>   0.0800 
 53 H        5.3160    -1.2110     2.0180 H     1 <1>   0.0800 
 54 H        3.8160    -0.7010     2.7310 H     1 <1>   0.0800 
 55 H        5.7580     1.7880    -0.1560 H     1 <1>   0.0800 
 56 H        6.4670     0.2680     0.2960 H     1 <1>   0.0800 
 57 H       -7.5310     3.8310     0.1590 H     1 <1>   0.0800 
 58 H       -6.4000     4.3920     1.3830 H     1 <1>   0.0800 
 59 H       -7.1140     2.7770     1.5040 H     1 <1>   0.0800 
@<TRIPOS>BOND
  1   1   2  2   
  2   2   3  am  
  3   2   4  am  
  4   3   5  1   
  5   3   6  1   
  6   4   7  1   
  7   4  26  1   
  8   5   8  1   
  9   5  27  1   
 10   5  28  1   
 11   6   9  1   
 12   6  29  1   
 13   6  30  1   
 14   7  10  1   
 15   7  11  1   
 16   7  12  1   
 17   8  13  1   
 18   8  14  1   
 19   8  15  1   
 20   9  14  1   
 21   9  31  1   
 22   9  32  1   
 23  10  16  1   
 24  10  33  1   
 25  10  34  1   
 26  11  17  1   
 27  11  35  1   
 28  11  36  1   
 29  12  18  1   
 30  12  37  1   
 31  12  38  1   
 32  13  19  1   
 33  13  20  1   
 34  13  39  1   
 35  14  40  1   
 36  14  41  1   
 37  15  21  1   
 38  15  42  1   
 39  15  43  1   
 40  16  22  1   
 41  16  23  1   
 42  16  44  1   
 43  17  22  1   
 44  17  24  1   
 45  17  45  1   
 46  18  23  1   
 47  18  24  1   
 48  18  46  1   
 49  19  25  1   
 50  20  21  1   
 51  20  47  1   
 52  20  48  1   
 53  21  49  1   
 54  21  50  1   
 55  22  51  1   
 56  22  52  1   
 57  23  53  1   
 58  23  54  1   
 59  24  55  1   
 60  24  56  1   
 61  25  57  1   
 62  25  58  1   
 63  25  59  1   
@<TRIPOS>SUBSTRUCTURE
  1 ****   2 GROUP 4 **** **** 0

# MOE 2024.06 (io_trps.svl 2023.06)
