@<TRIPOS>MOLECULE
NONAME
46 48 1 0 0 
SMALL
USER_CHARGES


@<TRIPOS>ATOM
  1 S        0.9360    -0.3060    -2.8360 S.3   1 <1>  -0.0800 
  2 C        1.1730    -1.1940    -1.3480 C.2   1 <1>   0.1980 
  3 C        1.2370     1.1700    -1.9680 C.2   1 <1>  -0.1100 
  4 N        1.4320    -0.4640    -0.3350 N.2   1 <1>  -0.5650 
  5 C        1.0290    -2.7070    -1.4170 C.3   1 <1>   0.5230 
  6 C        1.4750     0.8760    -0.6810 C.2   1 <1>   0.0460 
  7 N       -0.3280    -3.1570    -0.9600 N.4   1 <1>  -0.9590 
  8 C        1.7890     1.8640     0.4220 C.3   1 <1>  -0.0590 
  9 C       -0.4670    -4.6320    -1.2180 C.3   1 <1>   0.3430 
 10 C       -0.5780    -2.7560     0.4590 C.3   1 <1>   0.3430 
 11 C       -0.7770    -5.4820     0.0190 C.3   1 <1>  -0.1060 
 12 C       -1.8940    -3.3490     0.9600 C.3   1 <1>  -0.1600 
 13 C       -1.1790    -6.8370    -0.5270 C.2   1 <1>   0.9060 
 14 C       -2.0180    -4.8570     0.6840 C.3   1 <1>   0.2000 
 15 C        0.4220    -5.6820     1.0040 C.3   1 <1>  -0.0170 
 16 O       -0.8840    -7.1160    -1.6920 O.co2 1 <1>  -0.9000 
 17 O       -1.8130    -7.6010     0.2070 O.co2 1 <1>  -0.9000 
 18 O       -2.2720    -5.5080     1.8700 O.3   1 <1>  -0.6800 
 19 C        1.8020    -5.3870     0.4240 C.ar  1 <1>  -0.1440 
 20 C        2.2740    -6.0970    -0.6690 C.ar  1 <1>  -0.1500 
 21 C        2.6040    -4.4070     0.9940 C.ar  1 <1>  -0.1500 
 22 C        3.5120    -5.8030    -1.2140 C.ar  1 <1>  -0.1500 
 23 C        3.8420    -4.1130     0.4500 C.ar  1 <1>  -0.1500 
 24 C        4.2950    -4.8070    -0.6580 C.ar  1 <1>  -0.1500 
 25 H        1.2060     2.0970    -2.5130 H     1 <1>   0.1500 
 26 H        1.7880    -3.1500    -0.8010 H     1 <1>   0.0800 
 27 H        1.2000    -3.0290    -2.4300 H     1 <1>   0.0800 
 28 H       -1.0200    -2.6740    -1.5420 H     1 <1>   0.4500 
 29 H        1.8040     2.8670     0.0350 H     1 <1>   0.0800 
 30 H        2.7510     1.6400     0.8460 H     1 <1>   0.0800 
 31 H        1.0450     1.7990     1.1940 H     1 <1>   0.0800 
 32 H       -1.2740    -4.7830    -1.9190 H     1 <1>   0.0800 
 33 H        0.4160    -5.0210    -1.6980 H     1 <1>   0.0800 
 34 H        0.2280    -3.1110     1.0790 H     1 <1>   0.0800 
 35 H       -0.6080    -1.6810     0.5440 H     1 <1>   0.0800 
 36 H       -2.7080    -2.8400     0.4780 H     1 <1>   0.0800 
 37 H       -1.9770    -3.1550     2.0150 H     1 <1>   0.0800 
 38 H       -2.8780    -5.0260     0.0530 H     1 <1>   0.0800 
 39 H        0.2820    -5.0740     1.8790 H     1 <1>   0.0800 
 40 H        0.4200    -6.6980     1.3660 H     1 <1>   0.0800 
 41 H       -2.3010    -6.4820     1.6490 H     1 <1>   0.4000 
 42 H        1.6790    -6.8870    -1.1030 H     1 <1>   0.1500 
 43 H        2.2740    -3.8680     1.8650 H     1 <1>   0.1500 
 44 H        3.8670    -6.3600    -2.0650 H     1 <1>   0.1500 
 45 H        4.4590    -3.3500     0.8950 H     1 <1>   0.1500 
 46 H        5.2600    -4.5820    -1.0790 H     1 <1>   0.1500 
@<TRIPOS>BOND
  1   1   2  1   
  2   1   3  1   
  3   2   4  2   
  4   2   5  1   
  5   3   6  2   
  6   3  25  1   
  7   4   6  1   
  8   5   7  1   
  9   5  26  1   
 10   5  27  1   
 11   6   8  1   
 12   7   9  1   
 13   7  10  1   
 14   7  28  1   
 15   8  29  1   
 16   8  30  1   
 17   8  31  1   
 18   9  11  1   
 19   9  32  1   
 20   9  33  1   
 21  10  12  1   
 22  10  34  1   
 23  10  35  1   
 24  11  13  1   
 25  11  14  1   
 26  11  15  1   
 27  12  14  1   
 28  12  36  1   
 29  12  37  1   
 30  13  16  ar  
 31  13  17  ar  
 32  14  18  1   
 33  14  38  1   
 34  15  19  1   
 35  15  39  1   
 36  15  40  1   
 37  18  41  1   
 38  19  20  ar  
 39  19  21  ar  
 40  20  22  ar  
 41  20  42  1   
 42  21  23  ar  
 43  21  43  1   
 44  22  24  ar  
 45  22  44  1   
 46  23  24  ar  
 47  23  45  1   
 48  24  46  1   
@<TRIPOS>SUBSTRUCTURE
  1 ****   7 GROUP 4 **** **** 0

# MOE 2024.06 (io_trps.svl 2023.06)
