@<TRIPOS>MOLECULE
NONAME
52 55 1 0 0 
SMALL
USER_CHARGES


@<TRIPOS>ATOM
  1 S        2.3110     0.1180     0.0000 S.3   1 <1>  -0.0800 
  2 C        1.4240     1.6190    -0.1630 C.2   1 <1>  -0.1400 
  3 C        3.7380     0.9980     0.5340 C.2   1 <1>  -0.1100 
  4 C        2.1780     2.6810     0.1480 C.2   1 <1>  -0.1810 
  5 C       -0.0170     1.6750    -0.5930 C.3   1 <1>   0.0200 
  6 C        3.5050     2.3250     0.5590 C.2   1 <1>  -0.1500 
  7 C        1.6190     4.1020     0.0570 C.3   1 <1>   0.4610 
  8 C       -0.5590     3.0510    -0.1730 C.3   1 <1>   0.1200 
  9 O        0.3310     4.0810    -0.5360 O.3   1 <1>  -0.5600 
 10 C        1.5240     4.7440     1.4490 C.3   1 <1>  -0.1600 
 11 C        2.4890     4.9530    -0.8750 C.3   1 <1>  -0.1600 
 12 C        1.0590     6.1960     1.3670 C.3   1 <1>   0.1400 
 13 C        2.0410     6.4160    -0.9030 C.3   1 <1>   0.1400 
 14 N        1.9970     6.9460     0.4890 N.am  1 <1>  -0.6600 
 15 C        2.8180     7.9320     1.0010 C.2   1 <1>   0.5690 
 16 O        2.6930     8.3010     2.1510 O.2   1 <1>  -0.5700 
 17 C        3.8630     8.6540     0.1070 C.3   1 <1>   0.2810 
 18 N        4.9920     7.8330    -0.4690 N.am  1 <1>  -0.6600 
 19 C        4.4930     9.8980     0.7680 C.3   1 <1>  -0.1600 
 20 C        5.4880     6.6940     0.1160 C.2   1 <1>   0.7800 
 21 C        5.7460     8.5550    -1.5290 C.3   1 <1>   0.1400 
 22 C        5.3570    10.7000    -0.2210 C.3   1 <1>  -0.1600 
 23 O        5.0650     6.2210     1.1510 O.2   1 <1>  -0.5700 
 24 O        6.4920     6.0720    -0.5100 O.3   1 <1>  -0.4300 
 25 C        6.3930     9.8000    -0.9120 C.3   1 <1>  -0.1600 
 26 C        7.0700     4.8940     0.0160 C.3   1 <1>   0.0400 
 27 H        4.6100     0.4190     0.7780 H     1 <1>   0.1500 
 28 H       -0.5830     0.8980    -0.1130 H     1 <1>   0.0800 
 29 H       -0.0890     1.5530    -1.6580 H     1 <1>   0.0800 
 30 H        4.2140     3.0790     0.8570 H     1 <1>   0.1500 
 31 H       -0.7050     3.0870     0.8920 H     1 <1>   0.0800 
 32 H       -1.5000     3.2440    -0.6570 H     1 <1>   0.0800 
 33 H        2.4950     4.7300     1.9110 H     1 <1>   0.0800 
 34 H        0.8660     4.1760     2.0770 H     1 <1>   0.0800 
 35 H        2.4530     4.5380    -1.8650 H     1 <1>   0.0800 
 36 H        3.5080     4.9110    -0.5470 H     1 <1>   0.0800 
 37 H        1.0320     6.6220     2.3550 H     1 <1>   0.0800 
 38 H        0.0660     6.2480     0.9540 H     1 <1>   0.0800 
 39 H        1.0560     6.4840    -1.3330 H     1 <1>   0.0800 
 40 H        2.7110     6.9850    -1.5200 H     1 <1>   0.0800 
 41 H        3.2900     9.0190    -0.7250 H     1 <1>   0.0800 
 42 H        5.0880     9.5780     1.6060 H     1 <1>   0.0800 
 43 H        3.7130    10.5320     1.1500 H     1 <1>   0.0800 
 44 H        5.0680     8.8420    -2.3140 H     1 <1>   0.0800 
 45 H        6.5060     7.9300    -1.9650 H     1 <1>   0.0800 
 46 H        5.8580    11.4980     0.3000 H     1 <1>   0.0800 
 47 H        4.7190    11.1430    -0.9680 H     1 <1>   0.0800 
 48 H        6.9000    10.3570    -1.6800 H     1 <1>   0.0800 
 49 H        7.1310     9.4850    -0.1950 H     1 <1>   0.0800 
 50 H        7.8700     4.5890    -0.6340 H     1 <1>   0.0800 
 51 H        6.3160     4.1280     0.0610 H     1 <1>   0.0800 
 52 H        7.4500     5.1020     1.0010 H     1 <1>   0.0800 
@<TRIPOS>BOND
  1   1   2  1   
  2   1   3  1   
  3   2   4  2   
  4   2   5  1   
  5   3   6  2   
  6   3  27  1   
  7   4   6  1   
  8   4   7  1   
  9   5   8  1   
 10   5  28  1   
 11   5  29  1   
 12   6  30  1   
 13   7   9  1   
 14   7  10  1   
 15   7  11  1   
 16   8   9  1   
 17   8  31  1   
 18   8  32  1   
 19  10  12  1   
 20  10  33  1   
 21  10  34  1   
 22  11  13  1   
 23  11  35  1   
 24  11  36  1   
 25  12  14  1   
 26  12  37  1   
 27  12  38  1   
 28  13  14  1   
 29  13  39  1   
 30  13  40  1   
 31  14  15  am  
 32  15  16  2   
 33  15  17  1   
 34  17  18  1   
 35  17  19  1   
 36  17  41  1   
 37  18  20  am  
 38  18  21  1   
 39  19  22  1   
 40  19  42  1   
 41  19  43  1   
 42  20  23  2   
 43  20  24  1   
 44  21  25  1   
 45  21  44  1   
 46  21  45  1   
 47  22  25  1   
 48  22  46  1   
 49  22  47  1   
 50  24  26  1   
 51  25  48  1   
 52  25  49  1   
 53  26  50  1   
 54  26  51  1   
 55  26  52  1   
@<TRIPOS>SUBSTRUCTURE
  1 ****  11 GROUP 4 **** **** 0

# MOE 2024.06 (io_trps.svl 2023.06)
