@<TRIPOS>MOLECULE
NONAME
41 43 1 0 0 
SMALL
USER_CHARGES


@<TRIPOS>ATOM
  1 F        2.4890    -0.2170     1.1080 F     1 <1>  -0.1900 
  2 C        3.5300     0.5750     1.0980 C.ar  1 <1>   0.1900 
  3 C        4.2960     0.6550    -0.0400 C.ar  1 <1>  -0.1500 
  4 C        3.8070     1.3040     2.2600 C.ar  1 <1>  -0.1500 
  5 C        5.3950     1.5090    -0.0140 C.ar  1 <1>   0.2270 
  6 C        4.8960     2.1480     2.2810 C.ar  1 <1>  -0.1500 
  7 N        6.3030     1.7780    -0.9930 N.2   1 <1>  -0.5650 
  8 C        5.6840     2.2380     1.1290 C.ar  1 <1>  -0.1520 
  9 C        7.1050     2.6340    -0.4580 C.2   1 <1>   0.0060 
 10 N        6.7920     2.9570     0.8220 N.pl3 1 <1>   0.0330 
 11 C        8.2910     3.2670    -1.1640 C.3   1 <1>   0.3000 
 12 O        8.2150     4.6590    -1.0500 O.3   1 <1>  -0.5600 
 13 C        7.2240     5.2460    -1.8710 C.3   1 <1>   0.1810 
 14 C        7.1580     6.7620    -1.6830 C.2   1 <1>   0.5690 
 15 O        6.3820     7.4090    -2.3430 O.2   1 <1>  -0.5700 
 16 N        7.9750     7.3470    -0.7760 N.am  1 <1>  -0.7300 
 17 C        8.0970     8.8070    -0.5400 C.3   1 <1>   0.3200 
 18 C        9.5490     9.1960    -0.3180 C.2   1 <1>   0.2980 
 19 O       10.3500     9.2440    -1.3530 O.3   1 <1>  -0.0190 
 20 N       10.0850     9.4700     0.8040 N.2   1 <1>  -0.5650 
 21 N       11.5000     9.5680    -0.8450 N.2   1 <1>  -0.4100 
 22 C       11.3380     9.6840     0.4150 C.2   1 <1>   0.3350 
 23 C       12.4430    10.0480     1.4030 C.3   1 <1>   0.3010 
 24 O       12.8520     8.9240     2.1360 O.3   1 <1>  -0.5600 
 25 C       13.8570     9.1810     3.0620 C.3   1 <1>   0.0400 
 26 H        4.0730     0.0910    -0.9240 H     1 <1>   0.1500 
 27 H        3.1640     1.1920     3.1140 H     1 <1>   0.1500 
 28 H        5.1390     2.7250     3.1570 H     1 <1>   0.1500 
 29 H        7.2740     3.6400     1.4120 H     1 <1>   0.2700 
 30 H        8.3140     2.9920    -2.2050 H     1 <1>   0.0800 
 31 H        9.2070     2.9480    -0.7000 H     1 <1>   0.0800 
 32 H        6.2650     4.8260    -1.6260 H     1 <1>   0.0800 
 33 H        7.4550     5.0320    -2.8990 H     1 <1>   0.0800 
 34 H        8.6430     6.7500    -0.2800 H     1 <1>   0.3700 
 35 H        7.5270     9.0670     0.3330 H     1 <1>   0.0800 
 36 H        7.7030     9.3530    -1.3800 H     1 <1>   0.0800 
 37 H       12.0780    10.7920     2.0880 H     1 <1>   0.0800 
 38 H       13.2920    10.4320     0.8660 H     1 <1>   0.0800 
 39 H       14.0930     8.2590     3.5630 H     1 <1>   0.0800 
 40 H       13.5040     9.9020     3.7800 H     1 <1>   0.0800 
 41 H       14.7300     9.5480     2.5500 H     1 <1>   0.0800 
@<TRIPOS>BOND
  1   1   2  1   
  2   2   3  ar  
  3   2   4  ar  
  4   3   5  ar  
  5   3  26  1   
  6   4   6  ar  
  7   4  27  1   
  8   5   7  1   
  9   5   8  ar  
 10   6   8  ar  
 11   6  28  1   
 12   7   9  2   
 13   8  10  1   
 14   9  10  1   
 15   9  11  1   
 16  10  29  1   
 17  11  12  1   
 18  11  30  1   
 19  11  31  1   
 20  12  13  1   
 21  13  14  1   
 22  13  32  1   
 23  13  33  1   
 24  14  15  2   
 25  14  16  am  
 26  16  17  1   
 27  16  34  1   
 28  17  18  1   
 29  17  35  1   
 30  17  36  1   
 31  18  19  1   
 32  18  20  2   
 33  19  21  1   
 34  20  22  1   
 35  21  22  2   
 36  22  23  1   
 37  23  24  1   
 38  23  37  1   
 39  23  38  1   
 40  24  25  1   
 41  25  39  1   
 42  25  40  1   
 43  25  41  1   
@<TRIPOS>SUBSTRUCTURE
  1 ****  12 GROUP 4 **** **** 0

# MOE 2024.06 (io_trps.svl 2023.06)
