@<TRIPOS>MOLECULE
NONAME
43 45 1 0 0 
SMALL
USER_CHARGES


@<TRIPOS>ATOM
  1 O       -0.5110    -0.5750    -0.3140 O.3   1 <1>  -0.5320 
  2 C       -0.5920    -1.9130    -0.2990 C.ar  1 <1>   0.0820 
  3 C       -1.0210    -2.5870     0.8120 C.ar  1 <1>  -0.1500 
  4 C       -0.2240    -2.6090    -1.4550 C.ar  1 <1>  -0.1500 
  5 C       -1.1010    -3.9940     0.8150 C.ar  1 <1>   0.0000 
  6 C       -0.2920    -3.9740    -1.4760 C.ar  1 <1>  -0.1500 
  7 C       -0.7310    -4.7010    -0.3500 C.ar  1 <1>   0.0000 
  8 C       -1.5340    -4.7260     1.9380 C.ar  1 <1>  -0.1500 
  9 C       -0.8160    -6.1070    -0.3450 C.ar  1 <1>  -0.1500 
 10 C       -1.6060    -6.0910     1.9160 C.ar  1 <1>  -0.1500 
 11 C       -1.2500    -6.7980     0.7570 C.ar  1 <1>  -0.1440 
 12 C       -1.3560    -8.3110     0.7370 C.3   1 <1>   0.4860 
 13 N       -2.7930    -8.6880     0.7100 N.4   1 <1>  -0.9590 
 14 C       -2.9760   -10.1710     0.9460 C.3   1 <1>   0.3430 
 15 C       -3.4580    -8.2270    -0.5450 C.3   1 <1>   0.3430 
 16 C       -4.2560   -10.7640     0.3040 C.3   1 <1>   0.2000 
 17 C       -4.9730    -8.4340    -0.4370 C.3   1 <1>  -0.1600 
 18 O       -3.9610   -11.1060    -1.0120 O.3   1 <1>  -0.6800 
 19 C       -5.3880    -9.7220     0.3210 C.3   1 <1>  -0.0800 
 20 C       -6.7240   -10.2880    -0.1840 C.3   1 <1>   0.1200 
 21 O       -7.6920    -9.3170    -0.0080 O.3   1 <1>  -0.6800 
 22 H       -0.7730    -0.1600     0.5260 H     1 <1>   0.4500 
 23 H       -1.3020    -2.0550     1.7010 H     1 <1>   0.1500 
 24 H        0.1100    -2.0460    -2.3080 H     1 <1>   0.1500 
 25 H       -0.0060    -4.5110    -2.3630 H     1 <1>   0.1500 
 26 H       -1.8060    -4.1810     2.8250 H     1 <1>   0.1500 
 27 H       -0.5250    -6.6200    -1.2450 H     1 <1>   0.1500 
 28 H       -1.9320    -6.6190     2.7960 H     1 <1>   0.1500 
 29 H       -0.8810    -8.7100     1.6180 H     1 <1>   0.0800 
 30 H       -0.8540    -8.7050    -0.1320 H     1 <1>   0.0800 
 31 H       -3.2520    -8.1690     1.4680 H     1 <1>   0.4500 
 32 H       -2.1330   -10.7170     0.5540 H     1 <1>   0.0800 
 33 H       -3.0150   -10.3470     2.0080 H     1 <1>   0.0800 
 34 H       -3.2510    -7.1840    -0.7290 H     1 <1>   0.0800 
 35 H       -3.0810    -8.8000    -1.3770 H     1 <1>   0.0800 
 36 H       -4.5390   -11.6650     0.8210 H     1 <1>   0.0800 
 37 H       -5.4220    -7.5800     0.0420 H     1 <1>   0.0800 
 38 H       -5.3620    -8.4610    -1.4400 H     1 <1>   0.0800 
 39 H       -4.6880   -11.6230    -1.4190 H     1 <1>   0.4000 
 40 H       -5.5430    -9.4620     1.3550 H     1 <1>   0.0800 
 41 H       -7.0170   -11.1580     0.3800 H     1 <1>   0.0800 
 42 H       -6.6780   -10.5320    -1.2320 H     1 <1>   0.0800 
 43 H       -8.5700    -9.6300    -0.3100 H     1 <1>   0.4000 
@<TRIPOS>BOND
  1   1   2  1   
  2   1  22  1   
  3   2   3  ar  
  4   2   4  ar  
  5   3   5  ar  
  6   3  23  1   
  7   4   6  ar  
  8   4  24  1   
  9   5   7  ar  
 10   5   8  ar  
 11   6   7  ar  
 12   6  25  1   
 13   7   9  ar  
 14   8  10  ar  
 15   8  26  1   
 16   9  11  ar  
 17   9  27  1   
 18  10  11  ar  
 19  10  28  1   
 20  11  12  1   
 21  12  13  1   
 22  12  29  1   
 23  12  30  1   
 24  13  14  1   
 25  13  15  1   
 26  13  31  1   
 27  14  16  1   
 28  14  32  1   
 29  14  33  1   
 30  15  17  1   
 31  15  34  1   
 32  15  35  1   
 33  16  18  1   
 34  16  19  1   
 35  16  36  1   
 36  17  19  1   
 37  17  37  1   
 38  17  38  1   
 39  18  39  1   
 40  19  20  1   
 41  19  40  1   
 42  20  21  1   
 43  20  41  1   
 44  20  42  1   
 45  21  43  1   
@<TRIPOS>SUBSTRUCTURE
  1 ****  11 GROUP 4 **** **** 0

# MOE 2024.06 (io_trps.svl 2023.06)
