@<TRIPOS>MOLECULE
NONAME
52 54 1 0 0 
SMALL
USER_CHARGES


@<TRIPOS>ATOM
  1 O       -0.4830     0.3560    -0.8840 O.2   1 <1>  -0.5700 
  2 C       -1.4350     0.9910    -0.4700 C.2   1 <1>   0.5440 
  3 N       -2.5870     0.3240    -0.1120 N.am  1 <1>  -0.6600 
  4 C       -1.3160     2.4340    -0.3640 C.ar  1 <1>   0.0860 
  5 C       -2.8130    -1.1190    -0.4380 C.3   1 <1>   0.1400 
  6 C       -3.6830     0.9120     0.7090 C.3   1 <1>   0.1400 
  7 C       -0.2640     3.0080     0.3430 C.ar  1 <1>  -0.1500 
  8 C       -2.2340     3.2900    -0.9700 C.ar  1 <1>  -0.1500 
  9 C       -4.1410    -1.2650    -1.1960 C.3   1 <1>   0.2000 
 10 C       -5.0190     0.7690    -0.0350 C.3   1 <1>  -0.1600 
 11 C       -0.1350     4.3880     0.4610 C.ar  1 <1>   0.0820 
 12 C       -2.1180     4.6630    -0.8580 C.ar  1 <1>  -0.1500 
 13 O       -4.3460    -2.5980    -1.5140 O.3   1 <1>  -0.6800 
 14 C       -5.3460    -0.7120    -0.3900 C.3   1 <1>  -0.1060 
 15 O        0.8820     4.9750     1.1470 O.3   1 <1>  -0.3630 
 16 C       -1.0720     5.2210    -0.1420 C.ar  1 <1>  -0.1440 
 17 C       -5.5440    -1.5720     0.8750 C.2   1 <1>   0.9060 
 18 C       -6.6230    -0.7940    -1.2720 C.3   1 <1>  -0.0160 
 19 C        1.9310     4.2160     1.7080 C.3   1 <1>   0.0400 
 20 C       -0.9540     6.7340    -0.0260 C.3   1 <1>  -0.0960 
 21 O       -5.6980    -1.0430     1.9820 O.co2 1 <1>  -0.9000 
 22 O       -5.5360    -2.8080     0.7600 O.co2 1 <1>  -0.9000 
 23 C       -7.7780     0.1080    -0.8400 C.ar  1 <1>  -0.1440 
 24 C       -8.4580    -0.1330     0.3440 C.ar  1 <1>  -0.1500 
 25 C       -8.1640     1.1800    -1.6330 C.ar  1 <1>  -0.1500 
 26 C       -9.5040     0.6850     0.7330 C.ar  1 <1>  -0.1500 
 27 C       -9.2120     1.9980    -1.2470 C.ar  1 <1>  -0.1500 
 28 C       -9.8830     1.7510    -0.0630 C.ar  1 <1>  -0.1500 
 29 H       -2.0150    -1.4960    -1.0520 H     1 <1>   0.0800 
 30 H       -2.8450    -1.6870     0.4760 H     1 <1>   0.0800 
 31 H       -3.7300     0.3910     1.6510 H     1 <1>   0.0800 
 32 H       -3.4970     1.9480     0.9280 H     1 <1>   0.0800 
 33 H        0.4430     2.3390     0.7940 H     1 <1>   0.1500 
 34 H       -3.0460     2.8660    -1.5340 H     1 <1>   0.1500 
 35 H       -4.0460    -0.7380    -2.1290 H     1 <1>   0.0800 
 36 H       -5.7930     1.1670     0.5980 H     1 <1>   0.0800 
 37 H       -4.9910     1.3660    -0.9270 H     1 <1>   0.0800 
 38 H       -2.8460     5.2960    -1.3350 H     1 <1>   0.1500 
 39 H       -4.7780    -3.0030    -0.6990 H     1 <1>   0.4000 
 40 H       -6.3620    -0.5460    -2.2850 H     1 <1>   0.0800 
 41 H       -6.9740    -1.8120    -1.2910 H     1 <1>   0.0800 
 42 H        2.6300     4.8970     2.1600 H     1 <1>   0.0800 
 43 H        2.4160     3.6590     0.9260 H     1 <1>   0.0800 
 44 H        1.5250     3.5590     2.4560 H     1 <1>   0.0800 
 45 H       -1.7560     7.2300    -0.5420 H     1 <1>   0.0800 
 46 H       -0.0200     7.0580    -0.4500 H     1 <1>   0.0800 
 47 H       -0.9790     7.0220     1.0090 H     1 <1>   0.0800 
 48 H       -8.1670    -0.9580     0.9750 H     1 <1>   0.1500 
 49 H       -7.6480     1.3810    -2.5540 H     1 <1>   0.1500 
 50 H      -10.0150     0.4850     1.6580 H     1 <1>   0.1500 
 51 H       -9.5050     2.8260    -1.8680 H     1 <1>   0.1500 
 52 H      -10.6960     2.3860     0.2420 H     1 <1>   0.1500 
@<TRIPOS>BOND
  1   1   2  2   
  2   2   3  am  
  3   2   4  1   
  4   3   5  1   
  5   3   6  1   
  6   4   7  ar  
  7   4   8  ar  
  8   5   9  1   
  9   5  29  1   
 10   5  30  1   
 11   6  10  1   
 12   6  31  1   
 13   6  32  1   
 14   7  11  ar  
 15   7  33  1   
 16   8  12  ar  
 17   8  34  1   
 18   9  13  1   
 19   9  14  1   
 20   9  35  1   
 21  10  14  1   
 22  10  36  1   
 23  10  37  1   
 24  11  15  1   
 25  11  16  ar  
 26  12  16  ar  
 27  12  38  1   
 28  13  39  1   
 29  14  17  1   
 30  14  18  1   
 31  15  19  1   
 32  16  20  1   
 33  17  21  ar  
 34  17  22  ar  
 35  18  23  1   
 36  18  40  1   
 37  18  41  1   
 38  19  42  1   
 39  19  43  1   
 40  19  44  1   
 41  20  45  1   
 42  20  46  1   
 43  20  47  1   
 44  23  24  ar  
 45  23  25  ar  
 46  24  26  ar  
 47  24  48  1   
 48  25  27  ar  
 49  25  49  1   
 50  26  28  ar  
 51  26  50  1   
 52  27  28  ar  
 53  27  51  1   
 54  28  52  1   
@<TRIPOS>SUBSTRUCTURE
  1 ****   6 GROUP 4 **** **** 0

# MOE 2024.06 (io_trps.svl 2023.06)
