@<TRIPOS>MOLECULE
NONAME
53 55 1 0 0 
SMALL
USER_CHARGES


@<TRIPOS>ATOM
  1 O       -0.4850     0.8120     0.6570 O.2   1 <1>  -0.5700 
  2 C        0.3740     0.6210    -0.1820 C.2   1 <1>   0.5440 
  3 N        1.1330     1.6780    -0.5930 N.am  1 <1>  -0.7300 
  4 C        0.6380    -0.7040    -0.7070 C.ar  1 <1>   0.0860 
  5 C        1.1900     3.0040     0.0590 C.3   1 <1>   0.1400 
  6 C        0.4650    -1.8370     0.0830 C.ar  1 <1>  -0.1500 
  7 C        1.0990    -0.8990    -2.0090 C.ar  1 <1>  -0.1500 
  8 C        2.5950     3.2200     0.6400 C.3   1 <1>   0.2090 
  9 C        0.7480    -3.1150    -0.3670 C.ar  1 <1>   0.1000 
 10 C        1.3850    -2.1630    -2.4910 C.ar  1 <1>  -0.1500 
 11 N        3.6480     2.7950    -0.3280 N.pl3 1 <1>  -0.8690 
 12 N        0.5410    -4.1640     0.5390 N.pl3 1 <1>  -0.8380 
 13 C        1.2180    -3.2820    -1.6820 C.ar  1 <1>   0.0830 
 14 C        4.8280     2.3540     0.1950 C.ar  1 <1>   0.4100 
 15 C       -0.5750    -5.0940     0.2000 C.3   1 <1>   0.2090 
 16 C        1.7530    -4.9260     0.9560 C.3   1 <1>   0.2090 
 17 O        1.4920    -4.5430    -2.1260 O.3   1 <1>  -0.3630 
 18 N        5.7780     3.2690     0.1310 N.ar  1 <1>  -0.6200 
 19 C        5.0000     1.0710     0.7330 C.ar  1 <1>  -0.1430 
 20 C       -0.8190    -6.0890     1.3500 C.3   1 <1>   0.1200 
 21 C        1.4060    -5.9250     2.0750 C.3   1 <1>   0.1200 
 22 C        1.9170    -4.7980    -3.4460 C.3   1 <1>   0.0400 
 23 C        6.9470     2.9180     0.6370 C.ar  1 <1>   0.1600 
 24 C        6.2290     0.7330     1.2570 C.ar  1 <1>  -0.1500 
 25 C        3.8790     0.0390     0.7350 C.3   1 <1>  -0.0970 
 26 O        0.3580    -6.7740     1.6880 O.3   1 <1>  -0.5600 
 27 C        7.2230     1.6890     1.2060 C.ar  1 <1>  -0.1500 
 28 H        2.0220     1.4810    -1.0700 H     1 <1>   0.3700 
 29 H        0.4530     3.0790     0.8390 H     1 <1>   0.0800 
 30 H        0.9830     3.7630    -0.6740 H     1 <1>   0.0800 
 31 H        0.1000    -1.7210     1.0880 H     1 <1>   0.1500 
 32 H        1.2300    -0.0480    -2.6540 H     1 <1>   0.1500 
 33 H        2.6870     2.6530     1.5510 H     1 <1>   0.0800 
 34 H        2.7300     4.2590     0.8880 H     1 <1>   0.0800 
 35 H        1.7380    -2.2510    -3.5000 H     1 <1>   0.1500 
 36 H        3.8750     3.5740    -0.9520 H     1 <1>   0.4000 
 37 H       -0.3380    -5.6400    -0.6960 H     1 <1>   0.0800 
 38 H       -1.4690    -4.5240     0.0200 H     1 <1>   0.0800 
 39 H        2.5020    -4.2370     1.3060 H     1 <1>   0.0800 
 40 H        2.1570    -5.4640     0.1170 H     1 <1>   0.0800 
 41 H       -1.5510    -6.8200     1.0580 H     1 <1>   0.0800 
 42 H       -1.1750    -5.5680     2.2210 H     1 <1>   0.0800 
 43 H        1.1100    -5.3980     2.9640 H     1 <1>   0.0800 
 44 H        2.2590    -6.5390     2.3010 H     1 <1>   0.0800 
 45 H        2.0440    -5.8600    -3.5550 H     1 <1>   0.0800 
 46 H        2.8550    -4.3000    -3.6140 H     1 <1>   0.0800 
 47 H        1.1630    -4.4490    -4.1290 H     1 <1>   0.0800 
 48 H        7.7320     3.6540     0.5970 H     1 <1>   0.1500 
 49 H        6.4180    -0.2350     1.6870 H     1 <1>   0.1500 
 50 H        3.5170    -0.1000    -0.2670 H     1 <1>   0.0800 
 51 H        3.0680     0.3670     1.3570 H     1 <1>   0.0800 
 52 H        4.2250    -0.9110     1.1010 H     1 <1>   0.0800 
 53 H        8.2010     1.4810     1.5990 H     1 <1>   0.1500 
@<TRIPOS>BOND
  1   1   2  2   
  2   2   3  am  
  3   2   4  1   
  4   3   5  1   
  5   3  28  1   
  6   4   6  ar  
  7   4   7  ar  
  8   5   8  1   
  9   5  29  1   
 10   5  30  1   
 11   6   9  ar  
 12   6  31  1   
 13   7  10  ar  
 14   7  32  1   
 15   8  11  1   
 16   8  33  1   
 17   8  34  1   
 18   9  12  1   
 19   9  13  ar  
 20  10  13  ar  
 21  10  35  1   
 22  11  14  1   
 23  11  36  1   
 24  12  15  1   
 25  12  16  1   
 26  13  17  1   
 27  14  18  ar  
 28  14  19  ar  
 29  15  20  1   
 30  15  37  1   
 31  15  38  1   
 32  16  21  1   
 33  16  39  1   
 34  16  40  1   
 35  17  22  1   
 36  18  23  ar  
 37  19  24  ar  
 38  19  25  1   
 39  20  26  1   
 40  20  41  1   
 41  20  42  1   
 42  21  26  1   
 43  21  43  1   
 44  21  44  1   
 45  22  45  1   
 46  22  46  1   
 47  22  47  1   
 48  23  27  ar  
 49  23  48  1   
 50  24  27  ar  
 51  24  49  1   
 52  25  50  1   
 53  25  51  1   
 54  25  52  1   
 55  27  53  1   
@<TRIPOS>SUBSTRUCTURE
  1 ****   4 GROUP 4 **** **** 0

# MOE 2024.06 (io_trps.svl 2023.06)
