@<TRIPOS>MOLECULE
NONAME
52 55 1 0 0 
SMALL
USER_CHARGES


@<TRIPOS>ATOM
  1 O        2.6670    -0.7060     2.7660 O.2   1 <1>  -0.5700 
  2 C        2.4350    -0.9830     1.6040 C.2   1 <1>   0.5440 
  3 N        2.5670     0.0130     0.6470 N.am  1 <1>  -0.6600 
  4 C        2.0840    -2.3420     1.2620 C.ar  1 <1>   0.0860 
  5 C        3.0100     1.3790     1.0790 C.3   1 <1>   0.1400 
  6 C        2.6270    -0.3090    -0.8150 C.3   1 <1>   0.1400 
  7 C        0.8040    -2.6910     0.7730 C.ar  1 <1>   0.0000 
  8 C        3.0050    -3.3510     1.3690 C.ar  1 <1>  -0.1500 
  9 C        4.5310     1.6320     0.8940 C.3   1 <1>   0.4230 
 10 C        3.9510     0.0860    -1.5060 C.3   1 <1>  -0.0800 
 11 C        0.5870    -4.0320     0.3820 C.ar  1 <1>   0.3100 
 12 C       -0.2660    -1.7770     0.6520 C.ar  1 <1>  -0.1500 
 13 C        2.6900    -4.6520     0.9740 C.ar  1 <1>   0.1660 
 14 N        4.8800     2.1980    -0.4620 N.4   1 <1>  -0.9590 
 15 C        5.4390     0.4110     1.2070 C.3   1 <1>   0.1200 
 16 C        5.2170    -0.6350    -0.9910 C.3   1 <1>   0.1200 
 17 C        4.1080     1.6060    -1.5940 C.3   1 <1>   0.3430 
 18 N        1.5390    -4.9910     0.4860 N.ar  1 <1>  -0.6200 
 19 C       -0.6610    -4.3980    -0.1390 C.ar  1 <1>  -0.1500 
 20 C       -1.4750    -2.1640     0.1420 C.ar  1 <1>  -0.1500 
 21 C        3.7310    -5.7440     1.1020 C.3   1 <1>  -0.0970 
 22 C        4.7780     3.6910    -0.4770 C.3   1 <1>   0.2630 
 23 O        5.2590    -0.7280     0.3990 O.3   1 <1>  -0.5600 
 24 C       -1.6820    -3.4850    -0.2660 C.ar  1 <1>   0.0830 
 25 O       -2.9070    -3.7700    -0.7650 O.3   1 <1>  -0.3620 
 26 C       -3.2400    -5.0760    -1.1840 C.3   1 <1>   0.0400 
 27 H        2.4370     2.1230     0.5580 H     1 <1>   0.0800 
 28 H        2.7830     1.5110     2.1230 H     1 <1>   0.0800 
 29 H        2.4840    -1.3640    -0.9700 H     1 <1>   0.0800 
 30 H        1.8040     0.1870    -1.3020 H     1 <1>   0.0800 
 31 H        3.9860    -3.1340     1.7550 H     1 <1>   0.1500 
 32 H        4.7930     2.3810     1.6220 H     1 <1>   0.0800 
 33 H        3.8340    -0.2320    -2.5270 H     1 <1>   0.0800 
 34 H       -0.1300    -0.7590     0.9730 H     1 <1>   0.1500 
 35 H        5.8650     1.9420    -0.6120 H     1 <1>   0.4500 
 36 H        5.2480     0.0940     2.2180 H     1 <1>   0.0800 
 37 H        6.4750     0.6940     1.1490 H     1 <1>   0.0800 
 38 H        6.1230    -0.1710    -1.3390 H     1 <1>   0.0800 
 39 H        5.2080    -1.6500    -1.3530 H     1 <1>   0.0800 
 40 H        3.1260     2.0510    -1.6390 H     1 <1>   0.0800 
 41 H        4.6120     1.8470    -2.5170 H     1 <1>   0.0800 
 42 H       -0.7750    -5.4230    -0.4300 H     1 <1>   0.1500 
 43 H       -2.2910    -1.4700     0.0480 H     1 <1>   0.1500 
 44 H        4.6410    -5.3690     1.5310 H     1 <1>   0.0800 
 45 H        3.9450    -6.1520     0.1310 H     1 <1>   0.0800 
 46 H        3.3500    -6.5290     1.7290 H     1 <1>   0.0800 
 47 H        3.7580     4.0010    -0.3140 H     1 <1>   0.0800 
 48 H        5.1070     4.0790    -1.4280 H     1 <1>   0.0800 
 49 H        5.3960     4.1180     0.2960 H     1 <1>   0.0800 
 50 H       -4.2570    -5.0660    -1.5320 H     1 <1>   0.0800 
 51 H       -3.1470    -5.7450    -0.3470 H     1 <1>   0.0800 
 52 H       -2.5820    -5.3650    -1.9840 H     1 <1>   0.0800 
@<TRIPOS>BOND
  1   1   2  2   
  2   2   3  am  
  3   2   4  1   
  4   3   5  1   
  5   3   6  1   
  6   4   7  ar  
  7   4   8  ar  
  8   5   9  1   
  9   5  27  1   
 10   5  28  1   
 11   6  10  1   
 12   6  29  1   
 13   6  30  1   
 14   7  11  ar  
 15   7  12  ar  
 16   8  13  ar  
 17   8  31  1   
 18   9  14  1   
 19   9  15  1   
 20   9  32  1   
 21  10  16  1   
 22  10  17  1   
 23  10  33  1   
 24  11  18  ar  
 25  11  19  ar  
 26  12  20  ar  
 27  12  34  1   
 28  13  18  ar  
 29  13  21  1   
 30  14  17  1   
 31  14  22  1   
 32  14  35  1   
 33  15  23  1   
 34  15  36  1   
 35  15  37  1   
 36  16  23  1   
 37  16  38  1   
 38  16  39  1   
 39  17  40  1   
 40  17  41  1   
 41  19  24  ar  
 42  19  42  1   
 43  20  24  ar  
 44  20  43  1   
 45  21  44  1   
 46  21  45  1   
 47  21  46  1   
 48  22  47  1   
 49  22  48  1   
 50  22  49  1   
 51  24  25  1   
 52  25  26  1   
 53  26  50  1   
 54  26  51  1   
 55  26  52  1   
@<TRIPOS>SUBSTRUCTURE
  1 ****   4 GROUP 4 **** **** 0

# MOE 2024.06 (io_trps.svl 2023.06)
