@<TRIPOS>MOLECULE
NONAME
48 50 1 0 0 
SMALL
USER_CHARGES


@<TRIPOS>ATOM
  1 S        1.0180    -0.5040    -1.5570 S.3   1 <1>  -0.0800 
  2 C        1.1720    -1.1320     0.0780 C.2   1 <1>  -0.1400 
  3 C        0.8770     1.1400    -0.9590 C.2   1 <1>  -0.1100 
  4 C        1.1130    -0.1290     0.9740 C.2   1 <1>  -0.1500 
  5 C        1.3410    -2.6300     0.2380 C.3   1 <1>   0.3200 
  6 C        0.9450     1.1640     0.3840 C.2   1 <1>  -0.1500 
  7 N        0.1160    -3.2890    -0.2300 N.am  1 <1>  -0.7300 
  8 C       -0.0690    -4.6240    -0.1830 C.2   1 <1>   0.6900 
  9 O        0.7650    -5.3270     0.3570 O.2   1 <1>  -0.5700 
 10 N       -1.1870    -5.1650    -0.7550 N.am  1 <1>  -0.6600 
 11 C       -2.4830    -4.4320    -0.8850 C.3   1 <1>   0.1400 
 12 C       -1.3370    -6.6420    -0.9230 C.3   1 <1>   0.1400 
 13 C       -3.5740    -5.0950    -0.0220 C.3   1 <1>   0.2950 
 14 C       -2.4930    -7.1820    -0.0530 C.3   1 <1>   0.2000 
 15 O       -3.6630    -6.4590    -0.3130 O.3   1 <1>  -0.5600 
 16 C       -4.9510    -4.4760    -0.2820 C.3   1 <1>  -0.1950 
 17 C       -2.8160    -8.6570    -0.3250 C.3   1 <1>  -0.1600 
 18 C       -5.3970    -3.2470     0.4470 C.3   1 <1>  -0.2000 
 19 C       -6.0470    -4.5720     0.7310 C.3   1 <1>  -0.2000 
 20 C       -1.6680    -9.6050     0.0590 C.3   1 <1>  -0.1600 
 21 C       -2.0760   -11.0690    -0.1410 C.3   1 <1>  -0.1600 
 22 C       -0.9350   -12.0160     0.2390 C.3   1 <1>  -0.2400 
 23 H        0.7570     1.9230    -1.6870 H     1 <1>   0.1500 
 24 H        1.1800    -0.2400     2.0430 H     1 <1>   0.1500 
 25 H        1.5090    -2.8800     1.2720 H     1 <1>   0.0800 
 26 H        2.1810    -2.9730    -0.3420 H     1 <1>   0.0800 
 27 H        0.8850     2.0470     0.9970 H     1 <1>   0.1500 
 28 H       -0.4090    -2.7590    -0.9190 H     1 <1>   0.3700 
 29 H       -2.3790    -3.4080    -0.5770 H     1 <1>   0.0800 
 30 H       -2.7920    -4.4420    -1.9150 H     1 <1>   0.0800 
 31 H       -1.5390    -6.8590    -1.9570 H     1 <1>   0.0800 
 32 H       -0.4220    -7.1420    -0.6580 H     1 <1>   0.0800 
 33 H       -3.3240    -4.9900     1.0210 H     1 <1>   0.0800 
 34 H       -2.2470    -7.0580     0.9880 H     1 <1>   0.0800 
 35 H       -5.2380    -4.5620    -1.3160 H     1 <1>   0.1000 
 36 H       -3.6870    -8.9180     0.2510 H     1 <1>   0.0800 
 37 H       -3.0530    -8.7810    -1.3670 H     1 <1>   0.0800 
 38 H       -4.7670    -2.8180     1.2060 H     1 <1>   0.1000 
 39 H       -5.9630    -2.5020    -0.0880 H     1 <1>   0.1000 
 40 H       -7.0500    -4.7510     0.3830 H     1 <1>   0.1000 
 41 H       -5.8430    -5.0690     1.6640 H     1 <1>   0.1000 
 42 H       -0.8010    -9.3990    -0.5450 H     1 <1>   0.0800 
 43 H       -1.4030    -9.4470     1.0910 H     1 <1>   0.0800 
 44 H       -2.9370   -11.2910     0.4670 H     1 <1>   0.0800 
 45 H       -2.3450   -11.2330    -1.1710 H     1 <1>   0.0800 
 46 H       -0.6640   -11.8840     1.2720 H     1 <1>   0.0800 
 47 H       -0.0700   -11.8280    -0.3730 H     1 <1>   0.0800 
 48 H       -1.2400   -13.0380     0.0940 H     1 <1>   0.0800 
@<TRIPOS>BOND
  1   1   2  1   
  2   1   3  1   
  3   2   4  2   
  4   2   5  1   
  5   3   6  2   
  6   3  23  1   
  7   4   6  1   
  8   4  24  1   
  9   5   7  1   
 10   5  25  1   
 11   5  26  1   
 12   6  27  1   
 13   7   8  am  
 14   7  28  1   
 15   8   9  2   
 16   8  10  am  
 17  10  11  1   
 18  10  12  1   
 19  11  13  1   
 20  11  29  1   
 21  11  30  1   
 22  12  14  1   
 23  12  31  1   
 24  12  32  1   
 25  13  15  1   
 26  13  16  1   
 27  13  33  1   
 28  14  15  1   
 29  14  17  1   
 30  14  34  1   
 31  16  18  1   
 32  16  19  1   
 33  16  35  1   
 34  17  20  1   
 35  17  36  1   
 36  17  37  1   
 37  18  19  1   
 38  18  38  1   
 39  18  39  1   
 40  19  40  1   
 41  19  41  1   
 42  20  21  1   
 43  20  42  1   
 44  20  43  1   
 45  21  22  1   
 46  21  44  1   
 47  21  45  1   
 48  22  46  1   
 49  22  47  1   
 50  22  48  1   
@<TRIPOS>SUBSTRUCTURE
  1 ****  10 GROUP 4 **** **** 0

# MOE 2024.06 (io_trps.svl 2023.06)
