@<TRIPOS>MOLECULE
NONAME
51 53 1 0 0 
SMALL
USER_CHARGES


@<TRIPOS>ATOM
  1 O       -0.2900     0.9950     0.8520 O.2   1 <1>  -0.5700 
  2 C        0.0060     2.0940     0.4230 C.2   1 <1>   0.6900 
  3 N       -0.9610     3.0490     0.2220 N.am  1 <1>  -0.6600 
  4 N        1.3070     2.4180     0.1590 N.am  1 <1>  -0.5470 
  5 C       -2.3380     2.8820     0.7840 C.3   1 <1>   0.1400 
  6 C       -0.8240     4.2170    -0.6910 C.3   1 <1>   0.1400 
  7 C        2.4740     1.6420     0.1220 C.ar  1 <1>   0.1170 
  8 C       -3.3910     2.7350    -0.3440 C.3   1 <1>   0.0000 
  9 C       -1.8390     4.1050    -1.8350 C.3   1 <1>  -0.1600 
 10 C        2.4610     0.2700    -0.1060 C.ar  1 <1>  -0.1500 
 11 C        3.7010     2.2710     0.2980 C.ar  1 <1>  -0.1500 
 12 C       -4.8120     2.6120     0.2340 C.3   1 <1>   0.2000 
 13 C       -3.2760     3.9310    -1.3140 C.3   1 <1>  -0.1600 
 14 C       -3.2310     1.3820    -1.0590 C.3   1 <1>  -0.1600 
 15 C        3.6370    -0.4580    -0.1520 C.ar  1 <1>  -0.1430 
 16 C        4.8860     1.5570     0.2510 C.ar  1 <1>  -0.1430 
 17 O       -5.0060     3.4840     1.3080 O.3   1 <1>  -0.5600 
 18 C       -4.9600     1.1490     0.6640 C.3   1 <1>  -0.1600 
 19 C       -3.9360     0.3590    -0.1620 C.3   1 <1>  -0.1600 
 20 C        4.8480     0.1910     0.0250 C.ar  1 <1>  -0.1500 
 21 C        3.6050    -1.9550    -0.3980 C.3   1 <1>  -0.0970 
 22 C        6.2230     2.2500     0.4450 C.3   1 <1>  -0.0970 
 23 C       -6.3330     3.6540     1.6940 C.3   1 <1>   0.0400 
 24 H        1.4450     3.4170     0.0870 H     1 <1>   0.3700 
 25 H       -2.3770     2.0320     1.4420 H     1 <1>   0.0800 
 26 H       -2.5640     3.7510     1.3760 H     1 <1>   0.0800 
 27 H       -1.0070     5.1180    -0.1300 H     1 <1>   0.0800 
 28 H        0.1650     4.2710    -1.1070 H     1 <1>   0.0800 
 29 H       -1.7840     4.9900    -2.4430 H     1 <1>   0.0800 
 30 H       -1.5710     3.2680    -2.4550 H     1 <1>   0.0800 
 31 H        1.5210    -0.2290    -0.2490 H     1 <1>   0.1500 
 32 H        3.7250     3.3300     0.4750 H     1 <1>   0.1500 
 33 H       -5.5270     2.8410    -0.5390 H     1 <1>   0.0800 
 34 H       -3.9480     3.8040    -2.1440 H     1 <1>   0.0800 
 35 H       -3.5680     4.8260    -0.7920 H     1 <1>   0.0800 
 36 H       -3.7330     1.4120    -2.0100 H     1 <1>   0.0800 
 37 H       -2.2020     1.1150    -1.2250 H     1 <1>   0.0800 
 38 H       -4.7320     1.0430     1.7110 H     1 <1>   0.0800 
 39 H       -5.9580     0.7980     0.4730 H     1 <1>   0.0800 
 40 H       -3.2140    -0.0960     0.4970 H     1 <1>   0.0800 
 41 H       -4.4040    -0.4120    -0.7490 H     1 <1>   0.0800 
 42 H        5.7650    -0.3700    -0.0130 H     1 <1>   0.1500 
 43 H        4.3090    -2.4510     0.2450 H     1 <1>   0.0800 
 44 H        3.8610    -2.1610    -1.4220 H     1 <1>   0.0800 
 45 H        2.6260    -2.3510    -0.1990 H     1 <1>   0.0800 
 46 H        6.8050     1.7240     1.1810 H     1 <1>   0.0800 
 47 H        6.0870     3.2630     0.7790 H     1 <1>   0.0800 
 48 H        6.7640     2.2620    -0.4840 H     1 <1>   0.0800 
 49 H       -6.3560     4.3580     2.5070 H     1 <1>   0.0800 
 50 H       -6.7360     2.7120     2.0220 H     1 <1>   0.0800 
 51 H       -6.8980     4.0420     0.8640 H     1 <1>   0.0800 
@<TRIPOS>BOND
  1   1   2  2   
  2   2   3  am  
  3   2   4  am  
  4   3   5  1   
  5   3   6  1   
  6   4   7  1   
  7   4  24  1   
  8   5   8  1   
  9   5  25  1   
 10   5  26  1   
 11   6   9  1   
 12   6  27  1   
 13   6  28  1   
 14   7  10  ar  
 15   7  11  ar  
 16   8  12  1   
 17   8  13  1   
 18   8  14  1   
 19   9  13  1   
 20   9  29  1   
 21   9  30  1   
 22  10  15  ar  
 23  10  31  1   
 24  11  16  ar  
 25  11  32  1   
 26  12  17  1   
 27  12  18  1   
 28  12  33  1   
 29  13  34  1   
 30  13  35  1   
 31  14  19  1   
 32  14  36  1   
 33  14  37  1   
 34  15  20  ar  
 35  15  21  1   
 36  16  20  ar  
 37  16  22  1   
 38  17  23  1   
 39  18  19  1   
 40  18  38  1   
 41  18  39  1   
 42  19  40  1   
 43  19  41  1   
 44  20  42  1   
 45  21  43  1   
 46  21  44  1   
 47  21  45  1   
 48  22  46  1   
 49  22  47  1   
 50  22  48  1   
 51  23  49  1   
 52  23  50  1   
 53  23  51  1   
@<TRIPOS>SUBSTRUCTURE
  1 ****   2 GROUP 4 **** **** 0

# MOE 2024.06 (io_trps.svl 2023.06)
