@<TRIPOS>MOLECULE
NONAME
46 47 1 0 0 
SMALL
USER_CHARGES


@<TRIPOS>ATOM
  1 O        0.6770     1.5210    -1.2620 O.2   1 <1>  -0.5700 
  2 C        1.7100     1.9450    -0.8060 C.2   1 <1>   0.5690 
  3 N        2.6660     1.2550    -0.1310 N.am  1 <1>  -0.6600 
  4 C        2.0730     3.3970    -0.9370 C.3   1 <1>  -0.0990 
  5 C        2.5770    -0.1680     0.3140 C.3   1 <1>   0.3000 
  6 C        3.7760     2.1500     0.2740 C.3   1 <1>   0.1400 
  7 C        3.5620     3.4260    -0.5550 C.3   1 <1>  -0.0190 
  8 C        1.3700    -0.3240     1.2430 C.3   1 <1>  -0.2400 
  9 C        3.8370    -0.5960     1.0790 C.3   1 <1>  -0.2400 
 10 C        2.4320    -1.0690    -0.9150 C.3   1 <1>  -0.2400 
 11 C        4.0180     4.6930     0.1550 C.2   1 <1>   0.5690 
 12 O        4.8040     4.5980     1.0680 O.2   1 <1>  -0.5700 
 13 N        3.5400     5.8920    -0.2850 N.am  1 <1>  -0.4930 
 14 C        3.8170     7.1920     0.2100 C.2   1 <1>   0.0630 
 15 C        4.6370     7.5840     1.2690 C.2   1 <1>   0.1390 
 16 C        3.3160     8.3460    -0.2750 C.2   1 <1>  -0.3020 
 17 N        4.6510     8.8750     1.4310 N.2   1 <1>  -0.7070 
 18 N        3.8290     9.3490     0.4740 N.pl3 1 <1>   0.3140 
 19 C        3.5790    10.7890     0.3150 C.3   1 <1>   0.1570 
 20 C        4.7210    11.4320    -0.4380 C.2   1 <1>   0.5690 
 21 O        4.4570    12.1980    -1.3330 O.2   1 <1>  -0.5700 
 22 N        6.0040    11.1440    -0.0850 N.am  1 <1>  -0.7300 
 23 C        7.2280    11.6860    -0.7210 C.3   1 <1>   0.0600 
 24 H        1.4710     3.9520    -0.2410 H     1 <1>   0.0800 
 25 H        1.9020     3.7410    -1.9400 H     1 <1>   0.0800 
 26 H        4.7380     1.7190     0.0550 H     1 <1>   0.0800 
 27 H        3.6970     2.3520     1.3300 H     1 <1>   0.0800 
 28 H        4.1480     3.3230    -1.4510 H     1 <1>   0.0800 
 29 H        1.4560     0.3430     2.0810 H     1 <1>   0.0800 
 30 H        1.3120    -1.3310     1.6110 H     1 <1>   0.0800 
 31 H        0.4550    -0.1120     0.7200 H     1 <1>   0.0800 
 32 H        3.9740     0.0020     1.9610 H     1 <1>   0.0800 
 33 H        4.7080    -0.5260     0.4530 H     1 <1>   0.0800 
 34 H        3.7450    -1.6210     1.3920 H     1 <1>   0.0800 
 35 H        1.5140    -0.8680    -1.4340 H     1 <1>   0.0800 
 36 H        2.4200    -2.1030    -0.6200 H     1 <1>   0.0800 
 37 H        3.2550    -0.9160    -1.5890 H     1 <1>   0.0800 
 38 H        2.9000     5.8720    -1.0770 H     1 <1>   0.3700 
 39 H        5.1970     6.9010     1.8860 H     1 <1>   0.1500 
 40 H        2.6430     8.5140    -1.0940 H     1 <1>   0.1500 
 41 H        3.4950    11.2360     1.2860 H     1 <1>   0.0800 
 42 H        2.6620    10.9330    -0.2230 H     1 <1>   0.0800 
 43 H        6.1420    10.4130     0.6310 H     1 <1>   0.3700 
 44 H        6.9680    12.4130    -1.4730 H     1 <1>   0.0800 
 45 H        7.7800    10.8880    -1.1850 H     1 <1>   0.0800 
 46 H        7.8450    12.1600     0.0220 H     1 <1>   0.0800 
@<TRIPOS>BOND
  1   1   2  2   
  2   2   3  am  
  3   2   4  1   
  4   3   5  1   
  5   3   6  1   
  6   4   7  1   
  7   4  24  1   
  8   4  25  1   
  9   5   8  1   
 10   5   9  1   
 11   5  10  1   
 12   6   7  1   
 13   6  26  1   
 14   6  27  1   
 15   7  11  1   
 16   7  28  1   
 17   8  29  1   
 18   8  30  1   
 19   8  31  1   
 20   9  32  1   
 21   9  33  1   
 22   9  34  1   
 23  10  35  1   
 24  10  36  1   
 25  10  37  1   
 26  11  12  2   
 27  11  13  am  
 28  13  14  1   
 29  13  38  1   
 30  14  15  1   
 31  14  16  2   
 32  15  17  2   
 33  15  39  1   
 34  16  18  1   
 35  16  40  1   
 36  17  18  1   
 37  18  19  1   
 38  19  20  1   
 39  19  41  1   
 40  19  42  1   
 41  20  21  2   
 42  20  22  am  
 43  22  23  1   
 44  22  43  1   
 45  23  44  1   
 46  23  45  1   
 47  23  46  1   
@<TRIPOS>SUBSTRUCTURE
  1 ****  13 GROUP 4 **** **** 0

# MOE 2024.06 (io_trps.svl 2023.06)
