@<TRIPOS>MOLECULE
NONAME
39 41 1 0 0 
SMALL
USER_CHARGES


@<TRIPOS>ATOM
  1 CL       1.3180     2.5220     0.8290 Cl    1 <1>  -0.1770 
  2 C       -0.2600     2.2340     0.1310 C.ar  1 <1>   0.1770 
  3 C       -1.3900     2.8570     0.6570 C.ar  1 <1>  -0.1440 
  4 C       -0.3370     1.3860    -0.9570 C.ar  1 <1>  -0.1500 
  5 C       -2.6230     2.6220     0.0590 C.ar  1 <1>  -0.1500 
  6 C       -1.3180     3.7920     1.8640 C.3   1 <1>   0.0450 
  7 C       -1.5790     1.1740    -1.5200 C.ar  1 <1>   0.1900 
  8 C       -2.7240     1.7770    -1.0350 C.ar  1 <1>  -0.1500 
  9 C       -1.0260     5.2260     1.4590 C.2   1 <1>   0.5690 
 10 F       -1.6740     0.3770    -2.5490 F     1 <1>  -0.1900 
 11 O       -1.8540     6.0700     1.7010 O.2   1 <1>  -0.5700 
 12 N        0.1680     5.4860     0.8410 N.am  1 <1>  -0.4940 
 13 C        0.6950     6.7160     0.3770 C.2   1 <1>  -0.0880 
 14 N        1.8410     6.8540    -0.3480 N.pl3 1 <1>   0.3140 
 15 C        0.2070     7.9660     0.5560 C.2   1 <1>  -0.1500 
 16 N        2.0940     8.1620    -0.6160 N.2   1 <1>  -0.7070 
 17 C        2.7330     5.7340    -0.7870 C.3   1 <1>   0.1760 
 18 C        1.1100     8.8080    -0.0750 C.2   1 <1>   0.1390 
 19 C        3.8270     5.4680     0.2650 C.3   1 <1>  -0.1600 
 20 C        3.4780     6.0310    -2.0990 C.3   1 <1>  -0.1600 
 21 C        5.1750     5.6250    -0.4470 C.3   1 <1>  -0.1600 
 22 C        4.8770     6.4710    -1.6790 C.3   1 <1>  -0.1600 
 23 H        0.5370     0.9060    -1.3550 H     1 <1>   0.1500 
 24 H       -3.5130     3.0990     0.4390 H     1 <1>   0.1500 
 25 H       -0.5670     3.4640     2.5580 H     1 <1>   0.0800 
 26 H       -2.2560     3.7720     2.3900 H     1 <1>   0.0800 
 27 H       -3.6730     1.5880    -1.5060 H     1 <1>   0.1500 
 28 H        0.7570     4.6630     0.7020 H     1 <1>   0.3700 
 29 H       -0.6860     8.2640     1.0760 H     1 <1>   0.1500 
 30 H        2.1250     4.8590    -0.9260 H     1 <1>   0.0800 
 31 H        1.0130     9.8800    -0.1140 H     1 <1>   0.1500 
 32 H        3.7370     4.4790     0.6780 H     1 <1>   0.0800 
 33 H        3.7610     6.1880     1.0640 H     1 <1>   0.0800 
 34 H        2.9820     6.7690    -2.7060 H     1 <1>   0.0800 
 35 H        3.5610     5.1190    -2.6640 H     1 <1>   0.0800 
 36 H        5.5340     4.6580    -0.7570 H     1 <1>   0.0800 
 37 H        5.9130     6.0880     0.1860 H     1 <1>   0.0800 
 38 H        4.8530     7.5130    -1.4030 H     1 <1>   0.0800 
 39 H        5.6030     6.3280    -2.4600 H     1 <1>   0.0800 
@<TRIPOS>BOND
  1   1   2  1   
  2   2   3  ar  
  3   2   4  ar  
  4   3   5  ar  
  5   3   6  1   
  6   4   7  ar  
  7   4  23  1   
  8   5   8  ar  
  9   5  24  1   
 10   6   9  1   
 11   6  25  1   
 12   6  26  1   
 13   7   8  ar  
 14   7  10  1   
 15   8  27  1   
 16   9  11  2   
 17   9  12  am  
 18  12  13  1   
 19  12  28  1   
 20  13  14  1   
 21  13  15  2   
 22  14  16  1   
 23  14  17  1   
 24  15  18  1   
 25  15  29  1   
 26  16  18  2   
 27  17  19  1   
 28  17  20  1   
 29  17  30  1   
 30  18  31  1   
 31  19  21  1   
 32  19  32  1   
 33  19  33  1   
 34  20  22  1   
 35  20  34  1   
 36  20  35  1   
 37  21  22  1   
 38  21  36  1   
 39  21  37  1   
 40  22  38  1   
 41  22  39  1   
@<TRIPOS>SUBSTRUCTURE
  1 ****  12 GROUP 4 **** **** 0

# MOE 2024.06 (io_trps.svl 2023.06)
