@<TRIPOS>MOLECULE
NONAME
38 40 1 0 0 
SMALL
USER_CHARGES


@<TRIPOS>ATOM
  1 CL      -0.1910    -0.0790     0.8200 Cl    1 <1>  -0.1770 
  2 C        1.1800    -1.0750     0.3540 C.ar  1 <1>   0.1770 
  3 C        1.0670    -2.4420     0.1070 C.ar  1 <1>   0.4100 
  4 C        2.4130    -0.4950     0.2410 C.ar  1 <1>   0.1600 
  5 N        2.1450    -3.1410    -0.2150 N.ar  1 <1>  -0.6200 
  6 N       -0.1290    -3.1400     0.1720 N.pl3 1 <1>  -0.8380 
  7 N        3.4890    -1.1880    -0.0910 N.ar  1 <1>  -0.6200 
  8 C        3.2820    -2.4770    -0.2980 C.ar  1 <1>   0.4770 
  9 C       -0.1220    -4.5840     0.5780 C.3   1 <1>   0.2090 
 10 C       -1.2530    -2.7480    -0.7190 C.3   1 <1>   0.2090 
 11 C        4.5010    -3.2840    -0.6740 C.3   1 <1>  -0.0960 
 12 C       -1.3990    -5.0030     1.3250 C.3   1 <1>   0.2090 
 13 C       -2.5280    -2.5690     0.1090 C.3   1 <1>  -0.1600 
 14 N       -2.5830    -5.0830     0.4090 N.pl3 1 <1>  -0.8380 
 15 C       -3.3820    -3.8400     0.2120 C.3   1 <1>   0.2090 
 16 C       -2.9130    -6.2660    -0.2200 C.ar  1 <1>   0.7200 
 17 N       -1.9770    -7.2160    -0.2590 N.ar  1 <1>  -0.6200 
 18 N       -4.1380    -6.3610    -0.7370 N.ar  1 <1>  -0.6200 
 19 C       -2.3030    -8.3330    -0.8610 C.ar  1 <1>   0.1600 
 20 C       -4.4360    -7.4900    -1.3310 C.ar  1 <1>   0.1600 
 21 C       -3.5400    -8.5250    -1.4230 C.ar  1 <1>  -0.1500 
 22 H        2.5270     0.5590     0.4270 H     1 <1>   0.1500 
 23 H        0.7160    -4.7580     1.2290 H     1 <1>   0.0800 
 24 H        0.0040    -5.2060    -0.2920 H     1 <1>   0.0800 
 25 H       -1.3970    -3.4960    -1.4820 H     1 <1>   0.0800 
 26 H       -1.0130    -1.8210    -1.2110 H     1 <1>   0.0800 
 27 H        4.2240    -4.2900    -0.9330 H     1 <1>   0.0800 
 28 H        5.1810    -3.3100     0.1560 H     1 <1>   0.0800 
 29 H        4.9890    -2.8290    -1.5150 H     1 <1>   0.0800 
 30 H       -1.5930    -4.3080     2.1230 H     1 <1>   0.0800 
 31 H       -1.2330    -5.9650     1.7780 H     1 <1>   0.0800 
 32 H       -3.1330    -1.8140    -0.3580 H     1 <1>   0.0800 
 33 H       -2.2810    -2.2070     1.0900 H     1 <1>   0.0800 
 34 H       -3.9510    -3.9220    -0.6980 H     1 <1>   0.0800 
 35 H       -4.0820    -3.7420     1.0240 H     1 <1>   0.0800 
 36 H       -1.5640    -9.1150    -0.9070 H     1 <1>   0.1500 
 37 H       -5.4210    -7.5910    -1.7550 H     1 <1>   0.1500 
 38 H       -3.7960    -9.4450    -1.9130 H     1 <1>   0.1500 
@<TRIPOS>BOND
  1   1   2  1   
  2   2   3  ar  
  3   2   4  ar  
  4   3   5  ar  
  5   3   6  1   
  6   4   7  ar  
  7   4  22  1   
  8   5   8  ar  
  9   6   9  1   
 10   6  10  1   
 11   7   8  ar  
 12   8  11  1   
 13   9  12  1   
 14   9  23  1   
 15   9  24  1   
 16  10  13  1   
 17  10  25  1   
 18  10  26  1   
 19  11  27  1   
 20  11  28  1   
 21  11  29  1   
 22  12  14  1   
 23  12  30  1   
 24  12  31  1   
 25  13  15  1   
 26  13  32  1   
 27  13  33  1   
 28  14  15  1   
 29  14  16  1   
 30  15  34  1   
 31  15  35  1   
 32  16  17  ar  
 33  16  18  ar  
 34  17  19  ar  
 35  18  20  ar  
 36  19  21  ar  
 37  19  36  1   
 38  20  21  ar  
 39  20  37  1   
 40  21  38  1   
@<TRIPOS>SUBSTRUCTURE
  1 ****   9 GROUP 4 **** **** 0

# MOE 2024.06 (io_trps.svl 2023.06)
