@<TRIPOS>MOLECULE
NONAME
58 61 1 0 0 
SMALL
USER_CHARGES


@<TRIPOS>ATOM
  1 O       -1.8580    -4.1040     1.3330 O.2   1 <1>  -0.5700 
  2 C       -0.6840    -4.2670     1.1110 C.2   1 <1>   0.5690 
  3 N       -0.0380    -5.4600     1.2830 N.am  1 <1>  -0.6600 
  4 C        0.1370    -3.0940     0.6170 C.3   1 <1>  -0.0990 
  5 C        1.4140    -5.5830     1.0120 C.3   1 <1>   0.1400 
  6 C       -0.7290    -6.6720     1.8020 C.3   1 <1>   0.0600 
  7 C        1.0400    -3.5290    -0.5530 C.3   1 <1>  -0.0800 
  8 C        1.7660    -4.8740    -0.3120 C.3   1 <1>  -0.0800 
  9 C        2.1230    -2.4980    -0.9010 C.3   1 <1>  -0.1600 
 10 C        3.2650    -4.5750    -0.4600 C.3   1 <1>  -0.1600 
 11 C        3.3120    -3.3380    -1.3550 C.3   1 <1>   0.4230 
 12 N        4.6010    -2.5910    -1.3150 N.4   1 <1>  -0.9590 
 13 C        5.0720    -2.1770     0.0400 C.3   1 <1>   0.4860 
 14 C        5.6750    -3.3320    -2.0490 C.3   1 <1>   0.2630 
 15 C        6.1420    -1.1190    -0.1350 C.ar  1 <1>  -0.1440 
 16 C        5.7940     0.1760    -0.4920 C.ar  1 <1>  -0.1500 
 17 C        7.4800    -1.4330     0.0550 C.ar  1 <1>  -0.1500 
 18 C        6.7740     1.1350    -0.6690 C.ar  1 <1>  -0.1500 
 19 C        8.4530    -0.4670    -0.1240 C.ar  1 <1>  -0.1500 
 20 C        8.1180     0.8310    -0.4910 C.ar  1 <1>   0.0000 
 21 C        9.1380     1.8360    -0.6780 C.ar  1 <1>   0.0000 
 22 C        9.5890     2.6420     0.3700 C.ar  1 <1>  -0.1440 
 23 C        9.6960     2.0160    -1.9400 C.ar  1 <1>  -0.1500 
 24 C       10.5700     3.5940     0.1430 C.ar  1 <1>  -0.1500 
 25 C        9.0110     2.4860     1.7700 C.3   1 <1>  -0.0970 
 26 C       10.6740     2.9660    -2.1640 C.ar  1 <1>  -0.1500 
 27 C       11.1130     3.7580    -1.1190 C.ar  1 <1>  -0.1500 
 28 H       -0.5230    -2.3050     0.3040 H     1 <1>   0.0800 
 29 H        0.7210    -2.7370     1.4440 H     1 <1>   0.0800 
 30 H        1.9450    -5.1350     1.8350 H     1 <1>   0.0800 
 31 H        1.6930    -6.6210     0.9560 H     1 <1>   0.0800 
 32 H       -0.2710    -6.9890     2.7230 H     1 <1>   0.0800 
 33 H       -0.6650    -7.4670     1.0800 H     1 <1>   0.0800 
 34 H       -1.7690    -6.4640     1.9910 H     1 <1>   0.0800 
 35 H        0.4030    -3.6620    -1.4140 H     1 <1>   0.0800 
 36 H        1.4790    -5.5400    -1.1100 H     1 <1>   0.0800 
 37 H        2.3610    -1.9240    -0.0250 H     1 <1>   0.0800 
 38 H        1.7850    -1.8380    -1.6810 H     1 <1>   0.0800 
 39 H        3.7800    -5.4100    -0.9030 H     1 <1>   0.0800 
 40 H        3.6770    -4.3680     0.5100 H     1 <1>   0.0800 
 41 H        3.1150    -3.6540    -2.3680 H     1 <1>   0.0800 
 42 H        4.4560    -1.7080    -1.8240 H     1 <1>   0.4500 
 43 H        4.2630    -1.7600     0.6150 H     1 <1>   0.0800 
 44 H        5.4710    -3.0220     0.5750 H     1 <1>   0.0800 
 45 H        5.9140    -4.2520    -1.5400 H     1 <1>   0.0800 
 46 H        6.5690    -2.7310    -2.1120 H     1 <1>   0.0800 
 47 H        5.3530    -3.5660    -3.0510 H     1 <1>   0.0800 
 48 H        4.7640     0.4590    -0.6320 H     1 <1>   0.1500 
 49 H        7.7840    -2.4250     0.3460 H     1 <1>   0.1500 
 50 H        6.5060     2.1410    -0.9460 H     1 <1>   0.1500 
 51 H        9.4920    -0.7090     0.0230 H     1 <1>   0.1500 
 52 H        9.3570     1.4020    -2.7550 H     1 <1>   0.1500 
 53 H       10.9210     4.2160     0.9470 H     1 <1>   0.1500 
 54 H        9.4590     3.1830     2.4540 H     1 <1>   0.0800 
 55 H        9.1920     1.4900     2.1330 H     1 <1>   0.0800 
 56 H        7.9510     2.6630     1.7510 H     1 <1>   0.0800 
 57 H       11.0940     3.0900    -3.1470 H     1 <1>   0.1500 
 58 H       11.8740     4.4990    -1.2870 H     1 <1>   0.1500 
@<TRIPOS>BOND
  1   1   2  2   
  2   2   3  am  
  3   2   4  1   
  4   3   5  1   
  5   3   6  1   
  6   4   7  1   
  7   4  28  1   
  8   4  29  1   
  9   5   8  1   
 10   5  30  1   
 11   5  31  1   
 12   6  32  1   
 13   6  33  1   
 14   6  34  1   
 15   7   8  1   
 16   7   9  1   
 17   7  35  1   
 18   8  10  1   
 19   8  36  1   
 20   9  11  1   
 21   9  37  1   
 22   9  38  1   
 23  10  11  1   
 24  10  39  1   
 25  10  40  1   
 26  11  12  1   
 27  11  41  1   
 28  12  13  1   
 29  12  14  1   
 30  12  42  1   
 31  13  15  1   
 32  13  43  1   
 33  13  44  1   
 34  14  45  1   
 35  14  46  1   
 36  14  47  1   
 37  15  16  ar  
 38  15  17  ar  
 39  16  18  ar  
 40  16  48  1   
 41  17  19  ar  
 42  17  49  1   
 43  18  20  ar  
 44  18  50  1   
 45  19  20  ar  
 46  19  51  1   
 47  20  21  1   
 48  21  22  ar  
 49  21  23  ar  
 50  22  24  ar  
 51  22  25  1   
 52  23  26  ar  
 53  23  52  1   
 54  24  27  ar  
 55  24  53  1   
 56  25  54  1   
 57  25  55  1   
 58  25  56  1   
 59  26  27  ar  
 60  26  57  1   
 61  27  58  1   
@<TRIPOS>SUBSTRUCTURE
  1 ****  13 GROUP 4 **** **** 0

# MOE 2024.06 (io_trps.svl 2023.06)
