@<TRIPOS>MOLECULE
NONAME
39 39 1 0 0 
SMALL
USER_CHARGES


@<TRIPOS>ATOM
  1 O       -0.7020    -2.0090     1.1170 O.2   1 <1>  -0.5700 
  2 C       -0.4850    -2.0060    -0.0800 C.2   1 <1>   0.7800 
  3 O        0.7410    -1.9380    -0.5880 O.3   1 <1>  -0.4300 
  4 N       -1.5150    -2.1950    -0.9510 N.am  1 <1>  -0.6600 
  5 C        1.9510    -1.7650     0.1180 C.3   1 <1>   0.2800 
  6 C       -2.8780    -1.6600    -0.6520 C.3   1 <1>   0.2200 
  7 C       -1.4630    -3.3450    -1.8820 C.3   1 <1>   0.1400 
  8 C        3.0370    -1.7100    -0.9550 C.3   1 <1>  -0.2400 
  9 C        2.2030    -2.9680     1.0350 C.3   1 <1>  -0.2400 
 10 C        1.9290    -0.4390     0.8870 C.3   1 <1>  -0.2400 
 11 C       -3.9030    -2.8150    -0.6200 C.3   1 <1>  -0.1600 
 12 C       -3.2500    -0.5570    -1.6570 C.3   1 <1>   0.1200 
 13 C       -2.1680    -4.5430    -1.2180 C.3   1 <1>  -0.1600 
 14 C       -3.2730    -4.1500    -0.2150 C.3   1 <1>   0.4230 
 15 O       -4.5520    -0.1380    -1.4150 O.3   1 <1>  -0.6800 
 16 N       -2.7030    -4.0190     1.1410 N.4   1 <1>  -0.8530 
 17 H       -2.8590    -1.1940     0.3190 H     1 <1>   0.0800 
 18 H       -1.9640    -3.0750    -2.7970 H     1 <1>   0.0800 
 19 H       -0.4430    -3.5940    -2.1260 H     1 <1>   0.0800 
 20 H        4.0030    -1.5750    -0.5030 H     1 <1>   0.0800 
 21 H        2.8610    -0.8870    -1.6250 H     1 <1>   0.0800 
 22 H        3.0540    -2.6240    -1.5210 H     1 <1>   0.0800 
 23 H        3.1870    -2.8960     1.4630 H     1 <1>   0.0800 
 24 H        2.1450    -3.8850     0.4770 H     1 <1>   0.0800 
 25 H        1.5030    -2.9940     1.8480 H     1 <1>   0.0800 
 26 H        2.8970    -0.2490     1.3140 H     1 <1>   0.0800 
 27 H        1.2210    -0.4650     1.6940 H     1 <1>   0.0800 
 28 H        1.6860     0.3740     0.2270 H     1 <1>   0.0800 
 29 H       -4.7160    -2.5590     0.0370 H     1 <1>   0.0800 
 30 H       -4.3340    -2.9290    -1.6000 H     1 <1>   0.0800 
 31 H       -3.1990    -0.9210    -2.6680 H     1 <1>   0.0800 
 32 H       -2.5950     0.2900    -1.5400 H     1 <1>   0.0800 
 33 H       -1.4390    -5.1800    -0.7480 H     1 <1>   0.0800 
 34 H       -2.6150    -5.1230    -2.0060 H     1 <1>   0.0800 
 35 H       -4.0310    -4.9180    -0.2070 H     1 <1>   0.0800 
 36 H       -4.7880     0.6200    -1.9900 H     1 <1>   0.4000 
 37 H       -1.9820    -3.2710     1.1390 H     1 <1>   0.4500 
 38 H       -2.2450    -4.8780     1.4550 H     1 <1>   0.4500 
 39 H       -3.4110    -3.7430     1.8260 H     1 <1>   0.4500 
@<TRIPOS>BOND
  1   1   2  2   
  2   2   3  1   
  3   2   4  am  
  4   3   5  1   
  5   4   6  1   
  6   4   7  1   
  7   5   8  1   
  8   5   9  1   
  9   5  10  1   
 10   6  11  1   
 11   6  12  1   
 12   6  17  1   
 13   7  13  1   
 14   7  18  1   
 15   7  19  1   
 16   8  20  1   
 17   8  21  1   
 18   8  22  1   
 19   9  23  1   
 20   9  24  1   
 21   9  25  1   
 22  10  26  1   
 23  10  27  1   
 24  10  28  1   
 25  11  14  1   
 26  11  29  1   
 27  11  30  1   
 28  12  15  1   
 29  12  31  1   
 30  12  32  1   
 31  13  14  1   
 32  13  33  1   
 33  13  34  1   
 34  14  16  1   
 35  14  35  1   
 36  15  36  1   
 37  16  37  1   
 38  16  38  1   
 39  16  39  1   
@<TRIPOS>SUBSTRUCTURE
  1 ****   2 GROUP 4 **** **** 0

# MOE 2024.06 (io_trps.svl 2023.06)
