@<TRIPOS>MOLECULE
NONAME
40 42 1 0 0 
SMALL
USER_CHARGES


@<TRIPOS>ATOM
  1 N       -0.3780     0.5010    -0.8930 N.1   1 <1>  -0.5570 
  2 C       -1.3640     1.0420    -0.7010 C.1   1 <1>   0.4840 
  3 C       -2.6300     1.6560    -0.4430 C.ar  1 <1>   0.0730 
  4 C       -2.7290     3.0190    -0.1320 C.ar  1 <1>   0.4100 
  5 C       -3.7890     0.9070    -0.5030 C.ar  1 <1>  -0.1500 
  6 N       -3.8860     3.6310     0.1000 N.ar  1 <1>  -0.6200 
  7 N       -1.6070     3.8250    -0.0430 N.pl3 1 <1>  -0.8380 
  8 C       -4.9910     1.5380    -0.2590 C.ar  1 <1>  -0.1430 
  9 C       -4.9820     2.8970     0.0380 C.ar  1 <1>   0.1670 
 10 C       -1.7150     5.2250    -0.5410 C.3   1 <1>   0.3900 
 11 C       -0.6870     3.6480     1.1160 C.3   1 <1>   0.1290 
 12 C       -6.2780     0.7200    -0.3120 C.3   1 <1>  -0.0160 
 13 C       -6.2760     3.6550     0.3010 C.3   1 <1>  -0.0160 
 14 C       -0.3410     5.7810    -0.8770 C.2   1 <1>  -0.1810 
 15 C       -7.5250     1.5990    -0.4470 C.3   1 <1>  -0.1600 
 16 C       -7.4820     2.7430     0.5690 C.3   1 <1>  -0.1600 
 17 C        0.2770     6.9170    -0.4760 C.2   1 <1>  -0.3320 
 18 C        0.5730     5.1590    -1.7200 C.2   1 <1>   0.1390 
 19 N        1.4860     6.9260    -1.0780 N.pl3 1 <1>   0.3000 
 20 C       -0.1970     8.0220     0.4530 C.3   1 <1>  -0.0600 
 21 N        1.6710     5.8400    -1.8490 N.2   1 <1>  -0.7070 
 22 H       -3.7520    -0.1430    -0.7360 H     1 <1>   0.1500 
 23 H       -2.1910     5.8310     0.2100 H     1 <1>   0.0800 
 24 H       -2.3290     5.2440    -1.4250 H     1 <1>   0.0800 
 25 H       -0.9460     2.7650     1.6740 H     1 <1>   0.0800 
 26 H       -0.7480     4.4990     1.7720 H     1 <1>   0.0800 
 27 H        0.3260     3.5510     0.7620 H     1 <1>   0.0800 
 28 H       -6.3500     0.1440     0.5940 H     1 <1>   0.0800 
 29 H       -6.2410     0.0320    -1.1380 H     1 <1>   0.0800 
 30 H       -6.4780     4.2670    -0.5600 H     1 <1>   0.0800 
 31 H       -6.1360     4.3120     1.1410 H     1 <1>   0.0800 
 32 H       -8.4060     1.0010    -0.2890 H     1 <1>   0.0800 
 33 H       -7.5720     2.0050    -1.4430 H     1 <1>   0.0800 
 34 H       -8.3880     3.3210     0.5150 H     1 <1>   0.0800 
 35 H       -7.4050     2.3360     1.5630 H     1 <1>   0.0800 
 36 H        0.3950     4.2150    -2.2090 H     1 <1>   0.1500 
 37 H        2.2040     7.6540    -0.9840 H     1 <1>   0.2700 
 38 H       -1.1850     7.8130     0.8210 H     1 <1>   0.0800 
 39 H       -0.2210     8.9610    -0.0710 H     1 <1>   0.0800 
 40 H        0.4670     8.1080     1.2950 H     1 <1>   0.0800 
@<TRIPOS>BOND
  1   1   2  3   
  2   2   3  1   
  3   3   4  ar  
  4   3   5  ar  
  5   4   6  ar  
  6   4   7  1   
  7   5   8  ar  
  8   5  22  1   
  9   6   9  ar  
 10   7  10  1   
 11   7  11  1   
 12   8   9  ar  
 13   8  12  1   
 14   9  13  1   
 15  10  14  1   
 16  10  23  1   
 17  10  24  1   
 18  11  25  1   
 19  11  26  1   
 20  11  27  1   
 21  12  15  1   
 22  12  28  1   
 23  12  29  1   
 24  13  16  1   
 25  13  30  1   
 26  13  31  1   
 27  14  17  2   
 28  14  18  1   
 29  15  16  1   
 30  15  32  1   
 31  15  33  1   
 32  16  34  1   
 33  16  35  1   
 34  17  19  1   
 35  17  20  1   
 36  18  21  2   
 37  18  36  1   
 38  19  21  1   
 39  19  37  1   
 40  20  38  1   
 41  20  39  1   
 42  20  40  1   
@<TRIPOS>SUBSTRUCTURE
  1 ****   4 GROUP 4 **** **** 0

# MOE 2024.06 (io_trps.svl 2023.06)
