@<TRIPOS>MOLECULE
NONAME
46 48 1 0 0 
SMALL
USER_CHARGES


@<TRIPOS>ATOM
  1 O       -0.5810     0.4610     0.6020 O.2   1 <1>  -0.5700 
  2 C        0.4760    -0.0500     0.8850 C.2   1 <1>   0.5690 
  3 N        1.6950     0.5340     0.6600 N.am  1 <1>  -0.4940 
  4 C        0.4550    -1.4550     1.4890 C.3   1 <1>   0.2610 
  5 C        2.1490     1.7020     0.0020 C.2   1 <1>  -0.0880 
  6 O        1.7570    -1.8020     1.9430 O.3   1 <1>  -0.2170 
  7 C        0.1520    -2.5290     0.4430 C.3   1 <1>  -0.0990 
  8 N        1.4500     2.7870    -0.4350 N.pl3 1 <1>   0.3140 
  9 C        3.4570     1.9310    -0.3060 C.2   1 <1>  -0.0540 
 10 N        2.3340    -2.6830     1.1480 N.2   1 <1>  -0.5130 
 11 C        1.5180    -3.1300     0.3040 C.2   1 <1>   0.3280 
 12 N        2.2650     3.6890    -1.0250 N.2   1 <1>  -0.7070 
 13 C        0.0220     3.1030    -0.3090 C.3   1 <1>   0.0160 
 14 C        4.5950     1.0910    -0.0210 C.ar  1 <1>   0.0540 
 15 C        3.4450     3.1730    -0.9490 C.2   1 <1>   0.1080 
 16 C        1.7740    -4.1650    -0.7950 C.3   1 <1>  -0.0190 
 17 C        5.6900     1.5820     0.6850 C.ar  1 <1>  -0.1500 
 18 C        4.6230    -0.2420    -0.4240 C.ar  1 <1>  -0.1500 
 19 C        4.6560     3.8770    -1.5200 C.3   1 <1>  -0.0590 
 20 C        1.0840    -5.4980    -0.4690 C.3   1 <1>  -0.2400 
 21 C        3.2740    -4.4060    -1.0290 C.3   1 <1>  -0.2400 
 22 C        6.7750     0.7750     0.9760 C.ar  1 <1>  -0.1500 
 23 C        5.7020    -1.0560    -0.1310 C.ar  1 <1>  -0.1500 
 24 C        6.7820    -0.5470     0.5690 C.ar  1 <1>  -0.1500 
 25 H        2.4660    -0.0700     0.9790 H     1 <1>   0.3700 
 26 H       -0.2210    -1.4980     2.3220 H     1 <1>   0.0800 
 27 H       -0.2050    -2.1080    -0.4800 H     1 <1>   0.0800 
 28 H       -0.5510    -3.2460     0.8230 H     1 <1>   0.0800 
 29 H       -0.2820     2.9670     0.7110 H     1 <1>   0.0800 
 30 H       -0.5400     2.4540    -0.9530 H     1 <1>   0.0800 
 31 H       -0.1420     4.1240    -0.5970 H     1 <1>   0.0800 
 32 H        1.3600    -3.7810    -1.7110 H     1 <1>   0.0800 
 33 H        5.6830     2.6050     1.0140 H     1 <1>   0.1500 
 34 H        3.7890    -0.6420    -0.9720 H     1 <1>   0.1500 
 35 H        5.3820     3.1600    -1.8560 H     1 <1>   0.0800 
 36 H        5.0950     4.5060    -0.7690 H     1 <1>   0.0800 
 37 H        4.3590     4.4860    -2.3550 H     1 <1>   0.0800 
 38 H        1.4610    -5.8950     0.4570 H     1 <1>   0.0800 
 39 H        1.2660    -6.2150    -1.2500 H     1 <1>   0.0800 
 40 H        0.0210    -5.3650    -0.3780 H     1 <1>   0.0800 
 41 H        3.7370    -4.7910    -0.1370 H     1 <1>   0.0800 
 42 H        3.7580    -3.4820    -1.2920 H     1 <1>   0.0800 
 43 H        3.4250    -5.1090    -1.8290 H     1 <1>   0.0800 
 44 H        7.6120     1.1730     1.5230 H     1 <1>   0.1500 
 45 H        5.7020    -2.0850    -0.4430 H     1 <1>   0.1500 
 46 H        7.6220    -1.1800     0.7990 H     1 <1>   0.1500 
@<TRIPOS>BOND
  1   1   2  2   
  2   2   3  am  
  3   2   4  1   
  4   3   5  1   
  5   3  25  1   
  6   4   6  1   
  7   4   7  1   
  8   4  26  1   
  9   5   8  1   
 10   5   9  2   
 11   6  10  1   
 12   7  11  1   
 13   7  27  1   
 14   7  28  1   
 15   8  12  1   
 16   8  13  1   
 17   9  14  1   
 18   9  15  1   
 19  10  11  2   
 20  11  16  1   
 21  12  15  2   
 22  13  29  1   
 23  13  30  1   
 24  13  31  1   
 25  14  17  ar  
 26  14  18  ar  
 27  15  19  1   
 28  16  20  1   
 29  16  21  1   
 30  16  32  1   
 31  17  22  ar  
 32  17  33  1   
 33  18  23  ar  
 34  18  34  1   
 35  19  35  1   
 36  19  36  1   
 37  19  37  1   
 38  20  38  1   
 39  20  39  1   
 40  20  40  1   
 41  21  41  1   
 42  21  42  1   
 43  21  43  1   
 44  22  24  ar  
 45  22  44  1   
 46  23  24  ar  
 47  23  45  1   
 48  24  46  1   
@<TRIPOS>SUBSTRUCTURE
  1 ****   3 GROUP 4 **** **** 0

# MOE 2024.06 (io_trps.svl 2023.06)
