@<TRIPOS>MOLECULE
NONAME
37 38 1 0 0 
SMALL
USER_CHARGES


@<TRIPOS>ATOM
  1 O        0.4800    -0.0290    -1.8450 O.2   1 <1>  -0.5700 
  2 C        1.1720    -0.5690    -0.9980 C.2   1 <1>   0.7160 
  3 N        2.1430     0.1390    -0.3420 N.am  1 <1>  -0.4930 
  4 C        0.9880    -1.9660    -0.6630 C.2   1 <1>   0.2030 
  5 C        2.5350     1.4950    -0.4600 C.2   1 <1>   0.0630 
  6 N        1.6700    -2.6330     0.2230 N.2   1 <1>  -0.4100 
  7 C        0.0550    -2.8220    -1.2280 C.2   1 <1>  -0.1500 
  8 C        3.5200     2.1050     0.2370 C.2   1 <1>  -0.3320 
  9 C        2.0200     2.4920    -1.2900 C.2   1 <1>   0.1390 
 10 O        1.2480    -3.8730     0.2800 O.3   1 <1>  -0.0190 
 11 C        0.2720    -3.9790    -0.5970 C.2   1 <1>  -0.0400 
 12 N        3.5530     3.3930    -0.1890 N.pl3 1 <1>   0.3140 
 13 C        4.4510     1.5380     1.3000 C.3   1 <1>  -0.0600 
 14 N        2.6270     3.6300    -1.1310 N.2   1 <1>  -0.7070 
 15 C       -0.4280    -5.3170    -0.7600 C.3   1 <1>   0.0200 
 16 C        4.4550     4.4580     0.2680 C.3   1 <1>   0.0160 
 17 C       -1.1870    -5.7410     0.5120 C.3   1 <1>  -0.0800 
 18 C       -1.8010    -7.1350     0.3280 C.3   1 <1>  -0.2400 
 19 C       -2.2880    -4.7360     0.8790 C.3   1 <1>  -0.2400 
 20 H        2.6610    -0.4100     0.3440 H     1 <1>   0.3700 
 21 H       -0.6550    -2.5600    -1.9920 H     1 <1>   0.1500 
 22 H        1.2120     2.3440    -1.9860 H     1 <1>   0.1500 
 23 H        4.2420     0.4990     1.4770 H     1 <1>   0.0800 
 24 H        4.3240     2.0710     2.2250 H     1 <1>   0.0800 
 25 H        5.4750     1.6280     0.9810 H     1 <1>   0.0800 
 26 H        0.3130    -6.0590    -1.0010 H     1 <1>   0.0800 
 27 H       -1.1150    -5.2590    -1.5860 H     1 <1>   0.0800 
 28 H        4.3110     4.6140     1.3200 H     1 <1>   0.0800 
 29 H        4.2270     5.3630    -0.2650 H     1 <1>   0.0800 
 30 H        5.4690     4.1700     0.0710 H     1 <1>   0.0800 
 31 H       -0.4840    -5.7880     1.3280 H     1 <1>   0.0800 
 32 H       -2.5160    -7.1330    -0.4760 H     1 <1>   0.0800 
 33 H       -2.3000    -7.4440     1.2290 H     1 <1>   0.0800 
 34 H       -1.0340    -7.8560     0.1050 H     1 <1>   0.0800 
 35 H       -3.0000    -4.6400     0.0780 H     1 <1>   0.0800 
 36 H       -1.8650    -3.7670     1.0820 H     1 <1>   0.0800 
 37 H       -2.8090    -5.0610     1.7630 H     1 <1>   0.0800 
@<TRIPOS>BOND
  1   1   2  2   
  2   2   3  am  
  3   2   4  1   
  4   3   5  1   
  5   3  20  1   
  6   4   6  2   
  7   4   7  1   
  8   5   8  2   
  9   5   9  1   
 10   6  10  1   
 11   7  11  2   
 12   7  21  1   
 13   8  12  1   
 14   8  13  1   
 15   9  14  2   
 16   9  22  1   
 17  10  11  1   
 18  11  15  1   
 19  12  14  1   
 20  12  16  1   
 21  13  23  1   
 22  13  24  1   
 23  13  25  1   
 24  15  17  1   
 25  15  26  1   
 26  15  27  1   
 27  16  28  1   
 28  16  29  1   
 29  16  30  1   
 30  17  18  1   
 31  17  19  1   
 32  17  31  1   
 33  18  32  1   
 34  18  33  1   
 35  18  34  1   
 36  19  35  1   
 37  19  36  1   
 38  19  37  1   
@<TRIPOS>SUBSTRUCTURE
  1 ****   2 GROUP 4 **** **** 0

# MOE 2024.06 (io_trps.svl 2023.06)
