@<TRIPOS>MOLECULE
NONAME
52 54 1 0 0 
SMALL
USER_CHARGES


@<TRIPOS>ATOM
  1 F        2.8080    -0.2480     1.2060 F     1 <1>  -0.1900 
  2 C        3.3550    -0.1030     0.0230 C.ar  1 <1>   0.1900 
  3 C        3.4100     1.1720    -0.5370 C.ar  1 <1>   0.1170 
  4 C        3.8520    -1.2250    -0.6070 C.ar  1 <1>  -0.1500 
  5 N        2.8850     2.2770     0.1610 N.am  1 <1>  -0.5470 
  6 C        3.9860     1.2810    -1.8000 C.ar  1 <1>  -0.1500 
  7 C        4.4290    -1.0820    -1.8570 C.ar  1 <1>  -0.1500 
  8 C        3.2740     3.5870     0.1510 C.2   1 <1>   0.5690 
  9 C        4.4960     0.1680    -2.4550 C.ar  1 <1>  -0.1440 
 10 O        4.1900     3.9910    -0.5310 O.2   1 <1>  -0.5700 
 11 C        2.5680     4.5680     1.0980 C.3   1 <1>   0.1710 
 12 C        5.1210     0.3060    -3.8320 C.3   1 <1>  -0.0970 
 13 N        3.4690     5.4450     1.9050 N.3   1 <1>  -0.8100 
 14 C        3.9550     6.6920     1.2740 C.3   1 <1>   0.1100 
 15 C        4.1810     4.8800     3.0580 C.3   1 <1>   0.1100 
 16 C        5.4870     6.8190     1.2050 C.3   1 <1>   0.3430 
 17 C        5.3800     4.0110     2.6500 C.3   1 <1>  -0.1600 
 18 N        6.1110     5.5240     0.7940 N.4   1 <1>  -0.9590 
 19 C        6.5470     4.7360     1.9730 C.3   1 <1>   0.3430 
 20 C        7.1870     5.6430    -0.2310 C.3   1 <1>   0.4860 
 21 C        6.7870     6.5920    -1.3450 C.ar  1 <1>  -0.1430 
 22 C        5.8430     6.2170    -2.2910 C.ar  1 <1>   0.1600 
 23 C        7.3570     7.8490    -1.4360 C.ar  1 <1>  -0.1500 
 24 N        5.4200     6.9870    -3.2780 N.ar  1 <1>  -0.6200 
 25 C        6.9310     8.6580    -2.4670 C.ar  1 <1>  -0.1500 
 26 C        5.9720     8.1870    -3.3470 C.ar  1 <1>   0.1600 
 27 H        3.7890    -2.1880    -0.1320 H     1 <1>   0.1500 
 28 H        2.1850     2.0150     0.8580 H     1 <1>   0.3700 
 29 H        4.0290     2.2410    -2.2800 H     1 <1>   0.1500 
 30 H        4.8230    -1.9460    -2.3650 H     1 <1>   0.1500 
 31 H        1.9440     4.0110     1.7730 H     1 <1>   0.0800 
 32 H        1.9160     5.1860     0.5060 H     1 <1>   0.0800 
 33 H        5.2490     1.3400    -4.0970 H     1 <1>   0.0800 
 34 H        4.4900    -0.1600    -4.5670 H     1 <1>   0.0800 
 35 H        6.0850    -0.1710    -3.8490 H     1 <1>   0.0800 
 36 H        3.5660     7.5310     1.8240 H     1 <1>   0.0800 
 37 H        3.5650     6.7650     0.2720 H     1 <1>   0.0800 
 38 H        3.4900     4.2770     3.6250 H     1 <1>   0.0800 
 39 H        4.5060     5.6780     3.7040 H     1 <1>   0.0800 
 40 H        5.8610     7.1180     2.1690 H     1 <1>   0.0800 
 41 H        5.7250     7.6030     0.5060 H     1 <1>   0.0800 
 42 H        5.0600     3.1910     2.0370 H     1 <1>   0.0800 
 43 H        5.7690     3.5660     3.5480 H     1 <1>   0.0800 
 44 H        5.3350     4.9870     0.3520 H     1 <1>   0.4500 
 45 H        7.2660     3.9940     1.6640 H     1 <1>   0.0800 
 46 H        7.0290     5.3870     2.6830 H     1 <1>   0.0800 
 47 H        7.3960     4.6720    -0.6500 H     1 <1>   0.0800 
 48 H        8.0880     6.0100     0.2320 H     1 <1>   0.0800 
 49 H        5.4060     5.2340    -2.2430 H     1 <1>   0.1500 
 50 H        8.1040     8.1980    -0.7430 H     1 <1>   0.1500 
 51 H        7.3350     9.6460    -2.5950 H     1 <1>   0.1500 
 52 H        5.6450     8.8270    -4.1500 H     1 <1>   0.1500 
@<TRIPOS>BOND
  1   1   2  1   
  2   2   3  ar  
  3   2   4  ar  
  4   3   5  1   
  5   3   6  ar  
  6   4   7  ar  
  7   4  27  1   
  8   5   8  am  
  9   5  28  1   
 10   6   9  ar  
 11   6  29  1   
 12   7   9  ar  
 13   7  30  1   
 14   8  10  2   
 15   8  11  1   
 16   9  12  1   
 17  11  13  1   
 18  11  31  1   
 19  11  32  1   
 20  12  33  1   
 21  12  34  1   
 22  12  35  1   
 23  13  14  1   
 24  13  15  1   
 25  14  16  1   
 26  14  36  1   
 27  14  37  1   
 28  15  17  1   
 29  15  38  1   
 30  15  39  1   
 31  16  18  1   
 32  16  40  1   
 33  16  41  1   
 34  17  19  1   
 35  17  42  1   
 36  17  43  1   
 37  18  19  1   
 38  18  20  1   
 39  18  44  1   
 40  19  45  1   
 41  19  46  1   
 42  20  21  1   
 43  20  47  1   
 44  20  48  1   
 45  21  22  ar  
 46  21  23  ar  
 47  22  24  ar  
 48  22  49  1   
 49  23  25  ar  
 50  23  50  1   
 51  24  26  ar  
 52  25  26  ar  
 53  25  51  1   
 54  26  52  1   
@<TRIPOS>SUBSTRUCTURE
  1 ****  10 GROUP 4 **** **** 0

# MOE 2024.06 (io_trps.svl 2023.06)
