@<TRIPOS>MOLECULE
NONAME
49 51 1 0 0 
SMALL
USER_CHARGES


@<TRIPOS>ATOM
  1 S        0.4780    -0.0520    -0.4120 S.3   1 <1>  -0.3320 
  2 C        1.8840     1.0530    -0.2070 C.ar  1 <1>   0.1020 
  3 C        1.1350    -1.7790    -0.4650 C.3   1 <1>  -0.0100 
  4 C        1.6180     2.3980    -0.1430 C.ar  1 <1>  -0.1500 
  5 C        3.1890     0.5720    -0.1160 C.ar  1 <1>  -0.1500 
  6 C        2.6540     3.3330     0.0170 C.ar  1 <1>   0.0000 
  7 C        4.2210     1.4670     0.0410 C.ar  1 <1>  -0.1500 
  8 C        3.9730     2.8440     0.1080 C.ar  1 <1>   0.3610 
  9 C        2.4540     4.7470     0.0910 C.ar  1 <1>  -0.1440 
 10 N        5.0100     3.7460     0.2660 N.ar  1 <1>  -0.1790 
 11 C        3.5270     5.5710     0.2470 C.ar  1 <1>  -0.1500 
 12 C        1.0470     5.3260    -0.0050 C.3   1 <1>  -0.0970 
 13 C        4.8470     5.0670     0.3400 C.ar  1 <1>   0.4610 
 14 N        5.9250     5.8390     0.4950 N.pl3 1 <1>  -0.8690 
 15 C        6.0330     7.3140     0.6110 C.3   1 <1>   0.3890 
 16 C        7.4990     7.6560     0.8490 C.2   1 <1>   0.0060 
 17 N        8.4560     6.7860     0.8050 N.2   1 <1>  -0.3380 
 18 N        7.9680     8.8810     1.1270 N.pl3 1 <1>   0.0480 
 19 N        9.5900     7.4340     1.0550 N.2   1 <1>  -0.3380 
 20 C        9.2810     8.6690     1.2420 C.2   1 <1>   0.0360 
 21 C        7.2640    10.1710     1.2960 C.3   1 <1>   0.0960 
 22 C        6.8730    10.7600    -0.0630 C.3   1 <1>  -0.1600 
 23 C        6.1970    12.1200     0.1000 C.3   1 <1>   0.1200 
 24 O        5.7690    12.5120    -1.1570 O.3   1 <1>  -0.5600 
 25 C        5.1690    13.7670    -1.1910 C.3   1 <1>   0.0400 
 26 H        0.2950    -2.4400    -0.5870 H     1 <1>   0.0800 
 27 H        1.6380    -1.9740     0.4650 H     1 <1>   0.0800 
 28 H        1.8040    -1.8570    -1.3020 H     1 <1>   0.0800 
 29 H        0.5950     2.7200    -0.2180 H     1 <1>   0.1500 
 30 H        3.3880    -0.4830    -0.1670 H     1 <1>   0.1500 
 31 H        5.2280     1.0960     0.1110 H     1 <1>   0.1500 
 32 H        5.9580     3.3880     0.3330 H     1 <1>   0.4570 
 33 H        3.3950     6.6360     0.3030 H     1 <1>   0.1500 
 34 H        0.4320     4.9470     0.7920 H     1 <1>   0.0800 
 35 H        0.5990     5.0610    -0.9470 H     1 <1>   0.0800 
 36 H        1.0610     6.3990     0.0660 H     1 <1>   0.0800 
 37 H        6.8920     5.4760     0.5530 H     1 <1>   0.4000 
 38 H        5.4350     7.6610     1.4370 H     1 <1>   0.0800 
 39 H        5.6940     7.7760    -0.3000 H     1 <1>   0.0800 
 40 H        9.9890     9.4470     1.4650 H     1 <1>   0.1500 
 41 H        7.9170    10.8520     1.8130 H     1 <1>   0.0800 
 42 H        6.3900    10.0160     1.9030 H     1 <1>   0.0800 
 43 H        6.1920    10.0990    -0.5680 H     1 <1>   0.0800 
 44 H        7.7530    10.8860    -0.6700 H     1 <1>   0.0800 
 45 H        6.8910    12.8530     0.4760 H     1 <1>   0.0800 
 46 H        5.3380    12.0540     0.7470 H     1 <1>   0.0800 
 47 H        4.8720    13.9680    -2.2050 H     1 <1>   0.0800 
 48 H        5.8770    14.5100    -0.8680 H     1 <1>   0.0800 
 49 H        4.3010    13.7650    -0.5540 H     1 <1>   0.0800 
@<TRIPOS>BOND
  1   1   2  1   
  2   1   3  1   
  3   2   4  ar  
  4   2   5  ar  
  5   3  26  1   
  6   3  27  1   
  7   3  28  1   
  8   4   6  ar  
  9   4  29  1   
 10   5   7  ar  
 11   5  30  1   
 12   6   8  ar  
 13   6   9  ar  
 14   7   8  ar  
 15   7  31  1   
 16   8  10  ar  
 17   9  11  ar  
 18   9  12  1   
 19  10  13  ar  
 20  10  32  1   
 21  11  13  ar  
 22  11  33  1   
 23  12  34  1   
 24  12  35  1   
 25  12  36  1   
 26  13  14  1   
 27  14  15  1   
 28  14  37  1   
 29  15  16  1   
 30  15  38  1   
 31  15  39  1   
 32  16  17  2   
 33  16  18  1   
 34  17  19  1   
 35  18  20  1   
 36  18  21  1   
 37  19  20  2   
 38  20  40  1   
 39  21  22  1   
 40  21  41  1   
 41  21  42  1   
 42  22  23  1   
 43  22  43  1   
 44  22  44  1   
 45  23  24  1   
 46  23  45  1   
 47  23  46  1   
 48  24  25  1   
 49  25  47  1   
 50  25  48  1   
 51  25  49  1   
@<TRIPOS>SUBSTRUCTURE
  1 ****  13 GROUP 4 **** **** 0

# MOE 2024.06 (io_trps.svl 2023.06)
