@<TRIPOS>MOLECULE
NONAME
55 56 1 0 0 
SMALL
USER_CHARGES


@<TRIPOS>ATOM
  1 O       -0.5330    -0.3850     2.7650 O.2   1 <1>  -0.5700 
  2 C       -1.0430     0.4070     2.0070 C.2   1 <1>   0.5690 
  3 N       -1.7540    -0.0130     0.9090 N.am  1 <1>  -0.6600 
  4 C       -0.8650     1.8880     2.3310 C.3   1 <1>   0.0440 
  5 C       -2.3750     0.8840    -0.1140 C.3   1 <1>   0.1400 
  6 C       -1.8430    -1.4620     0.5490 C.3   1 <1>   0.1400 
  7 C       -0.1720     2.6850     1.2280 C.ar  1 <1>  -0.1440 
  8 C       -3.7640     0.3700    -0.5510 C.3   1 <1>   0.2000 
  9 C       -3.2610    -1.8430     0.0740 C.3   1 <1>   0.2000 
 10 C        0.9650     2.1880     0.6100 C.ar  1 <1>  -0.1500 
 11 C       -0.6750     3.9140     0.8280 C.ar  1 <1>  -0.1500 
 12 O       -3.6770    -0.9730    -0.9380 O.3   1 <1>  -0.5600 
 13 C       -4.3960     1.1670    -1.7160 C.3   1 <1>  -0.0800 
 14 C       -3.3420    -3.2620    -0.5040 C.3   1 <1>  -0.1600 
 15 C        1.5820     2.9020    -0.4030 C.ar  1 <1>  -0.1500 
 16 C       -0.0580     4.6270    -0.1840 C.ar  1 <1>  -0.1500 
 17 C       -3.5750     1.1180    -3.0170 C.3   1 <1>  -0.2400 
 18 C       -4.6620     2.6320    -1.3320 C.3   1 <1>  -0.2400 
 19 C       -3.0500    -4.3550     0.5370 C.3   1 <1>  -0.1600 
 20 C        1.0730     4.1250    -0.8090 C.ar  1 <1>  -0.1430 
 21 C       -3.2380    -5.7520    -0.0660 C.3   1 <1>  -0.1600 
 22 C        1.7450     4.9120    -1.9200 C.3   1 <1>   0.2630 
 23 C       -2.9450    -6.8430     0.9670 C.3   1 <1>  -0.2400 
 24 O        2.2880     6.0500    -1.3610 O.3   1 <1>  -0.6800 
 25 H       -1.8320     2.3010     2.5430 H     1 <1>   0.0800 
 26 H       -0.2780     1.9720     3.2280 H     1 <1>   0.0800 
 27 H       -2.4910     1.8760     0.2780 H     1 <1>   0.0800 
 28 H       -1.7210     0.9380    -0.9650 H     1 <1>   0.0800 
 29 H       -1.1380    -1.6700    -0.2360 H     1 <1>   0.0800 
 30 H       -1.5810    -2.0680     1.3980 H     1 <1>   0.0800 
 31 H       -4.4310     0.4200     0.2920 H     1 <1>   0.0800 
 32 H       -3.9520    -1.7550     0.8950 H     1 <1>   0.0800 
 33 H        1.3750     1.2390     0.9130 H     1 <1>   0.1500 
 34 H       -1.5500     4.3260     1.3010 H     1 <1>   0.1500 
 35 H       -5.3520     0.7120    -1.9140 H     1 <1>   0.0800 
 36 H       -4.3360    -3.4080    -0.8900 H     1 <1>   0.0800 
 37 H       -2.6480    -3.3490    -1.3220 H     1 <1>   0.0800 
 38 H        2.4620     2.4960    -0.8700 H     1 <1>   0.1500 
 39 H       -0.4560     5.5810    -0.4860 H     1 <1>   0.1500 
 40 H       -2.6350     1.6280    -2.9070 H     1 <1>   0.0800 
 41 H       -4.1220     1.5860    -3.8160 H     1 <1>   0.0800 
 42 H       -3.3830     0.0970    -3.2980 H     1 <1>   0.0800 
 43 H       -3.7420     3.1700    -1.1910 H     1 <1>   0.0800 
 44 H       -5.2390     2.6840    -0.4260 H     1 <1>   0.0800 
 45 H       -5.2200     3.1200    -2.1120 H     1 <1>   0.0800 
 46 H       -2.0390    -4.2630     0.8950 H     1 <1>   0.0800 
 47 H       -3.7160    -4.2380     1.3760 H     1 <1>   0.0800 
 48 H       -4.2490    -5.8610    -0.4190 H     1 <1>   0.0800 
 49 H       -2.5760    -5.8740    -0.9070 H     1 <1>   0.0800 
 50 H        1.0380     5.2090    -2.6750 H     1 <1>   0.0800 
 51 H        2.5400     4.3470    -2.3740 H     1 <1>   0.0800 
 52 H       -3.6100    -6.7520     1.8090 H     1 <1>   0.0800 
 53 H       -1.9310    -6.7670     1.3180 H     1 <1>   0.0800 
 54 H       -3.0830    -7.8140     0.5260 H     1 <1>   0.0800 
 55 H        2.6060     5.8320    -0.4630 H     1 <1>   0.4000 
@<TRIPOS>BOND
  1   1   2  2   
  2   2   3  am  
  3   2   4  1   
  4   3   5  1   
  5   3   6  1   
  6   4   7  1   
  7   4  25  1   
  8   4  26  1   
  9   5   8  1   
 10   5  27  1   
 11   5  28  1   
 12   6   9  1   
 13   6  29  1   
 14   6  30  1   
 15   7  10  ar  
 16   7  11  ar  
 17   8  12  1   
 18   8  13  1   
 19   8  31  1   
 20   9  12  1   
 21   9  14  1   
 22   9  32  1   
 23  10  15  ar  
 24  10  33  1   
 25  11  16  ar  
 26  11  34  1   
 27  13  17  1   
 28  13  18  1   
 29  13  35  1   
 30  14  19  1   
 31  14  36  1   
 32  14  37  1   
 33  15  20  ar  
 34  15  38  1   
 35  16  20  ar  
 36  16  39  1   
 37  17  40  1   
 38  17  41  1   
 39  17  42  1   
 40  18  43  1   
 41  18  44  1   
 42  18  45  1   
 43  19  21  1   
 44  19  46  1   
 45  19  47  1   
 46  20  22  1   
 47  21  23  1   
 48  21  48  1   
 49  21  49  1   
 50  22  24  1   
 51  22  50  1   
 52  22  51  1   
 53  23  52  1   
 54  23  53  1   
 55  23  54  1   
 56  24  55  1   
@<TRIPOS>SUBSTRUCTURE
  1 ****   5 GROUP 4 **** **** 0

# MOE 2024.06 (io_trps.svl 2023.06)
