@<TRIPOS>MOLECULE
NONAME
44 46 1 0 0 
SMALL
USER_CHARGES


@<TRIPOS>ATOM
  1 S        0.3910    -1.7610     2.2630 S.3   1 <1>  -0.0800 
  2 C        0.0060    -3.0430     1.1300 C.2   1 <1>  -0.1100 
  3 C       -0.6450    -0.6350     1.4080 C.2   1 <1>  -0.1100 
  4 C       -0.8550    -2.6090     0.1890 C.2   1 <1>  -0.1810 
  5 C       -1.2230    -1.2300     0.3490 C.2   1 <1>  -0.1500 
  6 C       -1.4090    -3.4490    -0.9430 C.3   1 <1>   0.5240 
  7 N       -2.5540    -4.2400    -0.4420 N.4   1 <1>  -0.9590 
  8 C       -3.0410    -5.2640    -1.4160 C.3   1 <1>   0.3430 
  9 C       -3.6760    -3.4360     0.1260 C.3   1 <1>   0.3430 
 10 C       -3.9430    -6.2560    -0.6660 C.3   1 <1>   0.2000 
 11 C       -4.6280    -4.3710     0.8660 C.3   1 <1>  -0.1600 
 12 O       -3.1370    -6.8010     0.3310 O.3   1 <1>  -0.6800 
 13 C       -5.1600    -5.5370    -0.0260 C.3   1 <1>  -0.1060 
 14 C       -5.8600    -6.5900     0.8500 C.2   1 <1>   0.9060 
 15 C       -6.1080    -5.0100    -1.1620 C.3   1 <1>  -0.0160 
 16 O       -6.9630    -7.0390     0.5410 O.co2 1 <1>  -0.9000 
 17 O       -5.2270    -7.0350     1.8180 O.co2 1 <1>  -0.9000 
 18 C       -6.9510    -3.7910    -0.7970 C.ar  1 <1>  -0.1440 
 19 C       -6.7220    -2.5620    -1.4020 C.ar  1 <1>  -0.1500 
 20 C       -7.9610    -3.9010     0.1450 C.ar  1 <1>  -0.1500 
 21 C       -7.4800    -1.4570    -1.0540 C.ar  1 <1>  -0.1500 
 22 C       -8.7190    -2.7970     0.4950 C.ar  1 <1>  -0.1500 
 23 C       -8.4770    -1.5730    -0.1020 C.ar  1 <1>  -0.1500 
 24 H        0.4760    -3.9960     1.3040 H     1 <1>   0.1500 
 25 H       -0.7080     0.3670     1.7970 H     1 <1>   0.1500 
 26 H       -1.8970    -0.7370    -0.3310 H     1 <1>   0.1500 
 27 H       -0.6380    -4.1160    -1.2930 H     1 <1>   0.0800 
 28 H       -1.7130    -2.8160    -1.7590 H     1 <1>   0.0800 
 29 H       -2.2220    -4.8220     0.3480 H     1 <1>   0.4500 
 30 H       -3.5760    -4.7940    -2.2220 H     1 <1>   0.0800 
 31 H       -2.2110    -5.8110    -1.8310 H     1 <1>   0.0800 
 32 H       -3.2970    -2.7050     0.8230 H     1 <1>   0.0800 
 33 H       -4.2050    -2.9210    -0.6590 H     1 <1>   0.0800 
 34 H       -4.2710    -7.0590    -1.3050 H     1 <1>   0.0800 
 35 H       -4.1040    -4.7710     1.7170 H     1 <1>   0.0800 
 36 H       -5.4440    -3.8050     1.2780 H     1 <1>   0.0800 
 37 H       -3.7610    -7.1190     1.0630 H     1 <1>   0.4000 
 38 H       -5.5470    -4.7490    -2.0360 H     1 <1>   0.0800 
 39 H       -6.7720    -5.7930    -1.4890 H     1 <1>   0.0800 
 40 H       -5.9620    -2.4550    -2.1540 H     1 <1>   0.1500 
 41 H       -8.1630    -4.8520     0.6130 H     1 <1>   0.1500 
 42 H       -7.3010    -0.5070    -1.5260 H     1 <1>   0.1500 
 43 H       -9.4970    -2.8980     1.2320 H     1 <1>   0.1500 
 44 H       -9.0680    -0.7160     0.1700 H     1 <1>   0.1500 
@<TRIPOS>BOND
  1   1   2  1   
  2   1   3  1   
  3   2   4  2   
  4   2  24  1   
  5   3   5  2   
  6   3  25  1   
  7   4   5  1   
  8   4   6  1   
  9   5  26  1   
 10   6   7  1   
 11   6  27  1   
 12   6  28  1   
 13   7   8  1   
 14   7   9  1   
 15   7  29  1   
 16   8  10  1   
 17   8  30  1   
 18   8  31  1   
 19   9  11  1   
 20   9  32  1   
 21   9  33  1   
 22  10  12  1   
 23  10  13  1   
 24  10  34  1   
 25  11  13  1   
 26  11  35  1   
 27  11  36  1   
 28  12  37  1   
 29  13  14  1   
 30  13  15  1   
 31  14  16  ar  
 32  14  17  ar  
 33  15  18  1   
 34  15  38  1   
 35  15  39  1   
 36  18  19  ar  
 37  18  20  ar  
 38  19  21  ar  
 39  19  40  1   
 40  20  22  ar  
 41  20  41  1   
 42  21  23  ar  
 43  21  42  1   
 44  22  23  ar  
 45  22  43  1   
 46  23  44  1   
@<TRIPOS>SUBSTRUCTURE
  1 ****   9 GROUP 4 **** **** 0

# MOE 2024.06 (io_trps.svl 2023.06)
