@<TRIPOS>MOLECULE
NONAME
57 60 1 0 0 
SMALL
USER_CHARGES


@<TRIPOS>ATOM
  1 O        3.0660    -2.0110    -0.9280 O.2   1 <1>  -0.5700 
  2 C        2.7460    -1.7650     0.2210 C.2   1 <1>   0.7030 
  3 N        3.7210    -1.2100     1.0290 N.am  1 <1>  -0.6600 
  4 C        1.3900    -2.0510     0.6890 C.2   1 <1>   0.2770 
  5 C        5.1560    -1.5910     0.8130 C.3   1 <1>   0.1400 
  6 C        3.4560    -0.0740     1.9550 C.3   1 <1>   0.1400 
  7 N        0.2340    -2.2220    -0.0830 N.pl3 1 <1>  -0.7640 
  8 C        0.9900    -2.2330     1.9750 C.2   1 <1>   0.2000 
  9 C        5.7850    -0.8440    -0.3810 C.3   1 <1>   0.3430 
 10 C        4.3860     1.1200     1.6980 C.3   1 <1>  -0.1600 
 11 C       -0.7780    -2.4840     0.7330 C.cat 1 <1>   0.6500 
 12 C        0.1820    -2.1660    -1.5740 C.3   1 <1>   0.2740 
 13 N       -0.3520    -2.4900     1.9860 N.pl3 1 <1>  -0.7000 
 14 N        5.9560     0.6340    -0.1700 N.4   1 <1>  -0.9590 
 15 C        4.7130     1.3660     0.2220 C.3   1 <1>   0.3430 
 16 C        6.5450     1.2450    -1.3890 C.3   1 <1>   0.4810 
 17 C        7.0110     2.6380    -1.0310 C.2   1 <1>  -0.2540 
 18 C        6.4800     3.7870    -1.4730 C.2   1 <1>  -0.2880 
 19 C        8.2010     2.7290    -0.0680 C.3   1 <1>   0.1160 
 20 C        7.0860     5.1190    -1.0190 C.3   1 <1>  -0.0220 
 21 C        9.2900     3.7590    -0.5460 C.3   1 <1>   0.0000 
 22 C        7.8410     3.7890     1.0240 C.3   1 <1>   0.0000 
 23 C        8.2680     4.8470    -0.0480 C.3   1 <1>   0.0000 
 24 C        9.6290     3.7570    -2.0530 C.3   1 <1>  -0.2400 
 25 C       10.6230     3.7160     0.2390 C.3   1 <1>  -0.2400 
 26 H        5.7310    -1.4220     1.7070 H     1 <1>   0.0800 
 27 H        5.1990    -2.6470     0.6020 H     1 <1>   0.0800 
 28 H        2.4380     0.2580     1.8270 H     1 <1>   0.0800 
 29 H        3.5700    -0.4030     2.9750 H     1 <1>   0.0800 
 30 H        1.5890    -2.2020     2.8720 H     1 <1>   0.1500 
 31 H        5.1710    -1.0180    -1.2500 H     1 <1>   0.0800 
 32 H        6.7500    -1.2820    -0.5790 H     1 <1>   0.0800 
 33 H        5.2900     1.0220     2.2720 H     1 <1>   0.0800 
 34 H        3.8870     1.9960     2.0760 H     1 <1>   0.0800 
 35 H       -1.7990    -2.6720     0.4230 H     1 <1>   0.1500 
 36 H        0.5490    -1.2160    -1.9220 H     1 <1>   0.0800 
 37 H       -0.8290    -2.2960    -1.9240 H     1 <1>   0.0800 
 38 H        0.7950    -2.9480    -1.9920 H     1 <1>   0.0800 
 39 H       -0.9300    -2.6750     2.8140 H     1 <1>   0.4500 
 40 H        6.6480     0.7950     0.5710 H     1 <1>   0.4500 
 41 H        4.8700     2.4250     0.0900 H     1 <1>   0.0800 
 42 H        3.8860     1.0730    -0.4050 H     1 <1>   0.0800 
 43 H        7.3860     0.6670    -1.7380 H     1 <1>   0.0800 
 44 H        5.8090     1.2920    -2.1750 H     1 <1>   0.0800 
 45 H        5.6470     3.8840    -2.1500 H     1 <1>   0.1500 
 46 H        8.5770     1.7980     0.3180 H     1 <1>   0.0000 
 47 H        6.3380     5.7070    -0.5160 H     1 <1>   0.0800 
 48 H        7.4350     5.6780    -1.8690 H     1 <1>   0.0800 
 49 H        6.7970     3.8170     1.2840 H     1 <1>   0.0000 
 50 H        8.4630     3.7590     1.9000 H     1 <1>   0.0000 
 51 H        8.7190     5.7330     0.3640 H     1 <1>   0.0000 
 52 H       10.2180     4.6250    -2.2920 H     1 <1>   0.0800 
 53 H        8.7670     3.7660    -2.6910 H     1 <1>   0.0800 
 54 H       10.2070     2.8840    -2.2980 H     1 <1>   0.0800 
 55 H       11.2230     4.5700    -0.0210 H     1 <1>   0.0800 
 56 H       11.1740     2.8300    -0.0200 H     1 <1>   0.0800 
 57 H       10.5010     3.7230     1.3050 H     1 <1>   0.0800 
@<TRIPOS>BOND
  1   1   2  2   
  2   2   3  am  
  3   2   4  1   
  4   3   5  1   
  5   3   6  1   
  6   4   7  1   
  7   4   8  2   
  8   5   9  1   
  9   5  26  1   
 10   5  27  1   
 11   6  10  1   
 12   6  28  1   
 13   6  29  1   
 14   7  11  ar  
 15   7  12  1   
 16   8  13  1   
 17   8  30  1   
 18   9  14  1   
 19   9  31  1   
 20   9  32  1   
 21  10  15  1   
 22  10  33  1   
 23  10  34  1   
 24  11  13  ar  
 25  11  35  1   
 26  12  36  1   
 27  12  37  1   
 28  12  38  1   
 29  13  39  1   
 30  14  15  1   
 31  14  16  1   
 32  14  40  1   
 33  15  41  1   
 34  15  42  1   
 35  16  17  1   
 36  16  43  1   
 37  16  44  1   
 38  17  18  2   
 39  17  19  1   
 40  18  20  1   
 41  18  45  1   
 42  19  21  1   
 43  19  22  1   
 44  19  46  1   
 45  20  23  1   
 46  20  47  1   
 47  20  48  1   
 48  21  23  1   
 49  21  24  1   
 50  21  25  1   
 51  22  23  1   
 52  22  49  1   
 53  22  50  1   
 54  23  51  1   
 55  24  52  1   
 56  24  53  1   
 57  24  54  1   
 58  25  55  1   
 59  25  56  1   
 60  25  57  1   
@<TRIPOS>SUBSTRUCTURE
  1 ****  15 GROUP 4 **** **** 0

# MOE 2024.06 (io_trps.svl 2023.06)
