@<TRIPOS>MOLECULE
NONAME
43 46 1 0 0 
SMALL
USER_CHARGES


@<TRIPOS>ATOM
  1 S        0.0400    -1.1400    -1.0930 S.3   1 <1>  -0.0800 
  2 C       -1.6200    -1.1860    -0.5850 C.2   1 <1>  -0.1400 
  3 C        0.2710    -2.7100    -0.3430 C.2   1 <1>   0.1980 
  4 C       -1.8490    -2.3270     0.0740 C.2   1 <1>   0.0460 
  5 C       -2.5910    -0.0700    -0.8990 C.3   1 <1>   0.0200 
  6 N       -0.7690    -3.1960     0.2090 N.2   1 <1>  -0.5650 
  7 C        1.6520    -3.3160    -0.4240 C.3   1 <1>  -0.0600 
  8 C       -3.2260    -2.6690     0.6340 C.3   1 <1>   0.4010 
  9 C       -3.8840    -0.2890    -0.0880 C.3   1 <1>  -0.1600 
 10 N       -3.4930    -4.0840     0.3490 N.am  1 <1>  -0.7300 
 11 C       -4.3020    -1.7780    -0.0250 C.3   1 <1>  -0.1600 
 12 C       -4.4430    -4.8270     0.9530 C.2   1 <1>   0.5690 
 13 O       -5.2880    -4.3420     1.6620 O.2   1 <1>  -0.5700 
 14 C       -4.4510    -6.3190     0.7220 C.3   1 <1>  -0.0990 
 15 C       -5.5660    -6.7040    -0.2580 C.3   1 <1>   0.0200 
 16 C       -5.5480    -8.1910    -0.5500 C.2   1 <1>   0.2980 
 17 O       -4.5530    -8.6810    -1.2420 O.3   1 <1>  -0.0190 
 18 N       -6.4230    -9.0300    -0.1810 N.2   1 <1>  -0.5650 
 19 N       -4.8150    -9.9480    -1.3180 N.2   1 <1>  -0.4100 
 20 C       -5.9200   -10.1600    -0.6920 C.2   1 <1>   0.5150 
 21 C       -6.5870   -11.4330    -0.5240 C.2   1 <1>   0.1410 
 22 O       -6.0790   -12.5520    -1.0350 O.3   1 <1>  -0.2800 
 23 C       -7.7470   -11.7400     0.1180 C.2   1 <1>  -0.1500 
 24 C       -6.8800   -13.5530    -0.7360 C.2   1 <1>  -0.0100 
 25 C       -7.9370   -13.1170    -0.0200 C.2   1 <1>  -0.1500 
 26 H       -2.8080    -0.0850    -1.9520 H     1 <1>   0.0800 
 27 H       -2.1560     0.8830    -0.6520 H     1 <1>   0.0800 
 28 H        1.9320    -3.4480    -1.4530 H     1 <1>   0.0800 
 29 H        1.6590    -4.2710     0.0680 H     1 <1>   0.0800 
 30 H        2.3620    -2.6680     0.0570 H     1 <1>   0.0800 
 31 H       -3.2170    -2.5160     1.7000 H     1 <1>   0.0800 
 32 H       -4.6790     0.2960    -0.5170 H     1 <1>   0.0800 
 33 H       -3.7260     0.0650     0.9170 H     1 <1>   0.0800 
 34 H       -2.6760    -4.5200    -0.0880 H     1 <1>   0.3700 
 35 H       -5.2180    -1.8690     0.5330 H     1 <1>   0.0800 
 36 H       -4.4810    -2.1270    -1.0260 H     1 <1>   0.0800 
 37 H       -4.6110    -6.8130     1.6630 H     1 <1>   0.0800 
 38 H       -3.4960    -6.6300     0.3380 H     1 <1>   0.0800 
 39 H       -5.4470    -6.1660    -1.1810 H     1 <1>   0.0800 
 40 H       -6.5200    -6.4390     0.1640 H     1 <1>   0.0800 
 41 H       -8.4010   -11.0620     0.6370 H     1 <1>   0.1500 
 42 H       -6.6230   -14.5430    -1.0730 H     1 <1>   0.1500 
 43 H       -8.7630   -13.6810     0.3740 H     1 <1>   0.1500 
@<TRIPOS>BOND
  1   1   2  1   
  2   1   3  1   
  3   2   4  2   
  4   2   5  1   
  5   3   6  2   
  6   3   7  1   
  7   4   6  1   
  8   4   8  1   
  9   5   9  1   
 10   5  26  1   
 11   5  27  1   
 12   7  28  1   
 13   7  29  1   
 14   7  30  1   
 15   8  10  1   
 16   8  11  1   
 17   8  31  1   
 18   9  11  1   
 19   9  32  1   
 20   9  33  1   
 21  10  12  am  
 22  10  34  1   
 23  11  35  1   
 24  11  36  1   
 25  12  13  2   
 26  12  14  1   
 27  14  15  1   
 28  14  37  1   
 29  14  38  1   
 30  15  16  1   
 31  15  39  1   
 32  15  40  1   
 33  16  17  1   
 34  16  18  2   
 35  17  19  1   
 36  18  20  1   
 37  19  20  2   
 38  20  21  1   
 39  21  22  1   
 40  21  23  2   
 41  22  24  1   
 42  23  25  1   
 43  23  41  1   
 44  24  25  2   
 45  24  42  1   
 46  25  43  1   
@<TRIPOS>SUBSTRUCTURE
  1 ****  14 GROUP 4 **** **** 0

# MOE 2024.06 (io_trps.svl 2023.06)
