@<TRIPOS>MOLECULE
NONAME
52 55 1 0 0 
SMALL
USER_CHARGES


@<TRIPOS>ATOM
  1 O       -0.0590     0.5440    -1.0710 O.2   1 <1>  -0.5700 
  2 C        0.0150     1.5900    -0.4700 C.2   1 <1>   0.5690 
  3 N       -1.0810     2.2110     0.0890 N.am  1 <1>  -0.4770 
  4 C        1.4110     2.2180    -0.3260 C.3   1 <1>   0.2700 
  5 C       -2.3900     1.7000     0.0300 C.ar  1 <1>   0.1170 
  6 C       -0.8740     3.4690     0.8550 C.3   1 <1>   0.1400 
  7 N        1.4840     3.7070    -0.0260 N.pl3 1 <1>  -0.8380 
  8 C       -3.4180     2.4450    -0.5390 C.ar  1 <1>  -0.1500 
  9 C       -2.6870     0.4440     0.5470 C.ar  1 <1>  -0.1500 
 10 C        0.1510     4.3800     0.1660 C.3   1 <1>   0.2090 
 11 C        2.6420     4.4240    -0.0870 C.ar  1 <1>   0.4100 
 12 C       -4.7120     1.9550    -0.5750 C.ar  1 <1>  -0.1500 
 13 C       -3.9790    -0.0500     0.5130 C.ar  1 <1>  -0.1500 
 14 N        2.5470     5.7400    -0.0970 N.ar  1 <1>  -0.6200 
 15 C        3.9020     3.7900    -0.1430 C.ar  1 <1>  -0.1500 
 16 C       -4.9940     0.7070    -0.0470 C.ar  1 <1>  -0.1500 
 17 C        3.6590     6.4580    -0.1720 C.ar  1 <1>   0.7710 
 18 C        5.0270     4.5420    -0.2230 C.ar  1 <1>   0.2180 
 19 N        4.8700     5.8850    -0.2390 N.ar  1 <1>  -0.1790 
 20 N        3.5740     7.8110    -0.1830 N.pl3 1 <1>  -0.8380 
 21 C        6.4330     3.9590    -0.2920 C.3   1 <1>  -0.0170 
 22 C        4.6760     8.8120    -0.1930 C.3   1 <1>   0.2090 
 23 C        2.2570     8.5090    -0.1570 C.3   1 <1>   0.2090 
 24 C        7.2880     4.3590     0.9170 C.3   1 <1>  -0.2400 
 25 C        4.0050    10.1420     0.1160 C.3   1 <1>  -0.1600 
 26 C        2.5780     9.9780    -0.3900 C.3   1 <1>  -0.1600 
 27 H        1.9380     2.0260    -1.2430 H     1 <1>   0.0800 
 28 H        1.9120     1.6850     0.4610 H     1 <1>   0.0800 
 29 H       -0.5300     3.2260     1.8450 H     1 <1>   0.0800 
 30 H       -1.8060     3.9970     0.9510 H     1 <1>   0.0800 
 31 H       -3.2040     3.4080    -0.9620 H     1 <1>   0.1500 
 32 H       -1.8980    -0.1480     0.9740 H     1 <1>   0.1500 
 33 H        0.2670     5.2640     0.7690 H     1 <1>   0.0800 
 34 H       -0.2330     4.6830    -0.7930 H     1 <1>   0.0800 
 35 H       -5.4990     2.5410    -1.0170 H     1 <1>   0.1500 
 36 H       -4.1930    -1.0240     0.9170 H     1 <1>   0.1500 
 37 H        3.9560     2.7200    -0.1180 H     1 <1>   0.1500 
 38 H       -5.9990     0.3230    -0.0750 H     1 <1>   0.1500 
 39 H        5.6530     6.5210    -0.2990 H     1 <1>   0.4570 
 40 H        6.9150     4.2810    -1.2000 H     1 <1>   0.0800 
 41 H        6.3730     2.8840    -0.3290 H     1 <1>   0.0800 
 42 H        5.1180     8.8520    -1.1760 H     1 <1>   0.0800 
 43 H        5.4280     8.5890     0.5460 H     1 <1>   0.0800 
 44 H        1.8020     8.3750     0.8100 H     1 <1>   0.0800 
 45 H        1.5960     8.1290    -0.9200 H     1 <1>   0.0800 
 46 H        7.4480     5.4220     0.9570 H     1 <1>   0.0800 
 47 H        8.2520     3.8810     0.8560 H     1 <1>   0.0800 
 48 H        6.8180     4.0430     1.8330 H     1 <1>   0.0800 
 49 H        4.5120    10.9680    -0.3520 H     1 <1>   0.0800 
 50 H        3.9990    10.2970     1.1820 H     1 <1>   0.0800 
 51 H        1.8840    10.6240     0.1200 H     1 <1>   0.0800 
 52 H        2.5340    10.1850    -1.4450 H     1 <1>   0.0800 
@<TRIPOS>BOND
  1   1   2  2   
  2   2   3  am  
  3   2   4  1   
  4   3   5  1   
  5   3   6  1   
  6   4   7  1   
  7   4  27  1   
  8   4  28  1   
  9   5   8  ar  
 10   5   9  ar  
 11   6  10  1   
 12   6  29  1   
 13   6  30  1   
 14   7  10  1   
 15   7  11  1   
 16   8  12  ar  
 17   8  31  1   
 18   9  13  ar  
 19   9  32  1   
 20  10  33  1   
 21  10  34  1   
 22  11  14  ar  
 23  11  15  ar  
 24  12  16  ar  
 25  12  35  1   
 26  13  16  ar  
 27  13  36  1   
 28  14  17  ar  
 29  15  18  ar  
 30  15  37  1   
 31  16  38  1   
 32  17  19  ar  
 33  17  20  1   
 34  18  19  ar  
 35  18  21  1   
 36  19  39  1   
 37  20  22  1   
 38  20  23  1   
 39  21  24  1   
 40  21  40  1   
 41  21  41  1   
 42  22  25  1   
 43  22  42  1   
 44  22  43  1   
 45  23  26  1   
 46  23  44  1   
 47  23  45  1   
 48  24  46  1   
 49  24  47  1   
 50  24  48  1   
 51  25  26  1   
 52  25  49  1   
 53  25  50  1   
 54  26  51  1   
 55  26  52  1   
@<TRIPOS>SUBSTRUCTURE
  1 ****   7 GROUP 4 **** **** 0

# MOE 2024.06 (io_trps.svl 2023.06)
