@<TRIPOS>MOLECULE
NONAME
45 47 1 0 0 
SMALL
USER_CHARGES


@<TRIPOS>ATOM
  1 CL      -0.3090    -1.4560    -1.8100 Cl    1 <1>  -0.1770 
  2 C       -1.7070    -1.6010    -0.7680 C.ar  1 <1>   0.1770 
  3 C       -2.5630    -0.5250    -0.5580 C.ar  1 <1>   0.0820 
  4 C       -1.9440    -2.8240    -0.1680 C.ar  1 <1>  -0.1500 
  5 O       -2.3680     0.6760    -1.1440 O.3   1 <1>  -0.3630 
  6 C       -3.6700    -0.6910     0.2580 C.ar  1 <1>  -0.1500 
  7 C       -3.0580    -2.9900     0.6470 C.ar  1 <1>  -0.1430 
  8 C       -1.3800     1.5070    -0.5780 C.3   1 <1>   0.0400 
  9 C       -3.9130    -1.9150     0.8600 C.ar  1 <1>  -0.1500 
 10 C       -3.3490    -4.3320     1.2940 C.3   1 <1>   0.4870 
 11 N       -3.8410    -5.2750     0.2490 N.4   1 <1>  -0.9590 
 12 C       -5.1720    -4.8290    -0.2780 C.3   1 <1>   0.3430 
 13 C       -4.0440    -6.6390     0.8330 C.3   1 <1>   0.3430 
 14 C       -6.2140    -5.6420     0.4940 C.3   1 <1>   0.2000 
 15 C       -5.5300    -6.9940     0.6680 C.3   1 <1>  -0.0800 
 16 O       -6.3730    -5.0710     1.7530 O.3   1 <1>  -0.6800 
 17 C       -5.7670    -7.9190    -0.5430 C.3   1 <1>  -0.0170 
 18 C       -4.8960    -9.1620    -0.4560 C.ar  1 <1>  -0.1430 
 19 C       -5.0770   -10.1110     0.5320 C.ar  1 <1>  -0.1500 
 20 C       -3.8790    -9.4080    -1.3580 C.ar  1 <1>  -0.1500 
 21 C       -4.2420   -11.2140     0.5830 C.ar  1 <1>   0.1600 
 22 C       -3.1010   -10.5460    -1.2190 C.ar  1 <1>   0.1600 
 23 N       -3.2530   -11.4460    -0.2630 N.ar  1 <1>  -0.6200 
 24 H       -1.2500    -3.6250    -0.3490 H     1 <1>   0.1500 
 25 H       -4.3340     0.1410     0.4150 H     1 <1>   0.1500 
 26 H       -1.3650     2.4320    -1.1260 H     1 <1>   0.0800 
 27 H       -0.4220     1.0240    -0.6530 H     1 <1>   0.0800 
 28 H       -1.6280     1.6920     0.4520 H     1 <1>   0.0800 
 29 H       -4.7790    -2.0170     1.4950 H     1 <1>   0.1500 
 30 H       -4.0920    -4.2140     2.0660 H     1 <1>   0.0800 
 31 H       -2.4470    -4.7130     1.7440 H     1 <1>   0.0800 
 32 H       -3.1520    -5.2880    -0.5130 H     1 <1>   0.4500 
 33 H       -5.3360    -3.7710    -0.1570 H     1 <1>   0.0800 
 34 H       -5.2420    -5.0740    -1.3250 H     1 <1>   0.0800 
 35 H       -3.4140    -7.3680     0.3480 H     1 <1>   0.0800 
 36 H       -3.8030    -6.6270     1.8840 H     1 <1>   0.0800 
 37 H       -7.1710    -5.6800     0.0000 H     1 <1>   0.0800 
 38 H       -5.8870    -7.4980     1.5500 H     1 <1>   0.0800 
 39 H       -7.1680    -5.4260     2.2060 H     1 <1>   0.4000 
 40 H       -5.5560    -7.4040    -1.4640 H     1 <1>   0.0800 
 41 H       -6.8000    -8.2210    -0.5730 H     1 <1>   0.0800 
 42 H       -5.8590   -10.0120     1.2630 H     1 <1>   0.1500 
 43 H       -3.6790    -8.7380    -2.1740 H     1 <1>   0.1500 
 44 H       -4.3950   -11.9460     1.3590 H     1 <1>   0.1500 
 45 H       -2.3130   -10.7280    -1.9310 H     1 <1>   0.1500 
@<TRIPOS>BOND
  1   1   2  1   
  2   2   3  ar  
  3   2   4  ar  
  4   3   5  1   
  5   3   6  ar  
  6   4   7  ar  
  7   4  24  1   
  8   5   8  1   
  9   6   9  ar  
 10   6  25  1   
 11   7   9  ar  
 12   7  10  1   
 13   8  26  1   
 14   8  27  1   
 15   8  28  1   
 16   9  29  1   
 17  10  11  1   
 18  10  30  1   
 19  10  31  1   
 20  11  12  1   
 21  11  13  1   
 22  11  32  1   
 23  12  14  1   
 24  12  33  1   
 25  12  34  1   
 26  13  15  1   
 27  13  35  1   
 28  13  36  1   
 29  14  15  1   
 30  14  16  1   
 31  14  37  1   
 32  15  17  1   
 33  15  38  1   
 34  16  39  1   
 35  17  18  1   
 36  17  40  1   
 37  17  41  1   
 38  18  19  ar  
 39  18  20  ar  
 40  19  21  ar  
 41  19  42  1   
 42  20  22  ar  
 43  20  43  1   
 44  21  23  ar  
 45  21  44  1   
 46  22  23  ar  
 47  22  45  1   
@<TRIPOS>SUBSTRUCTURE
  1 ****  11 GROUP 4 **** **** 0

# MOE 2024.06 (io_trps.svl 2023.06)
