@<TRIPOS>MOLECULE
NONAME
54 57 1 0 0 
SMALL
USER_CHARGES


@<TRIPOS>ATOM
  1 O       -0.7000    -0.6470    -1.4220 O.2   1 <1>  -0.5700 
  2 C       -0.2810    -1.5230    -0.7090 C.2   1 <1>   0.4230 
  3 C        1.1320    -1.7130    -0.4430 C.ar  1 <1>   0.0860 
  4 C       -1.3180    -2.4540    -0.0760 C.3   1 <1>  -0.0990 
  5 C        2.0860    -1.1150    -1.2710 C.ar  1 <1>  -0.1500 
  6 C        1.6140    -2.4770     0.6260 C.ar  1 <1>  -0.1500 
  7 C       -2.6500    -2.4880    -0.8560 C.3   1 <1>  -0.1600 
  8 C        3.4420    -1.2780    -1.0570 C.ar  1 <1>  -0.1500 
  9 C        2.9690    -2.6440     0.8450 C.ar  1 <1>  -0.1500 
 10 C       -3.7020    -3.3510    -0.1610 C.3   1 <1>   0.3430 
 11 C        3.8870    -2.0460     0.0020 C.ar  1 <1>  -0.1500 
 12 N       -4.9570    -3.3790    -0.9650 N.4   1 <1>  -0.9590 
 13 C       -5.6860    -2.0530    -1.0080 C.3   1 <1>   0.3430 
 14 C       -5.8570    -4.5000    -0.5220 C.3   1 <1>   0.3430 
 15 C       -6.2760    -1.6040     0.3490 C.3   1 <1>   0.1440 
 16 C       -6.9870    -4.0510     0.4200 C.3   1 <1>  -0.1600 
 17 C       -7.4920    -0.7730    -0.0060 C.ar  1 <1>   0.1670 
 18 C       -6.6370    -2.8080     1.2530 C.3   1 <1>  -0.1600 
 19 C       -5.3840    -0.5790     1.1050 C.3   1 <1>  -0.1600 
 20 N       -8.5970    -1.2520    -0.5290 N.ar  1 <1>  -0.6200 
 21 C       -7.3000     0.5520     0.2430 C.ar  1 <1>  -0.1430 
 22 C       -5.9280     0.8290     0.8000 C.3   1 <1>  -0.0170 
 23 C       -9.5300    -0.3380    -0.7650 C.ar  1 <1>   0.4770 
 24 C       -8.3290     1.4130    -0.0480 C.ar  1 <1>   0.1600 
 25 N       -9.4590     0.9690    -0.5570 N.ar  1 <1>  -0.6200 
 26 C      -10.8290    -0.8400    -1.3490 C.3   1 <1>  -0.0970 
 27 H       -1.4940    -2.1140     0.9290 H     1 <1>   0.0800 
 28 H       -0.9130    -3.4490    -0.0350 H     1 <1>   0.0800 
 29 H        1.7550    -0.5110    -2.0990 H     1 <1>   0.1500 
 30 H        0.9340    -2.9470     1.3110 H     1 <1>   0.1500 
 31 H       -2.4570    -2.8710    -1.8440 H     1 <1>   0.0800 
 32 H       -3.0110    -1.4800    -0.9500 H     1 <1>   0.0800 
 33 H        4.1520    -0.8050    -1.7150 H     1 <1>   0.1500 
 34 H        3.3150    -3.2380     1.6730 H     1 <1>   0.1500 
 35 H       -3.9020    -2.9660     0.8260 H     1 <1>   0.0800 
 36 H       -3.3170    -4.3530    -0.0570 H     1 <1>   0.0800 
 37 H        4.9430    -2.1750     0.1700 H     1 <1>   0.1500 
 38 H       -4.6770    -3.5910    -1.9330 H     1 <1>   0.4500 
 39 H       -6.5100    -2.1500    -1.6980 H     1 <1>   0.0800 
 40 H       -5.0450    -1.2780    -1.3930 H     1 <1>   0.0800 
 41 H       -5.2670    -5.2540    -0.0260 H     1 <1>   0.0800 
 42 H       -6.3060    -4.9640    -1.3860 H     1 <1>   0.0800 
 43 H       -7.2420    -4.8680     1.0730 H     1 <1>   0.0800 
 44 H       -7.8640    -3.8470    -0.1700 H     1 <1>   0.0800 
 45 H       -7.4690    -2.5480     1.8870 H     1 <1>   0.0800 
 46 H       -5.8100    -3.0520     1.8970 H     1 <1>   0.0800 
 47 H       -4.3440    -0.6540     0.8470 H     1 <1>   0.0800 
 48 H       -5.4760    -0.7350     2.1670 H     1 <1>   0.0800 
 49 H       -5.3270     1.3250     0.0580 H     1 <1>   0.0800 
 50 H       -5.9800     1.4350     1.6890 H     1 <1>   0.0800 
 51 H       -8.2300     2.4700     0.1320 H     1 <1>   0.1500 
 52 H      -10.9420    -1.8930    -1.1660 H     1 <1>   0.0800 
 53 H      -10.8350    -0.6620    -2.4070 H     1 <1>   0.0800 
 54 H      -11.6540    -0.3200    -0.9000 H     1 <1>   0.0800 
@<TRIPOS>BOND
  1   1   2  2   
  2   2   3  1   
  3   2   4  1   
  4   3   5  ar  
  5   3   6  ar  
  6   4   7  1   
  7   4  27  1   
  8   4  28  1   
  9   5   8  ar  
 10   5  29  1   
 11   6   9  ar  
 12   6  30  1   
 13   7  10  1   
 14   7  31  1   
 15   7  32  1   
 16   8  11  ar  
 17   8  33  1   
 18   9  11  ar  
 19   9  34  1   
 20  10  12  1   
 21  10  35  1   
 22  10  36  1   
 23  11  37  1   
 24  12  13  1   
 25  12  14  1   
 26  12  38  1   
 27  13  15  1   
 28  13  39  1   
 29  13  40  1   
 30  14  16  1   
 31  14  41  1   
 32  14  42  1   
 33  15  17  1   
 34  15  18  1   
 35  15  19  1   
 36  16  18  1   
 37  16  43  1   
 38  16  44  1   
 39  17  20  ar  
 40  17  21  ar  
 41  18  45  1   
 42  18  46  1   
 43  19  22  1   
 44  19  47  1   
 45  19  48  1   
 46  20  23  ar  
 47  21  22  1   
 48  21  24  ar  
 49  22  49  1   
 50  22  50  1   
 51  23  25  ar  
 52  23  26  1   
 53  24  25  ar  
 54  24  51  1   
 55  26  52  1   
 56  26  53  1   
 57  26  54  1   
@<TRIPOS>SUBSTRUCTURE
  1 ****   7 GROUP 4 **** **** 0

# MOE 2024.06 (io_trps.svl 2023.06)
