@<TRIPOS>MOLECULE
NONAME
65 67 1 0 0 
SMALL
USER_CHARGES


@<TRIPOS>ATOM
  1 O       -0.3400    -0.2180    -0.8220 O.3   1 <1>  -0.5600 
  2 C       -1.3880     0.6140    -0.4120 C.3   1 <1>   0.2000 
  3 C        0.1910    -1.0630     0.1470 C.3   1 <1>   0.1200 
  4 C       -2.7110    -0.0190    -0.8960 C.3   1 <1>   0.3430 
  5 C       -1.2090     2.0270    -1.0140 C.3   1 <1>   0.1100 
  6 C       -0.8440    -2.0990     0.6050 C.3   1 <1>  -0.1600 
  7 N       -3.0390    -1.3660    -0.3010 N.4   1 <1>  -0.9590 
  8 N       -0.0400     2.7580    -0.4570 N.3   1 <1>  -0.8100 
  9 C       -1.9390    -2.3750    -0.4250 C.3   1 <1>   0.3430 
 10 C       -4.3040    -1.8940    -0.8820 C.3   1 <1>   0.4860 
 11 C       -0.2700     4.2280    -0.4800 C.3   1 <1>   0.1100 
 12 C        1.1940     2.4120    -1.1930 C.3   1 <1>   0.1100 
 13 C       -4.7810    -3.0530    -0.0290 C.ar  1 <1>  -0.1440 
 14 C        0.6590     5.0480     0.4490 C.3   1 <1>   0.3430 
 15 C        2.3790     2.3230    -0.2320 C.3   1 <1>  -0.1600 
 16 C       -5.3250    -2.8210     1.2280 C.ar  1 <1>  -0.1500 
 17 C       -4.6740    -4.3550    -0.4970 C.ar  1 <1>  -0.1500 
 18 N        2.1170     4.7200     0.3260 N.4   1 <1>  -0.9590 
 19 C        2.3770     3.3640     0.8830 C.3   1 <1>   0.3430 
 20 C       -5.7430    -3.8830     2.0110 C.ar  1 <1>  -0.1500 
 21 C       -5.0920    -5.4140     0.2880 C.ar  1 <1>  -0.1500 
 22 C        2.9570     5.7650     0.9740 C.3   1 <1>   0.3430 
 23 C       -5.6240    -5.1790     1.5430 C.ar  1 <1>  -0.1500 
 24 C        4.4270     5.6690     0.5240 C.3   1 <1>  -0.0800 
 25 C        5.2360     6.7980     1.1760 C.3   1 <1>  -0.2400 
 26 C        4.5850     5.7500    -1.0050 C.3   1 <1>  -0.2400 
 27 H       -1.3910     0.7050     0.6600 H     1 <1>   0.0800 
 28 H        0.5560    -0.4730     0.9710 H     1 <1>   0.0800 
 29 H        1.0290    -1.5640    -0.3080 H     1 <1>   0.0800 
 30 H       -2.6560    -0.1070    -1.9680 H     1 <1>   0.0800 
 31 H       -3.5110     0.6650    -0.6690 H     1 <1>   0.0800 
 32 H       -2.1040     2.5790    -0.7850 H     1 <1>   0.0800 
 33 H       -1.1380     1.9670    -2.0880 H     1 <1>   0.0800 
 34 H       -1.2740    -1.8070     1.5460 H     1 <1>   0.0800 
 35 H       -0.3140    -3.0170     0.7890 H     1 <1>   0.0800 
 36 H       -3.2180    -1.2630     0.7050 H     1 <1>   0.4500 
 37 H       -2.3330    -3.3600    -0.2330 H     1 <1>   0.0800 
 38 H       -1.5240    -2.3670    -1.4210 H     1 <1>   0.0800 
 39 H       -4.1430    -2.2220    -1.8970 H     1 <1>   0.0800 
 40 H       -5.0620    -1.1280    -0.8860 H     1 <1>   0.0800 
 41 H       -1.2760     4.4330    -0.1580 H     1 <1>   0.0800 
 42 H       -0.1860     4.5970    -1.4880 H     1 <1>   0.0800 
 43 H        1.3890     3.1430    -1.9600 H     1 <1>   0.0800 
 44 H        1.0990     1.4650    -1.6960 H     1 <1>   0.0800 
 45 H        0.3450     4.8890     1.4680 H     1 <1>   0.0800 
 46 H        0.5080     6.0920     0.2290 H     1 <1>   0.0800 
 47 H        3.2950     2.3900    -0.7910 H     1 <1>   0.0800 
 48 H        2.3680     1.3500     0.2240 H     1 <1>   0.0800 
 49 H       -5.4390    -1.8220     1.6130 H     1 <1>   0.1500 
 50 H       -4.2690    -4.5640    -1.4730 H     1 <1>   0.1500 
 51 H        2.3590     4.6970    -0.6710 H     1 <1>   0.4500 
 52 H        3.3270     3.3360     1.3900 H     1 <1>   0.0800 
 53 H        1.6090     3.1130     1.5970 H     1 <1>   0.0800 
 54 H       -6.1660    -3.7060     2.9860 H     1 <1>   0.1500 
 55 H       -5.0090    -6.4250    -0.0750 H     1 <1>   0.1500 
 56 H        2.8980     5.6730     2.0470 H     1 <1>   0.0800 
 57 H        2.5870     6.7400     0.7040 H     1 <1>   0.0800 
 58 H       -5.9500    -6.0040     2.1530 H     1 <1>   0.1500 
 59 H        4.8450     4.7380     0.8680 H     1 <1>   0.0800 
 60 H        4.8800     7.7630     0.8570 H     1 <1>   0.0800 
 61 H        6.2750     6.7170     0.9080 H     1 <1>   0.0800 
 62 H        5.1680     6.7460     2.2490 H     1 <1>   0.0800 
 63 H        4.1400     6.6520    -1.3900 H     1 <1>   0.0800 
 64 H        4.1400     4.9030    -1.4940 H     1 <1>   0.0800 
 65 H        5.6300     5.7580    -1.2660 H     1 <1>   0.0800 
@<TRIPOS>BOND
  1   1   2  1   
  2   1   3  1   
  3   2   4  1   
  4   2   5  1   
  5   2  27  1   
  6   3   6  1   
  7   3  28  1   
  8   3  29  1   
  9   4   7  1   
 10   4  30  1   
 11   4  31  1   
 12   5   8  1   
 13   5  32  1   
 14   5  33  1   
 15   6   9  1   
 16   6  34  1   
 17   6  35  1   
 18   7   9  1   
 19   7  10  1   
 20   7  36  1   
 21   8  11  1   
 22   8  12  1   
 23   9  37  1   
 24   9  38  1   
 25  10  13  1   
 26  10  39  1   
 27  10  40  1   
 28  11  14  1   
 29  11  41  1   
 30  11  42  1   
 31  12  15  1   
 32  12  43  1   
 33  12  44  1   
 34  13  16  ar  
 35  13  17  ar  
 36  14  18  1   
 37  14  45  1   
 38  14  46  1   
 39  15  19  1   
 40  15  47  1   
 41  15  48  1   
 42  16  20  ar  
 43  16  49  1   
 44  17  21  ar  
 45  17  50  1   
 46  18  19  1   
 47  18  22  1   
 48  18  51  1   
 49  19  52  1   
 50  19  53  1   
 51  20  23  ar  
 52  20  54  1   
 53  21  23  ar  
 54  21  55  1   
 55  22  24  1   
 56  22  56  1   
 57  22  57  1   
 58  23  58  1   
 59  24  25  1   
 60  24  26  1   
 61  24  59  1   
 62  25  60  1   
 63  25  61  1   
 64  25  62  1   
 65  26  63  1   
 66  26  64  1   
 67  26  65  1   
@<TRIPOS>SUBSTRUCTURE
  1 ****   2 GROUP 4 **** **** 0

# MOE 2024.06 (io_trps.svl 2023.06)
