@<TRIPOS>MOLECULE
NONAME
55 57 1 0 0 
SMALL
USER_CHARGES


@<TRIPOS>ATOM
  1 O       -0.3260     0.1580     1.7280 O.2   1 <1>  -0.5700 
  2 C       -1.2890     0.8240     1.4310 C.2   1 <1>   0.5690 
  3 N       -2.5300     0.2680     1.2900 N.am  1 <1>  -0.6600 
  4 C       -1.0770     2.3070     1.1980 C.3   1 <1>  -0.0990 
  5 C       -3.7720     0.9680     0.8870 C.3   1 <1>   0.1400 
  6 C       -2.7520    -1.1890     1.3770 C.3   1 <1>   0.1400 
  7 C       -0.7570     2.5900    -0.2740 C.3   1 <1>  -0.0160 
  8 C       -4.8810    -0.0940     0.9390 C.3   1 <1>  -0.0800 
  9 C       -4.1400    -1.4350     0.7830 C.3   1 <1>  -0.0800 
 10 C       -0.6050     4.0890    -0.5110 C.ar  1 <1>  -0.1440 
 11 C       -6.0830     0.1130    -0.0360 C.3   1 <1>   0.2800 
 12 C       -4.0830    -1.8600    -0.6930 C.3   1 <1>  -0.1600 
 13 C        0.6180     4.7470    -0.4100 C.ar  1 <1>  -0.1440 
 14 C       -1.7410     4.8150    -0.8350 C.ar  1 <1>  -0.1500 
 15 O       -5.6840     0.8330    -1.1470 O.3   1 <1>  -0.6800 
 16 C       -6.5830    -1.2470    -0.5580 C.3   1 <1>  -0.1600 
 17 C       -7.2490     0.8920     0.6100 C.3   1 <1>  -0.1600 
 18 C       -5.4930    -2.0730    -1.2750 C.3   1 <1>  -0.1600 
 19 C        0.6770     6.1140    -0.6360 C.ar  1 <1>  -0.1500 
 20 C        1.9050     4.0110    -0.0620 C.3   1 <1>  -0.0970 
 21 C       -1.6710     6.1780    -1.0580 C.ar  1 <1>  -0.1500 
 22 C       -6.9120     2.3140     1.0940 C.3   1 <1>  -0.2400 
 23 C       -0.4590     6.8360    -0.9580 C.ar  1 <1>  -0.1440 
 24 C       -0.3700     8.3320    -1.2030 C.3   1 <1>  -0.0970 
 25 H       -1.9430     2.8610     1.5020 H     1 <1>   0.0800 
 26 H       -0.2580     2.6330     1.8110 H     1 <1>   0.0800 
 27 H       -3.9860     1.7820     1.5560 H     1 <1>   0.0800 
 28 H       -3.6300     1.3510    -0.1070 H     1 <1>   0.0800 
 29 H       -1.9830    -1.7240     0.8450 H     1 <1>   0.0800 
 30 H       -2.7300    -1.4790     2.4140 H     1 <1>   0.0800 
 31 H       -1.5510     2.2110    -0.8940 H     1 <1>   0.0800 
 32 H        0.1360     2.0640    -0.5590 H     1 <1>   0.0800 
 33 H       -5.2680    -0.0900     1.9420 H     1 <1>   0.0800 
 34 H       -4.6320    -2.2110     1.3430 H     1 <1>   0.0800 
 35 H       -3.5860    -1.0870    -1.2550 H     1 <1>   0.0800 
 36 H       -3.5060    -2.7620    -0.8020 H     1 <1>   0.0800 
 37 H       -2.6930     4.3200    -0.9170 H     1 <1>   0.1500 
 38 H       -6.4180     0.8690    -1.7860 H     1 <1>   0.4000 
 39 H       -6.9330    -1.8150     0.2870 H     1 <1>   0.0800 
 40 H       -7.4260    -1.1160    -1.2130 H     1 <1>   0.0800 
 41 H       -8.0590     0.9560    -0.0960 H     1 <1>   0.0800 
 42 H       -7.6160     0.3290     1.4490 H     1 <1>   0.0800 
 43 H       -5.7540    -3.1160    -1.2120 H     1 <1>   0.0800 
 44 H       -5.4710    -1.8090    -2.3180 H     1 <1>   0.0800 
 45 H        1.6190     6.6270    -0.5630 H     1 <1>   0.1500 
 46 H        2.7180     4.6990     0.0810 H     1 <1>   0.0800 
 47 H        2.1690     3.3380    -0.8580 H     1 <1>   0.0800 
 48 H        1.7820     3.4480     0.8450 H     1 <1>   0.0800 
 49 H       -2.5650     6.7210    -1.3100 H     1 <1>   0.1500 
 50 H       -6.4960     2.9020     0.2940 H     1 <1>   0.0800 
 51 H       -6.2090     2.2860     1.9070 H     1 <1>   0.0800 
 52 H       -7.8050     2.8010     1.4430 H     1 <1>   0.0800 
 53 H       -1.3280     8.7980    -1.0550 H     1 <1>   0.0800 
 54 H       -0.0460     8.5160    -2.2110 H     1 <1>   0.0800 
 55 H        0.3330     8.7790    -0.5240 H     1 <1>   0.0800 
@<TRIPOS>BOND
  1   1   2  2   
  2   2   3  am  
  3   2   4  1   
  4   3   5  1   
  5   3   6  1   
  6   4   7  1   
  7   4  25  1   
  8   4  26  1   
  9   5   8  1   
 10   5  27  1   
 11   5  28  1   
 12   6   9  1   
 13   6  29  1   
 14   6  30  1   
 15   7  10  1   
 16   7  31  1   
 17   7  32  1   
 18   8   9  1   
 19   8  11  1   
 20   8  33  1   
 21   9  12  1   
 22   9  34  1   
 23  10  13  ar  
 24  10  14  ar  
 25  11  15  1   
 26  11  16  1   
 27  11  17  1   
 28  12  18  1   
 29  12  35  1   
 30  12  36  1   
 31  13  19  ar  
 32  13  20  1   
 33  14  21  ar  
 34  14  37  1   
 35  15  38  1   
 36  16  18  1   
 37  16  39  1   
 38  16  40  1   
 39  17  22  1   
 40  17  41  1   
 41  17  42  1   
 42  18  43  1   
 43  18  44  1   
 44  19  23  ar  
 45  19  45  1   
 46  20  46  1   
 47  20  47  1   
 48  20  48  1   
 49  21  23  ar  
 50  21  49  1   
 51  22  50  1   
 52  22  51  1   
 53  22  52  1   
 54  23  24  1   
 55  24  53  1   
 56  24  54  1   
 57  24  55  1   
@<TRIPOS>SUBSTRUCTURE
  1 ****   5 GROUP 4 **** **** 0

# MOE 2024.06 (io_trps.svl 2023.06)
