@<TRIPOS>MOLECULE
NONAME
52 54 1 0 0 
SMALL
USER_CHARGES


@<TRIPOS>ATOM
  1 O       -2.2790     1.8470     2.0060 O.2   1 <1>  -0.5700 
  2 C       -2.6280     2.3970     0.9780 C.2   1 <1>   0.5440 
  3 N       -3.9490     2.7570     0.8190 N.am  1 <1>  -0.6600 
  4 C       -1.6520     2.6850    -0.0380 C.ar  1 <1>   0.0860 
  5 C       -4.5520     3.0650    -0.5150 C.3   1 <1>   0.1400 
  6 C       -4.9270     2.6220     1.9310 C.3   1 <1>   0.1400 
  7 C       -1.0480     1.7370    -0.8550 C.ar  1 <1>   0.1660 
  8 C       -1.2600     3.9930    -0.2560 C.ar  1 <1>   0.1600 
  9 C       -4.8640     1.7950    -1.3300 C.3   1 <1>   0.1400 
 10 C       -5.6580     1.2760     1.8790 C.3   1 <1>  -0.1600 
 11 N       -0.1810     2.0670    -1.7830 N.ar  1 <1>  -0.6200 
 12 C       -1.3480     0.2520    -0.7400 C.3   1 <1>  -0.0960 
 13 N       -0.4020     4.3500    -1.1790 N.ar  1 <1>  -0.6200 
 14 N       -5.4050     0.6580    -0.5160 N.am  1 <1>  -0.6600 
 15 C       -6.3820     0.9990     0.5560 C.3   1 <1>   0.1400 
 16 C        0.0880     3.3560    -1.8990 C.ar  1 <1>   0.7200 
 17 C       -4.9920    -0.6400    -0.7550 C.2   1 <1>   0.5440 
 18 N        0.9640     3.6890    -2.8410 N.pl3 1 <1>  -0.9000 
 19 O       -4.2540    -0.8620    -1.6960 O.2   1 <1>  -0.5700 
 20 C       -5.3550    -1.7330     0.1130 C.ar  1 <1>   0.0860 
 21 C       -6.6040    -2.3560     0.0290 C.ar  1 <1>   0.3930 
 22 C       -4.4630    -2.2040     1.0650 C.ar  1 <1>  -0.1500 
 23 O       -7.4730    -1.8960    -0.8930 O.3   1 <1>  -0.3620 
 24 N       -7.0050    -3.3630     0.8080 N.ar  1 <1>  -0.6200 
 25 C       -4.8630    -3.2470     1.8700 C.ar  1 <1>  -0.1500 
 26 C       -8.7380    -2.4880    -1.0910 C.3   1 <1>   0.1200 
 27 C       -6.1280    -3.7830     1.7020 C.ar  1 <1>   0.1600 
 28 C       -9.4500    -1.7210    -2.2010 C.3   1 <1>  -0.2400 
 29 H       -3.8910     3.6920    -1.0870 H     1 <1>   0.0800 
 30 H       -5.4610     3.6210    -0.3750 H     1 <1>   0.0800 
 31 H       -5.6390     3.4280     1.8790 H     1 <1>   0.0800 
 32 H       -4.4140     2.7080     2.8750 H     1 <1>   0.0800 
 33 H       -1.6820     4.7670     0.3630 H     1 <1>   0.1500 
 34 H       -3.9560     1.4890    -1.8200 H     1 <1>   0.0800 
 35 H       -5.5710     2.0350    -2.1040 H     1 <1>   0.0800 
 36 H       -6.3870     1.2710     2.6680 H     1 <1>   0.0800 
 37 H       -4.9600     0.4860     2.0900 H     1 <1>   0.0800 
 38 H       -2.1530     0.0520    -0.0610 H     1 <1>   0.0800 
 39 H       -0.4710    -0.2650    -0.3970 H     1 <1>   0.0800 
 40 H       -1.6190    -0.1370    -1.7060 H     1 <1>   0.0800 
 41 H       -6.9660     1.8540     0.2600 H     1 <1>   0.0800 
 42 H       -7.0690     0.1840     0.6930 H     1 <1>   0.0800 
 43 H        1.3610     4.6240    -2.8190 H     1 <1>   0.4000 
 44 H        1.5040     2.9440    -3.2710 H     1 <1>   0.4000 
 45 H       -3.4870    -1.7590     1.1640 H     1 <1>   0.1500 
 46 H       -4.2030    -3.6440     2.6210 H     1 <1>   0.1500 
 47 H       -9.2900    -2.4320    -0.1680 H     1 <1>   0.0800 
 48 H       -8.5910    -3.5190    -1.3660 H     1 <1>   0.0800 
 49 H       -6.4310    -4.5990     2.3360 H     1 <1>   0.1500 
 50 H       -9.5750    -0.6920    -1.9180 H     1 <1>   0.0800 
 51 H      -10.4190    -2.1510    -2.3750 H     1 <1>   0.0800 
 52 H       -8.8800    -1.7780    -3.1120 H     1 <1>   0.0800 
@<TRIPOS>BOND
  1   1   2  2   
  2   2   3  am  
  3   2   4  1   
  4   3   5  1   
  5   3   6  1   
  6   4   7  ar  
  7   4   8  ar  
  8   5   9  1   
  9   5  29  1   
 10   5  30  1   
 11   6  10  1   
 12   6  31  1   
 13   6  32  1   
 14   7  11  ar  
 15   7  12  1   
 16   8  13  ar  
 17   8  33  1   
 18   9  14  1   
 19   9  34  1   
 20   9  35  1   
 21  10  15  1   
 22  10  36  1   
 23  10  37  1   
 24  11  16  ar  
 25  12  38  1   
 26  12  39  1   
 27  12  40  1   
 28  13  16  ar  
 29  14  15  1   
 30  14  17  am  
 31  15  41  1   
 32  15  42  1   
 33  16  18  1   
 34  17  19  2   
 35  17  20  1   
 36  18  43  1   
 37  18  44  1   
 38  20  21  ar  
 39  20  22  ar  
 40  21  23  1   
 41  21  24  ar  
 42  22  25  ar  
 43  22  45  1   
 44  23  26  1   
 45  24  27  ar  
 46  25  27  ar  
 47  25  46  1   
 48  26  28  1   
 49  26  47  1   
 50  26  48  1   
 51  27  49  1   
 52  28  50  1   
 53  28  51  1   
 54  28  52  1   
@<TRIPOS>SUBSTRUCTURE
  1 ****  14 GROUP 4 **** **** 0

# MOE 2024.06 (io_trps.svl 2023.06)
