@<TRIPOS>MOLECULE
NONAME
50 52 1 0 0 
SMALL
USER_CHARGES


@<TRIPOS>ATOM
  1 O       -0.5240    -1.0800    -0.5650 O.2   1 <1>  -0.5700 
  2 C        0.5310    -1.6480    -0.6750 C.2   1 <1>   0.5690 
  3 N        1.1300    -1.8010    -1.8740 N.am  1 <1>  -0.7300 
  4 C        1.2300    -2.2280     0.5360 C.3   1 <1>  -0.0990 
  5 C        2.4250    -2.4920    -2.0480 C.3   1 <1>   0.1400 
  6 C        2.7390    -1.9170     0.4900 C.3   1 <1>  -0.0800 
  7 C        3.3840    -2.0920    -0.9090 C.3   1 <1>  -0.0800 
  8 C        3.5620    -2.7780     1.4590 C.3   1 <1>  -0.1600 
  9 C        4.5320    -3.0910    -0.7210 C.3   1 <1>  -0.1600 
 10 C        4.9030    -2.9550     0.7510 C.3   1 <1>   0.2200 
 11 N        5.7300    -4.1020     1.2410 N.am  1 <1>  -0.6600 
 12 C        7.0900    -3.9990     1.4560 C.2   1 <1>   0.5690 
 13 C        5.0440    -5.4130     1.4650 C.3   1 <1>   0.0600 
 14 O        7.7310    -4.9310     1.8890 O.2   1 <1>  -0.5700 
 15 C        7.8590    -2.7010     1.2070 C.3   1 <1>   0.1810 
 16 O        7.7410    -2.2730    -0.1430 O.3   1 <1>  -0.3630 
 17 C        7.9770    -0.9840    -0.4910 C.ar  1 <1>   0.0820 
 18 C        8.6200    -0.0660     0.3330 C.ar  1 <1>  -0.1500 
 19 C        7.5350    -0.5840    -1.7390 C.ar  1 <1>  -0.1500 
 20 C        8.8000     1.2460    -0.0790 C.ar  1 <1>  -0.1440 
 21 C        7.7130     0.7220    -2.1540 C.ar  1 <1>  -0.1500 
 22 C        8.3410     1.6450    -1.3310 C.ar  1 <1>  -0.1440 
 23 C        9.5040     2.2240     0.8520 C.3   1 <1>  -0.0970 
 24 C        8.5150     3.0750    -1.8250 C.3   1 <1>  -0.0970 
 25 H        0.6470    -1.4340    -2.6960 H     1 <1>   0.3700 
 26 H        0.7940    -1.8230     1.4310 H     1 <1>   0.0800 
 27 H        1.0610    -3.2880     0.5270 H     1 <1>   0.0800 
 28 H        2.2460    -3.5540    -2.0300 H     1 <1>   0.0800 
 29 H        2.8550    -2.2330    -3.0000 H     1 <1>   0.0800 
 30 H        2.8650    -0.8830     0.7670 H     1 <1>   0.0800 
 31 H        3.8210    -1.1440    -1.1790 H     1 <1>   0.0800 
 32 H        3.0740    -3.7240     1.5970 H     1 <1>   0.0800 
 33 H        3.6830    -2.2940     2.4120 H     1 <1>   0.0800 
 34 H        5.3660    -2.8630    -1.3590 H     1 <1>   0.0800 
 35 H        4.1900    -4.0890    -0.9220 H     1 <1>   0.0800 
 36 H        5.4400    -2.0300     0.8690 H     1 <1>   0.0800 
 37 H        4.3060    -5.5910     0.7050 H     1 <1>   0.0800 
 38 H        4.5680    -5.4100     2.4300 H     1 <1>   0.0800 
 39 H        5.7530    -6.2230     1.4370 H     1 <1>   0.0800 
 40 H        8.9020    -2.8490     1.4170 H     1 <1>   0.0800 
 41 H        7.4640    -1.9400     1.8530 H     1 <1>   0.0800 
 42 H        8.9910    -0.3620     1.2940 H     1 <1>   0.1500 
 43 H        7.0530    -1.2970    -2.3810 H     1 <1>   0.1500 
 44 H        7.3600     1.0150    -3.1270 H     1 <1>   0.1500 
 45 H        9.7920     1.7470     1.7710 H     1 <1>   0.0800 
 46 H        8.8500     3.0430     1.0890 H     1 <1>   0.0800 
 47 H       10.3900     2.6070     0.3800 H     1 <1>   0.0800 
 48 H        8.0950     3.1980    -2.8070 H     1 <1>   0.0800 
 49 H        9.5590     3.3240    -1.8720 H     1 <1>   0.0800 
 50 H        8.0190     3.7580    -1.1600 H     1 <1>   0.0800 
@<TRIPOS>BOND
  1   1   2  2   
  2   2   3  am  
  3   2   4  1   
  4   3   5  1   
  5   3  25  1   
  6   4   6  1   
  7   4  26  1   
  8   4  27  1   
  9   5   7  1   
 10   5  28  1   
 11   5  29  1   
 12   6   7  1   
 13   6   8  1   
 14   6  30  1   
 15   7   9  1   
 16   7  31  1   
 17   8  10  1   
 18   8  32  1   
 19   8  33  1   
 20   9  10  1   
 21   9  34  1   
 22   9  35  1   
 23  10  11  1   
 24  10  36  1   
 25  11  12  am  
 26  11  13  1   
 27  12  14  2   
 28  12  15  1   
 29  13  37  1   
 30  13  38  1   
 31  13  39  1   
 32  15  16  1   
 33  15  40  1   
 34  15  41  1   
 35  16  17  1   
 36  17  18  ar  
 37  17  19  ar  
 38  18  20  ar  
 39  18  42  1   
 40  19  21  ar  
 41  19  43  1   
 42  20  22  ar  
 43  20  23  1   
 44  21  22  ar  
 45  21  44  1   
 46  22  24  1   
 47  23  45  1   
 48  23  46  1   
 49  23  47  1   
 50  24  48  1   
 51  24  49  1   
 52  24  50  1   
@<TRIPOS>SUBSTRUCTURE
  1 ****  10 GROUP 4 **** **** 0

# MOE 2024.06 (io_trps.svl 2023.06)
