@<TRIPOS>MOLECULE
NONAME
44 45 1 0 0 
SMALL
USER_CHARGES


@<TRIPOS>ATOM
  1 O       -3.0810     1.6010    -1.5690 O.2   1 <1>  -0.5700 
  2 C       -2.4100     1.3090    -0.6060 C.2   1 <1>   0.5690 
  3 N       -2.1740     0.0050    -0.3060 N.am  1 <1>  -0.7300 
  4 C       -1.8250     2.4300     0.2890 C.3   1 <1>   0.0610 
  5 C       -2.6740    -1.1510    -1.0790 C.3   1 <1>   0.2200 
  6 C       -0.8250     3.2960    -0.5200 C.3   1 <1>  -0.1600 
  7 C       -2.9700     3.3470     0.7660 C.3   1 <1>  -0.2400 
  8 C       -1.1330     1.8810     1.5600 C.3   1 <1>  -0.2400 
  9 C       -3.8350    -1.7820    -0.3300 C.3   1 <1>  -0.0800 
 10 C       -1.6400    -2.2700    -1.0520 C.3   1 <1>   0.1200 
 11 C        0.3820     2.5340    -1.0910 C.3   1 <1>  -0.2400 
 12 C       -3.1160    -2.6990     0.6670 C.3   1 <1>   0.1200 
 13 C       -4.7630    -2.5630    -1.2800 C.3   1 <1>  -0.0170 
 14 O       -1.8430    -2.9580     0.1460 O.3   1 <1>  -0.5600 
 15 C       -5.9450    -3.1610    -0.5330 C.ar  1 <1>  -0.1440 
 16 C       -6.0290    -4.5090    -0.2460 C.ar  1 <1>  -0.1500 
 17 C       -6.9970    -2.3790    -0.1010 C.ar  1 <1>  -0.1500 
 18 C       -7.1280    -4.9940     0.4430 C.ar  1 <1>   0.1600 
 19 C       -8.0510    -2.9650     0.5810 C.ar  1 <1>   0.1600 
 20 N       -8.1410    -4.2540     0.8650 N.ar  1 <1>  -0.6200 
 21 H       -1.6240    -0.2370     0.5200 H     1 <1>   0.3700 
 22 H       -2.9260    -0.8500    -2.0830 H     1 <1>   0.0800 
 23 H       -1.3530     3.7440    -1.3450 H     1 <1>   0.0800 
 24 H       -0.4640     4.1000     0.0990 H     1 <1>   0.0800 
 25 H       -2.5970     4.1360     1.3940 H     1 <1>   0.0800 
 26 H       -3.6970     2.7800     1.3200 H     1 <1>   0.0800 
 27 H       -3.4690     3.7920    -0.0770 H     1 <1>   0.0800 
 28 H       -0.7270     2.6880     2.1450 H     1 <1>   0.0800 
 29 H       -0.3280     1.2140     1.3110 H     1 <1>   0.0800 
 30 H       -1.8390     1.3470     2.1720 H     1 <1>   0.0800 
 31 H       -4.4160    -1.0360     0.1820 H     1 <1>   0.0800 
 32 H       -0.6300    -1.9030    -1.0940 H     1 <1>   0.0800 
 33 H       -1.8090    -2.9630    -1.8580 H     1 <1>   0.0800 
 34 H        0.0600     1.7240    -1.7220 H     1 <1>   0.0800 
 35 H        1.0030     2.1420    -0.3070 H     1 <1>   0.0800 
 36 H        0.9800     3.2020    -1.6860 H     1 <1>   0.0800 
 37 H       -3.6250    -3.6330     0.8270 H     1 <1>   0.0800 
 38 H       -2.9830    -2.2000     1.6110 H     1 <1>   0.0800 
 39 H       -4.2160    -3.3450    -1.7780 H     1 <1>   0.0800 
 40 H       -5.1380    -1.8970    -2.0380 H     1 <1>   0.0800 
 41 H       -5.2520    -5.1860    -0.5500 H     1 <1>   0.1500 
 42 H       -7.0080    -1.3210    -0.2890 H     1 <1>   0.1500 
 43 H       -7.1770    -6.0480     0.6580 H     1 <1>   0.1500 
 44 H       -8.8630    -2.3390     0.9100 H     1 <1>   0.1500 
@<TRIPOS>BOND
  1   1   2  2   
  2   2   3  am  
  3   2   4  1   
  4   3   5  1   
  5   3  21  1   
  6   4   6  1   
  7   4   7  1   
  8   4   8  1   
  9   5   9  1   
 10   5  10  1   
 11   5  22  1   
 12   6  11  1   
 13   6  23  1   
 14   6  24  1   
 15   7  25  1   
 16   7  26  1   
 17   7  27  1   
 18   8  28  1   
 19   8  29  1   
 20   8  30  1   
 21   9  12  1   
 22   9  13  1   
 23   9  31  1   
 24  10  14  1   
 25  10  32  1   
 26  10  33  1   
 27  11  34  1   
 28  11  35  1   
 29  11  36  1   
 30  12  14  1   
 31  12  37  1   
 32  12  38  1   
 33  13  15  1   
 34  13  39  1   
 35  13  40  1   
 36  15  16  ar  
 37  15  17  ar  
 38  16  18  ar  
 39  16  41  1   
 40  17  19  ar  
 41  17  42  1   
 42  18  20  ar  
 43  18  43  1   
 44  19  20  ar  
 45  19  44  1   
@<TRIPOS>SUBSTRUCTURE
  1 ****   9 GROUP 4 **** **** 0

# MOE 2024.06 (io_trps.svl 2023.06)
