@<TRIPOS>MOLECULE
NONAME
51 53 1 0 0 
SMALL
USER_CHARGES


@<TRIPOS>ATOM
  1 O       -0.3200     0.4100     0.3070 O.2   1 <1>  -0.5700 
  2 C       -1.3330     1.0820     0.3200 C.2   1 <1>   0.5440 
  3 N       -2.5500     0.4390     0.2830 N.am  1 <1>  -0.6600 
  4 C       -1.2410     2.5280     0.3590 C.ar  1 <1>   0.0860 
  5 C       -3.8190     1.0660    -0.1670 C.3   1 <1>   0.1400 
  6 C       -2.6580    -1.0410     0.2410 C.3   1 <1>   0.1400 
  7 C       -0.4240     3.2180    -0.5320 C.ar  1 <1>  -0.1500 
  8 C       -1.9570     3.2850     1.2850 C.ar  1 <1>  -0.1500 
  9 C       -4.6360    -0.0850    -0.7510 C.3   1 <1>   0.2000 
 10 C       -4.1330    -1.3350    -0.0340 C.3   1 <1>  -0.0800 
 11 C       -0.3250     4.5970    -0.5250 C.ar  1 <1>   0.0830 
 12 C       -1.8810     4.6650     1.3070 C.ar  1 <1>  -0.1500 
 13 O       -5.9930     0.0850    -0.5280 O.3   1 <1>  -0.6800 
 14 C       -4.3640    -2.6270    -0.8310 C.3   1 <1>   0.0210 
 15 O        0.5160     5.1240    -1.4580 O.3   1 <1>  -0.3630 
 16 C       -1.0730     5.3460     0.3980 C.ar  1 <1>   0.0830 
 17 C       -3.7670    -3.8200    -0.1110 C.2   1 <1>   0.1080 
 18 C        1.3330     6.2290    -1.1400 C.3   1 <1>   0.0400 
 19 O       -1.0090     6.7050     0.3780 O.3   1 <1>  -0.3630 
 20 N       -4.1890    -4.2240     1.0470 N.2   1 <1>  -0.7070 
 21 C       -2.7160    -4.5940    -0.5880 C.2   1 <1>  -0.1500 
 22 C       -1.7810     7.5190     1.2310 C.3   1 <1>   0.1200 
 23 N       -3.4090    -5.2820     1.3420 N.pl3 1 <1>   0.3000 
 24 C       -2.5080    -5.5250     0.3670 C.2   1 <1>  -0.3320 
 25 C       -1.4670     8.9750     0.9010 C.3   1 <1>  -0.2400 
 26 C       -1.4870    -6.6460     0.4100 C.3   1 <1>  -0.0600 
 27 H       -4.3210     1.4940     0.6830 H     1 <1>   0.0800 
 28 H       -3.6330     1.8200    -0.9120 H     1 <1>   0.0800 
 29 H       -2.0330    -1.4160    -0.5520 H     1 <1>   0.0800 
 30 H       -2.3380    -1.4730     1.1750 H     1 <1>   0.0800 
 31 H        0.1530     2.6570    -1.2460 H     1 <1>   0.1500 
 32 H       -2.5790     2.7740     2.0000 H     1 <1>   0.1500 
 33 H       -4.4690    -0.1440    -1.8130 H     1 <1>   0.0800 
 34 H       -4.6180    -1.4220     0.9230 H     1 <1>   0.0800 
 35 H       -2.4590     5.1920     2.0410 H     1 <1>   0.1500 
 36 H       -6.1990    -0.0490     0.4180 H     1 <1>   0.4000 
 37 H       -3.9240    -2.5430    -1.8080 H     1 <1>   0.0800 
 38 H       -5.4200    -2.7910    -0.9510 H     1 <1>   0.0800 
 39 H        2.1720     6.2290    -1.8120 H     1 <1>   0.0800 
 40 H        1.6730     6.1370    -0.1240 H     1 <1>   0.0800 
 41 H        0.7630     7.1310    -1.2710 H     1 <1>   0.0800 
 42 H       -2.1970    -4.4580    -1.5200 H     1 <1>   0.1500 
 43 H       -2.8220     7.3050     1.0560 H     1 <1>   0.0800 
 44 H       -1.5160     7.2950     2.2490 H     1 <1>   0.0800 
 45 H       -3.5170    -5.8140     2.2130 H     1 <1>   0.2700 
 46 H       -1.7170     9.1820    -0.1250 H     1 <1>   0.0800 
 47 H       -0.4230     9.1730     1.0630 H     1 <1>   0.0800 
 48 H       -2.0430     9.6250     1.5330 H     1 <1>   0.0800 
 49 H       -0.8840    -6.6310    -0.4810 H     1 <1>   0.0800 
 50 H       -1.9830    -7.5990     0.4720 H     1 <1>   0.0800 
 51 H       -0.8410    -6.5290     1.2620 H     1 <1>   0.0800 
@<TRIPOS>BOND
  1   1   2  2   
  2   2   3  am  
  3   2   4  1   
  4   3   5  1   
  5   3   6  1   
  6   4   7  ar  
  7   4   8  ar  
  8   5   9  1   
  9   5  27  1   
 10   5  28  1   
 11   6  10  1   
 12   6  29  1   
 13   6  30  1   
 14   7  11  ar  
 15   7  31  1   
 16   8  12  ar  
 17   8  32  1   
 18   9  10  1   
 19   9  13  1   
 20   9  33  1   
 21  10  14  1   
 22  10  34  1   
 23  11  15  1   
 24  11  16  ar  
 25  12  16  ar  
 26  12  35  1   
 27  13  36  1   
 28  14  17  1   
 29  14  37  1   
 30  14  38  1   
 31  15  18  1   
 32  16  19  1   
 33  17  20  2   
 34  17  21  1   
 35  18  39  1   
 36  18  40  1   
 37  18  41  1   
 38  19  22  1   
 39  20  23  1   
 40  21  24  2   
 41  21  42  1   
 42  22  25  1   
 43  22  43  1   
 44  22  44  1   
 45  23  24  1   
 46  23  45  1   
 47  24  26  1   
 48  25  46  1   
 49  25  47  1   
 50  25  48  1   
 51  26  49  1   
 52  26  50  1   
 53  26  51  1   
@<TRIPOS>SUBSTRUCTURE
  1 ****   3 GROUP 4 **** **** 0

# MOE 2024.06 (io_trps.svl 2023.06)
