@<TRIPOS>MOLECULE
NONAME
49 52 1 0 0 
SMALL
USER_CHARGES


@<TRIPOS>ATOM
  1 O        0.6070    -0.4600    -1.1310 O.3   1 <1>  -0.5600 
  2 C        1.6900    -1.0220    -0.4260 C.3   1 <1>   0.4240 
  3 C       -0.6780    -0.8440    -0.7520 C.3   1 <1>   0.1200 
  4 C        1.4450    -2.5120    -0.1000 C.ar  1 <1>  -0.1440 
  5 C        2.9010    -0.8680    -1.3540 C.3   1 <1>  -0.1600 
  6 C        1.9080    -0.2050     0.8570 C.3   1 <1>  -0.1600 
  7 C       -0.8620    -2.3250    -1.0650 C.3   1 <1>  -0.0160 
  8 C        0.2390    -3.1300    -0.4030 C.ar  1 <1>  -0.1440 
  9 C        2.4340    -3.2690     0.5170 C.ar  1 <1>  -0.1500 
 10 C        3.2230     0.6000    -1.6370 C.3   1 <1>   0.2090 
 11 C        2.2070     1.2610     0.5500 C.3   1 <1>   0.2090 
 12 C        0.0340    -4.4670    -0.1010 C.ar  1 <1>  -0.1500 
 13 C        2.2490    -4.6070     0.8200 C.ar  1 <1>   0.0820 
 14 N        3.3830     1.3470    -0.3570 N.pl3 1 <1>  -0.8380 
 15 C        1.0250    -5.2230     0.5190 C.ar  1 <1>   0.0820 
 16 O        3.3160    -5.2140     1.4110 O.3   1 <1>  -0.3630 
 17 C        4.6490     1.6310     0.1480 C.ar  1 <1>   0.4100 
 18 O        0.8200    -6.5330     0.8510 O.3   1 <1>  -0.3630 
 19 C        3.6280    -6.5590     1.1250 C.3   1 <1>   0.0400 
 20 N        5.5090     0.6180     0.0860 N.ar  1 <1>  -0.6200 
 21 C        4.9970     2.8950     0.6890 C.ar  1 <1>   0.3830 
 22 C       -0.4430    -7.1500     0.7290 C.3   1 <1>   0.0400 
 23 C        6.6930     0.9070     0.5850 C.ar  1 <1>   0.1600 
 24 N        6.2030     3.1660     1.1940 N.ar  1 <1>  -0.6200 
 25 C        4.0120     3.9390     0.6940 C.1   1 <1>   0.4840 
 26 C        7.0300     2.1380     1.1230 C.ar  1 <1>   0.1600 
 27 N        3.2120     4.7580     0.7220 N.1   1 <1>  -0.5570 
 28 H       -1.3780    -0.2500    -1.3120 H     1 <1>   0.0800 
 29 H       -0.8120    -0.6490     0.2980 H     1 <1>   0.0800 
 30 H        2.7090    -1.3850    -2.2750 H     1 <1>   0.0800 
 31 H        3.7680    -1.3180    -0.9080 H     1 <1>   0.0800 
 32 H        2.7420    -0.6080     1.4000 H     1 <1>   0.0800 
 33 H        1.0490    -0.2810     1.4950 H     1 <1>   0.0800 
 34 H       -0.8280    -2.4720    -2.1300 H     1 <1>   0.0800 
 35 H       -1.8240    -2.6450    -0.7080 H     1 <1>   0.0800 
 36 H        3.3790    -2.8260     0.7730 H     1 <1>   0.1500 
 37 H        2.4250     1.0460    -2.2060 H     1 <1>   0.0800 
 38 H        4.1270     0.6680    -2.2180 H     1 <1>   0.0800 
 39 H        2.4030     1.7850     1.4700 H     1 <1>   0.0800 
 40 H        1.3580     1.7230     0.0740 H     1 <1>   0.0800 
 41 H       -0.9110    -4.9030    -0.3570 H     1 <1>   0.1500 
 42 H        4.6660    -6.7180     1.3540 H     1 <1>   0.0800 
 43 H        3.4460    -6.7490     0.0820 H     1 <1>   0.0800 
 44 H        3.0190    -7.1950     1.7410 H     1 <1>   0.0800 
 45 H       -0.3640    -8.1490     1.1180 H     1 <1>   0.0800 
 46 H       -0.7160    -7.1840    -0.3110 H     1 <1>   0.0800 
 47 H       -1.1610    -6.5910     1.3010 H     1 <1>   0.0800 
 48 H        7.4350     0.1280     0.5680 H     1 <1>   0.1500 
 49 H        8.0250     2.2790     1.5100 H     1 <1>   0.1500 
@<TRIPOS>BOND
  1   1   2  1   
  2   1   3  1   
  3   2   4  1   
  4   2   5  1   
  5   2   6  1   
  6   3   7  1   
  7   3  28  1   
  8   3  29  1   
  9   4   8  ar  
 10   4   9  ar  
 11   5  10  1   
 12   5  30  1   
 13   5  31  1   
 14   6  11  1   
 15   6  32  1   
 16   6  33  1   
 17   7   8  1   
 18   7  34  1   
 19   7  35  1   
 20   8  12  ar  
 21   9  13  ar  
 22   9  36  1   
 23  10  14  1   
 24  10  37  1   
 25  10  38  1   
 26  11  14  1   
 27  11  39  1   
 28  11  40  1   
 29  12  15  ar  
 30  12  41  1   
 31  13  15  ar  
 32  13  16  1   
 33  14  17  1   
 34  15  18  1   
 35  16  19  1   
 36  17  20  ar  
 37  17  21  ar  
 38  18  22  1   
 39  19  42  1   
 40  19  43  1   
 41  19  44  1   
 42  20  23  ar  
 43  21  24  ar  
 44  21  25  1   
 45  22  45  1   
 46  22  46  1   
 47  22  47  1   
 48  23  26  ar  
 49  23  48  1   
 50  24  26  ar  
 51  25  27  3   
 52  26  49  1   
@<TRIPOS>SUBSTRUCTURE
  1 ****   2 GROUP 4 **** **** 0

# MOE 2024.06 (io_trps.svl 2023.06)
