@<TRIPOS>MOLECULE
NONAME
49 52 1 0 0 
SMALL
USER_CHARGES


@<TRIPOS>ATOM
  1 S       -0.6950     0.5430    -0.7020 S.3   1 <1>  -0.0800 
  2 C       -2.0440    -0.5140    -0.3040 C.2   1 <1>  -0.1400 
  3 C       -1.2290     0.6730    -2.3670 C.2   1 <1>  -0.1100 
  4 C       -2.8230    -0.7070    -1.3850 C.2   1 <1>  -0.1500 
  5 C       -2.1480    -1.0150     1.1250 C.3   1 <1>   0.0200 
  6 C       -2.3550    -0.0380    -2.5600 C.2   1 <1>  -0.1500 
  7 C       -0.8990    -1.7960     1.5900 C.3   1 <1>  -0.1600 
  8 C       -0.0720    -2.5380     0.5120 C.3   1 <1>   0.4230 
  9 N       -0.6320    -3.8780     0.1320 N.4   1 <1>  -0.9590 
 10 C        1.3600    -2.7280     1.0420 C.3   1 <1>  -0.1600 
 11 C        0.2170    -4.5430    -0.9120 C.3   1 <1>   0.3430 
 12 C       -2.0520    -3.8150    -0.3350 C.3   1 <1>   0.5230 
 13 C        2.2720    -3.4390     0.0390 C.3   1 <1>  -0.1600 
 14 C        1.6370    -4.7590    -0.3950 C.3   1 <1>  -0.1600 
 15 C       -2.6210    -5.1930    -0.6180 C.2   1 <1>  -0.0400 
 16 O       -2.3780    -5.7560    -1.7660 O.3   1 <1>  -0.0190 
 17 C       -3.3930    -6.0310     0.0890 C.2   1 <1>  -0.1500 
 18 N       -2.9230    -6.9250    -1.8620 N.2   1 <1>  -0.4100 
 19 C       -3.5630    -7.1410    -0.7530 C.2   1 <1>   0.2350 
 20 C       -4.3230    -8.3410    -0.4590 C.ar  1 <1>   0.0540 
 21 C       -4.5560    -9.3150    -1.4210 C.ar  1 <1>  -0.1500 
 22 C       -4.8740    -8.6200     0.7850 C.ar  1 <1>  -0.1500 
 23 C       -5.2830   -10.4490    -1.1160 C.ar  1 <1>   0.1600 
 24 C       -5.5880    -9.7860     0.9910 C.ar  1 <1>   0.1600 
 25 N       -5.8070   -10.7080     0.0700 N.ar  1 <1>  -0.6200 
 26 H       -0.6400     1.2800    -3.0320 H     1 <1>   0.1500 
 27 H       -3.7310    -1.2840    -1.4230 H     1 <1>   0.1500 
 28 H       -3.0320    -1.6170     1.2260 H     1 <1>   0.0800 
 29 H       -2.2890    -0.1650     1.7730 H     1 <1>   0.0800 
 30 H       -2.8880    -0.1140    -3.4930 H     1 <1>   0.1500 
 31 H       -1.1530    -2.4610     2.3960 H     1 <1>   0.0800 
 32 H       -0.2530    -1.0470     2.0170 H     1 <1>   0.0800 
 33 H       -0.0120    -1.9230    -0.3710 H     1 <1>   0.0800 
 34 H       -0.5980    -4.4750     0.9640 H     1 <1>   0.4500 
 35 H        1.3370    -3.2800     1.9660 H     1 <1>   0.0800 
 36 H        1.7900    -1.7640     1.2570 H     1 <1>   0.0800 
 37 H        0.2480    -3.9330    -1.8010 H     1 <1>   0.0800 
 38 H       -0.1930    -5.5030    -1.1780 H     1 <1>   0.0800 
 39 H       -2.1250    -3.2070    -1.2230 H     1 <1>   0.0800 
 40 H       -2.6590    -3.3700     0.4300 H     1 <1>   0.0800 
 41 H        3.2360    -3.6240     0.4850 H     1 <1>   0.0800 
 42 H        2.4240    -2.8090    -0.8220 H     1 <1>   0.0800 
 43 H        2.2310    -5.2000    -1.1760 H     1 <1>   0.0800 
 44 H        1.6200    -5.4530     0.4270 H     1 <1>   0.0800 
 45 H       -3.8100    -5.9190     1.0720 H     1 <1>   0.1500 
 46 H       -4.1690    -9.1910    -2.4170 H     1 <1>   0.1500 
 47 H       -4.7540    -7.9410     1.6060 H     1 <1>   0.1500 
 48 H       -5.4450   -11.1840    -1.8870 H     1 <1>   0.1500 
 49 H       -6.0030    -9.9750     1.9670 H     1 <1>   0.1500 
@<TRIPOS>BOND
  1   1   2  1   
  2   1   3  1   
  3   2   4  2   
  4   2   5  1   
  5   3   6  2   
  6   3  26  1   
  7   4   6  1   
  8   4  27  1   
  9   5   7  1   
 10   5  28  1   
 11   5  29  1   
 12   6  30  1   
 13   7   8  1   
 14   7  31  1   
 15   7  32  1   
 16   8   9  1   
 17   8  10  1   
 18   8  33  1   
 19   9  11  1   
 20   9  12  1   
 21   9  34  1   
 22  10  13  1   
 23  10  35  1   
 24  10  36  1   
 25  11  14  1   
 26  11  37  1   
 27  11  38  1   
 28  12  15  1   
 29  12  39  1   
 30  12  40  1   
 31  13  14  1   
 32  13  41  1   
 33  13  42  1   
 34  14  43  1   
 35  14  44  1   
 36  15  16  1   
 37  15  17  2   
 38  16  18  1   
 39  17  19  1   
 40  17  45  1   
 41  18  19  2   
 42  19  20  1   
 43  20  21  ar  
 44  20  22  ar  
 45  21  23  ar  
 46  21  46  1   
 47  22  24  ar  
 48  22  47  1   
 49  23  25  ar  
 50  23  48  1   
 51  24  25  ar  
 52  24  49  1   
@<TRIPOS>SUBSTRUCTURE
  1 ****  15 GROUP 4 **** **** 0

# MOE 2024.06 (io_trps.svl 2023.06)
