@<TRIPOS>MOLECULE
NONAME
40 41 1 0 0 
SMALL
USER_CHARGES


@<TRIPOS>ATOM
  1 O        0.8210    -0.1180     1.3560 O.3   1 <1>  -0.6800 
  2 C        1.3770    -0.4840     0.1350 C.3   1 <1>   0.2000 
  3 C        2.2670    -1.7040     0.3700 C.3   1 <1>  -0.0800 
  4 C        2.3720     0.6060    -0.2610 C.3   1 <1>   0.3430 
  5 C        3.6430    -1.1180     0.7290 C.3   1 <1>   0.3430 
  6 C        2.3550    -2.5980    -0.8810 C.3   1 <1>   0.0210 
  7 N        3.5290     0.3710     0.6490 N.4   1 <1>  -0.9590 
  8 C        3.2660    -3.7890    -0.6480 C.2   1 <1>   0.1080 
  9 C        4.7930     1.0820     0.2420 C.3   1 <1>   0.4230 
 10 N        4.5450    -3.6740    -0.4660 N.2   1 <1>  -0.7070 
 11 C        2.8450    -5.1130    -0.6100 C.2   1 <1>  -0.1500 
 12 C        6.0000     0.6440     1.1170 C.3   1 <1>   0.1200 
 13 C        4.5990     2.6170     0.2780 C.3   1 <1>   0.1200 
 14 N        4.9820    -4.9440    -0.3180 N.pl3 1 <1>   0.3000 
 15 C        3.9670    -5.8290    -0.3960 C.2   1 <1>  -0.3320 
 16 O        7.1490     1.3590     0.7840 O.3   1 <1>  -0.6800 
 17 O        5.5250     3.2280    -0.5520 O.3   1 <1>  -0.6800 
 18 C        4.1370    -7.3320    -0.2650 C.3   1 <1>  -0.0600 
 19 H        0.0790    -0.7110     1.6030 H     1 <1>   0.4000 
 20 H        0.5890    -0.6260    -0.5860 H     1 <1>   0.0800 
 21 H        1.8990    -2.3050     1.1830 H     1 <1>   0.0800 
 22 H        1.9420     1.5860    -0.1330 H     1 <1>   0.0800 
 23 H        2.6730     0.4700    -1.2860 H     1 <1>   0.0800 
 24 H        4.3800    -1.4580     0.0210 H     1 <1>   0.0800 
 25 H        3.9430    -1.4310     1.7160 H     1 <1>   0.0800 
 26 H        2.7340    -2.0440    -1.7220 H     1 <1>   0.0800 
 27 H        1.3750    -2.9600    -1.1390 H     1 <1>   0.0800 
 28 H        3.2100     0.6930     1.5750 H     1 <1>   0.4500 
 29 H        5.0100     0.8060    -0.7770 H     1 <1>   0.0800 
 30 H        1.8370    -5.4710    -0.7320 H     1 <1>   0.1500 
 31 H        6.2180    -0.3980     0.9640 H     1 <1>   0.0800 
 32 H        5.7960     0.8260     2.1580 H     1 <1>   0.0800 
 33 H        4.7390     3.0030     1.2740 H     1 <1>   0.0800 
 34 H        3.6300     2.9080    -0.0830 H     1 <1>   0.0800 
 35 H        5.9720    -5.1790    -0.1730 H     1 <1>   0.2700 
 36 H        7.9290     1.0400     1.2880 H     1 <1>   0.4000 
 37 H        6.4390     2.9730    -0.2750 H     1 <1>   0.4000 
 38 H        3.1840    -7.8220    -0.3660 H     1 <1>   0.0800 
 39 H        4.5480    -7.5800     0.6970 H     1 <1>   0.0800 
 40 H        4.7930    -7.7020    -1.0330 H     1 <1>   0.0800 
@<TRIPOS>BOND
  1   1   2  1   
  2   1  19  1   
  3   2   3  1   
  4   2   4  1   
  5   2  20  1   
  6   3   5  1   
  7   3   6  1   
  8   3  21  1   
  9   4   7  1   
 10   4  22  1   
 11   4  23  1   
 12   5   7  1   
 13   5  24  1   
 14   5  25  1   
 15   6   8  1   
 16   6  26  1   
 17   6  27  1   
 18   7   9  1   
 19   7  28  1   
 20   8  10  2   
 21   8  11  1   
 22   9  12  1   
 23   9  13  1   
 24   9  29  1   
 25  10  14  1   
 26  11  15  2   
 27  11  30  1   
 28  12  16  1   
 29  12  31  1   
 30  12  32  1   
 31  13  17  1   
 32  13  33  1   
 33  13  34  1   
 34  14  15  1   
 35  14  35  1   
 36  15  18  1   
 37  16  36  1   
 38  17  37  1   
 39  18  38  1   
 40  18  39  1   
 41  18  40  1   
@<TRIPOS>SUBSTRUCTURE
  1 ****   5 GROUP 4 **** **** 0

# MOE 2024.06 (io_trps.svl 2023.06)
