@<TRIPOS>MOLECULE
NONAME
57 59 1 0 0 
SMALL
USER_CHARGES


@<TRIPOS>ATOM
  1 O        0.0820    -0.0600    -0.7710 O.2   1 <1>  -0.5700 
  2 C       -0.0460    -1.1990    -1.1740 C.2   1 <1>   0.5440 
  3 N       -1.0190    -1.3910    -2.0920 N.am  1 <1>  -0.8000 
  4 C        0.8080    -2.2700    -0.7110 C.ar  1 <1>   0.0860 
  5 C        0.3910    -3.6160    -0.6300 C.ar  1 <1>   0.4100 
  6 C        2.1140    -1.9850    -0.3380 C.ar  1 <1>  -0.1500 
  7 N        1.1980    -4.6100    -0.2640 N.ar  1 <1>  -0.6200 
  8 N       -0.9170    -4.0100    -0.8910 N.pl3 1 <1>  -0.8380 
  9 C        2.9440    -3.0110     0.0560 C.ar  1 <1>  -0.1430 
 10 C        2.4360    -4.3050     0.0620 C.ar  1 <1>   0.1670 
 11 C       -1.1850    -5.2590    -1.6500 C.3   1 <1>   0.2090 
 12 C       -1.9680    -3.6280     0.0830 C.3   1 <1>   0.2090 
 13 C        4.3760    -2.6880     0.4640 C.3   1 <1>  -0.0970 
 14 C        3.3040    -5.4830     0.4660 C.3   1 <1>  -0.0970 
 15 C       -1.4320    -6.4260    -0.6870 C.3   1 <1>  -0.1600 
 16 C       -2.1550    -4.7680     1.0850 C.3   1 <1>  -0.1600 
 17 C       -2.4860    -6.1050     0.3960 C.3   1 <1>  -0.0800 
 18 C       -2.5560    -7.2050     1.4690 C.3   1 <1>   0.3430 
 19 N       -2.7800    -8.5500     0.8730 N.4   1 <1>  -0.9590 
 20 C       -4.1190    -8.7540     0.2240 C.3   1 <1>   0.3430 
 21 C       -2.4740    -9.6810     1.8060 C.3   1 <1>   0.3430 
 22 C       -4.1920   -10.1360    -0.4730 C.3   1 <1>   0.1100 
 23 C       -2.5240   -11.0380     1.0590 C.3   1 <1>   0.1100 
 24 N       -2.9170   -10.8820    -0.3630 N.3   1 <1>  -0.8100 
 25 C       -2.9940   -12.1820    -1.0420 C.3   1 <1>   0.0300 
 26 H       -1.6250    -0.6180    -2.3620 H     1 <1>   0.3700 
 27 H       -1.3140    -2.3460    -2.3130 H     1 <1>   0.3700 
 28 H        2.4620    -0.9670    -0.3680 H     1 <1>   0.1500 
 29 H       -0.3440    -5.4820    -2.2860 H     1 <1>   0.0800 
 30 H       -2.0470    -5.1080    -2.2780 H     1 <1>   0.0800 
 31 H       -2.8870    -3.4310    -0.4410 H     1 <1>   0.0800 
 32 H       -1.6780    -2.7310     0.6050 H     1 <1>   0.0800 
 33 H        4.5250    -1.6260     0.5350 H     1 <1>   0.0800 
 34 H        5.0640    -3.0780    -0.2650 H     1 <1>   0.0800 
 35 H        4.5970    -3.1200     1.4240 H     1 <1>   0.0800 
 36 H        2.8530    -6.4060     0.1480 H     1 <1>   0.0800 
 37 H        3.4120    -5.5040     1.5340 H     1 <1>   0.0800 
 38 H        4.2740    -5.4140     0.0100 H     1 <1>   0.0800 
 39 H       -0.4940    -6.6710    -0.2190 H     1 <1>   0.0800 
 40 H       -1.7330    -7.2750    -1.2730 H     1 <1>   0.0800 
 41 H       -2.9390    -4.4970     1.7700 H     1 <1>   0.0800 
 42 H       -1.2420    -4.8590     1.6500 H     1 <1>   0.0800 
 43 H       -3.4490    -5.9990    -0.0720 H     1 <1>   0.0800 
 44 H       -3.3420    -6.9790     2.1720 H     1 <1>   0.0800 
 45 H       -1.6210    -7.2090     2.0050 H     1 <1>   0.0800 
 46 H       -2.1100    -8.6990     0.1010 H     1 <1>   0.4500 
 47 H       -4.2900    -7.9880    -0.5140 H     1 <1>   0.0800 
 48 H       -4.9020    -8.6840     0.9590 H     1 <1>   0.0800 
 49 H       -3.1830    -9.6940     2.6170 H     1 <1>   0.0800 
 50 H       -1.4910    -9.5540     2.2300 H     1 <1>   0.0800 
 51 H       -4.4300    -9.9890    -1.5130 H     1 <1>   0.0800 
 52 H       -4.9910   -10.7100    -0.0360 H     1 <1>   0.0800 
 53 H       -3.2170   -11.6910     1.5620 H     1 <1>   0.0800 
 54 H       -1.5520   -11.4980     1.1090 H     1 <1>   0.0800 
 55 H       -3.2350   -12.0400    -2.0830 H     1 <1>   0.0800 
 56 H       -3.7470   -12.8070    -0.5910 H     1 <1>   0.0800 
 57 H       -2.0430   -12.6840    -0.9850 H     1 <1>   0.0800 
@<TRIPOS>BOND
  1   1   2  2   
  2   2   3  am  
  3   2   4  1   
  4   3  26  1   
  5   3  27  1   
  6   4   5  ar  
  7   4   6  ar  
  8   5   7  ar  
  9   5   8  1   
 10   6   9  ar  
 11   6  28  1   
 12   7  10  ar  
 13   8  11  1   
 14   8  12  1   
 15   9  10  ar  
 16   9  13  1   
 17  10  14  1   
 18  11  15  1   
 19  11  29  1   
 20  11  30  1   
 21  12  16  1   
 22  12  31  1   
 23  12  32  1   
 24  13  33  1   
 25  13  34  1   
 26  13  35  1   
 27  14  36  1   
 28  14  37  1   
 29  14  38  1   
 30  15  17  1   
 31  15  39  1   
 32  15  40  1   
 33  16  17  1   
 34  16  41  1   
 35  16  42  1   
 36  17  18  1   
 37  17  43  1   
 38  18  19  1   
 39  18  44  1   
 40  18  45  1   
 41  19  20  1   
 42  19  21  1   
 43  19  46  1   
 44  20  22  1   
 45  20  47  1   
 46  20  48  1   
 47  21  23  1   
 48  21  49  1   
 49  21  50  1   
 50  22  24  1   
 51  22  51  1   
 52  22  52  1   
 53  23  24  1   
 54  23  53  1   
 55  23  54  1   
 56  24  25  1   
 57  25  55  1   
 58  25  56  1   
 59  25  57  1   
@<TRIPOS>SUBSTRUCTURE
  1 ****  15 GROUP 4 **** **** 0

# MOE 2024.06 (io_trps.svl 2023.06)
