@<TRIPOS>MOLECULE
NONAME
55 57 1 0 0 
SMALL
USER_CHARGES


@<TRIPOS>ATOM
  1 O       -1.2140     0.6170     2.9410 O.2   1 <1>  -0.5700 
  2 C       -1.4510     1.4240     2.0710 C.2   1 <1>   0.5690 
  3 N       -2.5110     1.2550     1.2020 N.am  1 <1>  -0.6600 
  4 C       -0.5320     2.6290     2.0160 C.3   1 <1>   0.1570 
  5 C       -3.3660     0.0240     1.3110 C.3   1 <1>   0.1400 
  6 C       -2.7830     2.2370     0.1000 C.3   1 <1>   0.1400 
  7 N        0.2890     2.6090     0.7970 N.pl3 1 <1>   0.3140 
  8 C       -3.4760    -0.7480    -0.0080 C.3   1 <1>   0.1400 
  9 C       -4.1880     2.1860    -0.5110 C.3   1 <1>  -0.1600 
 10 N        0.1200     3.5410    -0.1640 N.2   1 <1>  -0.7070 
 11 C        1.2860     1.7510     0.4740 C.2   1 <1>  -0.3320 
 12 N       -4.6250    -0.2450    -0.8190 N.am  1 <1>  -0.6600 
 13 C       -4.3730     1.0450    -1.5140 C.3   1 <1>   0.1400 
 14 C        1.0020     3.2550    -1.0670 C.2   1 <1>   0.1080 
 15 C        1.7630     2.1440    -0.7250 C.2   1 <1>  -0.1500 
 16 C        1.7490     0.5830     1.3300 C.3   1 <1>  -0.0600 
 17 C       -5.8470    -0.8680    -0.9170 C.2   1 <1>   0.5690 
 18 C        1.1580     4.0640    -2.3320 C.3   1 <1>  -0.0590 
 19 O       -6.7580    -0.3810    -1.5460 O.2   1 <1>  -0.5700 
 20 C       -6.0950    -2.1950    -0.2120 C.3   1 <1>  -0.0990 
 21 C       -7.5030    -2.7650    -0.4390 C.3   1 <1>   0.0200 
 22 C       -7.6740    -4.0790     0.3090 C.2   1 <1>  -0.3320 
 23 N       -7.9720    -4.2010     1.6230 N.pl3 1 <1>   0.3140 
 24 C       -7.5700    -5.3320    -0.1830 C.2   1 <1>  -0.1500 
 25 N       -8.0530    -5.4920     1.9880 N.2   1 <1>  -0.7070 
 26 C       -8.2140    -3.1280     2.5970 C.3   1 <1>   0.0160 
 27 C       -7.8150    -6.1620     0.9030 C.2   1 <1>   0.1390 
 28 H        0.1230     2.6210     2.8650 H     1 <1>   0.0800 
 29 H       -1.1080     3.5330     2.0390 H     1 <1>   0.0800 
 30 H       -4.3460     0.2940     1.6620 H     1 <1>   0.0800 
 31 H       -2.9460    -0.6470     2.0390 H     1 <1>   0.0800 
 32 H       -2.0570     2.0880    -0.6820 H     1 <1>   0.0800 
 33 H       -2.6370     3.2330     0.4820 H     1 <1>   0.0800 
 34 H       -3.6090    -1.7900     0.2160 H     1 <1>   0.0800 
 35 H       -2.5590    -0.6580    -0.5640 H     1 <1>   0.0800 
 36 H       -4.3180     3.1010    -1.0600 H     1 <1>   0.0800 
 37 H       -4.9500     2.1680     0.2470 H     1 <1>   0.0800 
 38 H       -3.5030     0.9510    -2.1420 H     1 <1>   0.0800 
 39 H       -5.2030     1.2840    -2.1570 H     1 <1>   0.0800 
 40 H        2.5560     1.7150    -1.3100 H     1 <1>   0.1500 
 41 H        2.0320     0.9250     2.3100 H     1 <1>   0.0800 
 42 H        2.6000     0.1070     0.8770 H     1 <1>   0.0800 
 43 H        0.9630    -0.1450     1.4280 H     1 <1>   0.0800 
 44 H        0.2420     4.0340    -2.8920 H     1 <1>   0.0800 
 45 H        1.9550     3.6700    -2.9350 H     1 <1>   0.0800 
 46 H        1.3790     5.0840    -2.0790 H     1 <1>   0.0800 
 47 H       -5.9370    -2.0550     0.8400 H     1 <1>   0.0800 
 48 H       -5.3830    -2.9130    -0.5730 H     1 <1>   0.0800 
 49 H       -7.6450    -2.9380    -1.4920 H     1 <1>   0.0800 
 50 H       -8.2510    -2.0580    -0.1240 H     1 <1>   0.0800 
 51 H       -7.3500    -5.6520    -1.1850 H     1 <1>   0.1500 
 52 H       -8.9290    -2.4370     2.1940 H     1 <1>   0.0800 
 53 H       -7.2900    -2.6260     2.8060 H     1 <1>   0.0800 
 54 H       -8.6020    -3.5570     3.5020 H     1 <1>   0.0800 
 55 H       -7.8090    -7.2380     0.8610 H     1 <1>   0.1500 
@<TRIPOS>BOND
  1   1   2  2   
  2   2   3  am  
  3   2   4  1   
  4   3   5  1   
  5   3   6  1   
  6   4   7  1   
  7   4  28  1   
  8   4  29  1   
  9   5   8  1   
 10   5  30  1   
 11   5  31  1   
 12   6   9  1   
 13   6  32  1   
 14   6  33  1   
 15   7  10  1   
 16   7  11  1   
 17   8  12  1   
 18   8  34  1   
 19   8  35  1   
 20   9  13  1   
 21   9  36  1   
 22   9  37  1   
 23  10  14  2   
 24  11  15  2   
 25  11  16  1   
 26  12  13  1   
 27  12  17  am  
 28  13  38  1   
 29  13  39  1   
 30  14  15  1   
 31  14  18  1   
 32  15  40  1   
 33  16  41  1   
 34  16  42  1   
 35  16  43  1   
 36  17  19  2   
 37  17  20  1   
 38  18  44  1   
 39  18  45  1   
 40  18  46  1   
 41  20  21  1   
 42  20  47  1   
 43  20  48  1   
 44  21  22  1   
 45  21  49  1   
 46  21  50  1   
 47  22  23  1   
 48  22  24  2   
 49  23  25  1   
 50  23  26  1   
 51  24  27  1   
 52  24  51  1   
 53  25  27  2   
 54  26  52  1   
 55  26  53  1   
 56  26  54  1   
 57  27  55  1   
@<TRIPOS>SUBSTRUCTURE
  1 ****   8 GROUP 4 **** **** 0

# MOE 2024.06 (io_trps.svl 2023.06)
