@<TRIPOS>MOLECULE
NONAME
51 53 1 0 0 
SMALL
USER_CHARGES


@<TRIPOS>ATOM
  1 O        0.0530     0.9180     0.3810 O.2   1 <1>  -0.5700 
  2 C       -0.0930     2.0660     0.0350 C.2   1 <1>   0.5690 
  3 N       -0.9430     2.9250     0.6800 N.am  1 <1>  -0.6600 
  4 C        0.6970     2.5600    -1.1790 C.3   1 <1>   0.1810 
  5 C       -1.1070     4.3440     0.2230 C.3   1 <1>   0.3640 
  6 C       -1.6910     2.5380     1.9120 C.3   1 <1>   0.0600 
  7 O        0.9010     3.9500    -1.1600 O.3   1 <1>  -0.5600 
  8 C       -2.5860     4.7260     0.0600 C.ar  1 <1>  -0.1430 
  9 C       -0.2970     4.7030    -1.0480 C.3   1 <1>   0.2610 
 10 C       -3.5250     3.9910    -0.6730 C.ar  1 <1>  -0.1430 
 11 C       -2.9960     5.8950     0.6900 C.ar  1 <1>  -0.1500 
 12 C       -0.0250     6.2140    -1.0760 C.2   1 <1>   0.5690 
 13 C       -4.8360     4.4400    -0.7440 C.ar  1 <1>  -0.1500 
 14 C       -3.1980     2.6960    -1.4100 C.3   1 <1>  -0.0960 
 15 C       -4.3040     6.3330     0.6100 C.ar  1 <1>  -0.1500 
 16 O       -0.6200     6.8510    -1.9150 O.2   1 <1>  -0.5700 
 17 N        0.8380     6.8420    -0.1960 N.am  1 <1>  -0.6600 
 18 C       -5.2280     5.6020    -0.1090 C.ar  1 <1>  -0.1500 
 19 C        1.0720     8.3100    -0.2770 C.3   1 <1>   0.1400 
 20 C        1.7510     6.1540     0.7600 C.3   1 <1>   0.1400 
 21 C        2.5080     8.5530    -0.7540 C.3   1 <1>  -0.1600 
 22 C        3.1940     6.3590     0.2880 C.3   1 <1>  -0.1600 
 23 C        3.5500     7.8540     0.1450 C.3   1 <1>   0.2000 
 24 C        3.5590     8.4990     1.5040 C.1   1 <1>   0.3570 
 25 C        4.9460     7.9900    -0.4880 C.3   1 <1>  -0.2400 
 26 N        3.5320     8.9710     2.5390 N.1   1 <1>  -0.5570 
 27 H        0.1760     2.3010    -2.0820 H     1 <1>   0.0800 
 28 H        1.6620     2.0880    -1.1890 H     1 <1>   0.0800 
 29 H       -0.7150     4.9480     1.0200 H     1 <1>   0.0800 
 30 H       -1.4510     3.2150     2.7130 H     1 <1>   0.0800 
 31 H       -1.4310     1.5390     2.2170 H     1 <1>   0.0800 
 32 H       -2.7500     2.5740     1.7260 H     1 <1>   0.0800 
 33 H       -0.8880     4.4780    -1.9160 H     1 <1>   0.0800 
 34 H       -2.2960     6.4890     1.2520 H     1 <1>   0.1500 
 35 H       -5.5700     3.8840    -1.3000 H     1 <1>   0.1500 
 36 H       -3.9920     2.4270    -2.0830 H     1 <1>   0.0800 
 37 H       -3.0730     1.8920    -0.7070 H     1 <1>   0.0800 
 38 H       -2.3030     2.7950    -1.9920 H     1 <1>   0.0800 
 39 H       -4.6020     7.2420     1.1020 H     1 <1>   0.1500 
 40 H       -6.2480     5.9370    -0.1760 H     1 <1>   0.1500 
 41 H        0.3820     8.7740    -0.9620 H     1 <1>   0.0800 
 42 H        0.9130     8.7500     0.6930 H     1 <1>   0.0800 
 43 H        1.6140     6.5740     1.7430 H     1 <1>   0.0800 
 44 H        1.5440     5.1030     0.8290 H     1 <1>   0.0800 
 45 H        2.5900     8.1870    -1.7620 H     1 <1>   0.0800 
 46 H        2.6950     9.6130    -0.7790 H     1 <1>   0.0800 
 47 H        3.8630     5.8870     0.9860 H     1 <1>   0.0800 
 48 H        3.3100     5.8610    -0.6590 H     1 <1>   0.0800 
 49 H        4.9670     7.5340    -1.4620 H     1 <1>   0.0800 
 50 H        5.6870     7.5100     0.1280 H     1 <1>   0.0800 
 51 H        5.2130     9.0270    -0.5910 H     1 <1>   0.0800 
@<TRIPOS>BOND
  1   1   2  2   
  2   2   3  am  
  3   2   4  1   
  4   3   5  1   
  5   3   6  1   
  6   4   7  1   
  7   4  27  1   
  8   4  28  1   
  9   5   8  1   
 10   5   9  1   
 11   5  29  1   
 12   6  30  1   
 13   6  31  1   
 14   6  32  1   
 15   7   9  1   
 16   8  10  ar  
 17   8  11  ar  
 18   9  12  1   
 19   9  33  1   
 20  10  13  ar  
 21  10  14  1   
 22  11  15  ar  
 23  11  34  1   
 24  12  16  2   
 25  12  17  am  
 26  13  18  ar  
 27  13  35  1   
 28  14  36  1   
 29  14  37  1   
 30  14  38  1   
 31  15  18  ar  
 32  15  39  1   
 33  17  19  1   
 34  17  20  1   
 35  18  40  1   
 36  19  21  1   
 37  19  41  1   
 38  19  42  1   
 39  20  22  1   
 40  20  43  1   
 41  20  44  1   
 42  21  23  1   
 43  21  45  1   
 44  21  46  1   
 45  22  23  1   
 46  22  47  1   
 47  22  48  1   
 48  23  24  1   
 49  23  25  1   
 50  24  26  3   
 51  25  49  1   
 52  25  50  1   
 53  25  51  1   
@<TRIPOS>SUBSTRUCTURE
  1 ****   9 GROUP 4 **** **** 0

# MOE 2024.06 (io_trps.svl 2023.06)
