@<TRIPOS>MOLECULE
NONAME
58 62 1 0 0 
SMALL
USER_CHARGES


@<TRIPOS>ATOM
  1 O       -0.5870     1.1170     1.6160 O.3   1 <1>  -0.5600 
  2 C        0.1010     0.9870     0.4150 C.3   1 <1>   0.1200 
  3 C       -1.9370     1.3660     1.3640 C.3   1 <1>   0.1200 
  4 C       -0.5720     1.9900    -0.5150 C.3   1 <1>   0.2890 
  5 C       -2.0320     1.8080    -0.1040 C.3   1 <1>  -0.0800 
  6 N       -0.0900     3.3500    -0.1610 N.pl3 1 <1>  -0.8690 
  7 C       -2.9680     3.0160    -0.3190 C.3   1 <1>  -0.0170 
  8 C        0.4600     4.3680    -0.8260 C.ar  1 <1>   0.7710 
  9 C       -4.4090     2.6540     0.0300 C.ar  1 <1>  -0.1440 
 10 N        0.8130     5.4030    -0.0960 N.ar  1 <1>  -0.6200 
 11 N        0.6330     4.3170    -2.1580 N.ar  1 <1>  -0.1790 
 12 C       -5.2340     1.8960    -0.8360 C.ar  1 <1>   0.0000 
 13 C       -4.9460     3.0570     1.2180 C.ar  1 <1>  -0.1500 
 14 C        1.3650     6.4390    -0.7040 C.ar  1 <1>   0.4100 
 15 C        1.2100     5.3500    -2.8210 C.ar  1 <1>   0.2110 
 16 C       -6.5450     1.5920    -0.3940 C.ar  1 <1>   0.3100 
 17 C       -4.8400     1.4240    -2.1100 C.ar  1 <1>  -0.1500 
 18 C       -6.2590     2.7080     1.5550 C.ar  1 <1>   0.1600 
 19 N        1.7120     7.5090     0.0590 N.pl3 1 <1>  -0.8380 
 20 C        1.5880     6.4290    -2.0960 C.ar  1 <1>  -0.1500 
 21 N       -7.0400     2.0030     0.8000 N.ar  1 <1>  -0.6200 
 22 C       -7.3820     0.8290    -1.2230 C.ar  1 <1>  -0.1500 
 23 C       -5.6820     0.6840    -2.8950 C.ar  1 <1>  -0.1500 
 24 C        1.6920     8.9270    -0.4130 C.3   1 <1>   0.2090 
 25 C        2.0430     7.3760     1.5130 C.3   1 <1>   0.2090 
 26 C       -6.9690     0.3800    -2.4470 C.ar  1 <1>  -0.1500 
 27 C        0.6650     9.7170     0.4000 C.3   1 <1>  -0.1600 
 28 C        1.0080     8.1350     2.3420 C.3   1 <1>  -0.1600 
 29 C        0.9510     9.5940     1.8950 C.3   1 <1>   0.2000 
 30 O       -0.0600    10.2230     2.5860 O.3   1 <1>  -0.6800 
 31 H        1.1460     1.1900     0.5750 H     1 <1>   0.0800 
 32 H       -0.0300    -0.0230     0.0660 H     1 <1>   0.0800 
 33 H       -2.4970     0.4630     1.5440 H     1 <1>   0.0800 
 34 H       -2.2610     2.1330     2.0460 H     1 <1>   0.0800 
 35 H       -0.3990     1.7560    -1.5510 H     1 <1>   0.0800 
 36 H       -2.4260     0.9700    -0.6520 H     1 <1>   0.0800 
 37 H       -0.1210     3.4890     0.8590 H     1 <1>   0.4000 
 38 H       -2.9190     3.3570    -1.3370 H     1 <1>   0.0800 
 39 H       -2.6530     3.8360     0.3020 H     1 <1>   0.0800 
 40 H        0.3240     3.4740    -2.6250 H     1 <1>   0.4570 
 41 H       -4.3870     3.6420     1.9260 H     1 <1>   0.1500 
 42 H        1.3540     5.2820    -3.8880 H     1 <1>   0.1500 
 43 H       -3.8600     1.6500    -2.4790 H     1 <1>   0.1500 
 44 H       -6.6430     3.0450     2.5030 H     1 <1>   0.1500 
 45 H        2.0690     7.2700    -2.5570 H     1 <1>   0.1500 
 46 H       -8.3690     0.6090    -0.8590 H     1 <1>   0.1500 
 47 H       -5.3730     0.3290    -3.8630 H     1 <1>   0.1500 
 48 H        2.6710     9.3570    -0.2870 H     1 <1>   0.0800 
 49 H        1.4260     8.9890    -1.4520 H     1 <1>   0.0800 
 50 H        2.0660     6.3440     1.8170 H     1 <1>   0.0800 
 51 H        3.0230     7.7880     1.6900 H     1 <1>   0.0800 
 52 H       -7.6230    -0.2040    -3.0720 H     1 <1>   0.1500 
 53 H       -0.3150     9.3360     0.1760 H     1 <1>   0.0800 
 54 H        0.7070    10.7520     0.1120 H     1 <1>   0.0800 
 55 H        1.2830     8.0860     3.3800 H     1 <1>   0.0800 
 56 H        0.0530     7.6600     2.2120 H     1 <1>   0.0800 
 57 H        1.8730    10.0940     2.1400 H     1 <1>   0.0800 
 58 H       -0.9100     9.7780     2.4150 H     1 <1>   0.4000 
@<TRIPOS>BOND
  1   1   2  1   
  2   1   3  1   
  3   2   4  1   
  4   2  31  1   
  5   2  32  1   
  6   3   5  1   
  7   3  33  1   
  8   3  34  1   
  9   4   5  1   
 10   4   6  1   
 11   4  35  1   
 12   5   7  1   
 13   5  36  1   
 14   6   8  1   
 15   6  37  1   
 16   7   9  1   
 17   7  38  1   
 18   7  39  1   
 19   8  10  ar  
 20   8  11  ar  
 21   9  12  ar  
 22   9  13  ar  
 23  10  14  ar  
 24  11  15  ar  
 25  11  40  1   
 26  12  16  ar  
 27  12  17  ar  
 28  13  18  ar  
 29  13  41  1   
 30  14  19  1   
 31  14  20  ar  
 32  15  20  ar  
 33  15  42  1   
 34  16  21  ar  
 35  16  22  ar  
 36  17  23  ar  
 37  17  43  1   
 38  18  21  ar  
 39  18  44  1   
 40  19  24  1   
 41  19  25  1   
 42  20  45  1   
 43  22  26  ar  
 44  22  46  1   
 45  23  26  ar  
 46  23  47  1   
 47  24  27  1   
 48  24  48  1   
 49  24  49  1   
 50  25  28  1   
 51  25  50  1   
 52  25  51  1   
 53  26  52  1   
 54  27  29  1   
 55  27  53  1   
 56  27  54  1   
 57  28  29  1   
 58  28  55  1   
 59  28  56  1   
 60  29  30  1   
 61  29  57  1   
 62  30  58  1   
@<TRIPOS>SUBSTRUCTURE
  1 ****   7 GROUP 4 **** **** 0

# MOE 2024.06 (io_trps.svl 2023.06)
