@<TRIPOS>MOLECULE
NONAME
45 47 1 0 0 
SMALL
USER_CHARGES


@<TRIPOS>ATOM
  1 O        2.0530    -4.3090     1.3420 O.3   1 <1>  -0.6800 
  2 C        0.8570    -3.8420     0.8270 C.3   1 <1>   0.2000 
  3 C        0.9290    -3.8920    -0.6930 C.3   1 <1>  -0.1600 
  4 C        0.7270    -2.3580     1.1460 C.3   1 <1>  -0.1600 
  5 C        1.6250    -2.5940    -1.1370 C.3   1 <1>  -0.0800 
  6 C        1.4280    -1.5880     0.0110 C.3   1 <1>  -0.0800 
  7 C        3.1450    -2.7470    -1.3150 C.3   1 <1>  -0.1600 
  8 C        2.8290    -1.1000     0.3960 C.3   1 <1>  -0.1600 
  9 C        3.7710    -2.2210    -0.0260 C.3   1 <1>   0.4230 
 10 N        5.1600    -1.7330    -0.2370 N.4   1 <1>  -0.9590 
 11 C        5.7340    -1.1520     1.0110 C.3   1 <1>   0.4860 
 12 C        6.0570    -2.8040    -0.7770 C.3   1 <1>   0.2630 
 13 C        7.0410    -0.4640     0.6720 C.ar  1 <1>  -0.1430 
 14 C        7.0400     0.7470    -0.0060 C.ar  1 <1>  -0.1500 
 15 C        8.2500    -1.0410     1.0320 C.ar  1 <1>  -0.1500 
 16 C        8.2360     1.3640    -0.3300 C.ar  1 <1>  -0.1500 
 17 C        9.4430    -0.4200     0.7050 C.ar  1 <1>  -0.1500 
 18 C        9.4420     0.7820     0.0200 C.ar  1 <1>  -0.1430 
 19 C       10.7520     1.4630    -0.3350 C.3   1 <1>  -0.0970 
 20 H        2.0370    -5.2870     1.3600 H     1 <1>   0.4000 
 21 H        0.0500    -4.4260     1.2390 H     1 <1>   0.0800 
 22 H        1.4000    -4.7870    -1.0580 H     1 <1>   0.0800 
 23 H       -0.0800    -3.8750    -1.0680 H     1 <1>   0.0800 
 24 H       -0.3190    -2.1100     1.1210 H     1 <1>   0.0800 
 25 H        1.0950    -2.1250     2.1300 H     1 <1>   0.0800 
 26 H        1.1830    -2.2370    -2.0530 H     1 <1>   0.0800 
 27 H        0.8140    -0.7560    -0.2950 H     1 <1>   0.0800 
 28 H        3.4490    -2.1370    -2.1470 H     1 <1>   0.0800 
 29 H        3.4220    -3.7690    -1.5000 H     1 <1>   0.0800 
 30 H        2.8970    -0.8860     1.4480 H     1 <1>   0.0800 
 31 H        3.0430    -0.2080    -0.1670 H     1 <1>   0.0800 
 32 H        3.7570    -2.9970     0.7220 H     1 <1>   0.0800 
 33 H        5.1280    -0.9710    -0.9240 H     1 <1>   0.4500 
 34 H        5.0590    -0.4260     1.4340 H     1 <1>   0.0800 
 35 H        5.9000    -1.9270     1.7410 H     1 <1>   0.0800 
 36 H        6.1250    -3.6230    -0.0800 H     1 <1>   0.0800 
 37 H        7.0470    -2.4120    -0.9490 H     1 <1>   0.0800 
 38 H        5.6760    -3.1780    -1.7130 H     1 <1>   0.0800 
 39 H        6.1190     1.2290    -0.2850 H     1 <1>   0.1500 
 40 H        8.2820    -1.9730     1.5700 H     1 <1>   0.1500 
 41 H        8.2270     2.3050    -0.8550 H     1 <1>   0.1500 
 42 H       10.3760    -0.8750     0.9900 H     1 <1>   0.1500 
 43 H       10.6500     2.0270    -1.2450 H     1 <1>   0.0800 
 44 H       11.5310     0.7350    -0.4750 H     1 <1>   0.0800 
 45 H       11.0410     2.1320     0.4560 H     1 <1>   0.0800 
@<TRIPOS>BOND
  1   1   2  1   
  2   1  20  1   
  3   2   3  1   
  4   2   4  1   
  5   2  21  1   
  6   3   5  1   
  7   3  22  1   
  8   3  23  1   
  9   4   6  1   
 10   4  24  1   
 11   4  25  1   
 12   5   6  1   
 13   5   7  1   
 14   5  26  1   
 15   6   8  1   
 16   6  27  1   
 17   7   9  1   
 18   7  28  1   
 19   7  29  1   
 20   8   9  1   
 21   8  30  1   
 22   8  31  1   
 23   9  10  1   
 24   9  32  1   
 25  10  11  1   
 26  10  12  1   
 27  10  33  1   
 28  11  13  1   
 29  11  34  1   
 30  11  35  1   
 31  12  36  1   
 32  12  37  1   
 33  12  38  1   
 34  13  14  ar  
 35  13  15  ar  
 36  14  16  ar  
 37  14  39  1   
 38  15  17  ar  
 39  15  40  1   
 40  16  18  ar  
 41  16  41  1   
 42  17  18  ar  
 43  17  42  1   
 44  18  19  1   
 45  19  43  1   
 46  19  44  1   
 47  19  45  1   
@<TRIPOS>SUBSTRUCTURE
  1 ****  10 GROUP 4 **** **** 0

# MOE 2024.06 (io_trps.svl 2023.06)
