@<TRIPOS>MOLECULE
NONAME
65 69 1 0 0 
SMALL
USER_CHARGES


@<TRIPOS>ATOM
  1 O        1.4950    -1.0840     2.6300 O.3   1 <1>  -0.5600 
  2 C        2.2020    -1.0970     1.4130 C.3   1 <1>   0.4240 
  3 C        0.1260    -1.3490     2.5820 C.3   1 <1>   0.1200 
  4 C        1.7070    -2.2110     0.4690 C.ar  1 <1>  -0.1440 
  5 C        2.0640     0.2920     0.7690 C.3   1 <1>  -0.1600 
  6 C        3.6630    -1.3500     1.8110 C.3   1 <1>  -0.1600 
  7 C       -0.0850    -2.7890     2.1240 C.3   1 <1>  -0.0160 
  8 C        0.6310    -3.0180     0.8080 C.ar  1 <1>  -0.1440 
  9 C        2.3310    -2.4260    -0.7530 C.ar  1 <1>  -0.1500 
 10 C        2.6480     1.3860     1.6630 C.3   1 <1>   0.2090 
 11 C        4.2060    -0.2250     2.6910 C.3   1 <1>   0.2090 
 12 C        0.2090    -4.0250    -0.0460 C.ar  1 <1>  -0.1500 
 13 C        1.9200    -3.4200    -1.6250 C.ar  1 <1>   0.0820 
 14 N        4.0890     1.0680     1.9450 N.pl3 1 <1>  -0.8380 
 15 C        0.8450    -4.2500    -1.2650 C.ar  1 <1>   0.0820 
 16 O        2.6450    -3.4780    -2.7800 O.3   1 <1>  -0.3630 
 17 C        5.0990     1.8700     1.5080 C.ar  1 <1>   0.7710 
 18 O        0.4440    -5.2610    -2.0910 O.3   1 <1>  -0.3630 
 19 C        2.1670    -4.1100    -3.9450 C.3   1 <1>   0.0400 
 20 N        4.8190     2.9260     0.7570 N.ar  1 <1>  -0.6200 
 21 N        6.3660     1.5680     1.8440 N.ar  1 <1>  -0.1790 
 22 C       -0.4660    -6.2560    -1.6760 C.3   1 <1>   0.0400 
 23 C        5.8050     3.6970     0.3390 C.ar  1 <1>   0.4100 
 24 C        7.4130     2.3170     1.4240 C.ar  1 <1>   0.2110 
 25 N        5.4830     4.7840    -0.4110 N.pl3 1 <1>  -0.8380 
 26 C        7.1440     3.3970     0.6560 C.ar  1 <1>  -0.1500 
 27 C        6.2650     6.0650    -0.4400 C.3   1 <1>   0.2090 
 28 C        4.2350     4.8510    -1.2340 C.3   1 <1>   0.2090 
 29 C        6.6470     6.4260    -1.8850 C.3   1 <1>   0.2000 
 30 C        4.5970     5.1920    -2.6860 C.3   1 <1>  -0.1600 
 31 O        7.2730     7.6590    -1.9080 O.3   1 <1>  -0.6800 
 32 C        5.4160     6.4910    -2.7970 C.3   1 <1>  -0.1600 
 33 H       -0.3470    -0.6560     1.9080 H     1 <1>   0.0800 
 34 H       -0.2740    -1.2060     3.5710 H     1 <1>   0.0800 
 35 H        1.0320     0.4990     0.5610 H     1 <1>   0.0800 
 36 H        2.5830     0.3130    -0.1710 H     1 <1>   0.0800 
 37 H        4.2770    -1.4340     0.9350 H     1 <1>   0.0800 
 38 H        3.7180    -2.2870     2.3360 H     1 <1>   0.0800 
 39 H       -1.1380    -2.9730     2.0130 H     1 <1>   0.0800 
 40 H        0.3000    -3.4620     2.8690 H     1 <1>   0.0800 
 41 H        3.1590    -1.8160    -1.0590 H     1 <1>   0.1500 
 42 H        2.1040     1.4270     2.5920 H     1 <1>   0.0800 
 43 H        2.5270     2.3410     1.1810 H     1 <1>   0.0800 
 44 H        5.2210    -0.4490     2.9640 H     1 <1>   0.0800 
 45 H        3.6300    -0.1650     3.6020 H     1 <1>   0.0800 
 46 H       -0.6240    -4.6270     0.2590 H     1 <1>   0.1500 
 47 H        2.7950    -3.8190    -4.7670 H     1 <1>   0.0800 
 48 H        1.1540    -3.7950    -4.1250 H     1 <1>   0.0800 
 49 H        2.2190    -5.1750    -3.8080 H     1 <1>   0.0800 
 50 H        6.4770     0.7490     2.4270 H     1 <1>   0.4570 
 51 H       -0.5390    -6.9890    -2.4600 H     1 <1>   0.0800 
 52 H       -1.4280    -5.8040    -1.5110 H     1 <1>   0.0800 
 53 H       -0.0940    -6.7180    -0.7790 H     1 <1>   0.0800 
 54 H        8.4150     2.0320     1.7050 H     1 <1>   0.1500 
 55 H        7.9300     4.0200     0.2740 H     1 <1>   0.1500 
 56 H        7.1510     5.9970     0.1620 H     1 <1>   0.0800 
 57 H        5.6470     6.8460    -0.0320 H     1 <1>   0.0800 
 58 H        3.5830     5.6050    -0.8280 H     1 <1>   0.0800 
 59 H        3.7100     3.9110    -1.2180 H     1 <1>   0.0800 
 60 H        7.3500     5.7010    -2.2560 H     1 <1>   0.0800 
 61 H        3.6930     5.2880    -3.2610 H     1 <1>   0.0800 
 62 H        5.1590     4.3730    -3.1000 H     1 <1>   0.0800 
 63 H        6.6190     8.3770    -1.8010 H     1 <1>   0.4000 
 64 H        5.7300     6.6310    -3.8160 H     1 <1>   0.0800 
 65 H        4.7920     7.3180    -2.5080 H     1 <1>   0.0800 
@<TRIPOS>BOND
  1   1   2  1   
  2   1   3  1   
  3   2   4  1   
  4   2   5  1   
  5   2   6  1   
  6   3   7  1   
  7   3  33  1   
  8   3  34  1   
  9   4   8  ar  
 10   4   9  ar  
 11   5  10  1   
 12   5  35  1   
 13   5  36  1   
 14   6  11  1   
 15   6  37  1   
 16   6  38  1   
 17   7   8  1   
 18   7  39  1   
 19   7  40  1   
 20   8  12  ar  
 21   9  13  ar  
 22   9  41  1   
 23  10  14  1   
 24  10  42  1   
 25  10  43  1   
 26  11  14  1   
 27  11  44  1   
 28  11  45  1   
 29  12  15  ar  
 30  12  46  1   
 31  13  15  ar  
 32  13  16  1   
 33  14  17  1   
 34  15  18  1   
 35  16  19  1   
 36  17  20  ar  
 37  17  21  ar  
 38  18  22  1   
 39  19  47  1   
 40  19  48  1   
 41  19  49  1   
 42  20  23  ar  
 43  21  24  ar  
 44  21  50  1   
 45  22  51  1   
 46  22  52  1   
 47  22  53  1   
 48  23  25  1   
 49  23  26  ar  
 50  24  26  ar  
 51  24  54  1   
 52  25  27  1   
 53  25  28  1   
 54  26  55  1   
 55  27  29  1   
 56  27  56  1   
 57  27  57  1   
 58  28  30  1   
 59  28  58  1   
 60  28  59  1   
 61  29  31  1   
 62  29  32  1   
 63  29  60  1   
 64  30  32  1   
 65  30  61  1   
 66  30  62  1   
 67  31  63  1   
 68  32  64  1   
 69  32  65  1   
@<TRIPOS>SUBSTRUCTURE
  1 ****   5 GROUP 4 **** **** 0

# MOE 2024.06 (io_trps.svl 2023.06)
