@<TRIPOS>MOLECULE
NONAME
57 60 1 0 0 
SMALL
USER_CHARGES


@<TRIPOS>ATOM
  1 O        0.9870    -0.5830     1.1880 O.3   1 <1>  -0.5600 
  2 C        2.0240    -1.1140     0.3960 C.3   1 <1>   0.4240 
  3 C       -0.3230    -0.9180     0.8490 C.3   1 <1>   0.1200 
  4 C        1.7300    -2.5690    -0.0320 C.ar  1 <1>  -0.1440 
  5 C        2.2050    -0.2000    -0.8250 C.3   1 <1>  -0.1600 
  6 C        3.2790    -1.0560     1.2750 C.3   1 <1>  -0.1600 
  7 C       -0.5200    -2.4150     1.0660 C.3   1 <1>  -0.0160 
  8 C        0.5270    -3.1860     0.2860 C.ar  1 <1>  -0.1440 
  9 C        2.6680    -3.2940    -0.7550 C.ar  1 <1>  -0.1500 
 10 C        2.5660     1.2290    -0.4170 C.3   1 <1>   0.2090 
 11 C        3.6260     0.3800     1.6630 C.3   1 <1>   0.2090 
 12 C        0.2760    -4.4910    -0.1060 C.ar  1 <1>  -0.1500 
 13 C        2.4370    -4.6010    -1.1500 C.ar  1 <1>   0.0820 
 14 N        3.7990     1.2030     0.4250 N.pl3 1 <1>  -0.8380 
 15 C        1.2170    -5.2160    -0.8330 C.ar  1 <1>   0.0820 
 16 O        3.4590    -5.1800    -1.8420 O.3   1 <1>  -0.3630 
 17 C        4.9770     1.7990     0.1020 C.ar  1 <1>   0.4100 
 18 O        0.9650    -6.4910    -1.2530 O.3   1 <1>  -0.3630 
 19 C        3.7470    -6.5530    -1.6930 C.3   1 <1>   0.0400 
 20 N        6.0900     1.2500     0.5560 N.ar  1 <1>  -0.6200 
 21 C        5.0110     2.9690    -0.6860 C.ar  1 <1>  -0.1500 
 22 C       -0.3040    -7.0910    -1.1120 C.3   1 <1>   0.0400 
 23 C        7.2320     1.8140     0.2280 C.ar  1 <1>   0.7710 
 24 C        6.2040     3.5260    -1.0060 C.ar  1 <1>   0.2180 
 25 N        7.3150     2.9160    -0.5340 N.ar  1 <1>  -0.1790 
 26 N        8.3390     1.2300     0.7010 N.pl3 1 <1>  -0.8690 
 27 C        6.3510     4.7830    -1.8470 C.3   1 <1>  -0.0970 
 28 C        9.7920     1.5380     0.5800 C.3   1 <1>   0.1290 
 29 H       -0.5050    -0.6480    -0.1760 H     1 <1>   0.0800 
 30 H       -0.9830    -0.3560     1.4860 H     1 <1>   0.0800 
 31 H        1.3120    -0.2000    -1.4200 H     1 <1>   0.0800 
 32 H        2.9960    -0.5810    -1.4440 H     1 <1>   0.0800 
 33 H        4.1200    -1.4750     0.7570 H     1 <1>   0.0800 
 34 H        3.1160    -1.6450     2.1590 H     1 <1>   0.0800 
 35 H       -1.5060    -2.6920     0.7420 H     1 <1>   0.0800 
 36 H       -0.4310    -2.6400     2.1140 H     1 <1>   0.0800 
 37 H        3.6090    -2.8530    -1.0260 H     1 <1>   0.1500 
 38 H        1.7590     1.6670     0.1470 H     1 <1>   0.0800 
 39 H        2.7130     1.8110    -1.3080 H     1 <1>   0.0800 
 40 H        4.5190     0.3870     2.2630 H     1 <1>   0.0800 
 41 H        2.8330     0.8000     2.2580 H     1 <1>   0.0800 
 42 H       -0.6640    -4.9280     0.1670 H     1 <1>   0.1500 
 43 H        4.7660    -6.7150    -1.9900 H     1 <1>   0.0800 
 44 H        3.0890    -7.1160    -2.3310 H     1 <1>   0.0800 
 45 H        3.6120    -6.8320    -0.6630 H     1 <1>   0.0800 
 46 H        4.0860     3.4070    -1.0050 H     1 <1>   0.1500 
 47 H       -0.2680    -8.0580    -1.5810 H     1 <1>   0.0800 
 48 H       -1.0380    -6.4760    -1.6010 H     1 <1>   0.0800 
 49 H       -0.5240    -7.2020    -0.0660 H     1 <1>   0.0800 
 50 H        8.2490     3.2580    -0.7190 H     1 <1>   0.4570 
 51 H        8.1360     0.3930     1.2650 H     1 <1>   0.4000 
 52 H        5.3840     5.1520    -2.1440 H     1 <1>   0.0800 
 53 H        6.9180     4.5770    -2.7370 H     1 <1>   0.0800 
 54 H        6.8450     5.5560    -1.2850 H     1 <1>   0.0800 
 55 H        9.9660     2.4220    -0.0070 H     1 <1>   0.0800 
 56 H       10.3010     0.7090     0.1150 H     1 <1>   0.0800 
 57 H       10.2140     1.6870     1.5610 H     1 <1>   0.0800 
@<TRIPOS>BOND
  1   1   2  1   
  2   1   3  1   
  3   2   4  1   
  4   2   5  1   
  5   2   6  1   
  6   3   7  1   
  7   3  29  1   
  8   3  30  1   
  9   4   8  ar  
 10   4   9  ar  
 11   5  10  1   
 12   5  31  1   
 13   5  32  1   
 14   6  11  1   
 15   6  33  1   
 16   6  34  1   
 17   7   8  1   
 18   7  35  1   
 19   7  36  1   
 20   8  12  ar  
 21   9  13  ar  
 22   9  37  1   
 23  10  14  1   
 24  10  38  1   
 25  10  39  1   
 26  11  14  1   
 27  11  40  1   
 28  11  41  1   
 29  12  15  ar  
 30  12  42  1   
 31  13  15  ar  
 32  13  16  1   
 33  14  17  1   
 34  15  18  1   
 35  16  19  1   
 36  17  20  ar  
 37  17  21  ar  
 38  18  22  1   
 39  19  43  1   
 40  19  44  1   
 41  19  45  1   
 42  20  23  ar  
 43  21  24  ar  
 44  21  46  1   
 45  22  47  1   
 46  22  48  1   
 47  22  49  1   
 48  23  25  ar  
 49  23  26  1   
 50  24  25  ar  
 51  24  27  1   
 52  25  50  1   
 53  26  28  1   
 54  26  51  1   
 55  27  52  1   
 56  27  53  1   
 57  27  54  1   
 58  28  55  1   
 59  28  56  1   
 60  28  57  1   
@<TRIPOS>SUBSTRUCTURE
  1 ****   6 GROUP 4 **** **** 0

# MOE 2024.06 (io_trps.svl 2023.06)
