@<TRIPOS>MOLECULE
NONAME
42 44 1 0 0 
SMALL
USER_CHARGES


@<TRIPOS>ATOM
  1 S       -2.1410     0.5570    -1.0590 S.3   1 <1>  -0.0800 
  2 C       -1.8060     0.6690     0.6630 C.2   1 <1>  -0.1400 
  3 C       -0.5380     1.1470    -1.4570 C.2   1 <1>  -0.1100 
  4 C       -0.5570     1.1270     0.8670 C.2   1 <1>  -0.1500 
  5 C       -2.9030     0.2670     1.6380 C.3   1 <1>   0.0810 
  6 C        0.1650     1.3990    -0.3380 C.2   1 <1>  -0.1500 
  7 C       -3.0740    -1.2420     1.7530 C.2   1 <1>   0.5690 
  8 O       -2.3390    -1.8320     2.5110 O.2   1 <1>  -0.5700 
  9 N       -4.0410    -1.9100     1.0480 N.am  1 <1>  -0.6600 
 10 C       -4.9880    -1.3540     0.0470 C.3   1 <1>   0.1400 
 11 C       -4.2260    -3.3740     1.1520 C.3   1 <1>   0.1400 
 12 C       -5.8490    -2.5370    -0.4170 C.3   1 <1>   0.2000 
 13 C       -4.9800    -3.7630    -0.1200 C.3   1 <1>  -0.0800 
 14 O       -7.0130    -2.6100     0.3570 O.3   1 <1>  -0.5600 
 15 C       -5.7560    -5.0860     0.0030 C.3   1 <1>   0.0200 
 16 C       -8.0800    -1.8400    -0.0990 C.3   1 <1>   0.0400 
 17 C       -4.8500    -6.3020     0.1190 C.2   1 <1>  -0.0400 
 18 O       -5.3950    -7.4750     0.3070 O.3   1 <1>  -0.0190 
 19 C       -3.5190    -6.4760     0.0660 C.2   1 <1>  -0.1500 
 20 N       -4.5040    -8.4200     0.3850 N.2   1 <1>  -0.4100 
 21 C       -3.3630    -7.8470     0.2450 C.2   1 <1>   0.1080 
 22 C       -2.0370    -8.5710     0.2720 C.3   1 <1>  -0.0590 
 23 H       -0.2880     1.2440    -2.4980 H     1 <1>   0.1500 
 24 H       -0.1010     1.2850     1.8290 H     1 <1>   0.1500 
 25 H       -2.6440     0.6360     2.6130 H     1 <1>   0.0800 
 26 H       -3.8280     0.7330     1.3580 H     1 <1>   0.0800 
 27 H        1.1760     1.7680    -0.3030 H     1 <1>   0.1500 
 28 H       -5.5900    -0.5720     0.4740 H     1 <1>   0.0800 
 29 H       -4.4310    -0.9730    -0.7890 H     1 <1>   0.0800 
 30 H       -3.2780    -3.8780     1.2350 H     1 <1>   0.0800 
 31 H       -4.8210    -3.5850     2.0250 H     1 <1>   0.0800 
 32 H       -6.1160    -2.4760    -1.4590 H     1 <1>   0.0800 
 33 H       -4.2600    -3.8530    -0.9150 H     1 <1>   0.0800 
 34 H       -6.3810    -5.2130    -0.8620 H     1 <1>   0.0800 
 35 H       -6.3980    -5.0540     0.8660 H     1 <1>   0.0800 
 36 H       -8.9010    -1.9700     0.5850 H     1 <1>   0.0800 
 37 H       -8.3710    -2.1790    -1.0780 H     1 <1>   0.0800 
 38 H       -7.7940    -0.8030    -0.1260 H     1 <1>   0.0800 
 39 H       -2.7270    -5.7650    -0.0780 H     1 <1>   0.1500 
 40 H       -1.4250    -8.1800     1.0640 H     1 <1>   0.0800 
 41 H       -1.5310    -8.4410    -0.6670 H     1 <1>   0.0800 
 42 H       -2.1950    -9.6210     0.4410 H     1 <1>   0.0800 
@<TRIPOS>BOND
  1   1   2  1   
  2   1   3  1   
  3   2   4  2   
  4   2   5  1   
  5   3   6  2   
  6   3  23  1   
  7   4   6  1   
  8   4  24  1   
  9   5   7  1   
 10   5  25  1   
 11   5  26  1   
 12   6  27  1   
 13   7   8  2   
 14   7   9  am  
 15   9  10  1   
 16   9  11  1   
 17  10  12  1   
 18  10  28  1   
 19  10  29  1   
 20  11  13  1   
 21  11  30  1   
 22  11  31  1   
 23  12  13  1   
 24  12  14  1   
 25  12  32  1   
 26  13  15  1   
 27  13  33  1   
 28  14  16  1   
 29  15  17  1   
 30  15  34  1   
 31  15  35  1   
 32  16  36  1   
 33  16  37  1   
 34  16  38  1   
 35  17  18  1   
 36  17  19  2   
 37  18  20  1   
 38  19  21  1   
 39  19  39  1   
 40  20  21  2   
 41  21  22  1   
 42  22  40  1   
 43  22  41  1   
 44  22  42  1   
@<TRIPOS>SUBSTRUCTURE
  1 ****  11 GROUP 4 **** **** 0

# MOE 2024.06 (io_trps.svl 2023.06)
