@<TRIPOS>MOLECULE
NONAME
55 58 1 0 0 
SMALL
USER_CHARGES


@<TRIPOS>ATOM
  1 F       -0.6220    -3.3000     0.2790 F     1 <1>  -0.3400 
  2 C       -1.8460    -3.7230     0.5580 C.3   1 <1>   0.8800 
  3 F       -2.0380    -4.8030    -0.1880 F     1 <1>  -0.3400 
  4 O       -2.7530    -2.7250     0.1500 O.3   1 <1>  -0.3630 
  5 C       -4.0630    -2.7760     0.4940 C.ar  1 <1>   0.0830 
  6 C       -4.8150    -1.6450     0.2230 C.ar  1 <1>  -0.1500 
  7 C       -4.6760    -3.8750     1.0900 C.ar  1 <1>  -0.1500 
  8 C       -6.1610    -1.6010     0.5360 C.ar  1 <1>  -0.1500 
  9 C       -6.0240    -3.8310     1.4030 C.ar  1 <1>  -0.1500 
 10 C       -6.7770    -2.6990     1.1220 C.ar  1 <1>  -0.1440 
 11 C       -8.2590    -2.6630     1.4430 C.3   1 <1>   0.4870 
 12 N       -9.0220    -2.7820     0.1710 N.4   1 <1>  -0.9590 
 13 C      -10.4820    -2.5090     0.3930 C.3   1 <1>   0.3430 
 14 C       -8.8050    -4.1100    -0.4780 C.3   1 <1>   0.3430 
 15 C      -11.2860    -2.5340    -0.9190 C.3   1 <1>   0.1440 
 16 C       -9.5380    -4.1620    -1.8220 C.3   1 <1>  -0.1600 
 17 C      -12.7470    -2.3940    -0.5720 C.ar  1 <1>   0.1670 
 18 C      -11.0400    -3.8570    -1.6750 C.3   1 <1>  -0.1600 
 19 C      -11.0350    -1.2920    -1.8180 C.3   1 <1>  -0.1600 
 20 N      -13.3460    -3.0700     0.3730 N.ar  1 <1>  -0.6200 
 21 C      -13.3660    -1.4600    -1.3430 C.ar  1 <1>  -0.1430 
 22 C      -12.4150    -0.8360    -2.3330 C.3   1 <1>  -0.0170 
 23 C      -14.6420    -2.7830     0.5310 C.ar  1 <1>   0.7200 
 24 C      -14.6980    -1.2310    -1.1080 C.ar  1 <1>   0.1600 
 25 N      -15.3410    -1.8860    -0.1700 N.ar  1 <1>  -0.6200 
 26 N      -15.3130    -3.4710     1.5190 N.pl3 1 <1>  -0.8380 
 27 C      -16.6360    -3.0110     2.0270 C.3   1 <1>   0.1290 
 28 C      -14.9030    -4.8320     1.9630 C.3   1 <1>   0.1290 
 29 H       -1.9220    -3.9660     1.6030 H     1 <1>   0.0800 
 30 H       -4.3330    -0.7970    -0.2340 H     1 <1>   0.1500 
 31 H       -4.1290    -4.7740     1.3120 H     1 <1>   0.1500 
 32 H       -6.7120    -0.7010     0.3200 H     1 <1>   0.1500 
 33 H       -6.4750    -4.6930     1.8670 H     1 <1>   0.1500 
 34 H       -8.4930    -1.7300     1.9310 H     1 <1>   0.0800 
 35 H       -8.5150    -3.4700     2.1100 H     1 <1>   0.0800 
 36 H       -8.6430    -2.0730    -0.4680 H     1 <1>   0.4500 
 37 H      -10.6190    -1.5500     0.8660 H     1 <1>   0.0800 
 38 H      -10.8920    -3.2590     1.0510 H     1 <1>   0.0800 
 39 H       -9.1770    -4.8940     0.1620 H     1 <1>   0.0800 
 40 H       -7.7510    -4.2770    -0.6410 H     1 <1>   0.0800 
 41 H       -9.4210    -5.1470    -2.2410 H     1 <1>   0.0800 
 42 H       -9.0770    -3.4730    -2.5060 H     1 <1>   0.0800 
 43 H      -11.5090    -3.8240    -2.6440 H     1 <1>   0.0800 
 44 H      -11.5040    -4.6600    -1.1270 H     1 <1>   0.0800 
 45 H      -10.3660    -1.4900    -2.6370 H     1 <1>   0.0800 
 46 H      -10.6240    -0.4930    -1.2270 H     1 <1>   0.0800 
 47 H      -12.6090    -1.2330    -3.3160 H     1 <1>   0.0800 
 48 H      -12.5030     0.2370    -2.3500 H     1 <1>   0.0800 
 49 H      -15.2420    -0.5050    -1.6880 H     1 <1>   0.1500 
 50 H      -16.6980    -1.9370     1.9930 H     1 <1>   0.0800 
 51 H      -16.7720    -3.3270     3.0460 H     1 <1>   0.0800 
 52 H      -17.4200    -3.4250     1.4160 H     1 <1>   0.0800 
 53 H      -14.1970    -5.2630     1.2750 H     1 <1>   0.0800 
 54 H      -15.7630    -5.4770     2.0090 H     1 <1>   0.0800 
 55 H      -14.4530    -4.7720     2.9380 H     1 <1>   0.0800 
@<TRIPOS>BOND
  1   1   2  1   
  2   2   3  1   
  3   2   4  1   
  4   2  29  1   
  5   4   5  1   
  6   5   6  ar  
  7   5   7  ar  
  8   6   8  ar  
  9   6  30  1   
 10   7   9  ar  
 11   7  31  1   
 12   8  10  ar  
 13   8  32  1   
 14   9  10  ar  
 15   9  33  1   
 16  10  11  1   
 17  11  12  1   
 18  11  34  1   
 19  11  35  1   
 20  12  13  1   
 21  12  14  1   
 22  12  36  1   
 23  13  15  1   
 24  13  37  1   
 25  13  38  1   
 26  14  16  1   
 27  14  39  1   
 28  14  40  1   
 29  15  17  1   
 30  15  18  1   
 31  15  19  1   
 32  16  18  1   
 33  16  41  1   
 34  16  42  1   
 35  17  20  ar  
 36  17  21  ar  
 37  18  43  1   
 38  18  44  1   
 39  19  22  1   
 40  19  45  1   
 41  19  46  1   
 42  20  23  ar  
 43  21  22  1   
 44  21  24  ar  
 45  22  47  1   
 46  22  48  1   
 47  23  25  ar  
 48  23  26  1   
 49  24  25  ar  
 50  24  49  1   
 51  26  27  1   
 52  26  28  1   
 53  27  50  1   
 54  27  51  1   
 55  27  52  1   
 56  28  53  1   
 57  28  54  1   
 58  28  55  1   
@<TRIPOS>SUBSTRUCTURE
  1 ****  12 GROUP 4 **** **** 0

# MOE 2024.06 (io_trps.svl 2023.06)
