@<TRIPOS>MOLECULE
NONAME
35 36 1 0 0 
SMALL
USER_CHARGES


@<TRIPOS>ATOM
  1 O        3.2630    -0.5850    -1.5480 O.2   1 <1>  -0.5700 
  2 C        2.3560    -1.0680    -0.9120 C.2   1 <1>   0.5690 
  3 N        1.7140    -0.4250     0.0970 N.am  1 <1>  -0.4930 
  4 C        1.8900    -2.4890    -1.2390 C.3   1 <1>   0.1710 
  5 C        1.8930     0.8470     0.6340 C.2   1 <1>   0.3520 
  6 N        0.5350    -2.8180    -0.7030 N.3   1 <1>  -0.8100 
  7 N        1.1360     1.3010     1.5700 N.2   1 <1>  -0.4100 
  8 C        2.8570     1.7910     0.2770 C.2   1 <1>  -0.1500 
  9 C        0.3500    -4.2830    -0.6120 C.3   1 <1>   0.2900 
 10 C       -0.5220    -2.1910    -1.5230 C.3   1 <1>   0.0300 
 11 O        1.5740     2.5070     1.8360 O.3   1 <1>  -0.0190 
 12 C        2.5950     2.8270     1.0850 C.2   1 <1>  -0.0400 
 13 C       -0.9590    -4.6490     0.0640 C.2   1 <1>  -0.0400 
 14 C        3.2500     4.1830     1.2360 C.3   1 <1>  -0.0600 
 15 O       -2.0340    -4.8460    -0.6530 O.3   1 <1>  -0.0190 
 16 C       -1.2830    -4.8410     1.3520 C.2   1 <1>  -0.1500 
 17 N       -3.0600    -5.1570     0.0860 N.2   1 <1>  -0.4100 
 18 C       -2.6370    -5.1600     1.2990 C.2   1 <1>   0.1080 
 19 C       -3.5030    -5.4680     2.5000 C.3   1 <1>  -0.0590 
 20 H        0.9350    -0.9540     0.4960 H     1 <1>   0.3700 
 21 H        2.6180    -3.1540    -0.8110 H     1 <1>   0.0800 
 22 H        1.9080    -2.6250    -2.3060 H     1 <1>   0.0800 
 23 H        3.6130     1.6710    -0.4750 H     1 <1>   0.1500 
 24 H        1.1500    -4.6980    -0.0250 H     1 <1>   0.0800 
 25 H        0.3850    -4.7280    -1.5920 H     1 <1>   0.0800 
 26 H       -0.3410    -1.1360    -1.6330 H     1 <1>   0.0800 
 27 H       -1.4820    -2.3110    -1.0480 H     1 <1>   0.0800 
 28 H       -0.5610    -2.6410    -2.5010 H     1 <1>   0.0800 
 29 H        4.0680     4.2790     0.5460 H     1 <1>   0.0800 
 30 H        3.6220     4.2980     2.2380 H     1 <1>   0.0800 
 31 H        2.5320     4.9580     1.0380 H     1 <1>   0.0800 
 32 H       -0.6730    -4.7690     2.2330 H     1 <1>   0.1500 
 33 H       -3.4730    -4.6470     3.1930 H     1 <1>   0.0800 
 34 H       -3.1480    -6.3580     2.9870 H     1 <1>   0.0800 
 35 H       -4.5200    -5.6240     2.1890 H     1 <1>   0.0800 
@<TRIPOS>BOND
  1   1   2  2   
  2   2   3  am  
  3   2   4  1   
  4   3   5  1   
  5   3  20  1   
  6   4   6  1   
  7   4  21  1   
  8   4  22  1   
  9   5   7  2   
 10   5   8  1   
 11   6   9  1   
 12   6  10  1   
 13   7  11  1   
 14   8  12  2   
 15   8  23  1   
 16   9  13  1   
 17   9  24  1   
 18   9  25  1   
 19  10  26  1   
 20  10  27  1   
 21  10  28  1   
 22  11  12  1   
 23  12  14  1   
 24  13  15  1   
 25  13  16  2   
 26  14  29  1   
 27  14  30  1   
 28  14  31  1   
 29  15  17  1   
 30  16  18  1   
 31  16  32  1   
 32  17  18  2   
 33  18  19  1   
 34  19  33  1   
 35  19  34  1   
 36  19  35  1   
@<TRIPOS>SUBSTRUCTURE
  1 ****   6 GROUP 4 **** **** 0

# MOE 2024.06 (io_trps.svl 2023.06)
