@<TRIPOS>MOLECULE
NONAME
32 33 1 0 0 
SMALL
USER_CHARGES


@<TRIPOS>ATOM
  1 O        0.0430    -0.0810    -0.7940 O.2   1 <1>  -0.5700 
  2 C        1.0980    -0.6530    -0.5880 C.2   1 <1>   0.7160 
  3 N        2.2440     0.0660    -0.3820 N.am  1 <1>  -0.4930 
  4 C        1.1690    -2.0930    -0.5430 C.2   1 <1>  -0.0860 
  5 C        2.4620     1.4660    -0.4210 C.2   1 <1>   0.0630 
  6 C        0.2880    -3.0430    -0.1120 C.2   1 <1>  -0.3320 
  7 C        2.2620    -2.8510    -0.9740 C.2   1 <1>   0.1390 
  8 C        3.6150     2.1030    -0.1160 C.2   1 <1>  -0.3320 
  9 C        1.5770     2.4860    -0.7740 C.2   1 <1>   0.1390 
 10 N        0.8680    -4.2450    -0.2890 N.pl3 1 <1>   0.3140 
 11 C       -1.1060    -2.8480     0.4700 C.3   1 <1>  -0.0600 
 12 N        2.0940    -4.1230    -0.8170 N.2   1 <1>  -0.7070 
 13 N        3.3810     3.4280    -0.2930 N.pl3 1 <1>   0.3140 
 14 C        4.9510     1.5330     0.3410 C.3   1 <1>  -0.0600 
 15 N        2.1240     3.6620    -0.7000 N.2   1 <1>  -0.7070 
 16 C        0.3070    -5.5660     0.0220 C.3   1 <1>   0.0160 
 17 C        4.3250     4.5340    -0.0870 C.3   1 <1>   0.0160 
 18 H        3.0480    -0.4790    -0.0870 H     1 <1>   0.3700 
 19 H        3.1570    -2.4340    -1.4030 H     1 <1>   0.1500 
 20 H        0.5560     2.3260    -1.0750 H     1 <1>   0.1500 
 21 H       -1.3400    -1.8020     0.5600 H     1 <1>   0.0800 
 22 H       -1.1670    -3.2900     1.4480 H     1 <1>   0.0800 
 23 H       -1.8410    -3.3020    -0.1690 H     1 <1>   0.0800 
 24 H        4.9060     0.4630     0.4170 H     1 <1>   0.0800 
 25 H        5.2100     1.9300     1.3070 H     1 <1>   0.0800 
 26 H        5.7230     1.7910    -0.3620 H     1 <1>   0.0800 
 27 H       -0.6140    -5.6940    -0.5150 H     1 <1>   0.0800 
 28 H        0.1310    -5.6350     1.0790 H     1 <1>   0.0800 
 29 H        1.0060    -6.3250    -0.2780 H     1 <1>   0.0800 
 30 H        5.1690     4.4030    -0.7360 H     1 <1>   0.0800 
 31 H        4.6430     4.5400     0.9380 H     1 <1>   0.0800 
 32 H        3.8340     5.4620    -0.3170 H     1 <1>   0.0800 
@<TRIPOS>BOND
  1   1   2  2   
  2   2   3  am  
  3   2   4  1   
  4   3   5  1   
  5   3  18  1   
  6   4   6  2   
  7   4   7  1   
  8   5   8  2   
  9   5   9  1   
 10   6  10  1   
 11   6  11  1   
 12   7  12  2   
 13   7  19  1   
 14   8  13  1   
 15   8  14  1   
 16   9  15  2   
 17   9  20  1   
 18  10  12  1   
 19  10  16  1   
 20  11  21  1   
 21  11  22  1   
 22  11  23  1   
 23  13  15  1   
 24  13  17  1   
 25  14  24  1   
 26  14  25  1   
 27  14  26  1   
 28  16  27  1   
 29  16  28  1   
 30  16  29  1   
 31  17  30  1   
 32  17  31  1   
 33  17  32  1   
@<TRIPOS>SUBSTRUCTURE
  1 ****   3 GROUP 4 **** **** 0

# MOE 2024.06 (io_trps.svl 2023.06)
