@<TRIPOS>MOLECULE
NONAME
52 54 1 0 0 
SMALL
USER_CHARGES


@<TRIPOS>ATOM
  1 S       -1.8780     0.0940     2.0730 S.3   1 <1>  -0.2860 
  2 C       -1.3060     1.0490     0.6610 C.2   1 <1>   0.2420 
  3 C       -3.7300     0.2730     2.0570 C.3   1 <1>   0.1310 
  4 N       -2.0680     1.7340    -0.1170 N.2   1 <1>  -0.3380 
  5 N       -0.0200     1.0990     0.3230 N.pl3 1 <1>   0.0480 
  6 C       -4.3830    -1.0580     1.7000 C.2   1 <1>   0.5690 
  7 N       -1.2610     2.2700    -1.0380 N.2   1 <1>  -0.3380 
  8 C       -0.0600     1.8860    -0.7580 C.2   1 <1>   0.0360 
  9 C        1.1380     0.4540     0.9690 C.3   1 <1>   0.0160 
 10 O       -4.8710    -1.6820     2.6140 O.2   1 <1>  -0.5700 
 11 N       -4.4260    -1.5390     0.4100 N.am  1 <1>  -0.6600 
 12 C       -4.8720    -2.9460     0.1740 C.3   1 <1>   0.1400 
 13 C       -4.0260    -0.7430    -0.7890 C.3   1 <1>   0.1400 
 14 C       -6.3810    -3.0170    -0.0940 C.3   1 <1>   0.1400 
 15 C       -4.8630    -1.0310    -2.0430 C.3   1 <1>  -0.1600 
 16 N       -6.7400    -2.5450    -1.4710 N.am  1 <1>  -0.6600 
 17 C       -6.3670    -1.1330    -1.7720 C.3   1 <1>   0.1400 
 18 C       -7.4360    -3.2930    -2.3950 C.2   1 <1>   0.5690 
 19 O       -7.6840    -2.8630    -3.4980 O.2   1 <1>  -0.5700 
 20 C       -7.9220    -4.7080    -2.0950 C.3   1 <1>   0.0440 
 21 C       -8.9510    -4.7820    -0.9690 C.ar  1 <1>  -0.1430 
 22 C       -9.9970    -3.8740    -0.9120 C.ar  1 <1>  -0.1500 
 23 C       -8.8510    -5.7580     0.0100 C.ar  1 <1>  -0.1500 
 24 C      -10.9210    -3.9330     0.1170 C.ar  1 <1>  -0.1500 
 25 C       -9.7750    -5.8160     1.0390 C.ar  1 <1>  -0.1500 
 26 C      -10.8150    -4.9040     1.0980 C.ar  1 <1>  -0.1430 
 27 C      -11.8250    -4.9640     2.2300 C.3   1 <1>  -0.0970 
 28 H       -4.0040     1.0560     1.3800 H     1 <1>   0.0800 
 29 H       -4.0130     0.5570     3.0520 H     1 <1>   0.0800 
 30 H        0.8160     2.1580    -1.3200 H     1 <1>   0.1500 
 31 H        0.9920    -0.6110     0.9780 H     1 <1>   0.0800 
 32 H        1.2250     0.8110     1.9790 H     1 <1>   0.0800 
 33 H        2.0360     0.6890     0.4260 H     1 <1>   0.0800 
 34 H       -4.6550    -3.5330     1.0490 H     1 <1>   0.0800 
 35 H       -4.3270    -3.3820    -0.6450 H     1 <1>   0.0800 
 36 H       -2.9850    -0.9180    -1.0020 H     1 <1>   0.0800 
 37 H       -4.1460     0.3010    -0.5720 H     1 <1>   0.0800 
 38 H       -6.9040    -2.4270     0.6390 H     1 <1>   0.0800 
 39 H       -6.6830    -4.0350     0.0460 H     1 <1>   0.0800 
 40 H       -4.5140    -1.9200    -2.5380 H     1 <1>   0.0800 
 41 H       -4.6990    -0.2170    -2.7250 H     1 <1>   0.0800 
 42 H       -6.9020    -0.7930    -2.6430 H     1 <1>   0.0800 
 43 H       -6.6510    -0.4960    -0.9520 H     1 <1>   0.0800 
 44 H       -7.0670    -5.3160    -1.8650 H     1 <1>   0.0800 
 45 H       -8.3680    -5.1120    -2.9850 H     1 <1>   0.0800 
 46 H      -10.0980    -3.1130    -1.6680 H     1 <1>   0.1500 
 47 H       -8.0540    -6.4800    -0.0180 H     1 <1>   0.1500 
 48 H      -11.7230    -3.2170     0.1480 H     1 <1>   0.1500 
 49 H       -9.6820    -6.5760     1.7950 H     1 <1>   0.1500 
 50 H      -12.7770    -4.5850     1.9040 H     1 <1>   0.0800 
 51 H      -11.4790    -4.3720     3.0570 H     1 <1>   0.0800 
 52 H      -11.9590    -5.9790     2.5600 H     1 <1>   0.0800 
@<TRIPOS>BOND
  1   1   2  1   
  2   1   3  1   
  3   2   4  2   
  4   2   5  1   
  5   3   6  1   
  6   3  28  1   
  7   3  29  1   
  8   4   7  1   
  9   5   8  1   
 10   5   9  1   
 11   6  10  2   
 12   6  11  am  
 13   7   8  2   
 14   8  30  1   
 15   9  31  1   
 16   9  32  1   
 17   9  33  1   
 18  11  12  1   
 19  11  13  1   
 20  12  14  1   
 21  12  34  1   
 22  12  35  1   
 23  13  15  1   
 24  13  36  1   
 25  13  37  1   
 26  14  16  1   
 27  14  38  1   
 28  14  39  1   
 29  15  17  1   
 30  15  40  1   
 31  15  41  1   
 32  16  17  1   
 33  16  18  am  
 34  17  42  1   
 35  17  43  1   
 36  18  19  2   
 37  18  20  1   
 38  20  21  1   
 39  20  44  1   
 40  20  45  1   
 41  21  22  ar  
 42  21  23  ar  
 43  22  24  ar  
 44  22  46  1   
 45  23  25  ar  
 46  23  47  1   
 47  24  26  ar  
 48  24  48  1   
 49  25  26  ar  
 50  25  49  1   
 51  26  27  1   
 52  27  50  1   
 53  27  51  1   
 54  27  52  1   
@<TRIPOS>SUBSTRUCTURE
  1 ****  12 GROUP 4 **** **** 0

# MOE 2024.06 (io_trps.svl 2023.06)
