@<TRIPOS>MOLECULE
NONAME
46 48 1 0 0 
SMALL
USER_CHARGES


@<TRIPOS>ATOM
  1 S        1.9200    -0.4620    -0.8070 S.3   1 <1>  -0.0800 
  2 C        2.2570    -1.6430     0.4400 C.2   1 <1>   0.1980 
  3 C        0.7250    -1.5370    -1.4710 C.2   1 <1>  -0.1100 
  4 N        1.5560    -2.7030     0.3610 N.2   1 <1>  -0.5650 
  5 C        3.3180    -1.2930     1.4560 C.3   1 <1>  -0.0600 
  6 C        0.6860    -2.6530    -0.7250 C.2   1 <1>   0.0460 
  7 C       -0.2240    -3.8520    -0.9410 C.3   1 <1>   0.5240 
  8 N       -0.8740    -4.1840     0.3530 N.4   1 <1>  -0.9590 
  9 C       -1.3860    -5.6000     0.3940 C.3   1 <1>   0.3430 
 10 C       -1.9370    -3.1990     0.7190 C.3   1 <1>   0.3430 
 11 C       -2.6280    -5.8150    -0.5050 C.3   1 <1>   0.2000 
 12 C       -3.2100    -3.3920    -0.1230 C.3   1 <1>  -0.1600 
 13 O       -2.2920    -5.6080    -1.8500 O.3   1 <1>  -0.6800 
 14 C       -3.7520    -4.8530    -0.0600 C.3   1 <1>  -0.1060 
 15 C       -4.0510    -5.2830     1.3810 C.2   1 <1>   0.9060 
 16 C       -5.0310    -5.0290    -0.9240 C.3   1 <1>  -0.0160 
 17 O       -3.9340    -4.4780     2.3080 O.co2 1 <1>  -0.9000 
 18 O       -4.2470    -6.4820     1.5900 O.co2 1 <1>  -0.9000 
 19 C       -6.0920    -3.9580    -0.6910 C.ar  1 <1>  -0.1440 
 20 C       -6.8360    -3.9480     0.4790 C.ar  1 <1>  -0.1500 
 21 C       -6.3270    -2.9830    -1.6490 C.ar  1 <1>  -0.1500 
 22 C       -7.7960    -2.9740     0.6910 C.ar  1 <1>  -0.1500 
 23 C       -7.2890    -2.0090    -1.4400 C.ar  1 <1>  -0.1500 
 24 C       -8.0240    -2.0040    -0.2680 C.ar  1 <1>  -0.1500 
 25 H        0.1890    -1.2100    -2.3440 H     1 <1>   0.1500 
 26 H        3.4230    -2.0920     2.1670 H     1 <1>   0.0800 
 27 H        3.0440    -0.3940     1.9770 H     1 <1>   0.0800 
 28 H        4.2600    -1.1410     0.9610 H     1 <1>   0.0800 
 29 H        0.3740    -4.6860    -1.2670 H     1 <1>   0.0800 
 30 H       -0.9610    -3.6420    -1.6960 H     1 <1>   0.0800 
 31 H       -0.1150    -4.0720     1.0420 H     1 <1>   0.4500 
 32 H       -0.6130    -6.2870     0.0960 H     1 <1>   0.0800 
 33 H       -1.6620    -5.8420     1.4080 H     1 <1>   0.0800 
 34 H       -2.1850    -3.3210     1.7610 H     1 <1>   0.0800 
 35 H       -1.5690    -2.1940     0.5950 H     1 <1>   0.0800 
 36 H       -2.9520    -6.8400    -0.4140 H     1 <1>   0.0800 
 37 H       -3.9550    -2.7230     0.2740 H     1 <1>   0.0800 
 38 H       -3.0300    -3.0980    -1.1400 H     1 <1>   0.0800 
 39 H       -3.0390    -5.8950    -2.4140 H     1 <1>   0.4000 
 40 H       -4.7760    -5.0160    -1.9660 H     1 <1>   0.0800 
 41 H       -5.4670    -5.9930    -0.7210 H     1 <1>   0.0800 
 42 H       -6.6680    -4.6960     1.2370 H     1 <1>   0.1500 
 43 H       -5.7630    -2.9740    -2.5650 H     1 <1>   0.1500 
 44 H       -8.3610    -2.9760     1.6070 H     1 <1>   0.1500 
 45 H       -7.4660    -1.2560    -2.1870 H     1 <1>   0.1500 
 46 H       -8.7700    -1.2480    -0.1010 H     1 <1>   0.1500 
@<TRIPOS>BOND
  1   1   2  1   
  2   1   3  1   
  3   2   4  2   
  4   2   5  1   
  5   3   6  2   
  6   3  25  1   
  7   4   6  1   
  8   5  26  1   
  9   5  27  1   
 10   5  28  1   
 11   6   7  1   
 12   7   8  1   
 13   7  29  1   
 14   7  30  1   
 15   8   9  1   
 16   8  10  1   
 17   8  31  1   
 18   9  11  1   
 19   9  32  1   
 20   9  33  1   
 21  10  12  1   
 22  10  34  1   
 23  10  35  1   
 24  11  13  1   
 25  11  14  1   
 26  11  36  1   
 27  12  14  1   
 28  12  37  1   
 29  12  38  1   
 30  13  39  1   
 31  14  15  1   
 32  14  16  1   
 33  15  17  ar  
 34  15  18  ar  
 35  16  19  1   
 36  16  40  1   
 37  16  41  1   
 38  19  20  ar  
 39  19  21  ar  
 40  20  22  ar  
 41  20  42  1   
 42  21  23  ar  
 43  21  43  1   
 44  22  24  ar  
 45  22  44  1   
 46  23  24  ar  
 47  23  45  1   
 48  24  46  1   
@<TRIPOS>SUBSTRUCTURE
  1 ****  12 GROUP 4 **** **** 0

# MOE 2024.06 (io_trps.svl 2023.06)
