@<TRIPOS>MOLECULE
NONAME
34 35 1 0 0 
SMALL
USER_CHARGES


@<TRIPOS>ATOM
  1 O        2.4460     0.5240    -1.1750 O.co2 1 <1>  -0.9000 
  2 C        3.3210    -0.2190    -0.7210 C.2   1 <1>   0.9060 
  3 O        4.2980    -0.5520    -1.3960 O.co2 1 <1>  -0.9000 
  4 C        3.3360    -0.5510     0.7690 C.3   1 <1>  -0.1860 
  5 C        4.5680     0.0480     1.5030 C.3   1 <1>   0.2000 
  6 C        2.0460    -0.0740     1.4860 C.3   1 <1>  -0.1600 
  7 O        5.6100     0.2890     0.6220 O.3   1 <1>  -0.6800 
  8 C        4.2540     1.3680     2.2510 C.3   1 <1>   0.3430 
  9 C        1.8790     1.4590     1.4380 C.3   1 <1>   0.3430 
 10 N        3.1810     2.1850     1.5890 N.4   1 <1>  -0.9590 
 11 C        3.6500     2.6860     0.2620 C.3   1 <1>   0.5230 
 12 C        4.6830     3.7670     0.5070 C.2   1 <1>   0.0070 
 13 N        4.5740     4.6730     1.4320 N.2   1 <1>  -0.5650 
 14 N        5.8260     3.8480    -0.2160 N.pl3 1 <1>   0.0480 
 15 C        5.7040     5.3930     1.2990 C.2   1 <1>   0.0770 
 16 C        6.4770     4.9030     0.3050 C.2   1 <1>  -0.3020 
 17 C        6.3060     2.9630    -1.2990 C.3   1 <1>   0.0160 
 18 H        3.3910    -1.6210     0.8370 H     1 <1>   0.0800 
 19 H        4.9380    -0.6660     2.2190 H     1 <1>   0.0800 
 20 H        2.0510    -0.4030     2.5100 H     1 <1>   0.0800 
 21 H        1.1890    -0.5230     1.0130 H     1 <1>   0.0800 
 22 H        5.3590    -0.1230    -0.2670 H     1 <1>   0.4000 
 23 H        5.1610     1.9440     2.3430 H     1 <1>   0.0800 
 24 H        3.9210     1.1170     3.2430 H     1 <1>   0.0800 
 25 H        1.1980     1.7610     2.2170 H     1 <1>   0.0800 
 26 H        1.4320     1.7260     0.4930 H     1 <1>   0.0800 
 27 H        3.0710     3.0640     2.1160 H     1 <1>   0.4500 
 28 H        4.0930     1.8980    -0.3160 H     1 <1>   0.0800 
 29 H        2.8260     3.0930    -0.2990 H     1 <1>   0.0800 
 30 H        5.9100     6.2390     1.9350 H     1 <1>   0.1500 
 31 H        7.4330     5.2410    -0.0490 H     1 <1>   0.1500 
 32 H        6.9350     3.5210    -1.9670 H     1 <1>   0.0800 
 33 H        5.4750     2.5610    -1.8510 H     1 <1>   0.0800 
 34 H        6.8710     2.1530    -0.8720 H     1 <1>   0.0800 
@<TRIPOS>BOND
  1   1   2  ar  
  2   2   3  ar  
  3   2   4  1   
  4   4   5  1   
  5   4   6  1   
  6   4  18  1   
  7   5   7  1   
  8   5   8  1   
  9   5  19  1   
 10   6   9  1   
 11   6  20  1   
 12   6  21  1   
 13   7  22  1   
 14   8  10  1   
 15   8  23  1   
 16   8  24  1   
 17   9  10  1   
 18   9  25  1   
 19   9  26  1   
 20  10  11  1   
 21  10  27  1   
 22  11  12  1   
 23  11  28  1   
 24  11  29  1   
 25  12  13  2   
 26  12  14  1   
 27  13  15  1   
 28  14  16  1   
 29  14  17  1   
 30  15  16  2   
 31  15  30  1   
 32  16  31  1   
 33  17  32  1   
 34  17  33  1   
 35  17  34  1   
@<TRIPOS>SUBSTRUCTURE
  1 ****  11 GROUP 4 **** **** 0

# MOE 2024.06 (io_trps.svl 2023.06)
