@<TRIPOS>MOLECULE
NONAME
48 51 1 0 0 
SMALL
USER_CHARGES


@<TRIPOS>ATOM
  1 S        0.2060     0.0390    -1.7760 S.3   1 <1>  -0.0800 
  2 C        0.9620    -1.0220    -0.6040 C.2   1 <1>  -0.0450 
  3 C        0.8600     1.4220    -0.9400 C.2   1 <1>   0.1980 
  4 C        1.6270    -0.2310     0.2720 C.2   1 <1>   0.0460 
  5 C        0.8160    -2.4500    -0.7360 C.2   1 <1>   0.7150 
  6 N        1.5550     1.1330     0.0830 N.2   1 <1>  -0.5650 
  7 C        0.5460     2.7900    -1.4970 C.3   1 <1>  -0.0600 
  8 C        2.4530    -0.6940     1.4550 C.3   1 <1>  -0.0590 
  9 O        1.7840    -3.1670    -0.5640 O.2   1 <1>  -0.5700 
 10 N       -0.3960    -3.0380    -1.0300 N.am  1 <1>  -0.6600 
 11 C       -1.7150    -2.4360    -0.6640 C.3   1 <1>   0.1400 
 12 C       -0.5010    -4.4630    -1.4680 C.3   1 <1>   0.1400 
 13 C       -2.4680    -3.3270     0.3450 C.3   1 <1>   0.1900 
 14 C       -1.2840    -5.2980    -0.4430 C.3   1 <1>   0.1100 
 15 N       -2.6150    -4.7100    -0.1740 N.3   1 <1>  -0.8100 
 16 C       -3.8470    -2.7220     0.6720 C.3   1 <1>   0.1200 
 17 C       -3.3960    -5.5280     0.7840 C.3   1 <1>   0.3330 
 18 O       -4.5300    -3.5260     1.5900 O.3   1 <1>  -0.5600 
 19 C       -3.6780    -6.9190     0.2180 C.ar  1 <1>  -0.1440 
 20 C       -4.7330    -4.8370     1.1310 C.3   1 <1>   0.1200 
 21 C       -4.1640    -7.0770    -1.0730 C.ar  1 <1>  -0.1500 
 22 C       -3.4530    -8.0450     0.9960 C.ar  1 <1>  -0.1500 
 23 C       -4.4230    -8.3400    -1.5780 C.ar  1 <1>  -0.1500 
 24 C       -3.7100    -9.3090     0.4930 C.ar  1 <1>  -0.1500 
 25 C       -4.1950    -9.4570    -0.7940 C.ar  1 <1>  -0.1500 
 26 H        1.0140     3.5440    -0.8900 H     1 <1>   0.0800 
 27 H       -0.5170     2.9490    -1.4960 H     1 <1>   0.0800 
 28 H        0.9180     2.8680    -2.5010 H     1 <1>   0.0800 
 29 H        2.4350    -1.7630     1.5490 H     1 <1>   0.0800 
 30 H        2.0650    -0.2580     2.3580 H     1 <1>   0.0800 
 31 H        3.4710    -0.3750     1.3260 H     1 <1>   0.0800 
 32 H       -1.5780    -1.4650    -0.2250 H     1 <1>   0.0800 
 33 H       -2.3090    -2.3230    -1.5540 H     1 <1>   0.0800 
 34 H       -1.0120    -4.5030    -2.4140 H     1 <1>   0.0800 
 35 H        0.4760    -4.8930    -1.6060 H     1 <1>   0.0800 
 36 H       -1.8950    -3.3480     1.2570 H     1 <1>   0.0800 
 37 H       -0.7150    -5.3630     0.4680 H     1 <1>   0.0800 
 38 H       -1.3970    -6.2940    -0.8360 H     1 <1>   0.0800 
 39 H       -4.4450    -2.6320    -0.2180 H     1 <1>   0.0800 
 40 H       -3.7330    -1.7490     1.1160 H     1 <1>   0.0800 
 41 H       -2.8330    -5.6290     1.6960 H     1 <1>   0.0800 
 42 H       -5.2370    -5.3830     1.9070 H     1 <1>   0.0800 
 43 H       -5.3700    -4.8020     0.2660 H     1 <1>   0.0800 
 44 H       -4.3360    -6.2100    -1.6880 H     1 <1>   0.1500 
 45 H       -3.0760    -7.9470     1.9990 H     1 <1>   0.1500 
 46 H       -4.7990    -8.4510    -2.5800 H     1 <1>   0.1500 
 47 H       -3.5330   -10.1780     1.1020 H     1 <1>   0.1500 
 48 H       -4.3960   -10.4390    -1.1860 H     1 <1>   0.1500 
@<TRIPOS>BOND
  1   1   2  1   
  2   1   3  1   
  3   2   4  2   
  4   2   5  1   
  5   3   6  2   
  6   3   7  1   
  7   4   6  1   
  8   4   8  1   
  9   5   9  2   
 10   5  10  am  
 11   7  26  1   
 12   7  27  1   
 13   7  28  1   
 14   8  29  1   
 15   8  30  1   
 16   8  31  1   
 17  10  11  1   
 18  10  12  1   
 19  11  13  1   
 20  11  32  1   
 21  11  33  1   
 22  12  14  1   
 23  12  34  1   
 24  12  35  1   
 25  13  15  1   
 26  13  16  1   
 27  13  36  1   
 28  14  15  1   
 29  14  37  1   
 30  14  38  1   
 31  15  17  1   
 32  16  18  1   
 33  16  39  1   
 34  16  40  1   
 35  17  19  1   
 36  17  20  1   
 37  17  41  1   
 38  18  20  1   
 39  19  21  ar  
 40  19  22  ar  
 41  20  42  1   
 42  20  43  1   
 43  21  23  ar  
 44  21  44  1   
 45  22  24  ar  
 46  22  45  1   
 47  23  25  ar  
 48  23  46  1   
 49  24  25  ar  
 50  24  47  1   
 51  25  48  1   
@<TRIPOS>SUBSTRUCTURE
  1 ****  13 GROUP 4 **** **** 0

# MOE 2024.06 (io_trps.svl 2023.06)
