@<TRIPOS>MOLECULE
NONAME
46 48 1 0 0 
SMALL
USER_CHARGES


@<TRIPOS>ATOM
  1 S       -0.0360     0.5110    -0.0050 S.o2  1 <1>   1.3330 
  2 O       -0.4220     1.8680    -0.3150 O.2   1 <1>  -0.6500 
  3 O       -0.4240    -0.0700     1.2600 O.2   1 <1>  -0.6500 
  4 N       -0.6190    -0.5020    -1.2370 N.am  1 <1>  -0.8490 
  5 C        1.7410     0.3900    -0.2140 C.3   1 <1>  -0.0550 
  6 C       -0.6640    -1.9180    -0.8540 C.3   1 <1>   0.1160 
  7 C       -1.9320    -0.0770    -1.7310 C.3   1 <1>   0.1160 
  8 C        2.5370     1.3290     0.7140 C.3   1 <1>  -0.0800 
  9 C        4.0080     1.3530     0.3350 C.3   1 <1>   0.2200 
 10 C        2.5980     0.8070     2.1510 C.3   1 <1>   0.1200 
 11 N        4.6130     2.6150     0.8180 N.am  1 <1>  -0.7300 
 12 C        4.5650     0.1690     1.1220 C.3   1 <1>   0.1200 
 13 O        3.7270    -0.0110     2.2270 O.3   1 <1>  -0.5600 
 14 C        4.7580     3.7620     0.0800 C.2   1 <1>   0.6300 
 15 O        4.4530     3.6920    -1.0990 O.2   1 <1>  -0.5700 
 16 C        5.2040     4.9940     0.7180 C.2   1 <1>   0.3640 
 17 N        4.9530     5.1260     2.0010 N.2   1 <1>  -0.5120 
 18 C        5.8930     6.0340    -0.0370 C.ar  1 <1>   0.0860 
 19 N        5.2580     6.3110     2.5930 N.am  1 <1>  -0.3680 
 20 C        6.1580     7.2640     0.5980 C.ar  1 <1>   0.0860 
 21 C        6.3450     5.9000    -1.3620 C.ar  1 <1>  -0.1500 
 22 C        5.7980     7.4030     1.9770 C.2   1 <1>   0.5440 
 23 C        6.7810     8.3020    -0.1020 C.ar  1 <1>  -0.1500 
 24 C        6.9660     6.9280    -2.0370 C.ar  1 <1>  -0.1500 
 25 O        5.9570     8.4190     2.6290 O.2   1 <1>  -0.5700 
 26 C        7.1800     8.1420    -1.4080 C.ar  1 <1>  -0.1500 
 27 H        2.0530    -0.6240    -0.0560 H     1 <1>   0.0800 
 28 H        1.9680     0.6470    -1.2310 H     1 <1>   0.0800 
 29 H       -0.9500    -2.5210    -1.6990 H     1 <1>   0.0800 
 30 H       -1.3750    -2.0700    -0.0580 H     1 <1>   0.0800 
 31 H        0.3050    -2.2430    -0.5170 H     1 <1>   0.0800 
 32 H       -2.2640    -0.7300    -2.5200 H     1 <1>   0.0800 
 33 H       -1.8710     0.9230    -2.1280 H     1 <1>   0.0800 
 34 H       -2.6550    -0.0890    -0.9320 H     1 <1>   0.0800 
 35 H        2.1050     2.3150     0.6680 H     1 <1>   0.0800 
 36 H        4.1770     1.2440    -0.7240 H     1 <1>   0.0800 
 37 H        1.7340     0.2380     2.4460 H     1 <1>   0.0800 
 38 H        2.7390     1.6200     2.8430 H     1 <1>   0.0800 
 39 H        4.7050     2.7000     1.8360 H     1 <1>   0.3700 
 40 H        5.5740     0.3330     1.4580 H     1 <1>   0.0800 
 41 H        4.5190    -0.7310     0.5350 H     1 <1>   0.0800 
 42 H        5.0510     6.4550     3.5880 H     1 <1>   0.3700 
 43 H        6.2210     4.9770    -1.8980 H     1 <1>   0.1500 
 44 H        6.9550     9.2400     0.4000 H     1 <1>   0.1500 
 45 H        7.2890     6.7930    -3.0560 H     1 <1>   0.1500 
 46 H        7.6600     8.9480    -1.9380 H     1 <1>   0.1500 
@<TRIPOS>BOND
  1   1   2  2   
  2   1   3  2   
  3   1   4  am  
  4   1   5  1   
  5   4   6  1   
  6   4   7  1   
  7   5   8  1   
  8   5  27  1   
  9   5  28  1   
 10   6  29  1   
 11   6  30  1   
 12   6  31  1   
 13   7  32  1   
 14   7  33  1   
 15   7  34  1   
 16   8   9  1   
 17   8  10  1   
 18   8  35  1   
 19   9  11  1   
 20   9  12  1   
 21   9  36  1   
 22  10  13  1   
 23  10  37  1   
 24  10  38  1   
 25  11  14  am  
 26  11  39  1   
 27  12  13  1   
 28  12  40  1   
 29  12  41  1   
 30  14  15  2   
 31  14  16  1   
 32  16  17  2   
 33  16  18  1   
 34  17  19  1   
 35  18  20  ar  
 36  18  21  ar  
 37  19  22  am  
 38  19  42  1   
 39  20  22  1   
 40  20  23  ar  
 41  21  24  ar  
 42  21  43  1   
 43  22  25  2   
 44  23  26  ar  
 45  23  44  1   
 46  24  26  ar  
 47  24  45  1   
 48  26  46  1   
@<TRIPOS>SUBSTRUCTURE
  1 ****  14 GROUP 4 **** **** 0

# MOE 2024.06 (io_trps.svl 2023.06)
