@<TRIPOS>MOLECULE
NONAME
54 56 1 0 0 
SMALL
USER_CHARGES


@<TRIPOS>ATOM
  1 O        0.8760    -1.3850     0.3020 O.3   1 <1>  -0.5600 
  2 C        0.7600    -2.3990    -0.6730 C.3   1 <1>   0.4180 
  3 C        0.5710    -0.0730    -0.0940 C.3   1 <1>   0.1200 
  4 C       -0.4610    -2.1710    -1.5550 C.2   1 <1>  -0.2880 
  5 C        0.6080    -3.7150     0.1010 C.3   1 <1>  -0.1600 
  6 C        2.0560    -2.4430    -1.4900 C.3   1 <1>  -0.1600 
  7 C       -0.8950     0.0370    -0.5310 C.3   1 <1>  -0.0220 
  8 C       -1.2320    -1.0840    -1.4950 C.2   1 <1>  -0.2760 
  9 C        1.9210    -4.2380     0.6940 C.3   1 <1>   0.3430 
 10 C        3.2950    -2.6570    -0.6120 C.3   1 <1>   0.3430 
 11 C       -2.4770    -0.8640    -2.3370 C.3   1 <1>  -0.1020 
 12 N        2.9230    -3.1450     0.7540 N.4   1 <1>  -0.9590 
 13 C        4.1170    -3.5080     1.5800 C.3   1 <1>   0.3430 
 14 C        4.9640    -2.2870     1.9500 C.3   1 <1>   0.1200 
 15 O        6.2420    -2.7450     2.3250 O.3   1 <1>  -0.3630 
 16 C        7.2940    -2.3900     1.5420 C.ar  1 <1>   0.0820 
 17 C        7.3680    -2.6830     0.1740 C.ar  1 <1>   0.0820 
 18 C        8.3310    -1.7150     2.1620 C.ar  1 <1>  -0.1500 
 19 O        6.3710    -3.3980    -0.4250 O.3   1 <1>  -0.3620 
 20 C        8.4740    -2.2460    -0.5490 C.ar  1 <1>  -0.1500 
 21 C        9.4290    -1.2980     1.4320 C.ar  1 <1>  -0.1500 
 22 C        6.7100    -4.2950    -1.4650 C.3   1 <1>   0.0400 
 23 C        9.5020    -1.5560     0.0730 C.ar  1 <1>  -0.1430 
 24 C       10.7060    -1.0900    -0.7270 C.3   1 <1>  -0.0970 
 25 H        1.2220     0.2040    -0.9050 H     1 <1>   0.0800 
 26 H        0.7590     0.5810     0.7400 H     1 <1>   0.0800 
 27 H       -0.6550    -2.9810    -2.2350 H     1 <1>   0.1500 
 28 H        0.2200    -4.4750    -0.5520 H     1 <1>   0.0800 
 29 H       -0.1210    -3.5780     0.8810 H     1 <1>   0.0800 
 30 H        2.1660    -1.5440    -2.0670 H     1 <1>   0.0800 
 31 H        1.9920    -3.2520    -2.1950 H     1 <1>   0.0800 
 32 H       -1.0400     0.9920    -1.0040 H     1 <1>   0.0800 
 33 H       -1.5400    -0.0110     0.3290 H     1 <1>   0.0800 
 34 H        2.3020    -5.0380     0.0790 H     1 <1>   0.0800 
 35 H        1.7340    -4.6310     1.6810 H     1 <1>   0.0800 
 36 H        3.8210    -1.7210    -0.5210 H     1 <1>   0.0800 
 37 H        3.9580    -3.3610    -1.0890 H     1 <1>   0.0800 
 38 H       -3.3350    -0.7340    -1.7030 H     1 <1>   0.0800 
 39 H       -2.6540    -1.7080    -2.9800 H     1 <1>   0.0800 
 40 H       -2.3630     0.0130    -2.9510 H     1 <1>   0.0800 
 41 H        2.4130    -2.3510     1.1900 H     1 <1>   0.4500 
 42 H        4.7310    -4.2010     1.0290 H     1 <1>   0.0800 
 43 H        3.8000    -3.9890     2.4910 H     1 <1>   0.0800 
 44 H        4.5420    -1.7730     2.7940 H     1 <1>   0.0800 
 45 H        5.0720    -1.6010     1.1290 H     1 <1>   0.0800 
 46 H        8.2760    -1.5140     3.2160 H     1 <1>   0.1500 
 47 H        8.5500    -2.4350    -1.6030 H     1 <1>   0.1500 
 48 H       10.2270    -0.7720     1.9280 H     1 <1>   0.1500 
 49 H        5.8810    -4.9600    -1.6260 H     1 <1>   0.0800 
 50 H        7.5770    -4.8610    -1.1710 H     1 <1>   0.0800 
 51 H        6.9080    -3.7360    -2.3630 H     1 <1>   0.0800 
 52 H       10.4210    -0.8550    -1.7360 H     1 <1>   0.0800 
 53 H       11.4510    -1.8650    -0.7470 H     1 <1>   0.0800 
 54 H       11.1350    -0.2090    -0.2830 H     1 <1>   0.0800 
@<TRIPOS>BOND
  1   1   2  1   
  2   1   3  1   
  3   2   4  1   
  4   2   5  1   
  5   2   6  1   
  6   3   7  1   
  7   3  25  1   
  8   3  26  1   
  9   4   8  2   
 10   4  27  1   
 11   5   9  1   
 12   5  28  1   
 13   5  29  1   
 14   6  10  1   
 15   6  30  1   
 16   6  31  1   
 17   7   8  1   
 18   7  32  1   
 19   7  33  1   
 20   8  11  1   
 21   9  12  1   
 22   9  34  1   
 23   9  35  1   
 24  10  12  1   
 25  10  36  1   
 26  10  37  1   
 27  11  38  1   
 28  11  39  1   
 29  11  40  1   
 30  12  13  1   
 31  12  41  1   
 32  13  14  1   
 33  13  42  1   
 34  13  43  1   
 35  14  15  1   
 36  14  44  1   
 37  14  45  1   
 38  15  16  1   
 39  16  17  ar  
 40  16  18  ar  
 41  17  19  1   
 42  17  20  ar  
 43  18  21  ar  
 44  18  46  1   
 45  19  22  1   
 46  20  23  ar  
 47  20  47  1   
 48  21  23  ar  
 49  21  48  1   
 50  22  49  1   
 51  22  50  1   
 52  22  51  1   
 53  23  24  1   
 54  24  52  1   
 55  24  53  1   
 56  24  54  1   
@<TRIPOS>SUBSTRUCTURE
  1 ****  10 GROUP 4 **** **** 0

# MOE 2024.06 (io_trps.svl 2023.06)
