@<TRIPOS>MOLECULE
NONAME
47 48 1 0 0 
SMALL
USER_CHARGES


@<TRIPOS>ATOM
  1 S        1.7990     0.6770     1.3710 S.o2  1 <1>   1.3330 
  2 O        2.9740     1.3080     1.9250 O.2   1 <1>  -0.6500 
  3 O        0.7730     0.1800     2.2540 O.2   1 <1>  -0.6500 
  4 N        2.3460    -0.6480     0.4030 N.am  1 <1>  -0.6930 
  5 C        1.0540     1.7630     0.1740 C.3   1 <1>  -0.1350 
  6 C        1.4250    -1.5440    -0.1350 C.ar  1 <1>   0.1990 
  7 C        3.7870    -0.6040    -0.0150 C.3   1 <1>   0.3370 
  8 C        0.8440    -2.5120     0.6740 C.ar  1 <1>  -0.1500 
  9 C        1.0560    -1.4910    -1.4760 C.ar  1 <1>  -0.1500 
 10 C        4.1200     0.6120    -0.9220 C.2   1 <1>   0.5690 
 11 C        4.2230    -1.9280    -0.6650 C.3   1 <1>  -0.2400 
 12 C       -0.0710    -3.4130     0.1610 C.ar  1 <1>  -0.1500 
 13 C        0.1420    -2.3900    -1.9950 C.ar  1 <1>  -0.1500 
 14 O        3.4980     0.7220    -1.9570 O.2   1 <1>  -0.5700 
 15 N        5.0740     1.5480    -0.5940 N.am  1 <1>  -0.6600 
 16 C       -0.4220    -3.3540    -1.1770 C.ar  1 <1>  -0.1500 
 17 C        5.1580     2.8220    -1.3840 C.3   1 <1>   0.3210 
 18 C        5.9350     1.5240     0.6220 C.3   1 <1>   0.1400 
 19 C        4.3740     3.9550    -0.7230 C.2   1 <1>   0.3350 
 20 C        7.1810     0.6910     0.3410 C.3   1 <1>  -0.2400 
 21 N        3.1730     4.2800    -1.0050 N.2   1 <1>  -0.4100 
 22 N        4.9110     4.7100     0.2300 N.2   1 <1>  -0.5650 
 23 O        2.8490     5.2670    -0.2280 O.3   1 <1>  -0.0190 
 24 C        3.9270     5.4730     0.4860 C.2   1 <1>   0.2980 
 25 C        3.9140     6.5700     1.5240 C.3   1 <1>  -0.0600 
 26 H        0.6960     2.6520     0.6550 H     1 <1>   0.0800 
 27 H        0.2290     1.2740    -0.3050 H     1 <1>   0.0800 
 28 H        1.7650     2.0470    -0.5750 H     1 <1>   0.0800 
 29 H        4.3580    -0.5250     0.8880 H     1 <1>   0.0800 
 30 H        1.1130    -2.5480     1.7150 H     1 <1>   0.1500 
 31 H        1.4870    -0.7430    -2.1150 H     1 <1>   0.1500 
 32 H        3.7400    -2.0640    -1.6160 H     1 <1>   0.0800 
 33 H        3.9900    -2.7560    -0.0190 H     1 <1>   0.0800 
 34 H        5.2830    -1.9150    -0.8330 H     1 <1>   0.0800 
 35 H       -0.5110    -4.1570     0.8020 H     1 <1>   0.1500 
 36 H       -0.1310    -2.3390    -3.0350 H     1 <1>   0.1500 
 37 H       -1.1340    -4.0540    -1.5790 H     1 <1>   0.1500 
 38 H        4.7750     2.6740    -2.3780 H     1 <1>   0.0800 
 39 H        6.1870     3.1170    -1.4780 H     1 <1>   0.0800 
 40 H        5.4010     1.1290     1.4680 H     1 <1>   0.0800 
 41 H        6.2300     2.5260     0.8850 H     1 <1>   0.0800 
 42 H        6.9170    -0.3260     0.1190 H     1 <1>   0.0800 
 43 H        7.8170     0.6940     1.2080 H     1 <1>   0.0800 
 44 H        7.7300     1.1070    -0.4840 H     1 <1>   0.0800 
 45 H        4.8670     6.6180     2.0180 H     1 <1>   0.0800 
 46 H        3.1520     6.3680     2.2530 H     1 <1>   0.0800 
 47 H        3.7150     7.5140     1.0530 H     1 <1>   0.0800 
@<TRIPOS>BOND
  1   1   2  2   
  2   1   3  2   
  3   1   4  am  
  4   1   5  1   
  5   4   6  1   
  6   4   7  1   
  7   5  26  1   
  8   5  27  1   
  9   5  28  1   
 10   6   8  ar  
 11   6   9  ar  
 12   7  10  1   
 13   7  11  1   
 14   7  29  1   
 15   8  12  ar  
 16   8  30  1   
 17   9  13  ar  
 18   9  31  1   
 19  10  14  2   
 20  10  15  am  
 21  11  32  1   
 22  11  33  1   
 23  11  34  1   
 24  12  16  ar  
 25  12  35  1   
 26  13  16  ar  
 27  13  36  1   
 28  15  17  1   
 29  15  18  1   
 30  16  37  1   
 31  17  19  1   
 32  17  38  1   
 33  17  39  1   
 34  18  20  1   
 35  18  40  1   
 36  18  41  1   
 37  19  21  2   
 38  19  22  1   
 39  20  42  1   
 40  20  43  1   
 41  20  44  1   
 42  21  23  1   
 43  22  24  2   
 44  23  24  1   
 45  24  25  1   
 46  25  45  1   
 47  25  46  1   
 48  25  47  1   
@<TRIPOS>SUBSTRUCTURE
  1 ****  10 GROUP 4 **** **** 0

# MOE 2024.06 (io_trps.svl 2023.06)
