@<TRIPOS>MOLECULE
NONAME
49 50 1 0 0 
SMALL
USER_CHARGES


@<TRIPOS>ATOM
  1 O       -1.6800     0.1570     2.3910 O.2   1 <1>  -0.5700 
  2 C       -1.8280     0.6090     1.2790 C.2   1 <1>   0.5690 
  3 N       -1.9950    -0.2100     0.1910 N.am  1 <1>  -0.6600 
  4 C       -1.8680     2.1380     1.1570 C.3   1 <1>   0.1810 
  5 C       -1.9970    -1.7040     0.3440 C.3   1 <1>   0.3640 
  6 C       -2.2000     0.3050    -1.2010 C.3   1 <1>   0.1400 
  7 O       -1.0160     2.6400     0.1550 O.3   1 <1>  -0.5600 
  8 C       -0.6320    -2.3260    -0.0090 C.ar  1 <1>  -0.1430 
  9 C       -3.1580    -2.3430    -0.4880 C.3   1 <1>   0.2000 
 10 C       -2.5210    -0.8170    -2.1990 C.3   1 <1>   0.1200 
 11 C       -0.9580     4.0250     0.1060 C.3   1 <1>   0.1200 
 12 C       -0.4690    -3.6970     0.1570 C.ar  1 <1>  -0.1500 
 13 C        0.4560    -1.5870    -0.4680 C.ar  1 <1>  -0.1500 
 14 O       -3.5070    -1.6460    -1.6670 O.3   1 <1>  -0.5600 
 15 C       -4.4400    -2.4520     0.3450 C.3   1 <1>   0.1200 
 16 C       -0.0380     4.4010    -1.0490 C.3   1 <1>  -0.2400 
 17 C        0.7230    -4.3270    -0.1560 C.ar  1 <1>   0.0830 
 18 C        1.6600    -2.2030    -0.7660 C.ar  1 <1>  -0.1500 
 19 O       -4.3010    -3.4380     1.3180 O.3   1 <1>  -0.6800 
 20 O        0.7700    -5.6760    -0.0100 O.3   1 <1>  -0.3630 
 21 C        1.8090    -3.5680    -0.6020 C.ar  1 <1>   0.0830 
 22 C        1.0080    -6.4320    -1.1770 C.3   1 <1>   0.0400 
 23 O        3.0230    -4.1050    -0.8730 O.3   1 <1>  -0.3630 
 24 C        3.7440    -4.5850     0.2400 C.3   1 <1>   0.0400 
 25 H       -1.5670     2.5630     2.0980 H     1 <1>   0.0800 
 26 H       -2.8730     2.4450     0.9360 H     1 <1>   0.0800 
 27 H       -2.1690    -1.9490     1.3780 H     1 <1>   0.0800 
 28 H       -3.0110     1.0110    -1.2010 H     1 <1>   0.0800 
 29 H       -1.3130     0.8180    -1.5290 H     1 <1>   0.0800 
 30 H       -2.8800    -3.3320    -0.8010 H     1 <1>   0.0800 
 31 H       -1.6490    -1.4080    -2.4210 H     1 <1>   0.0800 
 32 H       -2.8960    -0.4010    -3.1180 H     1 <1>   0.0800 
 33 H       -1.9490     4.4130    -0.0550 H     1 <1>   0.0800 
 34 H       -0.5630     4.3900     1.0400 H     1 <1>   0.0800 
 35 H       -1.2730    -4.3020     0.5360 H     1 <1>   0.1500 
 36 H        0.3910    -0.5210    -0.5880 H     1 <1>   0.1500 
 37 H       -5.2770    -2.7140    -0.2770 H     1 <1>   0.0800 
 38 H       -4.6380    -1.5190     0.8440 H     1 <1>   0.0800 
 39 H       -0.4320     4.0220    -1.9740 H     1 <1>   0.0800 
 40 H        0.9440     3.9970    -0.8840 H     1 <1>   0.0800 
 41 H        0.0380     5.4710    -1.1200 H     1 <1>   0.0800 
 42 H        2.4940    -1.6220    -1.1160 H     1 <1>   0.1500 
 43 H       -4.3970    -4.3290     0.9270 H     1 <1>   0.4000 
 44 H        0.8430    -7.4690    -0.9440 H     1 <1>   0.0800 
 45 H        2.0230    -6.2880    -1.4970 H     1 <1>   0.0800 
 46 H        0.3250    -6.1130    -1.9440 H     1 <1>   0.0800 
 47 H        4.7070    -4.9180    -0.1010 H     1 <1>   0.0800 
 48 H        3.2070    -5.4040     0.6840 H     1 <1>   0.0800 
 49 H        3.8570    -3.7850     0.9500 H     1 <1>   0.0800 
@<TRIPOS>BOND
  1   1   2  2   
  2   2   3  am  
  3   2   4  1   
  4   3   5  1   
  5   3   6  1   
  6   4   7  1   
  7   4  25  1   
  8   4  26  1   
  9   5   8  1   
 10   5   9  1   
 11   5  27  1   
 12   6  10  1   
 13   6  28  1   
 14   6  29  1   
 15   7  11  1   
 16   8  12  ar  
 17   8  13  ar  
 18   9  14  1   
 19   9  15  1   
 20   9  30  1   
 21  10  14  1   
 22  10  31  1   
 23  10  32  1   
 24  11  16  1   
 25  11  33  1   
 26  11  34  1   
 27  12  17  ar  
 28  12  35  1   
 29  13  18  ar  
 30  13  36  1   
 31  15  19  1   
 32  15  37  1   
 33  15  38  1   
 34  16  39  1   
 35  16  40  1   
 36  16  41  1   
 37  17  20  1   
 38  17  21  ar  
 39  18  21  ar  
 40  18  42  1   
 41  19  43  1   
 42  20  22  1   
 43  21  23  1   
 44  22  44  1   
 45  22  45  1   
 46  22  46  1   
 47  23  24  1   
 48  24  47  1   
 49  24  48  1   
 50  24  49  1   
@<TRIPOS>SUBSTRUCTURE
  1 ****   8 GROUP 4 **** **** 0

# MOE 2024.06 (io_trps.svl 2023.06)
