@<TRIPOS>MOLECULE
NONAME
52 54 1 0 0 
SMALL
USER_CHARGES


@<TRIPOS>ATOM
  1 O       -1.7270     0.1520     2.1900 O.2   1 <1>  -0.5700 
  2 C       -1.9160     0.7410     1.1440 C.2   1 <1>   0.5440 
  3 N       -2.4510     0.0680     0.0690 N.am  1 <1>  -0.6600 
  4 C       -1.5800     2.1480     1.0430 C.ar  1 <1>   0.0860 
  5 C       -2.5720    -1.4300     0.1120 C.3   1 <1>   0.3640 
  6 C       -3.0410     0.8120    -1.0850 C.3   1 <1>   0.1400 
  7 C       -0.3850     2.5870     0.4600 C.ar  1 <1>  -0.1440 
  8 C       -2.4700     3.1070     1.5230 C.ar  1 <1>  -0.1500 
  9 C       -1.2150    -2.0520    -0.2310 C.ar  1 <1>  -0.1440 
 10 C       -3.6810    -2.0340    -0.8020 C.3   1 <1>   0.2000 
 11 C       -3.7380    -0.0930    -2.1080 C.3   1 <1>   0.1200 
 12 C       -0.1200     3.9430     0.3500 C.ar  1 <1>  -0.1500 
 13 C        0.6400     1.5820    -0.0520 C.3   1 <1>  -0.0960 
 14 C       -2.2010     4.4580     1.4130 C.ar  1 <1>  -0.1500 
 15 C       -0.6720    -3.0070     0.6180 C.ar  1 <1>  -0.1500 
 16 C       -0.5100    -1.6950    -1.3740 C.ar  1 <1>  -0.1500 
 17 O       -4.4730    -1.0710    -1.4490 O.3   1 <1>  -0.5600 
 18 C       -4.6360    -2.9480    -0.0230 C.3   1 <1>   0.1200 
 19 C       -1.0240     4.8770     0.8210 C.ar  1 <1>  -0.1500 
 20 C        0.5450    -3.6030     0.3360 C.ar  1 <1>   0.0830 
 21 C        0.7160    -2.2720    -1.6580 C.ar  1 <1>  -0.1500 
 22 O       -3.9500    -4.0300     0.5240 O.3   1 <1>  -0.6800 
 23 O        0.9890    -4.5570     1.1900 O.3   1 <1>  -0.3630 
 24 C        1.2590    -3.2140    -0.8020 C.ar  1 <1>   0.0830 
 25 C        1.0330    -5.8730     0.6860 C.3   1 <1>   0.0400 
 26 O        2.4800    -3.7140    -1.1180 O.3   1 <1>  -0.3630 
 27 C        3.5250    -3.4320    -0.2130 C.3   1 <1>   0.0400 
 28 H       -2.8080    -1.7090     1.1250 H     1 <1>   0.0800 
 29 H       -3.7670     1.5100    -0.7050 H     1 <1>   0.0800 
 30 H       -2.2720     1.3780    -1.5790 H     1 <1>   0.0800 
 31 H       -3.3830     2.7780     1.9890 H     1 <1>   0.1500 
 32 H       -3.2210    -2.6210    -1.5770 H     1 <1>   0.0800 
 33 H       -3.0290    -0.5680    -2.7620 H     1 <1>   0.0800 
 34 H       -4.4190     0.4860    -2.7070 H     1 <1>   0.0800 
 35 H        0.7960     4.2820    -0.1010 H     1 <1>   0.1500 
 36 H        1.5810     2.0600    -0.2560 H     1 <1>   0.0800 
 37 H        0.2860     1.1210    -0.9550 H     1 <1>   0.0800 
 38 H        0.8080     0.8130     0.6830 H     1 <1>   0.0800 
 39 H       -2.9030     5.1820     1.7890 H     1 <1>   0.1500 
 40 H       -1.1960    -3.3000     1.5120 H     1 <1>   0.1500 
 41 H       -0.9050    -0.9580    -2.0470 H     1 <1>   0.1500 
 42 H       -5.4030    -3.3330    -0.6720 H     1 <1>   0.0800 
 43 H       -5.0910    -2.4040     0.7870 H     1 <1>   0.0800 
 44 H       -0.8100     5.9280     0.7330 H     1 <1>   0.1500 
 45 H        1.2620    -1.9900    -2.5390 H     1 <1>   0.1500 
 46 H       -3.6070    -4.6200    -0.1760 H     1 <1>   0.4000 
 47 H        1.3290    -6.5280     1.4840 H     1 <1>   0.0800 
 48 H        1.7490    -5.9230    -0.1150 H     1 <1>   0.0800 
 49 H        0.0540    -6.1400     0.3310 H     1 <1>   0.0800 
 50 H        4.4490    -3.7580    -0.6550 H     1 <1>   0.0800 
 51 H        3.3540    -3.9610     0.7070 H     1 <1>   0.0800 
 52 H        3.5540    -2.3720    -0.0340 H     1 <1>   0.0800 
@<TRIPOS>BOND
  1   1   2  2   
  2   2   3  am  
  3   2   4  1   
  4   3   5  1   
  5   3   6  1   
  6   4   7  ar  
  7   4   8  ar  
  8   5   9  1   
  9   5  10  1   
 10   5  28  1   
 11   6  11  1   
 12   6  29  1   
 13   6  30  1   
 14   7  12  ar  
 15   7  13  1   
 16   8  14  ar  
 17   8  31  1   
 18   9  15  ar  
 19   9  16  ar  
 20  10  17  1   
 21  10  18  1   
 22  10  32  1   
 23  11  17  1   
 24  11  33  1   
 25  11  34  1   
 26  12  19  ar  
 27  12  35  1   
 28  13  36  1   
 29  13  37  1   
 30  13  38  1   
 31  14  19  ar  
 32  14  39  1   
 33  15  20  ar  
 34  15  40  1   
 35  16  21  ar  
 36  16  41  1   
 37  18  22  1   
 38  18  42  1   
 39  18  43  1   
 40  19  44  1   
 41  20  23  1   
 42  20  24  ar  
 43  21  24  ar  
 44  21  45  1   
 45  22  46  1   
 46  23  25  1   
 47  24  26  1   
 48  25  47  1   
 49  25  48  1   
 50  25  49  1   
 51  26  27  1   
 52  27  50  1   
 53  27  51  1   
 54  27  52  1   
@<TRIPOS>SUBSTRUCTURE
  1 ****   9 GROUP 4 **** **** 0

# MOE 2024.06 (io_trps.svl 2023.06)
