@<TRIPOS>MOLECULE
NONAME
48 51 1 0 0 
SMALL
USER_CHARGES


@<TRIPOS>ATOM
  1 O       -1.6530    -0.6590    -2.6680 O.2   1 <1>  -0.5700 
  2 C       -2.0920    -1.0100    -1.5990 C.2   1 <1>   0.5690 
  3 N       -2.0560    -0.2070    -0.4970 N.am  1 <1>  -0.6600 
  4 C       -2.6920    -2.3950    -1.5080 C.3   1 <1>  -0.0190 
  5 C       -2.6970    -0.6010     0.7900 C.3   1 <1>   0.2200 
  6 C       -1.4280     1.1460    -0.5290 C.3   1 <1>   0.0600 
  7 C       -1.8890    -3.2550    -0.5120 C.3   1 <1>   0.1200 
  8 C       -4.2250    -2.3240    -1.3360 C.3   1 <1>   0.1400 
  9 C       -1.9950    -1.8370     1.4190 C.3   1 <1>   0.1200 
 10 C       -4.2330    -0.7100     0.6210 C.3   1 <1>   0.1400 
 11 O       -2.2780    -3.0770     0.8160 O.3   1 <1>  -0.5600 
 12 N       -4.6980    -2.0210     0.0550 N.am  1 <1>  -0.6600 
 13 C       -5.2940    -2.9200     0.9070 C.2   1 <1>   0.5690 
 14 O       -5.8880    -2.5530     1.8940 O.2   1 <1>  -0.5700 
 15 C       -5.2520    -4.4210     0.6860 C.3   1 <1>   0.0690 
 16 C       -6.6470    -4.9890     0.4710 C.2   1 <1>   0.1820 
 17 N       -6.8650    -6.3170     0.1450 N.pl3 1 <1>  -0.6290 
 18 C       -7.8500    -4.3810     0.5570 C.2   1 <1>   0.2000 
 19 C       -8.2070    -6.4880     0.0380 C.cat 1 <1>   0.7910 
 20 C       -6.0150    -7.3860    -0.0420 C.2   1 <1>   0.2290 
 21 N       -8.8130    -5.3150     0.2820 N.pl3 1 <1>  -0.7000 
 22 C       -8.7600    -7.7480    -0.2820 C.2   1 <1>  -0.1290 
 23 C       -6.5230    -8.6140    -0.3510 C.2   1 <1>  -0.1500 
 24 C       -7.9130    -8.8070    -0.4770 C.2   1 <1>  -0.1500 
 25 C      -10.2700    -7.9230    -0.4060 C.3   1 <1>  -0.1020 
 26 H       -2.5230    -2.8350    -2.4740 H     1 <1>   0.0800 
 27 H       -2.5340     0.2110     1.4770 H     1 <1>   0.0800 
 28 H       -0.6640     1.2130     0.2260 H     1 <1>   0.0800 
 29 H       -2.1740     1.9000    -0.3500 H     1 <1>   0.0800 
 30 H       -0.9740     1.3360    -1.4870 H     1 <1>   0.0800 
 31 H       -0.8350    -3.0490    -0.5920 H     1 <1>   0.0800 
 32 H       -2.0420    -4.2950    -0.7400 H     1 <1>   0.0800 
 33 H       -4.6580    -3.2450    -1.6780 H     1 <1>   0.0800 
 34 H       -4.6020    -1.5560    -1.9910 H     1 <1>   0.0800 
 35 H       -2.3140    -1.9230     2.4420 H     1 <1>   0.0800 
 36 H       -0.9280    -1.6950     1.4170 H     1 <1>   0.0800 
 37 H       -4.5810     0.0920    -0.0060 H     1 <1>   0.0800 
 38 H       -4.6750    -0.5600     1.5900 H     1 <1>   0.0800 
 39 H       -4.6130    -4.6800    -0.1320 H     1 <1>   0.0800 
 40 H       -4.8300    -4.8650     1.5690 H     1 <1>   0.0800 
 41 H       -8.0770    -3.3530     0.8010 H     1 <1>   0.1500 
 42 H       -4.9540    -7.2240     0.0630 H     1 <1>   0.1500 
 43 H       -9.8240    -5.1690     0.2830 H     1 <1>   0.4500 
 44 H       -5.8700    -9.4580    -0.5020 H     1 <1>   0.1500 
 45 H       -8.2790    -9.7920    -0.7230 H     1 <1>   0.1500 
 46 H      -10.6590    -7.2860    -1.1810 H     1 <1>   0.0800 
 47 H      -10.7540    -7.6800     0.5240 H     1 <1>   0.0800 
 48 H      -10.5190    -8.9400    -0.6540 H     1 <1>   0.0800 
@<TRIPOS>BOND
  1   1   2  2   
  2   2   3  am  
  3   2   4  1   
  4   3   5  1   
  5   3   6  1   
  6   4   7  1   
  7   4   8  1   
  8   4  26  1   
  9   5   9  1   
 10   5  10  1   
 11   5  27  1   
 12   6  28  1   
 13   6  29  1   
 14   6  30  1   
 15   7  11  1   
 16   7  31  1   
 17   7  32  1   
 18   8  12  1   
 19   8  33  1   
 20   8  34  1   
 21   9  11  1   
 22   9  35  1   
 23   9  36  1   
 24  10  12  1   
 25  10  37  1   
 26  10  38  1   
 27  12  13  am  
 28  13  14  2   
 29  13  15  1   
 30  15  16  1   
 31  15  39  1   
 32  15  40  1   
 33  16  17  1   
 34  16  18  2   
 35  17  19  ar  
 36  17  20  1   
 37  18  21  1   
 38  18  41  1   
 39  19  21  ar  
 40  19  22  1   
 41  20  23  2   
 42  20  42  1   
 43  21  43  1   
 44  22  24  2   
 45  22  25  1   
 46  23  24  1   
 47  23  44  1   
 48  24  45  1   
 49  25  46  1   
 50  25  47  1   
 51  25  48  1   
@<TRIPOS>SUBSTRUCTURE
  1 ****  15 GROUP 4 **** **** 0

# MOE 2024.06 (io_trps.svl 2023.06)
