@<TRIPOS>MOLECULE
NONAME
41 42 1 0 0 
SMALL
USER_CHARGES


@<TRIPOS>ATOM
  1 S        0.4700     1.2380    -0.9510 S.o2  1 <1>   1.3330 
  2 O       -0.1120     2.0390    -2.0050 O.2   1 <1>  -0.6500 
  3 O        0.8440    -0.1270    -1.2390 O.2   1 <1>  -0.6500 
  4 N        1.8800     2.0280    -0.4360 N.am  1 <1>  -0.8490 
  5 C       -0.6790     1.2120     0.4400 C.3   1 <1>  -0.0550 
  6 C        2.7290     2.3900    -1.5760 C.3   1 <1>   0.1160 
  7 C        2.6700     1.2610     0.5320 C.3   1 <1>   0.1160 
  8 C       -1.1640     2.5290     1.1020 C.3   1 <1>  -0.0800 
  9 C       -1.5250     3.6610     0.1360 C.3   1 <1>   0.2000 
 10 C       -0.1360     3.1530     2.0510 C.3   1 <1>   0.1400 
 11 O       -2.5210     4.4150     0.7380 O.3   1 <1>  -0.6800 
 12 C       -0.2670     4.5290     0.0450 C.3   1 <1>   0.1400 
 13 N        0.4640     4.2990     1.3250 N.am  1 <1>  -0.6600 
 14 C        1.7740     4.6650     1.5470 C.2   1 <1>   0.5440 
 15 O        2.3750     4.1530     2.4730 O.2   1 <1>  -0.5700 
 16 C        2.4550     5.6230     0.7050 C.ar  1 <1>   0.0860 
 17 C        1.8920     6.8640     0.4100 C.ar  1 <1>   0.1600 
 18 C        3.7010     5.3480     0.1620 C.ar  1 <1>  -0.1500 
 19 N        2.4200     7.7940    -0.3740 N.ar  1 <1>  -0.6200 
 20 C        4.2740     6.2940    -0.6570 C.ar  1 <1>   0.0820 
 21 C        3.5990     7.4870    -0.8920 C.ar  1 <1>   0.1600 
 22 O        5.4740     6.0320    -1.2080 O.3   1 <1>  -0.5330 
 23 H       -1.5590     0.7060     0.0920 H     1 <1>   0.0800 
 24 H       -0.2660     0.5870     1.2070 H     1 <1>   0.0800 
 25 H        3.6290     2.8740    -1.2390 H     1 <1>   0.0800 
 26 H        2.2040     3.0700    -2.2260 H     1 <1>   0.0800 
 27 H        2.9940     1.5110    -2.1390 H     1 <1>   0.0800 
 28 H        3.4970     1.8550     0.8830 H     1 <1>   0.0800 
 29 H        3.0500     0.3580     0.0810 H     1 <1>   0.0800 
 30 H        2.0690     0.9960     1.3830 H     1 <1>   0.0800 
 31 H       -2.0320     2.2600     1.6800 H     1 <1>   0.0800 
 32 H       -1.8920     3.3320    -0.8220 H     1 <1>   0.0800 
 33 H        0.6150     2.4430     2.3500 H     1 <1>   0.0800 
 34 H       -0.6240     3.5280     2.9340 H     1 <1>   0.0800 
 35 H       -2.1550     4.8540     1.5310 H     1 <1>   0.4000 
 36 H       -0.5250     5.5640    -0.0890 H     1 <1>   0.0800 
 37 H        0.3480     4.2130    -0.7780 H     1 <1>   0.0800 
 38 H        0.9410     7.0970     0.8570 H     1 <1>   0.1500 
 39 H        4.2030     4.4230     0.3800 H     1 <1>   0.1500 
 40 H        4.0510     8.2230    -1.5340 H     1 <1>   0.1500 
 41 H        5.8390     6.7590    -1.7450 H     1 <1>   0.4500 
@<TRIPOS>BOND
  1   1   2  2   
  2   1   3  2   
  3   1   4  am  
  4   1   5  1   
  5   4   6  1   
  6   4   7  1   
  7   5   8  1   
  8   5  23  1   
  9   5  24  1   
 10   6  25  1   
 11   6  26  1   
 12   6  27  1   
 13   7  28  1   
 14   7  29  1   
 15   7  30  1   
 16   8   9  1   
 17   8  10  1   
 18   8  31  1   
 19   9  11  1   
 20   9  12  1   
 21   9  32  1   
 22  10  13  1   
 23  10  33  1   
 24  10  34  1   
 25  11  35  1   
 26  12  13  1   
 27  12  36  1   
 28  12  37  1   
 29  13  14  am  
 30  14  15  2   
 31  14  16  1   
 32  16  17  ar  
 33  16  18  ar  
 34  17  19  ar  
 35  17  38  1   
 36  18  20  ar  
 37  18  39  1   
 38  19  21  ar  
 39  20  21  ar  
 40  20  22  1   
 41  21  40  1   
 42  22  41  1   
@<TRIPOS>SUBSTRUCTURE
  1 ****  13 GROUP 4 **** **** 0

# MOE 2024.06 (io_trps.svl 2023.06)
