@<TRIPOS>MOLECULE
NONAME
54 55 1 0 0 
SMALL
USER_CHARGES


@<TRIPOS>ATOM
  1 O       -1.7360     0.4200    -1.4170 O.2   1 <1>  -0.5700 
  2 C       -2.0700     0.7110    -0.2900 C.2   1 <1>   0.5690 
  3 N       -2.4940    -0.2590     0.5900 N.am  1 <1>  -0.6600 
  4 C       -1.9890     2.1980     0.0890 C.3   1 <1>  -0.0190 
  5 C       -2.5410    -1.6870     0.1510 C.3   1 <1>   0.2840 
  6 C       -2.9560    -0.0240     1.9980 C.3   1 <1>   0.1400 
  7 C       -2.8660     3.0610    -0.8380 C.3   1 <1>  -0.1600 
  8 C       -0.5310     2.7170     0.0920 C.3   1 <1>  -0.1600 
  9 C       -3.9840    -2.1530     0.0250 C.ar  1 <1>  -0.1440 
 10 C       -4.4500     0.3370     2.1000 C.3   1 <1>   0.1200 
 11 C       -2.9530     4.5180    -0.3390 C.3   1 <1>   0.2000 
 12 C       -0.4240     4.2510    -0.0450 C.3   1 <1>  -0.1600 
 13 C       -4.4980    -3.1220     0.8740 C.ar  1 <1>  -0.1500 
 14 C       -4.8030    -1.5930    -0.9430 C.ar  1 <1>  -0.1500 
 15 O       -4.7080     1.5670     1.4930 O.3   1 <1>  -0.5600 
 16 O       -3.1240     5.3650    -1.4500 O.3   1 <1>  -0.5600 
 17 C       -1.6900     4.9560     0.4530 C.3   1 <1>   0.2000 
 18 C       -5.8190    -3.5160     0.7580 C.ar  1 <1>  -0.1500 
 19 C       -6.1240    -1.9870    -1.0630 C.ar  1 <1>  -0.1500 
 20 C       -6.0620     1.8210     1.3050 C.3   1 <1>   0.0400 
 21 C       -4.4090     5.3820    -1.9900 C.3   1 <1>   0.0400 
 22 O       -1.5100     6.3160     0.3030 O.3   1 <1>  -0.6800 
 23 C       -6.6410    -2.9550    -0.2060 C.ar  1 <1>   0.0820 
 24 O       -7.9220    -3.3970    -0.2510 O.3   1 <1>  -0.3620 
 25 C       -8.8110    -2.9620    -1.2550 C.3   1 <1>   0.0400 
 26 H       -2.3700     2.3340     1.0790 H     1 <1>   0.0800 
 27 H       -2.0510    -1.8170    -0.7990 H     1 <1>   0.0800 
 28 H       -2.0130    -2.2940     0.8640 H     1 <1>   0.0800 
 29 H       -2.7920    -0.9210     2.5680 H     1 <1>   0.0800 
 30 H       -2.3670     0.7450     2.4650 H     1 <1>   0.0800 
 31 H       -3.8540     2.6400    -0.8830 H     1 <1>   0.0800 
 32 H       -2.4420     3.0380    -1.8280 H     1 <1>   0.0800 
 33 H       -0.0590     2.4020     1.0060 H     1 <1>   0.0800 
 34 H        0.0160     2.2700    -0.7210 H     1 <1>   0.0800 
 35 H       -4.7360     0.4140     3.1340 H     1 <1>   0.0800 
 36 H       -5.0500    -0.4220     1.6310 H     1 <1>   0.0800 
 37 H       -3.8020     4.6290     0.3150 H     1 <1>   0.0800 
 38 H       -0.2880     4.4960    -1.0840 H     1 <1>   0.0800 
 39 H        0.4320     4.6050     0.5010 H     1 <1>   0.0800 
 40 H       -3.8780    -3.5730     1.6280 H     1 <1>   0.1500 
 41 H       -4.4040    -0.8390    -1.6030 H     1 <1>   0.1500 
 42 H       -1.8210     4.7540     1.5020 H     1 <1>   0.0800 
 43 H       -6.2240    -4.2660     1.4130 H     1 <1>   0.1500 
 44 H       -6.7290    -1.5320    -1.8230 H     1 <1>   0.1500 
 45 H       -6.1630     2.7920     0.8550 H     1 <1>   0.0800 
 46 H       -6.5630     1.8070     2.2580 H     1 <1>   0.0800 
 47 H       -6.4740     1.0720     0.6490 H     1 <1>   0.0800 
 48 H       -4.4190     6.0840    -2.8040 H     1 <1>   0.0800 
 49 H       -5.1080     5.6940    -1.2340 H     1 <1>   0.0800 
 50 H       -4.6590     4.4020    -2.3570 H     1 <1>   0.0800 
 51 H       -1.8960     6.5340    -0.5770 H     1 <1>   0.4000 
 52 H       -9.7480    -3.4710    -1.1150 H     1 <1>   0.0800 
 53 H       -8.4000    -3.2120    -2.2170 H     1 <1>   0.0800 
 54 H       -8.9540    -1.9010    -1.1590 H     1 <1>   0.0800 
@<TRIPOS>BOND
  1   1   2  2   
  2   2   3  am  
  3   2   4  1   
  4   3   5  1   
  5   3   6  1   
  6   4   7  1   
  7   4   8  1   
  8   4  26  1   
  9   5   9  1   
 10   5  27  1   
 11   5  28  1   
 12   6  10  1   
 13   6  29  1   
 14   6  30  1   
 15   7  11  1   
 16   7  31  1   
 17   7  32  1   
 18   8  12  1   
 19   8  33  1   
 20   8  34  1   
 21   9  13  ar  
 22   9  14  ar  
 23  10  15  1   
 24  10  35  1   
 25  10  36  1   
 26  11  16  1   
 27  11  17  1   
 28  11  37  1   
 29  12  17  1   
 30  12  38  1   
 31  12  39  1   
 32  13  18  ar  
 33  13  40  1   
 34  14  19  ar  
 35  14  41  1   
 36  15  20  1   
 37  16  21  1   
 38  17  22  1   
 39  17  42  1   
 40  18  23  ar  
 41  18  43  1   
 42  19  23  ar  
 43  19  44  1   
 44  20  45  1   
 45  20  46  1   
 46  20  47  1   
 47  21  48  1   
 48  21  49  1   
 49  21  50  1   
 50  22  51  1   
 51  23  24  1   
 52  24  25  1   
 53  25  52  1   
 54  25  53  1   
 55  25  54  1   
@<TRIPOS>SUBSTRUCTURE
  1 ****   2 GROUP 4 **** **** 0

# MOE 2024.06 (io_trps.svl 2023.06)
