@<TRIPOS>MOLECULE
NONAME
39 40 1 0 0 
SMALL
USER_CHARGES


@<TRIPOS>ATOM
  1 O        2.2730    -0.1390     2.2030 O.2   1 <1>  -0.5700 
  2 C        1.7590    -0.7680     1.3100 C.2   1 <1>   0.5690 
  3 N        1.5260    -0.2850     0.0540 N.am  1 <1>  -0.5470 
  4 C        1.3230    -2.2110     1.5780 C.3   1 <1>   0.1710 
  5 C        1.7640     0.9520    -0.5610 C.ar  1 <1>   0.1170 
  6 N        0.2520    -2.7130     0.6610 N.3   1 <1>  -0.8100 
  7 C        2.5530     1.9490     0.0070 C.ar  1 <1>  -0.1500 
  8 C        1.1900     1.1960    -1.8040 C.ar  1 <1>  -0.1500 
  9 C        0.1350    -4.1880     0.7740 C.3   1 <1>   0.1100 
 10 C       -1.0450    -2.0820     0.9790 C.3   1 <1>   0.1100 
 11 C        2.7560     3.1520    -0.6450 C.ar  1 <1>  -0.1500 
 12 C        1.3910     2.3970    -2.4600 C.ar  1 <1>  -0.1500 
 13 C       -0.8670    -4.7340    -0.2560 C.3   1 <1>   0.2000 
 14 C       -2.1180    -2.5400    -0.0160 C.3   1 <1>  -0.1600 
 15 C        2.1750     3.3780    -1.8800 C.ar  1 <1>  -0.1500 
 16 O       -0.3770    -4.4050    -1.5040 O.3   1 <1>  -0.6800 
 17 C       -2.2490    -4.0790    -0.0670 C.3   1 <1>  -0.0800 
 18 C       -3.2300    -4.5370    -1.1590 C.3   1 <1>   0.1200 
 19 O       -4.5000    -4.0530    -0.8810 O.3   1 <1>  -0.6800 
 20 H        1.0140    -0.9700    -0.5090 H     1 <1>   0.3700 
 21 H        0.9980    -2.2880     2.6010 H     1 <1>   0.0800 
 22 H        2.2000    -2.8240     1.4660 H     1 <1>   0.0800 
 23 H        3.0160     1.7910     0.9630 H     1 <1>   0.1500 
 24 H        0.5780     0.4410    -2.2630 H     1 <1>   0.1500 
 25 H        1.0930    -4.6490     0.5990 H     1 <1>   0.0800 
 26 H       -0.1870    -4.4560     1.7670 H     1 <1>   0.0800 
 27 H       -1.3460    -2.3440     1.9810 H     1 <1>   0.0800 
 28 H       -0.9600    -1.0090     0.9290 H     1 <1>   0.0800 
 29 H        3.3680     3.9110    -0.1900 H     1 <1>   0.1500 
 30 H        0.9380     2.5700    -3.4210 H     1 <1>   0.1500 
 31 H       -0.9370    -5.8070    -0.1970 H     1 <1>   0.0800 
 32 H       -3.0610    -2.1060     0.2660 H     1 <1>   0.0800 
 33 H       -1.8730    -2.1590    -0.9920 H     1 <1>   0.0800 
 34 H        2.3340     4.3140    -2.3870 H     1 <1>   0.1500 
 35 H       -0.0410    -3.4870    -1.4240 H     1 <1>   0.4000 
 36 H       -2.6260    -4.4190     0.8810 H     1 <1>   0.0800 
 37 H       -3.2810    -5.6110    -1.2100 H     1 <1>   0.0800 
 38 H       -2.9330    -4.1570    -2.1220 H     1 <1>   0.0800 
 39 H       -4.8470    -4.4440    -0.0580 H     1 <1>   0.4000 
@<TRIPOS>BOND
  1   1   2  2   
  2   2   3  am  
  3   2   4  1   
  4   3   5  1   
  5   3  20  1   
  6   4   6  1   
  7   4  21  1   
  8   4  22  1   
  9   5   7  ar  
 10   5   8  ar  
 11   6   9  1   
 12   6  10  1   
 13   7  11  ar  
 14   7  23  1   
 15   8  12  ar  
 16   8  24  1   
 17   9  13  1   
 18   9  25  1   
 19   9  26  1   
 20  10  14  1   
 21  10  27  1   
 22  10  28  1   
 23  11  15  ar  
 24  11  29  1   
 25  12  15  ar  
 26  12  30  1   
 27  13  16  1   
 28  13  17  1   
 29  13  31  1   
 30  14  17  1   
 31  14  32  1   
 32  14  33  1   
 33  15  34  1   
 34  16  35  1   
 35  17  18  1   
 36  17  36  1   
 37  18  19  1   
 38  18  37  1   
 39  18  38  1   
 40  19  39  1   
@<TRIPOS>SUBSTRUCTURE
  1 ****   3 GROUP 4 **** **** 0

# MOE 2024.06 (io_trps.svl 2023.06)
