@<TRIPOS>MOLECULE
NONAME
54 56 1 0 0 
SMALL
USER_CHARGES


@<TRIPOS>ATOM
  1 O        2.1260     1.1610     2.8210 O.co2 1 <1>  -0.9000 
  2 C        1.9730     0.4210     1.8430 C.2   1 <1>   0.9060 
  3 O        1.6280    -0.7630     1.9720 O.co2 1 <1>  -0.9000 
  4 C        2.3210     0.9110     0.4350 C.3   1 <1>  -0.1060 
  5 C        3.6070     0.1130     0.1040 C.3   1 <1>   0.2000 
  6 C        2.6230     2.4420     0.3740 C.3   1 <1>  -0.1600 
  7 C        1.1540     0.5970    -0.5490 C.3   1 <1>  -0.0160 
  8 O        3.2820    -1.1730    -0.2970 O.3   1 <1>  -0.6800 
  9 C        4.4990     0.8020    -0.9340 C.3   1 <1>   0.1400 
 10 C        4.0930     2.7670     0.6370 C.3   1 <1>   0.1400 
 11 C       -0.0520     1.5260    -0.4210 C.ar  1 <1>  -0.1440 
 12 N        4.9350     2.1580    -0.4490 N.am  1 <1>  -0.6600 
 13 C       -0.8810     1.4470     0.6870 C.ar  1 <1>  -0.1500 
 14 C       -0.3360     2.4540    -1.4120 C.ar  1 <1>  -0.1500 
 15 C        6.0340     2.7570    -1.0060 C.2   1 <1>   0.5690 
 16 C       -1.9750     2.2870     0.8070 C.ar  1 <1>  -0.1500 
 17 C       -1.4310     3.2940    -1.2960 C.ar  1 <1>  -0.1500 
 18 O        6.6490     2.2340    -1.9070 O.2   1 <1>  -0.5700 
 19 C        6.5110     4.1040    -0.4860 C.3   1 <1>  -0.0990 
 20 C       -2.2510     3.2110    -0.1850 C.ar  1 <1>  -0.1500 
 21 C        7.8070     4.5980    -1.1430 C.3   1 <1>   0.0210 
 22 C        8.2510     5.9040    -0.5120 C.2   1 <1>   0.1080 
 23 N        7.6480     7.0240    -0.7630 N.2   1 <1>  -0.7070 
 24 C        9.3080     6.0630     0.3850 C.2   1 <1>  -0.1810 
 25 N        8.3130     7.9370    -0.0340 N.pl3 1 <1>   0.3000 
 26 C        9.3200     7.3840     0.6720 C.2   1 <1>  -0.3320 
 27 C       10.2180     4.9610     0.8980 C.3   1 <1>  -0.0590 
 28 C       10.2270     8.1980     1.5800 C.3   1 <1>  -0.0600 
 29 H        4.1970     0.0020     1.0000 H     1 <1>   0.0800 
 30 H        2.0050     2.9630     1.0860 H     1 <1>   0.0800 
 31 H        2.3810     2.8360    -0.5960 H     1 <1>   0.0800 
 32 H        1.5280     0.6510    -1.5560 H     1 <1>   0.0800 
 33 H        0.8100    -0.4120    -0.4060 H     1 <1>   0.0800 
 34 H        2.6680    -1.5200     0.4020 H     1 <1>   0.4000 
 35 H        3.9590     0.9180    -1.8550 H     1 <1>   0.0800 
 36 H        5.3670     0.1920    -1.1130 H     1 <1>   0.0800 
 37 H        4.3860     2.3680     1.5940 H     1 <1>   0.0800 
 38 H        4.2110     3.8340     0.6650 H     1 <1>   0.0800 
 39 H       -0.6720     0.7310     1.4660 H     1 <1>   0.1500 
 40 H        0.2980     2.5260    -2.2780 H     1 <1>   0.1500 
 41 H       -2.6040     2.2160     1.6760 H     1 <1>   0.1500 
 42 H       -1.6410     4.0110    -2.0690 H     1 <1>   0.1500 
 43 H        5.7440     4.8340    -0.6640 H     1 <1>   0.0800 
 44 H        6.6690     4.0260     0.5730 H     1 <1>   0.0800 
 45 H       -3.1010     3.8630    -0.0910 H     1 <1>   0.1500 
 46 H        7.6420     4.7580    -2.1930 H     1 <1>   0.0800 
 47 H        8.5780     3.8570    -1.0390 H     1 <1>   0.0800 
 48 H        8.0550     8.9300    -0.0410 H     1 <1>   0.2700 
 49 H        9.6280     4.1770     1.3380 H     1 <1>   0.0800 
 50 H       10.8960     5.3350     1.6410 H     1 <1>   0.0800 
 51 H       10.7900     4.5540     0.0850 H     1 <1>   0.0800 
 52 H       10.9750     7.5760     2.0350 H     1 <1>   0.0800 
 53 H        9.6490     8.6600     2.3600 H     1 <1>   0.0800 
 54 H       10.7240     8.9650     1.0120 H     1 <1>   0.0800 
@<TRIPOS>BOND
  1   1   2  ar  
  2   2   3  ar  
  3   2   4  1   
  4   4   5  1   
  5   4   6  1   
  6   4   7  1   
  7   5   8  1   
  8   5   9  1   
  9   5  29  1   
 10   6  10  1   
 11   6  30  1   
 12   6  31  1   
 13   7  11  1   
 14   7  32  1   
 15   7  33  1   
 16   8  34  1   
 17   9  12  1   
 18   9  35  1   
 19   9  36  1   
 20  10  12  1   
 21  10  37  1   
 22  10  38  1   
 23  11  13  ar  
 24  11  14  ar  
 25  12  15  am  
 26  13  16  ar  
 27  13  39  1   
 28  14  17  ar  
 29  14  40  1   
 30  15  18  2   
 31  15  19  1   
 32  16  20  ar  
 33  16  41  1   
 34  17  20  ar  
 35  17  42  1   
 36  19  21  1   
 37  19  43  1   
 38  19  44  1   
 39  20  45  1   
 40  21  22  1   
 41  21  46  1   
 42  21  47  1   
 43  22  23  2   
 44  22  24  1   
 45  23  25  1   
 46  24  26  2   
 47  24  27  1   
 48  25  26  1   
 49  25  48  1   
 50  26  28  1   
 51  27  49  1   
 52  27  50  1   
 53  27  51  1   
 54  28  52  1   
 55  28  53  1   
 56  28  54  1   
@<TRIPOS>SUBSTRUCTURE
  1 ****  10 GROUP 4 **** **** 0

# MOE 2024.06 (io_trps.svl 2023.06)
