@<TRIPOS>MOLECULE
NONAME
47 49 1 0 0 
SMALL
USER_CHARGES


@<TRIPOS>ATOM
  1 O        3.9470    -1.5370    -1.8590 O.2   1 <1>  -0.5700 
  2 C        3.1130    -1.4690    -0.9740 C.2   1 <1>   0.5440 
  3 N        3.0040    -0.2520    -0.3500 N.am  1 <1>  -0.6600 
  4 C        2.3460    -2.6280    -0.5460 C.ar  1 <1>   0.0860 
  5 C        3.7370    -0.0890     0.9540 C.3   1 <1>   0.2200 
  6 C        2.7450     0.9550    -1.1950 C.3   1 <1>   0.1400 
  7 C        1.2500    -2.5080     0.3110 C.ar  1 <1>  -0.1500 
  8 C        2.6830    -3.9130    -0.9770 C.ar  1 <1>  -0.1500 
  9 C        3.1990     1.0720     1.8070 C.3   1 <1>   0.1200 
 10 C        5.2640     0.0600     0.7200 C.3   1 <1>   0.3430 
 11 C        3.6920     2.1450    -0.9460 C.3   1 <1>  -0.0800 
 12 C        0.5310    -3.6100     0.7370 C.ar  1 <1>  -0.1440 
 13 C        1.9810    -5.0340    -0.5700 C.ar  1 <1>  -0.1440 
 14 O        3.8300     2.2690     1.4650 O.3   1 <1>  -0.5600 
 15 N        5.6050     0.4500    -0.6930 N.4   1 <1>  -0.9590 
 16 C        3.3370     2.9120     0.3380 C.3   1 <1>   0.1200 
 17 C        5.2030     1.8450    -1.0550 C.3   1 <1>   0.3430 
 18 C        0.9030    -4.8740     0.2940 C.ar  1 <1>   0.0830 
 19 C       -0.6560    -3.4330     1.6740 C.3   1 <1>  -0.0970 
 20 C        2.4010    -6.4080    -1.0770 C.3   1 <1>  -0.0970 
 21 C        7.0340     0.1830    -1.0120 C.3   1 <1>   0.2630 
 22 O        0.2100    -5.9480     0.7020 O.3   1 <1>  -0.5330 
 23 H        3.5800    -0.9850     1.5310 H     1 <1>   0.0800 
 24 H        2.8120     0.6760    -2.2350 H     1 <1>   0.0800 
 25 H        1.7280     1.2710    -1.0280 H     1 <1>   0.0800 
 26 H        0.9510    -1.5320     0.6460 H     1 <1>   0.1500 
 27 H        3.5160    -4.0260    -1.6490 H     1 <1>   0.1500 
 28 H        3.4370     0.8890     2.8400 H     1 <1>   0.0800 
 29 H        2.1300     1.1730     1.7210 H     1 <1>   0.0800 
 30 H        5.7210    -0.8900     0.9380 H     1 <1>   0.0800 
 31 H        5.6680     0.7800     1.4130 H     1 <1>   0.0800 
 32 H        3.4800     2.8450    -1.7340 H     1 <1>   0.0800 
 33 H        5.0160    -0.1870    -1.2790 H     1 <1>   0.4500 
 34 H        2.2720     3.0430     0.4450 H     1 <1>   0.0800 
 35 H        3.7900     3.8890     0.3160 H     1 <1>   0.0800 
 36 H        5.7420     2.5460    -0.4380 H     1 <1>   0.0800 
 37 H        5.4980     2.0220    -2.0760 H     1 <1>   0.0800 
 38 H       -0.8150    -2.3990     1.9190 H     1 <1>   0.0800 
 39 H       -0.4860    -3.9810     2.5830 H     1 <1>   0.0800 
 40 H       -1.5460    -3.8150     1.2060 H     1 <1>   0.0800 
 41 H        3.2550    -6.3340    -1.7280 H     1 <1>   0.0800 
 42 H        1.5970    -6.8580    -1.6310 H     1 <1>   0.0800 
 43 H        2.6650    -7.0440    -0.2510 H     1 <1>   0.0800 
 44 H        7.6760     0.8060    -0.4090 H     1 <1>   0.0800 
 45 H        7.2280     0.3880    -2.0520 H     1 <1>   0.0800 
 46 H        7.2700    -0.8510    -0.8190 H     1 <1>   0.0800 
 47 H        0.5400    -6.7780     0.3190 H     1 <1>   0.4500 
@<TRIPOS>BOND
  1   1   2  2   
  2   2   3  am  
  3   2   4  1   
  4   3   5  1   
  5   3   6  1   
  6   4   7  ar  
  7   4   8  ar  
  8   5   9  1   
  9   5  10  1   
 10   5  23  1   
 11   6  11  1   
 12   6  24  1   
 13   6  25  1   
 14   7  12  ar  
 15   7  26  1   
 16   8  13  ar  
 17   8  27  1   
 18   9  14  1   
 19   9  28  1   
 20   9  29  1   
 21  10  15  1   
 22  10  30  1   
 23  10  31  1   
 24  11  16  1   
 25  11  17  1   
 26  11  32  1   
 27  12  18  ar  
 28  12  19  1   
 29  13  18  ar  
 30  13  20  1   
 31  14  16  1   
 32  15  17  1   
 33  15  21  1   
 34  15  33  1   
 35  16  34  1   
 36  16  35  1   
 37  17  36  1   
 38  17  37  1   
 39  18  22  1   
 40  19  38  1   
 41  19  39  1   
 42  19  40  1   
 43  20  41  1   
 44  20  42  1   
 45  20  43  1   
 46  21  44  1   
 47  21  45  1   
 48  21  46  1   
 49  22  47  1   
@<TRIPOS>SUBSTRUCTURE
  1 ****   2 GROUP 4 **** **** 0

# MOE 2024.06 (io_trps.svl 2023.06)
