@<TRIPOS>MOLECULE
NONAME
29 28 1 0 0 
SMALL
USER_CHARGES


@<TRIPOS>ATOM
  1 O       -4.4450    -0.2370    -0.5420 O.co2 1 <1>  -0.9000 
  2 C       -5.2760    -0.6640     0.2780 C.2   1 <1>   0.9060 
  3 O       -5.1500    -1.7000     0.9240 O.co2 1 <1>  -0.9000 
  4 C       -6.5120     0.2370     0.4600 C.3   1 <1>   0.3170 
  5 N       -6.3350     1.4490    -0.4050 N.4   1 <1>  -0.8530 
  6 C       -7.8230    -0.4740     0.0820 C.3   1 <1>  -0.1600 
  7 C       -9.0810     0.3710     0.3480 C.3   1 <1>  -0.1600 
  8 C      -10.3510    -0.4140    -0.0110 C.3   1 <1>  -0.1600 
  9 C      -11.6080     0.4120     0.2610 C.3   1 <1>   0.2090 
 10 N      -12.7930    -0.3430    -0.1940 N.pl3 1 <1>  -0.8190 
 11 C      -14.0270     0.2990    -0.1280 C.2   1 <1>   0.4400 
 12 N      -14.1610     1.5560    -0.0010 N.2   1 <1>  -0.5030 
 13 N      -15.4480     2.0690     0.0490 N.pl3 1 <1>  -0.5690 
 14 H       -6.5440     0.5220     1.4960 H     1 <1>   0.0800 
 15 H       -5.4040     1.2270    -0.8380 H     1 <1>   0.4500 
 16 H       -6.2370     2.3140     0.1240 H     1 <1>   0.4500 
 17 H       -7.0210     1.4900    -1.1570 H     1 <1>   0.4500 
 18 H       -7.7800    -0.7810    -0.9500 H     1 <1>   0.0800 
 19 H       -7.8810    -1.3750     0.6710 H     1 <1>   0.0800 
 20 H       -9.1150     0.6400     1.3910 H     1 <1>   0.0800 
 21 H       -9.0580     1.2770    -0.2320 H     1 <1>   0.0800 
 22 H      -10.3920    -1.3200     0.5690 H     1 <1>   0.0800 
 23 H      -10.3270    -0.6750    -1.0550 H     1 <1>   0.0800 
 24 H      -11.5570     1.3450    -0.2770 H     1 <1>   0.0800 
 25 H      -11.7010     0.6280     1.3130 H     1 <1>   0.0800 
 26 H      -12.8220    -1.3010     0.1580 H     1 <1>   0.4000 
 27 H      -14.8860    -0.3480    -0.1860 H     1 <1>   0.0600 
 28 H      -16.0890     1.6600    -0.6420 H     1 <1>   0.3110 
 29 H      -15.4700     3.0940    -0.0200 H     1 <1>   0.3110 
@<TRIPOS>BOND
  1   1   2  ar  
  2   2   3  ar  
  3   2   4  1   
  4   4   5  1   
  5   4   6  1   
  6   4  14  1   
  7   5  15  1   
  8   5  16  1   
  9   5  17  1   
 10   6   7  1   
 11   6  18  1   
 12   6  19  1   
 13   7   8  1   
 14   7  20  1   
 15   7  21  1   
 16   8   9  1   
 17   8  22  1   
 18   8  23  1   
 19   9  10  1   
 20   9  24  1   
 21   9  25  1   
 22  10  11  1   
 23  10  26  1   
 24  11  12  2   
 25  11  27  1   
 26  12  13  1   
 27  13  28  1   
 28  13  29  1   
@<TRIPOS>SUBSTRUCTURE
  1 ****   7 GROUP 4 **** **** 0

# MOE 2024.06 (io_trps.svl 2023.06)
