@<TRIPOS>MOLECULE
NONAME
48 50 1 0 0 
SMALL
USER_CHARGES


@<TRIPOS>ATOM
  1 O        1.0340     0.4710     0.5110 O.2   1 <1>  -0.5700 
  2 C        1.9730    -0.0010    -0.0850 C.2   1 <1>   0.5690 
  3 N        3.0450     0.7600    -0.4710 N.am  1 <1>  -0.6600 
  4 C        1.9330    -1.4870    -0.4000 C.3   1 <1>  -0.0990 
  5 C        4.3040     0.2040    -1.0390 C.3   1 <1>   0.1400 
  6 C        3.0770     2.2250    -0.1890 C.3   1 <1>   0.1400 
  7 C        3.3200    -2.0940    -0.6530 C.3   1 <1>  -0.1600 
  8 C        4.0990    -1.1990    -1.6200 C.3   1 <1>  -0.1600 
  9 C        3.5200     2.4900     1.2530 C.3   1 <1>   0.2090 
 10 N        3.7270     3.9470     1.4720 N.pl3 1 <1>  -0.8690 
 11 C        4.9140     4.5920     1.2390 C.ar  1 <1>   0.4100 
 12 N        5.8380     3.9470     0.5370 N.ar  1 <1>  -0.6200 
 13 C        5.1070     5.8790     1.7330 C.ar  1 <1>  -0.1500 
 14 C        6.9720     4.5950     0.3320 C.ar  1 <1>   0.1600 
 15 C        6.2900     6.5380     1.5030 C.ar  1 <1>  -0.1500 
 16 C        7.2710     5.8850     0.7630 C.ar  1 <1>   0.0860 
 17 C        8.5500     6.4810     0.4530 C.2   1 <1>   0.5440 
 18 O        9.5520     5.7920     0.5020 O.2   1 <1>  -0.5700 
 19 N        8.6780     7.8060     0.0890 N.am  1 <1>  -0.6600 
 20 C       10.0040     8.4970     0.0820 C.3   1 <1>   0.1400 
 21 C        7.6110     8.5820    -0.6130 C.3   1 <1>   0.1400 
 22 C       10.3580     8.9760    -1.3340 C.3   1 <1>   0.1200 
 23 C        8.1080     9.0710    -1.9860 C.3   1 <1>   0.1200 
 24 O        9.3220     9.7570    -1.8610 O.3   1 <1>  -0.5600 
 25 H        1.3210    -1.6140    -1.2740 H     1 <1>   0.0800 
 26 H        1.4560    -2.0020     0.4140 H     1 <1>   0.0800 
 27 H        5.0430     0.1660    -0.2560 H     1 <1>   0.0800 
 28 H        4.6710     0.8570    -1.8120 H     1 <1>   0.0800 
 29 H        2.0950     2.6390    -0.3370 H     1 <1>   0.0800 
 30 H        3.7560     2.7110    -0.8670 H     1 <1>   0.0800 
 31 H        3.2160    -3.0840    -1.0610 H     1 <1>   0.0800 
 32 H        3.8550    -2.1670     0.2790 H     1 <1>   0.0800 
 33 H        5.0600    -1.6360    -1.8280 H     1 <1>   0.0800 
 34 H        3.5680    -1.1190    -2.5530 H     1 <1>   0.0800 
 35 H        4.4390     1.9650     1.4490 H     1 <1>   0.0800 
 36 H        2.7660     2.1280     1.9310 H     1 <1>   0.0800 
 37 H        3.0440     4.3900     2.0890 H     1 <1>   0.4000 
 38 H        4.3210     6.3430     2.2970 H     1 <1>   0.1500 
 39 H        7.7330     4.0720    -0.2240 H     1 <1>   0.1500 
 40 H        6.4650     7.5280     1.8860 H     1 <1>   0.1500 
 41 H       10.7790     7.8430     0.4410 H     1 <1>   0.0800 
 42 H        9.9620     9.3460     0.7410 H     1 <1>   0.0800 
 43 H        7.3390     9.4330    -0.0140 H     1 <1>   0.0800 
 44 H        6.7340     7.9780    -0.7600 H     1 <1>   0.0800 
 45 H       10.5270     8.1350    -1.9840 H     1 <1>   0.0800 
 46 H       11.2470     9.5810    -1.3100 H     1 <1>   0.0800 
 47 H        7.3930     9.7470    -2.4210 H     1 <1>   0.0800 
 48 H        8.2500     8.2400    -2.6550 H     1 <1>   0.0800 
@<TRIPOS>BOND
  1   1   2  2   
  2   2   3  am  
  3   2   4  1   
  4   3   5  1   
  5   3   6  1   
  6   4   7  1   
  7   4  25  1   
  8   4  26  1   
  9   5   8  1   
 10   5  27  1   
 11   5  28  1   
 12   6   9  1   
 13   6  29  1   
 14   6  30  1   
 15   7   8  1   
 16   7  31  1   
 17   7  32  1   
 18   8  33  1   
 19   8  34  1   
 20   9  10  1   
 21   9  35  1   
 22   9  36  1   
 23  10  11  1   
 24  10  37  1   
 25  11  12  ar  
 26  11  13  ar  
 27  12  14  ar  
 28  13  15  ar  
 29  13  38  1   
 30  14  16  ar  
 31  14  39  1   
 32  15  16  ar  
 33  15  40  1   
 34  16  17  1   
 35  17  18  2   
 36  17  19  am  
 37  19  20  1   
 38  19  21  1   
 39  20  22  1   
 40  20  41  1   
 41  20  42  1   
 42  21  23  1   
 43  21  43  1   
 44  21  44  1   
 45  22  24  1   
 46  22  45  1   
 47  22  46  1   
 48  23  24  1   
 49  23  47  1   
 50  23  48  1   
@<TRIPOS>SUBSTRUCTURE
  1 ****  12 GROUP 4 **** **** 0

# MOE 2024.06 (io_trps.svl 2023.06)
