@<TRIPOS>MOLECULE
NONAME
60 63 1 0 0 
SMALL
USER_CHARGES


@<TRIPOS>ATOM
  1 O       -2.6810     4.2880    -1.9060 O.co2 1 <1>  -0.9000 
  2 C       -1.5610     3.7590    -1.9460 C.2   1 <1>   0.9060 
  3 O       -1.2180     3.0480    -2.9050 O.co2 1 <1>  -0.9000 
  4 C       -0.6020     3.9270    -0.7500 C.3   1 <1>   0.1030 
  5 N        0.6700     4.7550    -0.9480 N.pl3 1 <1>  -0.8380 
  6 C        0.8070     5.9930    -0.3650 C.ar  1 <1>   0.7200 
  7 C        1.3800     4.4110    -2.2130 C.3   1 <1>   0.1290 
  8 N        0.2360     6.1730     0.8280 N.ar  1 <1>  -0.6200 
  9 N        1.5160     6.9130    -1.0230 N.ar  1 <1>  -0.6200 
 10 C        0.3390     7.3600     1.3580 C.ar  1 <1>   0.1600 
 11 C        1.6070     8.0930    -0.4710 C.ar  1 <1>   0.1600 
 12 C        1.0350     8.3740     0.7470 C.ar  1 <1>  -0.1440 
 13 C        1.1860     9.7330     1.3820 C.3   1 <1>   0.4870 
 14 N        2.1980     9.6800     2.4800 N.4   1 <1>  -0.9590 
 15 C        2.3950    11.0750     3.0340 C.3   1 <1>   0.3430 
 16 C        3.5060     9.1090     1.9610 C.3   1 <1>   0.3430 
 17 C        3.6110    11.2160     3.9850 C.3   1 <1>   0.2090 
 18 C        4.6620     9.2180     2.9810 C.3   1 <1>   0.2090 
 19 N        4.8440    10.6420     3.3700 N.pl3 1 <1>  -0.7880 
 20 C        5.5290    11.3910     2.4680 C.2   1 <1>   0.4860 
 21 N        4.8040    11.9330     1.5070 N.2   1 <1>  -0.6210 
 22 C        6.9280    11.4790     2.5000 C.2   1 <1>  -0.1360 
 23 C        5.4330    12.4690     0.4680 C.2   1 <1>   0.2710 
 24 C        7.5680    12.0820     1.4680 C.2   1 <1>  -0.0380 
 25 N        6.7980    12.5510     0.4610 N.pl3 1 <1>  -0.6000 
 26 C        4.6920    12.9540    -0.6410 C.2   1 <1>   0.0140 
 27 C        9.0700    12.2490     1.3690 C.3   1 <1>  -0.1020 
 28 C        3.5420    12.2810    -1.1510 C.2   1 <1>   0.5410 
 29 C        5.0830    14.1420    -1.2870 C.2   1 <1>  -0.1500 
 30 O        3.0700    11.2260    -0.6590 O.2   1 <1>  -0.5700 
 31 C        2.8820    12.8130    -2.2790 C.2   1 <1>  -0.1360 
 32 C        4.4160    14.6400    -2.3780 C.2   1 <1>  -0.1500 
 33 C        3.3030    13.9640    -2.8840 C.2   1 <1>  -0.1500 
 34 H       -0.3120     2.9390    -0.4530 H     1 <1>   0.0800 
 35 H       -1.1910     4.3350     0.0480 H     1 <1>   0.0800 
 36 H        1.3960     3.3430    -2.3460 H     1 <1>   0.0800 
 37 H        2.3910     4.7750    -2.1900 H     1 <1>   0.0800 
 38 H        0.8610     4.8520    -3.0480 H     1 <1>   0.0800 
 39 H       -0.1470     7.5110     2.3060 H     1 <1>   0.1500 
 40 H        2.1590     8.8470    -1.0100 H     1 <1>   0.1500 
 41 H        0.2340    10.0530     1.7720 H     1 <1>   0.0800 
 42 H        1.4920    10.4440     0.6340 H     1 <1>   0.0800 
 43 H        1.8590     9.0600     3.2220 H     1 <1>   0.4500 
 44 H        1.5060    11.3940     3.5510 H     1 <1>   0.0800 
 45 H        2.5490    11.7560     2.2120 H     1 <1>   0.0800 
 46 H        3.8000     9.6460     1.0720 H     1 <1>   0.0800 
 47 H        3.3740     8.0750     1.6890 H     1 <1>   0.0800 
 48 H        3.4100    10.7210     4.9190 H     1 <1>   0.0800 
 49 H        3.7740    12.2600     4.1940 H     1 <1>   0.0800 
 50 H        5.5680     8.8500     2.5270 H     1 <1>   0.0800 
 51 H        4.4590     8.6180     3.8510 H     1 <1>   0.0800 
 52 H        7.4490    11.0580     3.3370 H     1 <1>   0.1500 
 53 H        7.2470    12.9690    -0.3580 H     1 <1>   0.4000 
 54 H        9.4400    11.7480     0.4930 H     1 <1>   0.0800 
 55 H        9.5540    11.8310     2.2330 H     1 <1>   0.0800 
 56 H        9.3210    13.2930     1.3090 H     1 <1>   0.0800 
 57 H        5.9290    14.6860    -0.9020 H     1 <1>   0.1500 
 58 H        2.0300    12.2750    -2.6490 H     1 <1>   0.1500 
 59 H        4.7380    15.5520    -2.8540 H     1 <1>   0.1500 
 60 H        2.7920    14.3630    -3.7450 H     1 <1>   0.1500 
@<TRIPOS>BOND
  1   1   2  ar  
  2   2   3  ar  
  3   2   4  1   
  4   4   5  1   
  5   4  34  1   
  6   4  35  1   
  7   5   6  1   
  8   5   7  1   
  9   6   8  ar  
 10   6   9  ar  
 11   7  36  1   
 12   7  37  1   
 13   7  38  1   
 14   8  10  ar  
 15   9  11  ar  
 16  10  12  ar  
 17  10  39  1   
 18  11  12  ar  
 19  11  40  1   
 20  12  13  1   
 21  13  14  1   
 22  13  41  1   
 23  13  42  1   
 24  14  15  1   
 25  14  16  1   
 26  14  43  1   
 27  15  17  1   
 28  15  44  1   
 29  15  45  1   
 30  16  18  1   
 31  16  46  1   
 32  16  47  1   
 33  17  19  1   
 34  17  48  1   
 35  17  49  1   
 36  18  19  1   
 37  18  50  1   
 38  18  51  1   
 39  19  20  1   
 40  20  21  2   
 41  20  22  1   
 42  21  23  1   
 43  22  24  2   
 44  22  52  1   
 45  23  25  1   
 46  23  26  2   
 47  24  25  1   
 48  24  27  1   
 49  25  53  1   
 50  26  28  1   
 51  26  29  1   
 52  27  54  1   
 53  27  55  1   
 54  27  56  1   
 55  28  30  2   
 56  28  31  1   
 57  29  32  2   
 58  29  57  1   
 59  31  33  2   
 60  31  58  1   
 61  32  33  1   
 62  32  59  1   
 63  33  60  1   
@<TRIPOS>SUBSTRUCTURE
  1 ****  16 GROUP 4 **** **** 0

# MOE 2024.06 (io_trps.svl 2023.06)
