@<TRIPOS>MOLECULE
NONAME
46 48 1 0 0 
SMALL
USER_CHARGES


@<TRIPOS>ATOM
  1 S       -0.1670     0.3360    -0.7700 S.o2  1 <1>   1.3330 
  2 O       -0.9660    -0.8440    -0.9980 O.2   1 <1>  -0.6500 
  3 O        0.2720     1.1560    -1.8770 O.2   1 <1>  -0.6500 
  4 N        1.2380    -0.1630     0.0510 N.am  1 <1>  -0.8490 
  5 C       -0.9900     1.4000     0.4250 C.3   1 <1>  -0.0550 
  6 C        2.2290    -0.6940    -0.8970 C.3   1 <1>   0.1160 
  7 C        0.9710    -1.2040     1.0570 C.3   1 <1>   0.1160 
  8 C       -0.4340     2.8360     0.5810 C.3   1 <1>  -0.0800 
  9 C       -0.8810     3.7810    -0.5340 C.3   1 <1>   0.2000 
 10 C        1.0900     2.9970     0.6230 C.3   1 <1>   0.2090 
 11 O       -2.1690     4.2250    -0.2750 O.3   1 <1>  -0.6800 
 12 C        0.1330     4.9290    -0.5230 C.3   1 <1>   0.2090 
 13 N        1.3420     4.3960     0.1820 N.pl3 1 <1>  -0.8380 
 14 C        2.5050     5.1140     0.2460 C.ar  1 <1>   0.7710 
 15 N        3.6460     4.4500     0.5990 N.ar  1 <1>  -0.1790 
 16 N        2.4940     6.3900    -0.0330 N.ar  1 <1>  -0.5670 
 17 C        4.8410     5.0440     0.7040 C.ar  1 <1>   0.4610 
 18 C        3.6860     7.0300     0.0630 C.ar  1 <1>   0.1050 
 19 N        5.9300     4.3390     1.0570 N.pl3 1 <1>  -0.9000 
 20 C        4.8600     6.4140     0.4220 C.ar  1 <1>   0.0000 
 21 N        3.9820     8.3350    -0.1570 N.pl3 1 <1>   0.3140 
 22 C        5.8100     7.4460     0.3890 C.2   1 <1>   0.1390 
 23 N        5.3000     8.5800     0.0490 N.2   1 <1>  -0.7070 
 24 C        3.0650     9.4100    -0.5650 C.3   1 <1>   0.0160 
 25 H       -2.0240     1.4830     0.1440 H     1 <1>   0.0800 
 26 H       -0.9760     0.9210     1.3830 H     1 <1>   0.0800 
 27 H        3.1150    -1.0150    -0.3760 H     1 <1>   0.0800 
 28 H        2.5110     0.0650    -1.6080 H     1 <1>   0.0800 
 29 H        1.8180    -1.5300    -1.4400 H     1 <1>   0.0800 
 30 H        1.8780    -1.4590     1.5780 H     1 <1>   0.0800 
 31 H        0.5810    -2.0940     0.5880 H     1 <1>   0.0800 
 32 H        0.2540    -0.8580     1.7810 H     1 <1>   0.0800 
 33 H       -0.8060     3.2280     1.5110 H     1 <1>   0.0800 
 34 H       -0.8790     3.3040    -1.4990 H     1 <1>   0.0800 
 35 H        1.5790     2.3380    -0.0710 H     1 <1>   0.0800 
 36 H        1.4610     2.8200     1.6190 H     1 <1>   0.0800 
 37 H       -2.2140     4.7270     0.5620 H     1 <1>   0.4000 
 38 H       -0.2530     5.7780     0.0160 H     1 <1>   0.0800 
 39 H        0.3800     5.2180    -1.5300 H     1 <1>   0.0800 
 40 H        3.5420     3.4590     0.7480 H     1 <1>   0.4570 
 41 H        5.9760     3.3360     1.2720 H     1 <1>   0.4000 
 42 H        6.8570     4.7790     1.1440 H     1 <1>   0.4000 
 43 H        6.8550     7.3160     0.6200 H     1 <1>   0.1500 
 44 H        2.0610     9.0310    -0.6250 H     1 <1>   0.0800 
 45 H        3.3700     9.7840    -1.5240 H     1 <1>   0.0800 
 46 H        3.1110    10.2020     0.1590 H     1 <1>   0.0800 
@<TRIPOS>BOND
  1   1   2  2   
  2   1   3  2   
  3   1   4  am  
  4   1   5  1   
  5   4   6  1   
  6   4   7  1   
  7   5   8  1   
  8   5  25  1   
  9   5  26  1   
 10   6  27  1   
 11   6  28  1   
 12   6  29  1   
 13   7  30  1   
 14   7  31  1   
 15   7  32  1   
 16   8   9  1   
 17   8  10  1   
 18   8  33  1   
 19   9  11  1   
 20   9  12  1   
 21   9  34  1   
 22  10  13  1   
 23  10  35  1   
 24  10  36  1   
 25  11  37  1   
 26  12  13  1   
 27  12  38  1   
 28  12  39  1   
 29  13  14  1   
 30  14  15  ar  
 31  14  16  ar  
 32  15  17  ar  
 33  15  40  1   
 34  16  18  ar  
 35  17  19  1   
 36  17  20  ar  
 37  18  20  ar  
 38  18  21  1   
 39  19  41  1   
 40  19  42  1   
 41  20  22  1   
 42  21  23  1   
 43  21  24  1   
 44  22  23  2   
 45  22  43  1   
 46  24  44  1   
 47  24  45  1   
 48  24  46  1   
@<TRIPOS>SUBSTRUCTURE
  1 ****  13 GROUP 4 **** **** 0

# MOE 2024.06 (io_trps.svl 2023.06)
