@<TRIPOS>MOLECULE
NONAME
63 66 1 0 0 
SMALL
USER_CHARGES


@<TRIPOS>ATOM
  1 O        1.4120     0.0420     1.7830 O.2   1 <1>  -0.5700 
  2 C        1.9290    -0.3210     0.7440 C.2   1 <1>   0.5440 
  3 N        2.9210     0.4340     0.1280 N.am  1 <1>  -0.6600 
  4 C        1.5050    -1.5900     0.1920 C.ar  1 <1>   0.0860 
  5 C        3.2220     1.9040     0.3250 C.3   1 <1>   0.2200 
  6 C        3.8860    -0.2730    -0.7710 C.3   1 <1>   0.0600 
  7 C        0.6670    -1.6920    -0.9280 C.ar  1 <1>   0.0820 
  8 C        1.9520    -2.7750     0.7720 C.ar  1 <1>  -0.1500 
  9 C        2.2220     2.6510     1.2240 C.3   1 <1>  -0.1600 
 10 C        3.3060     2.6130    -1.0420 C.3   1 <1>  -0.1600 
 11 O        0.1360    -0.6090    -1.5380 O.3   1 <1>  -0.3620 
 12 C        0.3520    -2.9290    -1.4670 C.ar  1 <1>  -0.1500 
 13 C        1.6260    -4.0130     0.2500 C.ar  1 <1>   0.0820 
 14 C        2.4980     4.1530     1.3090 C.3   1 <1>   0.1400 
 15 C        3.6260     4.1050    -0.8990 C.3   1 <1>   0.1400 
 16 C       -0.7930     0.1880    -0.8290 C.3   1 <1>   0.1200 
 17 C        0.8250    -4.0900    -0.8860 C.ar  1 <1>  -0.1500 
 18 O        2.1270    -5.0980     0.8950 O.3   1 <1>  -0.3630 
 19 N        2.5900     4.7420    -0.0530 N.am  1 <1>  -0.6600 
 20 C       -2.1840    -0.4630    -0.8610 C.3   1 <1>  -0.1600 
 21 C        1.8310    -6.4070     0.4620 C.3   1 <1>   0.0400 
 22 C        1.8010     5.7510    -0.5560 C.2   1 <1>   0.5690 
 23 C       -3.1500     0.1590     0.1660 C.3   1 <1>   0.0960 
 24 O        2.1260     6.3870    -1.5300 O.2   1 <1>  -0.5700 
 25 C        0.4420     6.0640     0.0540 C.3   1 <1>  -0.0990 
 26 N       -3.1590     1.6320     0.0790 N.pl3 1 <1>   0.3140 
 27 C       -0.5610     4.9700    -0.3450 C.3   1 <1>  -0.1600 
 28 N       -3.8240     2.3070    -0.8620 N.2   1 <1>  -0.4180 
 29 C       -2.3790     2.4700     0.7610 C.2   1 <1>  -0.3020 
 30 C       -1.8490     4.9570     0.4870 C.3   1 <1>   0.0210 
 31 N       -3.4760     3.5460    -0.7960 N.2   1 <1>  -0.2270 
 32 C       -2.5740     3.6630     0.1830 C.2   1 <1>   0.0460 
 33 H        4.1890     1.9730     0.7950 H     1 <1>   0.0800 
 34 H        3.9770    -1.3100    -0.4980 H     1 <1>   0.0800 
 35 H        4.8620     0.1730    -0.6930 H     1 <1>   0.0800 
 36 H        3.5440    -0.2090    -1.7890 H     1 <1>   0.0800 
 37 H        2.5720    -2.7280     1.6490 H     1 <1>   0.1500 
 38 H        2.2840     2.2630     2.2240 H     1 <1>   0.0800 
 39 H        1.2230     2.4980     0.8590 H     1 <1>   0.0800 
 40 H        2.3690     2.5080    -1.5610 H     1 <1>   0.0800 
 41 H        4.0780     2.1810    -1.6490 H     1 <1>   0.0800 
 42 H       -0.2700    -2.9750    -2.3430 H     1 <1>   0.1500 
 43 H        3.4340     4.3150     1.8150 H     1 <1>   0.0800 
 44 H        1.7300     4.6230     1.8920 H     1 <1>   0.0800 
 45 H        3.6510     4.5600    -1.8760 H     1 <1>   0.0800 
 46 H        4.5920     4.2410    -0.4430 H     1 <1>   0.0800 
 47 H       -0.8170     1.1540    -1.3030 H     1 <1>   0.0800 
 48 H       -0.4590     0.3120     0.1830 H     1 <1>   0.0800 
 49 H        0.5620    -5.0350    -1.3240 H     1 <1>   0.1500 
 50 H       -2.1010    -1.5130    -0.6440 H     1 <1>   0.0800 
 51 H       -2.5990    -0.3540    -1.8480 H     1 <1>   0.0800 
 52 H        2.3200    -7.0960     1.1270 H     1 <1>   0.0800 
 53 H        2.2050    -6.5380    -0.5380 H     1 <1>   0.0800 
 54 H        0.7670    -6.5570     0.5010 H     1 <1>   0.0800 
 55 H       -2.8530    -0.1170     1.1610 H     1 <1>   0.0800 
 56 H       -4.1490    -0.1980    -0.0040 H     1 <1>   0.0800 
 57 H        0.1010     7.0120    -0.3210 H     1 <1>   0.0800 
 58 H        0.5260     6.1530     1.1180 H     1 <1>   0.0800 
 59 H       -0.0870     4.0110    -0.2370 H     1 <1>   0.0800 
 60 H       -0.8100     5.0770    -1.3870 H     1 <1>   0.0800 
 61 H       -1.7280     2.1720     1.5610 H     1 <1>   0.1500 
 62 H       -2.4720     5.8010     0.2470 H     1 <1>   0.0800 
 63 H       -1.6130     4.9840     1.5350 H     1 <1>   0.0800 
@<TRIPOS>BOND
  1   1   2  2   
  2   2   3  am  
  3   2   4  1   
  4   3   5  1   
  5   3   6  1   
  6   4   7  ar  
  7   4   8  ar  
  8   5   9  1   
  9   5  10  1   
 10   5  33  1   
 11   6  34  1   
 12   6  35  1   
 13   6  36  1   
 14   7  11  1   
 15   7  12  ar  
 16   8  13  ar  
 17   8  37  1   
 18   9  14  1   
 19   9  38  1   
 20   9  39  1   
 21  10  15  1   
 22  10  40  1   
 23  10  41  1   
 24  11  16  1   
 25  12  17  ar  
 26  12  42  1   
 27  13  17  ar  
 28  13  18  1   
 29  14  19  1   
 30  14  43  1   
 31  14  44  1   
 32  15  19  1   
 33  15  45  1   
 34  15  46  1   
 35  16  20  1   
 36  16  47  1   
 37  16  48  1   
 38  17  49  1   
 39  18  21  1   
 40  19  22  am  
 41  20  23  1   
 42  20  50  1   
 43  20  51  1   
 44  21  52  1   
 45  21  53  1   
 46  21  54  1   
 47  22  24  2   
 48  22  25  1   
 49  23  26  1   
 50  23  55  1   
 51  23  56  1   
 52  25  27  1   
 53  25  57  1   
 54  25  58  1   
 55  26  28  1   
 56  26  29  1   
 57  27  30  1   
 58  27  59  1   
 59  27  60  1   
 60  28  31  2   
 61  29  32  2   
 62  29  61  1   
 63  30  32  1   
 64  30  62  1   
 65  30  63  1   
 66  31  32  1   
@<TRIPOS>SUBSTRUCTURE
  1 ****  16 GROUP 4 **** **** 0

# MOE 2024.06 (io_trps.svl 2023.06)
