@<TRIPOS>MOLECULE
NONAME
20 20 1 0 0 
SMALL
USER_CHARGES


@<TRIPOS>ATOM
  1 CL       0.7270     0.8340     2.2150 Cl    1 <1>  -0.1770 
  2 C        1.9060     1.3250     1.0410 C.ar  1 <1>   0.7970 
  3 N        2.6660     0.3850     0.5700 N.ar  1 <1>  -0.6200 
  4 N        1.9170     2.6000     0.7490 N.ar  1 <1>  -0.6200 
  5 C        3.5240     0.8340    -0.2960 C.ar  1 <1>   0.7200 
  6 C        2.8250     2.9280    -0.1530 C.ar  1 <1>   0.4770 
  7 N        4.3490    -0.0590    -0.8350 N.pl3 1 <1>  -0.9000 
  8 N        3.6580     2.0680    -0.6970 N.ar  1 <1>  -0.6200 
  9 C        2.9360     4.4270    -0.6120 C.3   1 <1>   0.4830 
 10 F        2.0910     4.1920    -1.6190 F     1 <1>  -0.3400 
 11 C        1.8810     5.4000     0.0380 C.3   1 <1>  -0.2400 
 12 C        4.0130     4.7430     0.4790 C.3   1 <1>  -0.2400 
 13 H        4.9120     0.2100    -1.6380 H     1 <1>   0.4000 
 14 H        4.1820    -1.0500    -0.6790 H     1 <1>   0.4000 
 15 H        0.8560     5.1390    -0.1830 H     1 <1>   0.0800 
 16 H        2.0520     6.3960    -0.3290 H     1 <1>   0.0800 
 17 H        1.9020     5.4470     1.1140 H     1 <1>   0.0800 
 18 H        4.9330     4.2390     0.2400 H     1 <1>   0.0800 
 19 H        3.7460     4.4450     1.4810 H     1 <1>   0.0800 
 20 H        4.2540     5.7920     0.4970 H     1 <1>   0.0800 
@<TRIPOS>BOND
  1   1   2  1   
  2   2   3  ar  
  3   2   4  ar  
  4   3   5  ar  
  5   4   6  ar  
  6   5   7  1   
  7   5   8  ar  
  8   6   8  ar  
  9   6   9  1   
 10   7  13  1   
 11   7  14  1   
 12   9  10  1   
 13   9  11  1   
 14   9  12  1   
 15  11  15  1   
 16  11  16  1   
 17  11  17  1   
 18  12  18  1   
 19  12  19  1   
 20  12  20  1   
@<TRIPOS>SUBSTRUCTURE
  1 ****   6 GROUP 4 **** **** 0

# MOE 2024.06 (io_trps.svl 2023.06)
