@<TRIPOS>MOLECULE
NONAME
45 46 1 0 0 
SMALL
USER_CHARGES


@<TRIPOS>ATOM
  1 S        1.3660     0.8420     0.2020 S.o2  1 <1>   1.4470 
  2 O        0.4130     1.9240     0.2150 O.2   1 <1>  -0.6500 
  3 O        2.3750     0.7590     1.2380 O.2   1 <1>  -0.6500 
  4 N        2.1830     1.0540    -1.2470 N.am  1 <1>  -0.9140 
  5 C        0.5360    -0.7580    -0.0080 C.ar  1 <1>  -0.0090 
  6 C        3.4420     1.8170    -1.1230 C.3   1 <1>   0.2570 
  7 C       -0.8520    -0.8400    -0.1130 C.ar  1 <1>  -0.1500 
  8 C        1.2760    -1.9350    -0.0790 C.ar  1 <1>  -0.1500 
  9 C        3.2900     3.2450    -0.5740 C.2   1 <1>   0.5690 
 10 C       -1.5000    -2.0550    -0.2820 C.ar  1 <1>  -0.1440 
 11 C        0.6560    -3.1610    -0.2480 C.ar  1 <1>  -0.1500 
 12 O        3.1660     4.1590    -1.3560 O.2   1 <1>  -0.5700 
 13 N        3.2860     3.4510     0.7710 N.am  1 <1>  -0.7300 
 14 C       -0.7210    -3.2000    -0.3460 C.ar  1 <1>   0.1900 
 15 C       -3.0160    -2.1230    -0.3930 C.3   1 <1>  -0.0970 
 16 C        2.9480     4.7420     1.4120 C.3   1 <1>   0.1400 
 17 F       -1.2950    -4.3620    -0.5060 F     1 <1>  -0.1900 
 18 C        4.1540     5.6820     1.3900 C.3   1 <1>   0.0200 
 19 C        3.7030     7.1070     1.6460 C.2   1 <1>   0.0060 
 20 N        3.7470     7.6800     2.7990 N.2   1 <1>  -0.3380 
 21 N        3.2030     7.9210     0.7080 N.pl3 1 <1>   0.0480 
 22 N        3.2660     8.9140     2.6400 N.2   1 <1>  -0.3380 
 23 C        2.9510     9.0340     1.3980 C.2   1 <1>   0.0360 
 24 C        2.9660     7.6820    -0.7330 C.3   1 <1>   0.0960 
 25 C        4.1990     8.0680    -1.5560 C.3   1 <1>  -0.2400 
 26 H        1.5440     1.6370    -1.7890 H     1 <1>   0.4200 
 27 H        3.8910     1.8900    -2.0970 H     1 <1>   0.0800 
 28 H        4.1310     1.2770    -0.4970 H     1 <1>   0.0800 
 29 H       -1.4330     0.0660    -0.0590 H     1 <1>   0.1500 
 30 H        2.3490    -1.8900    -0.0010 H     1 <1>   0.1500 
 31 H        1.2250    -4.0720    -0.3030 H     1 <1>   0.1500 
 32 H        3.2430     2.6270     1.3900 H     1 <1>   0.3700 
 33 H       -3.4540    -1.1430    -0.3360 H     1 <1>   0.0800 
 34 H       -3.4150    -2.7230     0.4060 H     1 <1>   0.0800 
 35 H       -3.2960    -2.5700    -1.3300 H     1 <1>   0.0800 
 36 H        2.6290     4.5780     2.4280 H     1 <1>   0.0800 
 37 H        2.1270     5.1870     0.8760 H     1 <1>   0.0800 
 38 H        4.6510     5.6350     0.4380 H     1 <1>   0.0800 
 39 H        4.8520     5.3860     2.1530 H     1 <1>   0.0800 
 40 H        2.5340     9.9190     0.9540 H     1 <1>   0.1500 
 41 H        2.1190     8.2660    -1.0460 H     1 <1>   0.0800 
 42 H        2.7320     6.6440    -0.8860 H     1 <1>   0.0800 
 43 H        4.4280     9.1100    -1.4260 H     1 <1>   0.0800 
 44 H        4.0080     7.8860    -2.5990 H     1 <1>   0.0800 
 45 H        5.0470     7.4760    -1.2610 H     1 <1>   0.0800 
@<TRIPOS>BOND
  1   1   2  2   
  2   1   3  2   
  3   1   4  am  
  4   1   5  1   
  5   4   6  1   
  6   4  26  1   
  7   5   7  ar  
  8   5   8  ar  
  9   6   9  1   
 10   6  27  1   
 11   6  28  1   
 12   7  10  ar  
 13   7  29  1   
 14   8  11  ar  
 15   8  30  1   
 16   9  12  2   
 17   9  13  am  
 18  10  14  ar  
 19  10  15  1   
 20  11  14  ar  
 21  11  31  1   
 22  13  16  1   
 23  13  32  1   
 24  14  17  1   
 25  15  33  1   
 26  15  34  1   
 27  15  35  1   
 28  16  18  1   
 29  16  36  1   
 30  16  37  1   
 31  18  19  1   
 32  18  38  1   
 33  18  39  1   
 34  19  20  2   
 35  19  21  1   
 36  20  22  1   
 37  21  23  1   
 38  21  24  1   
 39  22  23  2   
 40  23  40  1   
 41  24  25  1   
 42  24  41  1   
 43  24  42  1   
 44  25  43  1   
 45  25  44  1   
 46  25  45  1   
@<TRIPOS>SUBSTRUCTURE
  1 ****   2 GROUP 4 **** **** 0

# MOE 2024.06 (io_trps.svl 2023.06)
