@<TRIPOS>MOLECULE
NONAME
48 51 1 0 0 
SMALL
USER_CHARGES


@<TRIPOS>ATOM
  1 O        0.7450    -1.2080     2.7150 O.2   1 <1>  -0.5700 
  2 C        1.5540    -1.5760     1.8820 C.2   1 <1>   0.7160 
  3 N        1.4630    -2.8270     1.3650 N.am  1 <1>  -0.4900 
  4 C        2.6170    -0.7880     1.3760 C.2   1 <1>  -0.0860 
  5 C        2.3250    -3.2920     0.4030 C.2   1 <1>   0.4490 
  6 C        3.4390    -1.3150     0.4280 C.2   1 <1>  -0.0260 
  7 C        3.1090     0.4990     1.5880 C.2   1 <1>   0.1390 
  8 N        3.2950    -2.5930    -0.0770 N.2   1 <1>  -0.5760 
  9 C        2.0690    -4.7200    -0.0790 C.3   1 <1>   0.1710 
 10 N        4.3500    -0.3620     0.1260 N.pl3 1 <1>   0.3140 
 11 N        4.1430     0.7640     0.8480 N.2   1 <1>  -0.7070 
 12 N        0.6380    -5.1210     0.0240 N.3   1 <1>  -0.8100 
 13 C        5.4420    -0.4640    -0.8480 C.3   1 <1>   0.0160 
 14 C        0.5080    -6.5920    -0.0730 C.3   1 <1>   0.1100 
 15 C       -0.1680    -4.4630    -1.0220 C.3   1 <1>   0.1100 
 16 C       -0.9560    -7.0330     0.1190 C.3   1 <1>   0.2000 
 17 C       -1.6490    -4.8150    -0.8450 C.3   1 <1>  -0.1600 
 18 O       -1.0630    -8.4040    -0.1030 O.3   1 <1>  -0.5600 
 19 C       -1.8720    -6.3350    -0.8890 C.3   1 <1>  -0.1600 
 20 C       -0.7980    -9.2050     1.0190 C.3   1 <1>   0.2630 
 21 C       -0.7310   -10.6880     0.6650 C.ar  1 <1>   0.1670 
 22 N       -0.1720   -11.4650     1.5850 N.ar  1 <1>  -0.6200 
 23 C       -1.2340   -11.1650    -0.5400 C.ar  1 <1>  -0.1500 
 24 C       -0.1080   -12.7540     1.2910 C.ar  1 <1>   0.1600 
 25 C       -1.1610   -12.5100    -0.8310 C.ar  1 <1>  -0.1500 
 26 C       -0.5790   -13.3200     0.1190 C.ar  1 <1>  -0.1500 
 27 H        0.6810    -3.4220     1.6350 H     1 <1>   0.3700 
 28 H        2.6780     1.1950     2.2890 H     1 <1>   0.1500 
 29 H        2.6640    -5.3710     0.5380 H     1 <1>   0.0800 
 30 H        2.4130    -4.8230    -1.0940 H     1 <1>   0.0800 
 31 H        5.6350    -1.4990    -1.0620 H     1 <1>   0.0800 
 32 H        6.3220    -0.0070    -0.4360 H     1 <1>   0.0800 
 33 H        5.1550     0.0480    -1.7470 H     1 <1>   0.0800 
 34 H        1.1150    -7.0490     0.6880 H     1 <1>   0.0800 
 35 H        0.8520    -6.9230    -1.0380 H     1 <1>   0.0800 
 36 H        0.1660    -4.7790    -1.9970 H     1 <1>   0.0800 
 37 H       -0.0540    -3.3930    -0.9590 H     1 <1>   0.0800 
 38 H       -1.2820    -6.8070     1.1200 H     1 <1>   0.0800 
 39 H       -2.2220    -4.3460    -1.6250 H     1 <1>   0.0800 
 40 H       -1.9910    -4.4220     0.0960 H     1 <1>   0.0800 
 41 H       -2.8980    -6.5600    -0.6620 H     1 <1>   0.0800 
 42 H       -1.6480    -6.6950    -1.8780 H     1 <1>   0.0800 
 43 H       -1.5780    -9.0460     1.7430 H     1 <1>   0.0800 
 44 H        0.1450    -8.9100     1.4440 H     1 <1>   0.0800 
 45 H       -1.6800   -10.4900    -1.2480 H     1 <1>   0.1500 
 46 H        0.3450   -13.3960     2.0270 H     1 <1>   0.1500 
 47 H       -1.5410   -12.9060    -1.7570 H     1 <1>   0.1500 
 48 H       -0.4900   -14.3780    -0.0440 H     1 <1>   0.1500 
@<TRIPOS>BOND
  1   1   2  2   
  2   2   3  am  
  3   2   4  1   
  4   3   5  1   
  5   3  27  1   
  6   4   6  2   
  7   4   7  1   
  8   5   8  2   
  9   5   9  1   
 10   6   8  1   
 11   6  10  1   
 12   7  11  2   
 13   7  28  1   
 14   9  12  1   
 15   9  29  1   
 16   9  30  1   
 17  10  11  1   
 18  10  13  1   
 19  12  14  1   
 20  12  15  1   
 21  13  31  1   
 22  13  32  1   
 23  13  33  1   
 24  14  16  1   
 25  14  34  1   
 26  14  35  1   
 27  15  17  1   
 28  15  36  1   
 29  15  37  1   
 30  16  18  1   
 31  16  19  1   
 32  16  38  1   
 33  17  19  1   
 34  17  39  1   
 35  17  40  1   
 36  18  20  1   
 37  19  41  1   
 38  19  42  1   
 39  20  21  1   
 40  20  43  1   
 41  20  44  1   
 42  21  22  ar  
 43  21  23  ar  
 44  22  24  ar  
 45  23  25  ar  
 46  23  45  1   
 47  24  26  ar  
 48  24  46  1   
 49  25  26  ar  
 50  25  47  1   
 51  26  48  1   
@<TRIPOS>SUBSTRUCTURE
  1 ****  12 GROUP 4 **** **** 0

# MOE 2024.06 (io_trps.svl 2023.06)
