@<TRIPOS>MOLECULE
NONAME
39 40 1 0 0 
SMALL
USER_CHARGES


@<TRIPOS>ATOM
  1 S       -0.1770    -0.0640    -1.5180 S.o2  1 <1>   1.5000 
  2 O        0.5600    -0.9280    -2.4160 O.2   1 <1>  -0.6500 
  3 O       -1.1270     0.8870    -2.0570 O.2   1 <1>  -0.6500 
  4 N       -1.0100    -1.0330    -0.4060 N.am  1 <1>  -0.8490 
  5 C        1.0180     0.7710    -0.4440 C.2   1 <1>  -0.0220 
  6 C       -1.7060    -2.1630    -1.0550 C.3   1 <1>   0.1960 
  7 C       -1.9400    -0.2580     0.4150 C.3   1 <1>   0.1960 
  8 S        1.0640     2.5330    -0.4430 S.3   1 <1>  -0.0800 
  9 C        1.9440     0.3020     0.4190 C.2   1 <1>  -0.1500 
 10 C       -2.2940    -3.1680    -0.0370 C.3   1 <1>  -0.1060 
 11 C       -2.4800    -1.1210     1.5520 C.3   1 <1>  -0.1600 
 12 C        2.3550     2.5630     0.7430 C.2   1 <1>  -0.1100 
 13 C        2.7020     1.3120     1.0920 C.2   1 <1>  -0.1500 
 14 C       -3.2890    -4.0670    -0.7790 C.2   1 <1>   0.9060 
 15 C       -3.1410    -2.3770     0.9870 C.3   1 <1>   0.2000 
 16 C       -1.1860    -4.1120     0.5430 C.3   1 <1>  -0.1600 
 17 O       -3.3220    -4.0720    -2.0140 O.co2 1 <1>  -0.9000 
 18 O       -4.0610    -4.7700    -0.1090 O.co2 1 <1>  -0.9000 
 19 O       -3.5190    -3.1970     2.0290 O.3   1 <1>  -0.6800 
 20 C       -0.1150    -3.5230     1.4750 C.3   1 <1>  -0.1600 
 21 C        0.9650    -4.5600     1.7910 C.3   1 <1>  -0.2400 
 22 H       -2.4960    -1.7730    -1.6770 H     1 <1>   0.0800 
 23 H       -1.0290    -2.6950    -1.7030 H     1 <1>   0.0800 
 24 H       -1.4360     0.5950     0.8370 H     1 <1>   0.0800 
 25 H       -2.7560     0.0990    -0.1940 H     1 <1>   0.0800 
 26 H        2.1220    -0.7430     0.6090 H     1 <1>   0.1500 
 27 H       -3.2110    -0.5600     2.1030 H     1 <1>   0.0800 
 28 H       -1.6790    -1.3680     2.2180 H     1 <1>   0.0800 
 29 H        2.7210     3.5250     1.0560 H     1 <1>   0.1500 
 30 H        3.4680     1.0490     1.8020 H     1 <1>   0.1500 
 31 H       -4.0510    -2.0720     0.4960 H     1 <1>   0.0800 
 32 H       -1.6740    -4.9090     1.0790 H     1 <1>   0.0800 
 33 H       -0.6910    -4.5740    -0.2940 H     1 <1>   0.0800 
 34 H       -3.8750    -4.0180     1.5880 H     1 <1>   0.4000 
 35 H        0.3500    -2.6670     1.0220 H     1 <1>   0.0800 
 36 H       -0.5760    -3.2220     2.3980 H     1 <1>   0.0800 
 37 H        1.4620    -4.8690     0.8880 H     1 <1>   0.0800 
 38 H        0.5260    -5.4240     2.2580 H     1 <1>   0.0800 
 39 H        1.6950    -4.1410     2.4600 H     1 <1>   0.0800 
@<TRIPOS>BOND
  1   1   2  2   
  2   1   3  2   
  3   1   4  am  
  4   1   5  1   
  5   4   6  1   
  6   4   7  1   
  7   5   8  1   
  8   5   9  2   
  9   6  10  1   
 10   6  22  1   
 11   6  23  1   
 12   7  11  1   
 13   7  24  1   
 14   7  25  1   
 15   8  12  1   
 16   9  13  1   
 17   9  26  1   
 18  10  14  1   
 19  10  15  1   
 20  10  16  1   
 21  11  15  1   
 22  11  27  1   
 23  11  28  1   
 24  12  13  2   
 25  12  29  1   
 26  13  30  1   
 27  14  17  ar  
 28  14  18  ar  
 29  15  19  1   
 30  15  31  1   
 31  16  20  1   
 32  16  32  1   
 33  16  33  1   
 34  19  34  1   
 35  20  21  1   
 36  20  35  1   
 37  20  36  1   
 38  21  37  1   
 39  21  38  1   
 40  21  39  1   
@<TRIPOS>SUBSTRUCTURE
  1 ****   4 GROUP 4 **** **** 0

# MOE 2024.06 (io_trps.svl 2023.06)
