@<TRIPOS>MOLECULE
NONAME
51 53 1 0 0 
SMALL
USER_CHARGES


@<TRIPOS>ATOM
  1 CL      -2.2380    -0.7540     2.6310 Cl    1 <1>  -0.1770 
  2 C       -2.6960    -1.0500     0.9690 C.ar  1 <1>   0.1770 
  3 C       -2.7460    -2.3510     0.4770 C.ar  1 <1>   0.0820 
  4 C       -3.0010     0.0330     0.1700 C.ar  1 <1>  -0.1500 
  5 O       -2.4380    -3.3870     1.2870 O.3   1 <1>  -0.3630 
  6 C       -3.1260    -2.5880    -0.8490 C.ar  1 <1>   0.0860 
  7 C       -3.3600    -0.2050    -1.1420 C.ar  1 <1>   0.1770 
  8 C       -1.0960    -3.8250     1.2670 C.3   1 <1>   0.0400 
  9 C       -3.2090    -3.9240    -1.3890 C.2   1 <1>   0.5440 
 10 C       -3.4220    -1.4860    -1.6530 C.ar  1 <1>  -0.1500 
 11 CL      -3.7460     1.1470    -2.1750 Cl    1 <1>  -0.1770 
 12 O       -2.3650    -4.2780    -2.1880 O.2   1 <1>  -0.5700 
 13 N       -4.2220    -4.7950    -1.0380 N.am  1 <1>  -0.6600 
 14 C       -4.2090    -6.2390    -1.4490 C.3   1 <1>   0.1400 
 15 C       -5.4370    -4.3710    -0.2910 C.3   1 <1>   0.1400 
 16 C       -4.3550    -7.1810    -0.2270 C.3   1 <1>   0.0000 
 17 C       -5.6130    -5.2490     0.9450 C.3   1 <1>  -0.1600 
 18 C       -5.6270    -6.7250     0.5390 C.3   1 <1>   0.2000 
 19 C       -4.6180    -8.6270    -0.7180 C.3   1 <1>   0.1200 
 20 C       -3.0900    -7.1100     0.6850 C.3   1 <1>  -0.0160 
 21 O       -5.8320    -7.4800     1.6810 O.3   1 <1>  -0.6800 
 22 O       -3.7140    -9.0110    -1.6980 O.3   1 <1>  -0.6800 
 23 C       -1.8440    -7.8080     0.1490 C.ar  1 <1>  -0.1440 
 24 C       -1.5470    -9.1030     0.5480 C.ar  1 <1>  -0.1500 
 25 C       -0.9950    -7.1660    -0.7390 C.ar  1 <1>  -0.1500 
 26 C       -0.4270    -9.7500     0.0570 C.ar  1 <1>  -0.1500 
 27 C        0.1250    -7.8110    -1.2330 C.ar  1 <1>  -0.1500 
 28 C        0.4100    -9.1050    -0.8350 C.ar  1 <1>  -0.1500 
 29 H       -2.9580     1.0350     0.5570 H     1 <1>   0.1500 
 30 H       -1.0040    -4.6650     1.9320 H     1 <1>   0.0800 
 31 H       -0.4610    -3.0220     1.5990 H     1 <1>   0.0800 
 32 H       -0.8360    -4.1210     0.2650 H     1 <1>   0.0800 
 33 H       -3.6980    -1.6390    -2.6810 H     1 <1>   0.1500 
 34 H       -5.0250    -6.4060    -2.1290 H     1 <1>   0.0800 
 35 H       -3.3060    -6.4710    -1.9850 H     1 <1>   0.0800 
 36 H       -5.3730    -3.3400     0.0090 H     1 <1>   0.0800 
 37 H       -6.2930    -4.4750    -0.9360 H     1 <1>   0.0800 
 38 H       -6.5460    -4.9980     1.4160 H     1 <1>   0.0800 
 39 H       -4.8160    -5.0430     1.6370 H     1 <1>   0.0800 
 40 H       -6.4850    -6.8900    -0.0920 H     1 <1>   0.0800 
 41 H       -5.6010    -8.7080    -1.1510 H     1 <1>   0.0800 
 42 H       -4.5500    -9.3260     0.0980 H     1 <1>   0.0800 
 43 H       -2.8430    -6.0830     0.8790 H     1 <1>   0.0800 
 44 H       -3.3090    -7.5510     1.6400 H     1 <1>   0.0800 
 45 H       -5.2110    -7.2080     2.3830 H     1 <1>   0.4000 
 46 H       -2.7940    -8.9090    -1.3600 H     1 <1>   0.4000 
 47 H       -2.1880    -9.6190     1.2420 H     1 <1>   0.1500 
 48 H       -1.2000    -6.1610    -1.0590 H     1 <1>   0.1500 
 49 H       -0.2060   -10.7560     0.3690 H     1 <1>   0.1500 
 50 H        0.7720    -7.3040    -1.9270 H     1 <1>   0.1500 
 51 H        1.2800    -9.6070    -1.2200 H     1 <1>   0.1500 
@<TRIPOS>BOND
  1   1   2  1   
  2   2   3  ar  
  3   2   4  ar  
  4   3   5  1   
  5   3   6  ar  
  6   4   7  ar  
  7   4  29  1   
  8   5   8  1   
  9   6   9  1   
 10   6  10  ar  
 11   7  10  ar  
 12   7  11  1   
 13   8  30  1   
 14   8  31  1   
 15   8  32  1   
 16   9  12  2   
 17   9  13  am  
 18  10  33  1   
 19  13  14  1   
 20  13  15  1   
 21  14  16  1   
 22  14  34  1   
 23  14  35  1   
 24  15  17  1   
 25  15  36  1   
 26  15  37  1   
 27  16  18  1   
 28  16  19  1   
 29  16  20  1   
 30  17  18  1   
 31  17  38  1   
 32  17  39  1   
 33  18  21  1   
 34  18  40  1   
 35  19  22  1   
 36  19  41  1   
 37  19  42  1   
 38  20  23  1   
 39  20  43  1   
 40  20  44  1   
 41  21  45  1   
 42  22  46  1   
 43  23  24  ar  
 44  23  25  ar  
 45  24  26  ar  
 46  24  47  1   
 47  25  27  ar  
 48  25  48  1   
 49  26  28  ar  
 50  26  49  1   
 51  27  28  ar  
 52  27  50  1   
 53  28  51  1   
@<TRIPOS>SUBSTRUCTURE
  1 ****  13 GROUP 4 **** **** 0

# MOE 2024.06 (io_trps.svl 2023.06)
