@<TRIPOS>MOLECULE
NONAME
44 45 1 0 0 
SMALL
USER_CHARGES


@<TRIPOS>ATOM
  1 S        0.1810    -0.0820    -1.1240 S.o2  1 <1>   1.3330 
  2 O        1.4180     0.3330    -1.7540 O.2   1 <1>  -0.6500 
  3 O       -0.6300    -1.1110    -1.7290 O.2   1 <1>  -0.6500 
  4 N        0.5580    -0.5680     0.4570 N.am  1 <1>  -0.8490 
  5 C       -0.8090     1.3980    -0.8800 C.3   1 <1>  -0.0550 
  6 C       -0.5730    -1.2040     1.1470 C.3   1 <1>   0.1160 
  7 C        1.7010    -1.4890     0.4790 C.3   1 <1>   0.1160 
  8 C       -0.1050     2.4890    -0.0470 C.3   1 <1>  -0.0800 
  9 C       -0.9470     3.7500     0.1030 C.3   1 <1>   0.2000 
 10 C        1.2030     2.9910    -0.6570 C.3   1 <1>   0.2090 
 11 O       -1.8480     3.5940     1.1440 O.3   1 <1>  -0.6800 
 12 C        0.0530     4.8810     0.3640 C.3   1 <1>   0.2090 
 13 N        1.3560     4.4000    -0.1980 N.pl3 1 <1>  -0.8380 
 14 C        2.4900     5.1590    -0.2600 C.ar  1 <1>   0.4610 
 15 N        3.5830     4.6620    -0.8620 N.ar  1 <1>  -0.1790 
 16 C        2.6150     6.4320     0.2510 C.ar  1 <1>  -0.1500 
 17 C        4.7290     5.3630    -0.9600 C.ar  1 <1>   0.7710 
 18 C        3.8160     7.0980     0.1200 C.ar  1 <1>   0.3930 
 19 N        4.8800     6.5730    -0.4840 N.ar  1 <1>  -0.6200 
 20 N        5.7880     4.8260    -1.5690 N.pl3 1 <1>  -0.9000 
 21 O        3.9010     8.3260     0.6270 O.3   1 <1>  -0.3620 
 22 C        5.0730     9.1160     0.5590 C.3   1 <1>   0.0400 
 23 H       -1.0710     1.7980    -1.8410 H     1 <1>   0.0800 
 24 H       -1.7250     1.1300    -0.3900 H     1 <1>   0.0800 
 25 H       -0.3000    -1.4490     2.1590 H     1 <1>   0.0800 
 26 H       -0.8670    -2.1090     0.6380 H     1 <1>   0.0800 
 27 H       -1.4180    -0.5380     1.1790 H     1 <1>   0.0800 
 28 H        1.9350    -1.7710     1.4920 H     1 <1>   0.0800 
 29 H        2.5700    -1.0140     0.0550 H     1 <1>   0.0800 
 30 H        1.4810    -2.3760    -0.0930 H     1 <1>   0.0800 
 31 H        0.1280     2.0990     0.9300 H     1 <1>   0.0800 
 32 H       -1.5040     3.9600    -0.7950 H     1 <1>   0.0800 
 33 H        1.1430     2.9730    -1.7330 H     1 <1>   0.0800 
 34 H        2.0270     2.3780    -0.3260 H     1 <1>   0.0800 
 35 H       -1.3940     3.3850     1.9840 H     1 <1>   0.4000 
 36 H        0.1590     5.0530     1.4220 H     1 <1>   0.0800 
 37 H       -0.2660     5.7840    -0.1280 H     1 <1>   0.0800 
 38 H        3.5430     3.7380    -1.2640 H     1 <1>   0.4570 
 39 H        1.8010     6.9190     0.7520 H     1 <1>   0.1500 
 40 H        5.8750     3.9050    -2.0020 H     1 <1>   0.4000 
 41 H        6.6420     5.3920    -1.6210 H     1 <1>   0.4000 
 42 H        4.8760    10.0570     1.0400 H     1 <1>   0.0800 
 43 H        5.3280     9.2770    -0.4740 H     1 <1>   0.0800 
 44 H        5.8710     8.6030     1.0670 H     1 <1>   0.0800 
@<TRIPOS>BOND
  1   1   2  2   
  2   1   3  2   
  3   1   4  am  
  4   1   5  1   
  5   4   6  1   
  6   4   7  1   
  7   5   8  1   
  8   5  23  1   
  9   5  24  1   
 10   6  25  1   
 11   6  26  1   
 12   6  27  1   
 13   7  28  1   
 14   7  29  1   
 15   7  30  1   
 16   8   9  1   
 17   8  10  1   
 18   8  31  1   
 19   9  11  1   
 20   9  12  1   
 21   9  32  1   
 22  10  13  1   
 23  10  33  1   
 24  10  34  1   
 25  11  35  1   
 26  12  13  1   
 27  12  36  1   
 28  12  37  1   
 29  13  14  1   
 30  14  15  ar  
 31  14  16  ar  
 32  15  17  ar  
 33  15  38  1   
 34  16  18  ar  
 35  16  39  1   
 36  17  19  ar  
 37  17  20  1   
 38  18  19  ar  
 39  18  21  1   
 40  20  40  1   
 41  20  41  1   
 42  21  22  1   
 43  22  42  1   
 44  22  43  1   
 45  22  44  1   
@<TRIPOS>SUBSTRUCTURE
  1 ****  10 GROUP 4 **** **** 0

# MOE 2024.06 (io_trps.svl 2023.06)
