@<TRIPOS>MOLECULE
NONAME
56 58 1 0 0 
SMALL
USER_CHARGES


@<TRIPOS>ATOM
  1 S       -0.4530     0.0530    -1.3440 S.3   1 <1>  -0.0800 
  2 C       -2.1380     0.3990    -0.9940 C.2   1 <1>  -0.1400 
  3 C        0.0940     1.3670    -0.3180 C.2   1 <1>  -0.1400 
  4 C       -2.2250     1.4520    -0.1520 C.2   1 <1>  -0.1500 
  5 C       -3.1100    -0.5380    -1.6970 C.3   1 <1>   0.5230 
  6 C       -0.9590     2.0000     0.2270 C.2   1 <1>  -0.1500 
  7 C        1.5900     1.6160    -0.2050 C.3   1 <1>   0.0200 
  8 N       -4.5480    -0.2340    -1.4270 N.4   1 <1>  -0.9590 
  9 C        2.2340     0.9000     0.9990 C.3   1 <1>  -0.0800 
 10 C       -4.9160     1.1250    -1.9260 C.3   1 <1>   0.3430 
 11 C       -4.8770    -0.4090     0.0190 C.3   1 <1>   0.3430 
 12 C        3.7050     1.3150     1.1350 C.3   1 <1>  -0.2400 
 13 C        2.1430    -0.6280     0.8930 C.3   1 <1>  -0.2400 
 14 C       -6.4050     1.3740    -1.7160 C.3   1 <1>  -0.1600 
 15 C       -6.3650    -0.1730     0.2460 C.3   1 <1>  -0.1600 
 16 C       -6.7910     1.2210    -0.2350 C.3   1 <1>   0.2800 
 17 O       -5.9790     2.1350     0.4670 O.3   1 <1>  -0.5600 
 18 C       -8.3130     1.4360     0.0290 C.3   1 <1>   0.2000 
 19 C       -6.5850     3.1350     1.2410 C.3   1 <1>   0.1200 
 20 O       -9.0850     0.6220    -0.8060 O.3   1 <1>  -0.6800 
 21 C       -8.7650     2.9270    -0.0210 C.3   1 <1>   0.2800 
 22 C       -7.6220     3.8690     0.3900 C.3   1 <1>  -0.1600 
 23 O       -9.7630     3.0590     0.9220 O.3   1 <1>  -0.6800 
 24 C       -9.3990     3.3900    -1.3420 C.3   1 <1>  -0.2400 
 25 H       -3.1190     1.9010     0.2440 H     1 <1>   0.1500 
 26 H       -2.8940    -1.5470    -1.3850 H     1 <1>   0.0800 
 27 H       -2.9270    -0.4810    -2.7570 H     1 <1>   0.0800 
 28 H       -0.8990     2.8450     0.8910 H     1 <1>   0.1500 
 29 H        2.0750     1.3180    -1.1180 H     1 <1>   0.0800 
 30 H        1.7400     2.6750    -0.0930 H     1 <1>   0.0800 
 31 H       -5.1150    -0.9110    -1.9500 H     1 <1>   0.4500 
 32 H        1.7150     1.2090     1.8920 H     1 <1>   0.0800 
 33 H       -4.3600     1.8780    -1.3940 H     1 <1>   0.0800 
 34 H       -4.6810     1.2120    -2.9750 H     1 <1>   0.0800 
 35 H       -4.6150    -1.4030     0.3420 H     1 <1>   0.0800 
 36 H       -4.3200     0.2950     0.6140 H     1 <1>   0.0800 
 37 H        4.2650     1.0200     0.2640 H     1 <1>   0.0800 
 38 H        4.1470     0.8490     1.9980 H     1 <1>   0.0800 
 39 H        3.7870     2.3810     1.2520 H     1 <1>   0.0800 
 40 H        2.5940    -0.9740    -0.0210 H     1 <1>   0.0800 
 41 H        1.1170    -0.9480     0.9150 H     1 <1>   0.0800 
 42 H        2.6500    -1.0910     1.7220 H     1 <1>   0.0800 
 43 H       -6.9720     0.6940    -2.3250 H     1 <1>   0.0800 
 44 H       -6.6330     2.3680    -2.0490 H     1 <1>   0.0800 
 45 H       -6.5790    -0.2680     1.2950 H     1 <1>   0.0800 
 46 H       -6.9320    -0.9310    -0.2650 H     1 <1>   0.0800 
 47 H       -8.4980     1.0820     1.0300 H     1 <1>   0.0800 
 48 H       -7.0370     2.6820     2.1090 H     1 <1>   0.0800 
 49 H       -5.8140     3.8120     1.5650 H     1 <1>   0.0800 
 50 H      -10.0300     0.7580    -0.5820 H     1 <1>   0.4000 
 51 H       -7.1180     4.2480    -0.4810 H     1 <1>   0.0800 
 52 H       -8.0040     4.7180     0.9290 H     1 <1>   0.0800 
 53 H      -10.1590     3.9500     0.8640 H     1 <1>   0.4000 
 54 H       -8.7190     3.2470    -2.1590 H     1 <1>   0.0800 
 55 H       -9.6480     4.4350    -1.2980 H     1 <1>   0.0800 
 56 H      -10.2930     2.8310    -1.5550 H     1 <1>   0.0800 
@<TRIPOS>BOND
  1   1   2  1   
  2   1   3  1   
  3   2   4  2   
  4   2   5  1   
  5   3   6  2   
  6   3   7  1   
  7   4   6  1   
  8   4  25  1   
  9   5   8  1   
 10   5  26  1   
 11   5  27  1   
 12   6  28  1   
 13   7   9  1   
 14   7  29  1   
 15   7  30  1   
 16   8  10  1   
 17   8  11  1   
 18   8  31  1   
 19   9  12  1   
 20   9  13  1   
 21   9  32  1   
 22  10  14  1   
 23  10  33  1   
 24  10  34  1   
 25  11  15  1   
 26  11  35  1   
 27  11  36  1   
 28  12  37  1   
 29  12  38  1   
 30  12  39  1   
 31  13  40  1   
 32  13  41  1   
 33  13  42  1   
 34  14  16  1   
 35  14  43  1   
 36  14  44  1   
 37  15  16  1   
 38  15  45  1   
 39  15  46  1   
 40  16  17  1   
 41  16  18  1   
 42  17  19  1   
 43  18  20  1   
 44  18  21  1   
 45  18  47  1   
 46  19  22  1   
 47  19  48  1   
 48  19  49  1   
 49  20  50  1   
 50  21  22  1   
 51  21  23  1   
 52  21  24  1   
 53  22  51  1   
 54  22  52  1   
 55  23  53  1   
 56  24  54  1   
 57  24  55  1   
 58  24  56  1   
@<TRIPOS>SUBSTRUCTURE
  1 ****  10 GROUP 4 **** **** 0

# MOE 2024.06 (io_trps.svl 2023.06)
