@<TRIPOS>MOLECULE
NONAME
35 36 1 0 0 
SMALL
USER_CHARGES


@<TRIPOS>ATOM
  1 F       -0.4280    -0.0760    -0.5720 F     1 <1>  -0.1900 
  2 C       -1.5230    -0.6470    -0.1360 C.ar  1 <1>   0.1900 
  3 C       -1.5830    -2.0340    -0.0300 C.ar  1 <1>   0.0830 
  4 C       -2.5840     0.1710     0.2020 C.ar  1 <1>  -0.1500 
  5 O       -0.4910    -2.7680    -0.3840 O.3   1 <1>  -0.3630 
  6 C       -2.7670    -2.5970     0.4400 C.ar  1 <1>  -0.1500 
  7 C       -3.7570    -0.4040     0.6610 C.ar  1 <1>  -0.0320 
  8 C       -0.4800    -4.1720    -0.2810 C.3   1 <1>   0.1200 
  9 C       -3.8390    -1.7850     0.7810 C.ar  1 <1>  -0.1500 
 10 C       -4.9360     0.4750     1.0370 C.3   1 <1>  -0.0680 
 11 C        0.8860    -4.6670    -0.7450 C.3   1 <1>  -0.2400 
 12 C       -5.5300     1.3900     0.0070 C.3   1 <1>  -0.1000 
 13 C       -6.3000     0.1940     0.4820 C.3   1 <1>  -0.2000 
 14 C       -5.9600     2.8000     0.3740 C.2   1 <1>   0.7200 
 15 O       -5.3780     3.4480     1.2060 O.2   1 <1>  -0.5700 
 16 O       -7.0120     3.2680    -0.2830 O.3   1 <1>  -0.4300 
 17 C       -7.5140     4.5600    -0.0360 C.3   1 <1>   0.1200 
 18 C       -8.7180     4.7820    -0.9460 C.3   1 <1>  -0.2400 
 19 H       -2.4900     1.2370     0.1070 H     1 <1>   0.1500 
 20 H       -2.8760    -3.6600     0.5470 H     1 <1>   0.1500 
 21 H       -0.6530    -4.4410     0.7470 H     1 <1>   0.0800 
 22 H       -1.2600    -4.5670    -0.9090 H     1 <1>   0.0800 
 23 H       -4.7480    -2.2310     1.1440 H     1 <1>   0.1500 
 24 H       -4.8730     0.8400     2.0490 H     1 <1>   0.1000 
 25 H        1.6590    -4.2520    -0.1230 H     1 <1>   0.0800 
 26 H        1.0560    -4.3770    -1.7670 H     1 <1>   0.0800 
 27 H        0.9290    -5.7380    -0.6790 H     1 <1>   0.0800 
 28 H       -5.1270     1.3500    -0.9880 H     1 <1>   0.1000 
 29 H       -7.1550     0.3460     1.1180 H     1 <1>   0.1000 
 30 H       -6.4330    -0.6270    -0.2000 H     1 <1>   0.1000 
 31 H       -7.7950     4.6250     1.0010 H     1 <1>   0.0800 
 32 H       -6.7340     5.2750    -0.2440 H     1 <1>   0.0800 
 33 H       -9.4810     4.0550    -0.7340 H     1 <1>   0.0800 
 34 H       -8.4230     4.7050    -1.9770 H     1 <1>   0.0800 
 35 H       -9.1230     5.7630    -0.7780 H     1 <1>   0.0800 
@<TRIPOS>BOND
  1   1   2  1   
  2   2   3  ar  
  3   2   4  ar  
  4   3   5  1   
  5   3   6  ar  
  6   4   7  ar  
  7   4  19  1   
  8   5   8  1   
  9   6   9  ar  
 10   6  20  1   
 11   7   9  ar  
 12   7  10  1   
 13   8  11  1   
 14   8  21  1   
 15   8  22  1   
 16   9  23  1   
 17  10  12  1   
 18  10  13  1   
 19  10  24  1   
 20  11  25  1   
 21  11  26  1   
 22  11  27  1   
 23  12  13  1   
 24  12  14  1   
 25  12  28  1   
 26  13  29  1   
 27  13  30  1   
 28  14  15  2   
 29  14  16  1   
 30  16  17  1   
 31  17  18  1   
 32  17  31  1   
 33  17  32  1   
 34  18  33  1   
 35  18  34  1   
 36  18  35  1   
@<TRIPOS>SUBSTRUCTURE
  1 ****   7 GROUP 4 **** **** 0

# MOE 2024.06 (io_trps.svl 2023.06)
