@<TRIPOS>MOLECULE
NONAME
56 59 1 0 0 
SMALL
USER_CHARGES


@<TRIPOS>ATOM
  1 O       -0.5460     0.3490    -1.5870 O.2   1 <1>  -0.5700 
  2 C       -1.3760     0.8990    -0.8910 C.2   1 <1>   0.5440 
  3 N       -2.3960     0.1660    -0.3170 N.am  1 <1>  -0.6600 
  4 C       -1.2880     2.3270    -0.7130 C.ar  1 <1>   0.0860 
  5 C       -2.7320    -1.2260    -0.7880 C.3   1 <1>   0.1400 
  6 C       -3.4290     0.7810     0.5640 C.3   1 <1>   0.1400 
  7 C       -0.6510     2.9110     0.3910 C.ar  1 <1>   0.0000 
  8 C       -1.8390     3.2180    -1.6100 C.ar  1 <1>  -0.1500 
  9 C       -3.0350    -2.1890     0.3840 C.3   1 <1>  -0.1060 
 10 C       -3.7040    -0.1200     1.7660 C.3   1 <1>  -0.1600 
 11 C       -0.6570     4.2840     0.5150 C.ar  1 <1>   0.1050 
 12 C        0.0530     2.4690     1.5250 C.2   1 <1>   0.1080 
 13 C       -1.7760     4.5990    -1.3930 C.ar  1 <1>   0.1660 
 14 C       -3.7170    -3.4520    -0.1360 C.2   1 <1>   0.9060 
 15 C       -4.0870    -1.5200     1.2950 C.3   1 <1>   0.2000 
 16 C       -1.7270    -2.5530     1.1430 C.3   1 <1>  -0.0170 
 17 N       -1.2090     5.1530    -0.3510 N.ar  1 <1>  -0.5670 
 18 N        0.0040     4.5600     1.6740 N.pl3 1 <1>   0.3140 
 19 N        0.4340     3.4360     2.2910 N.2   1 <1>  -0.7070 
 20 C        0.3620     1.0230     1.8410 C.3   1 <1>  -0.0590 
 21 C       -2.3940     5.5430    -2.4030 C.3   1 <1>  -0.0960 
 22 O       -4.0420    -3.5460    -1.3240 O.co2 1 <1>  -0.9000 
 23 O       -4.0320    -4.3240     0.6920 O.co2 1 <1>  -0.9000 
 24 O       -4.3160    -2.3000     2.4120 O.3   1 <1>  -0.6800 
 25 C       -0.6810    -3.2830     0.3040 C.ar  1 <1>  -0.1440 
 26 C        0.2610     5.8990     2.2180 C.3   1 <1>   0.0160 
 27 C        0.3710    -2.5920    -0.2770 C.ar  1 <1>  -0.1500 
 28 C       -0.7640    -4.6550     0.1220 C.ar  1 <1>  -0.1500 
 29 C        1.3260    -3.2590    -1.0250 C.ar  1 <1>  -0.1500 
 30 C        0.1890    -5.3260    -0.6250 C.ar  1 <1>  -0.1500 
 31 C        1.2370    -4.6290    -1.1980 C.ar  1 <1>  -0.1500 
 32 H       -3.6000    -1.1570    -1.4210 H     1 <1>   0.0800 
 33 H       -1.9400    -1.6310    -1.3940 H     1 <1>   0.0800 
 34 H       -3.1140     1.7450     0.9200 H     1 <1>   0.0800 
 35 H       -4.3350     0.9100    -0.0030 H     1 <1>   0.0800 
 36 H       -2.3250     2.8370    -2.4890 H     1 <1>   0.1500 
 37 H       -4.5150     0.2940     2.3360 H     1 <1>   0.0800 
 38 H       -2.8360    -0.1590     2.3960 H     1 <1>   0.0800 
 39 H       -5.0200    -1.4660     0.7580 H     1 <1>   0.0800 
 40 H       -1.2840    -1.6630     1.5420 H     1 <1>   0.0800 
 41 H       -1.9650    -3.1830     1.9830 H     1 <1>   0.0800 
 42 H        0.8400     0.5580     1.0000 H     1 <1>   0.0800 
 43 H       -0.5460     0.4990     2.0690 H     1 <1>   0.0800 
 44 H        1.0190     0.9630     2.6890 H     1 <1>   0.0800 
 45 H       -2.8420     5.0050    -3.2180 H     1 <1>   0.0800 
 46 H       -1.6350     6.1960    -2.7940 H     1 <1>   0.0800 
 47 H       -3.1490     6.1400    -1.9240 H     1 <1>   0.0800 
 48 H       -4.3550    -3.2430     2.0760 H     1 <1>   0.4000 
 49 H       -0.6750     6.4060     2.3570 H     1 <1>   0.0800 
 50 H        0.8700     6.4460     1.5230 H     1 <1>   0.0800 
 51 H        0.7720     5.8080     3.1580 H     1 <1>   0.0800 
 52 H        0.4430    -1.5270    -0.1570 H     1 <1>   0.1500 
 53 H       -1.5850    -5.2030     0.5560 H     1 <1>   0.1500 
 54 H        2.1300    -2.7050    -1.4750 H     1 <1>   0.1500 
 55 H        0.1020    -6.3890    -0.7610 H     1 <1>   0.1500 
 56 H        1.9750    -5.1490    -1.7810 H     1 <1>   0.1500 
@<TRIPOS>BOND
  1   1   2  2   
  2   2   3  am  
  3   2   4  1   
  4   3   5  1   
  5   3   6  1   
  6   4   7  ar  
  7   4   8  ar  
  8   5   9  1   
  9   5  32  1   
 10   5  33  1   
 11   6  10  1   
 12   6  34  1   
 13   6  35  1   
 14   7  11  ar  
 15   7  12  1   
 16   8  13  ar  
 17   8  36  1   
 18   9  14  1   
 19   9  15  1   
 20   9  16  1   
 21  10  15  1   
 22  10  37  1   
 23  10  38  1   
 24  11  17  ar  
 25  11  18  1   
 26  12  19  2   
 27  12  20  1   
 28  13  17  ar  
 29  13  21  1   
 30  14  22  ar  
 31  14  23  ar  
 32  15  24  1   
 33  15  39  1   
 34  16  25  1   
 35  16  40  1   
 36  16  41  1   
 37  18  19  1   
 38  18  26  1   
 39  20  42  1   
 40  20  43  1   
 41  20  44  1   
 42  21  45  1   
 43  21  46  1   
 44  21  47  1   
 45  24  48  1   
 46  25  27  ar  
 47  25  28  ar  
 48  26  49  1   
 49  26  50  1   
 50  26  51  1   
 51  27  29  ar  
 52  27  52  1   
 53  28  30  ar  
 54  28  53  1   
 55  29  31  ar  
 56  29  54  1   
 57  30  31  ar  
 58  30  55  1   
 59  31  56  1   
@<TRIPOS>SUBSTRUCTURE
  1 ****   3 GROUP 4 **** **** 0

# MOE 2024.06 (io_trps.svl 2023.06)
