@<TRIPOS>MOLECULE
NONAME
46 48 1 0 0 
SMALL
USER_CHARGES


@<TRIPOS>ATOM
  1 S        0.3640     0.4890    -0.9650 S.o2  1 <1>   1.3330 
  2 O       -0.6640     1.3900    -1.4340 O.2   1 <1>  -0.6500 
  3 O        0.5060    -0.8190    -1.5650 O.2   1 <1>  -0.6500 
  4 N        0.1290     0.2780     0.7050 N.am  1 <1>  -0.8490 
  5 C        1.9520     1.3190    -1.0650 C.3   1 <1>  -0.0550 
  6 C       -0.4270     1.4630     1.3680 C.3   1 <1>   0.1160 
  7 C       -0.7050    -0.8910     1.0020 C.3   1 <1>   0.1160 
  8 C        3.1560     0.4390    -0.6640 C.3   1 <1>  -0.0800 
  9 C        4.5180     1.0720    -0.9070 C.3   1 <1>   0.2200 
 10 C        3.2220     0.0530     0.8210 C.3   1 <1>   0.1200 
 11 N        4.5180     2.4910    -0.4760 N.am  1 <1>  -0.7300 
 12 C        5.3710     0.2740     0.0680 C.3   1 <1>   0.1200 
 13 O        4.5670     0.1320     1.1980 O.3   1 <1>  -0.5600 
 14 C        4.5620     3.5780    -1.2960 C.2   1 <1>   0.6160 
 15 O        4.5030     3.3960    -2.4940 O.2   1 <1>  -0.5700 
 16 C        4.6180     4.9120    -0.7520 C.2   1 <1>   0.0290 
 17 C        5.3930     5.3260     0.3070 C.2   1 <1>  -0.1690 
 18 C        3.7600     5.8690    -1.3820 C.2   1 <1>   0.3760 
 19 N        5.2400     6.6340     0.7350 N.pl3 1 <1>   0.6010 
 20 C        6.4300     4.4790     1.0490 C.3   1 <1>  -0.1020 
 21 N        3.6170     7.0930    -1.0000 N.2   1 <1>  -0.5760 
 22 N        5.8380     7.2600     1.7760 N.2   1 <1>  -0.7070 
 23 C        4.3660     7.4770     0.0870 C.2   1 <1>  -0.0260 
 24 C        5.3450     8.4670     1.7590 C.2   1 <1>   0.1390 
 25 C        4.4310     8.6630     0.7390 C.2   1 <1>  -0.1500 
 26 H        2.1000     1.6350    -2.0800 H     1 <1>   0.0800 
 27 H        1.9260     2.2010    -0.4580 H     1 <1>   0.0800 
 28 H       -0.4660     1.3070     2.4320 H     1 <1>   0.0800 
 29 H       -1.4230     1.6650     1.0070 H     1 <1>   0.0800 
 30 H        0.1900     2.3240     1.1730 H     1 <1>   0.0800 
 31 H       -0.8260    -1.0030     2.0660 H     1 <1>   0.0800 
 32 H       -0.2390    -1.7850     0.6220 H     1 <1>   0.0800 
 33 H       -1.6750    -0.7860     0.5440 H     1 <1>   0.0800 
 34 H        3.1130    -0.4740    -1.2330 H     1 <1>   0.0800 
 35 H        4.8540     0.9740    -1.9260 H     1 <1>   0.0800 
 36 H        2.8690    -0.9500     0.9880 H     1 <1>   0.0800 
 37 H        2.6720     0.7390     1.4420 H     1 <1>   0.0800 
 38 H        4.5380     2.6070     0.5410 H     1 <1>   0.3700 
 39 H        6.2880     0.7710     0.3300 H     1 <1>   0.0800 
 40 H        5.5800    -0.7090    -0.3180 H     1 <1>   0.0800 
 41 H        3.1870     5.5350    -2.2300 H     1 <1>   0.0600 
 42 H        7.3450     5.0370     1.1620 H     1 <1>   0.0800 
 43 H        6.6730     3.5750     0.5230 H     1 <1>   0.0800 
 44 H        6.0690     4.2300     2.0320 H     1 <1>   0.0800 
 45 H        5.6290     9.2240     2.4730 H     1 <1>   0.1500 
 46 H        3.8880     9.5620     0.5130 H     1 <1>   0.1500 
@<TRIPOS>BOND
  1   1   2  2   
  2   1   3  2   
  3   1   4  am  
  4   1   5  1   
  5   4   6  1   
  6   4   7  1   
  7   5   8  1   
  8   5  26  1   
  9   5  27  1   
 10   6  28  1   
 11   6  29  1   
 12   6  30  1   
 13   7  31  1   
 14   7  32  1   
 15   7  33  1   
 16   8   9  1   
 17   8  10  1   
 18   8  34  1   
 19   9  11  1   
 20   9  12  1   
 21   9  35  1   
 22  10  13  1   
 23  10  36  1   
 24  10  37  1   
 25  11  14  am  
 26  11  38  1   
 27  12  13  1   
 28  12  39  1   
 29  12  40  1   
 30  14  15  2   
 31  14  16  1   
 32  16  17  2   
 33  16  18  1   
 34  17  19  1   
 35  17  20  1   
 36  18  21  2   
 37  18  41  1   
 38  19  22  1   
 39  19  23  1   
 40  20  42  1   
 41  20  43  1   
 42  20  44  1   
 43  21  23  1   
 44  22  24  2   
 45  23  25  2   
 46  24  25  1   
 47  24  45  1   
 48  25  46  1   
@<TRIPOS>SUBSTRUCTURE
  1 ****  11 GROUP 4 **** **** 0

# MOE 2024.06 (io_trps.svl 2023.06)
