@<TRIPOS>MOLECULE
NONAME
46 48 1 0 0 
SMALL
USER_CHARGES


@<TRIPOS>ATOM
  1 O       -0.0980    -0.7300    -1.0250 O.2   1 <1>  -0.5700 
  2 C       -1.0260    -0.0310    -0.6970 C.2   1 <1>   0.5690 
  3 N       -2.1080    -0.5390    -0.0190 N.am  1 <1>  -0.6600 
  4 C       -0.9380     1.4410    -1.0630 C.3   1 <1>  -0.0990 
  5 C       -2.1300    -1.9850     0.3530 C.3   1 <1>   0.3200 
  6 C       -3.2540     0.2900     0.4740 C.3   1 <1>   0.1400 
  7 C       -0.3200     2.2800     0.0660 C.3   1 <1>   0.0630 
  8 C       -3.4390    -2.6210    -0.0700 C.2   1 <1>  -0.3320 
  9 C       -4.3530     0.4290    -0.5870 C.3   1 <1>   0.1200 
 10 C       -0.4700     3.7490    -0.2550 C.ar  1 <1>  -0.1440 
 11 C        1.2100     2.1090     0.1730 C.3   1 <1>  -0.1600 
 12 N       -4.4900    -2.8330     0.7440 N.pl3 1 <1>   0.0330 
 13 C       -3.8050    -3.0790    -1.2870 C.2   1 <1>   0.0770 
 14 O       -5.3090     1.3130    -0.1120 O.3   1 <1>  -0.6800 
 15 C        0.7300     4.3070    -0.6220 C.ar  1 <1>  -0.1440 
 16 C       -1.6210     4.5150    -0.2120 C.ar  1 <1>  -0.1500 
 17 C        1.8410     3.2880    -0.5870 C.3   1 <1>  -0.0170 
 18 C       -5.4360    -3.3970    -0.0370 C.2   1 <1>   0.0070 
 19 N       -5.0630    -3.5580    -1.2630 N.2   1 <1>  -0.5650 
 20 C        0.8130     5.6440    -0.9630 C.ar  1 <1>  -0.1500 
 21 C       -1.5480     5.8570    -0.5510 C.ar  1 <1>  -0.1500 
 22 C       -6.7990    -3.7970     0.4840 C.3   1 <1>  -0.0600 
 23 C       -0.3360     6.4190    -0.9260 C.ar  1 <1>  -0.1500 
 24 H       -1.9120     1.8160    -1.3050 H     1 <1>   0.0800 
 25 H       -0.3400     1.5420    -1.9500 H     1 <1>   0.0800 
 26 H       -1.9900    -2.0830     1.4150 H     1 <1>   0.0800 
 27 H       -1.3260    -2.5130    -0.1300 H     1 <1>   0.0800 
 28 H       -2.9050     1.2710     0.7420 H     1 <1>   0.0800 
 29 H       -3.6690    -0.1580     1.3580 H     1 <1>   0.0800 
 30 H       -0.7880     2.0580     1.0090 H     1 <1>   0.0800 
 31 H       -4.8360    -0.5130    -0.7790 H     1 <1>   0.0800 
 32 H       -3.9570     0.8250    -1.5050 H     1 <1>   0.0800 
 33 H        1.5570     1.1620    -0.2040 H     1 <1>   0.0800 
 34 H        1.4880     2.1850     1.2090 H     1 <1>   0.0800 
 35 H       -4.5730    -2.6160     1.7410 H     1 <1>   0.2700 
 36 H       -3.2220    -3.0810    -2.1940 H     1 <1>   0.1500 
 37 H       -6.0430     1.3970    -0.7530 H     1 <1>   0.4000 
 38 H       -2.5600     4.0780     0.0800 H     1 <1>   0.1500 
 39 H        2.0950     3.0000    -1.5920 H     1 <1>   0.0800 
 40 H        2.7110     3.6650    -0.0810 H     1 <1>   0.0800 
 41 H        1.7550     6.0750    -1.2520 H     1 <1>   0.1500 
 42 H       -2.4340     6.4660    -0.5230 H     1 <1>   0.1500 
 43 H       -7.3150    -2.9370     0.8700 H     1 <1>   0.0800 
 44 H       -6.6970    -4.5330     1.2600 H     1 <1>   0.0800 
 45 H       -7.3830    -4.2190    -0.3150 H     1 <1>   0.0800 
 46 H       -0.2860     7.4610    -1.1880 H     1 <1>   0.1500 
@<TRIPOS>BOND
  1   1   2  2   
  2   2   3  am  
  3   2   4  1   
  4   3   5  1   
  5   3   6  1   
  6   4   7  1   
  7   4  24  1   
  8   4  25  1   
  9   5   8  1   
 10   5  26  1   
 11   5  27  1   
 12   6   9  1   
 13   6  28  1   
 14   6  29  1   
 15   7  10  1   
 16   7  11  1   
 17   7  30  1   
 18   8  12  1   
 19   8  13  2   
 20   9  14  1   
 21   9  31  1   
 22   9  32  1   
 23  10  15  ar  
 24  10  16  ar  
 25  11  17  1   
 26  11  33  1   
 27  11  34  1   
 28  12  18  1   
 29  12  35  1   
 30  13  19  1   
 31  13  36  1   
 32  14  37  1   
 33  15  17  1   
 34  15  20  ar  
 35  16  21  ar  
 36  16  38  1   
 37  17  39  1   
 38  17  40  1   
 39  18  19  2   
 40  18  22  1   
 41  20  23  ar  
 42  20  41  1   
 43  21  23  ar  
 44  21  42  1   
 45  22  43  1   
 46  22  44  1   
 47  22  45  1   
 48  23  46  1   
@<TRIPOS>SUBSTRUCTURE
  1 ****   3 GROUP 4 **** **** 0

# MOE 2024.06 (io_trps.svl 2023.06)
