@<TRIPOS>MOLECULE
NONAME
45 48 1 0 0 
SMALL
USER_CHARGES


@<TRIPOS>ATOM
  1 O        1.0250     2.1630    -1.2450 O.2   1 <1>  -0.5700 
  2 C        1.6310     3.0260    -0.6630 C.2   1 <1>   0.5690 
  3 N        2.9380     3.2730    -0.7920 N.am  1 <1>  -0.7300 
  4 C        1.0250     3.9370     0.3670 C.3   1 <1>  -0.0990 
  5 C        3.4710     4.2380     0.1690 C.3   1 <1>   0.2200 
  6 C        2.2000     4.8420     0.7950 C.3   1 <1>  -0.1600 
  7 C        4.3670     3.5110     1.1930 C.3   1 <1>   0.1100 
  8 N        5.4150     2.6940     0.5290 N.3   1 <1>  -0.8100 
  9 C        5.5610     1.3800     1.1980 C.3   1 <1>   0.2530 
 10 C        6.7360     3.3910     0.4530 C.3   1 <1>   0.2910 
 11 C        6.5350     0.4530     0.4750 C.ar  1 <1>   0.1670 
 12 C        6.7060     4.7600    -0.2350 C.2   1 <1>   0.3350 
 13 N        7.7010     0.2240     1.0670 N.ar  1 <1>  -0.6200 
 14 C        6.1650    -0.0900    -0.7460 C.ar  1 <1>  -0.1500 
 15 N        6.9530     4.9510    -1.4750 N.2   1 <1>  -0.4100 
 16 N        6.4170     5.8780     0.4470 N.2   1 <1>  -0.5650 
 17 C        8.5240    -0.5820     0.4140 C.ar  1 <1>   0.1600 
 18 C        7.0340    -0.9270    -1.4130 C.ar  1 <1>  -0.1500 
 19 O        6.8170     6.2180    -1.6190 O.3   1 <1>  -0.0190 
 20 C        6.4950     6.7710    -0.4810 C.2   1 <1>   0.4780 
 21 C        8.2460    -1.1740    -0.8060 C.ar  1 <1>  -0.1500 
 22 C        6.2730     8.1910    -0.4040 C.2   1 <1>   0.1400 
 23 O        5.9080     8.7660     0.7390 O.3   1 <1>  -0.2800 
 24 C        6.3640     9.1570    -1.3610 C.2   1 <1>  -0.1500 
 25 C        5.7680    10.0590     0.5370 C.2   1 <1>  -0.0100 
 26 C        6.0370    10.3670    -0.7490 C.2   1 <1>  -0.1500 
 27 H        3.5860     2.6430    -1.2690 H     1 <1>   0.3700 
 28 H        0.2190     4.5030    -0.0630 H     1 <1>   0.0800 
 29 H        0.6650     3.3470     1.1890 H     1 <1>   0.0800 
 30 H        4.0270     4.9980    -0.3510 H     1 <1>   0.0800 
 31 H        2.2760     4.9230     1.8650 H     1 <1>   0.0800 
 32 H        2.0580     5.8300     0.3930 H     1 <1>   0.0800 
 33 H        3.7280     2.8770     1.7840 H     1 <1>   0.0800 
 34 H        4.8120     4.2260     1.8650 H     1 <1>   0.0800 
 35 H        5.8940     1.5210     2.2130 H     1 <1>   0.0800 
 36 H        4.6030     0.8920     1.2290 H     1 <1>   0.0800 
 37 H        7.1360     3.5170     1.4440 H     1 <1>   0.0800 
 38 H        7.4270     2.7790    -0.0990 H     1 <1>   0.0800 
 39 H        5.2060     0.1480    -1.1700 H     1 <1>   0.1500 
 40 H        9.4750    -0.7830     0.8780 H     1 <1>   0.1500 
 41 H        6.7760    -1.3630    -2.3630 H     1 <1>   0.1500 
 42 H        8.9690    -1.8170    -1.2720 H     1 <1>   0.1500 
 43 H        6.6350     9.0350    -2.3960 H     1 <1>   0.1500 
 44 H        5.4760    10.6880     1.3610 H     1 <1>   0.1500 
 45 H        6.0120    11.3310    -1.2280 H     1 <1>   0.1500 
@<TRIPOS>BOND
  1   1   2  2   
  2   2   3  am  
  3   2   4  1   
  4   3   5  1   
  5   3  27  1   
  6   4   6  1   
  7   4  28  1   
  8   4  29  1   
  9   5   6  1   
 10   5   7  1   
 11   5  30  1   
 12   6  31  1   
 13   6  32  1   
 14   7   8  1   
 15   7  33  1   
 16   7  34  1   
 17   8   9  1   
 18   8  10  1   
 19   9  11  1   
 20   9  35  1   
 21   9  36  1   
 22  10  12  1   
 23  10  37  1   
 24  10  38  1   
 25  11  13  ar  
 26  11  14  ar  
 27  12  15  2   
 28  12  16  1   
 29  13  17  ar  
 30  14  18  ar  
 31  14  39  1   
 32  15  19  1   
 33  16  20  2   
 34  17  21  ar  
 35  17  40  1   
 36  18  21  ar  
 37  18  41  1   
 38  19  20  1   
 39  20  22  1   
 40  21  42  1   
 41  22  23  1   
 42  22  24  2   
 43  23  25  1   
 44  24  26  1   
 45  24  43  1   
 46  25  26  2   
 47  25  44  1   
 48  26  45  1   
@<TRIPOS>SUBSTRUCTURE
  1 ****  12 GROUP 4 **** **** 0

# MOE 2024.06 (io_trps.svl 2023.06)
