@<TRIPOS>MOLECULE
NONAME
38 40 1 0 0 
SMALL
USER_CHARGES


@<TRIPOS>ATOM
  1 CL      -1.2740     0.8670    -1.7050 Cl    1 <1>  -0.1770 
  2 C       -0.8310     2.3500    -0.9030 C.ar  1 <1>   0.1770 
  3 C        0.2310     3.1040    -1.3690 C.ar  1 <1>   0.1600 
  4 C       -1.5400     2.7710     0.1970 C.ar  1 <1>  -0.1500 
  5 N        0.6380     4.2380    -0.8200 N.ar  1 <1>  -0.6200 
  6 C       -1.1250     3.9540     0.7720 C.ar  1 <1>  -0.1500 
  7 C       -0.0400     4.6770     0.2630 C.ar  1 <1>   0.3960 
  8 C        0.3280     5.9340     0.9270 C.2   1 <1>   0.5440 
  9 O       -0.5670     6.6590     1.3330 O.2   1 <1>  -0.5700 
 10 N        1.6330     6.3510     1.1430 N.am  1 <1>  -0.6600 
 11 C        2.8520     5.5260     0.8540 C.3   1 <1>   0.1400 
 12 C        1.9390     7.7140     1.6630 C.3   1 <1>   0.1400 
 13 C        3.5430     5.9440    -0.4560 C.3   1 <1>   0.1400 
 14 C        1.9950     8.7440     0.5250 C.3   1 <1>  -0.1600 
 15 N        3.8570     7.4100    -0.4790 N.am  1 <1>  -0.6600 
 16 C        2.6590     8.2490    -0.7680 C.3   1 <1>   0.1400 
 17 C        5.0740     7.8820    -0.0060 C.2   1 <1>   0.7160 
 18 O        5.8470     7.0550     0.4550 O.2   1 <1>  -0.5700 
 19 C        5.4920     9.2800     0.0160 C.2   1 <1>   0.1410 
 20 N        4.8700    10.3180    -0.5940 N.2   1 <1>  -0.2270 
 21 C        6.5830     9.7900     0.6400 C.2   1 <1>  -0.3020 
 22 N        5.5210    11.4000    -0.3620 N.2   1 <1>  -0.4180 
 23 N        6.5760    11.0930     0.3910 N.pl3 1 <1>   0.3000 
 24 H        0.7630     2.7490    -2.2340 H     1 <1>   0.1500 
 25 H       -2.3720     2.2050     0.5770 H     1 <1>   0.1500 
 26 H       -1.6460     4.3400     1.6320 H     1 <1>   0.1500 
 27 H        2.5950     4.4840     0.8030 H     1 <1>   0.0800 
 28 H        3.5540     5.6330     1.6620 H     1 <1>   0.0800 
 29 H        2.8870     7.6960     2.1730 H     1 <1>   0.0800 
 30 H        1.1940     8.0110     2.3820 H     1 <1>   0.0800 
 31 H        2.9080     5.6970    -1.2890 H     1 <1>   0.0800 
 32 H        4.4470     5.3730    -0.5720 H     1 <1>   0.0800 
 33 H        2.5090     9.6190     0.8770 H     1 <1>   0.0800 
 34 H        0.9910     9.0490     0.2920 H     1 <1>   0.0800 
 35 H        2.9130     9.0750    -1.4070 H     1 <1>   0.0800 
 36 H        1.9410     7.6570    -1.3100 H     1 <1>   0.0800 
 37 H        7.3280     9.2830     1.2240 H     1 <1>   0.1500 
 38 H        7.2550    11.7960     0.7020 H     1 <1>   0.2700 
@<TRIPOS>BOND
  1   1   2  1   
  2   2   3  ar  
  3   2   4  ar  
  4   3   5  ar  
  5   3  24  1   
  6   4   6  ar  
  7   4  25  1   
  8   5   7  ar  
  9   6   7  ar  
 10   6  26  1   
 11   7   8  1   
 12   8   9  2   
 13   8  10  am  
 14  10  11  1   
 15  10  12  1   
 16  11  13  1   
 17  11  27  1   
 18  11  28  1   
 19  12  14  1   
 20  12  29  1   
 21  12  30  1   
 22  13  15  1   
 23  13  31  1   
 24  13  32  1   
 25  14  16  1   
 26  14  33  1   
 27  14  34  1   
 28  15  16  1   
 29  15  17  am  
 30  16  35  1   
 31  16  36  1   
 32  17  18  2   
 33  17  19  1   
 34  19  20  1   
 35  19  21  2   
 36  20  22  2   
 37  21  23  1   
 38  21  37  1   
 39  22  23  1   
 40  23  38  1   
@<TRIPOS>SUBSTRUCTURE
  1 ****  10 GROUP 4 **** **** 0

# MOE 2024.06 (io_trps.svl 2023.06)
