@<TRIPOS>MOLECULE
NONAME
60 63 1 0 0 
SMALL
USER_CHARGES


@<TRIPOS>ATOM
  1 O       -1.5650    -0.4340    -0.4850 O.2   1 <1>  -0.5700 
  2 C       -2.3990     0.4210    -0.2580 C.2   1 <1>   0.7160 
  3 N       -3.6980     0.1220    -0.5470 N.am  1 <1>  -0.7300 
  4 C       -2.0530     1.6990     0.2910 C.2   1 <1>  -0.0860 
  5 C       -4.1540    -1.0440    -1.3220 C.3   1 <1>   0.1400 
  6 C       -2.8950     2.8170     0.3690 C.2   1 <1>   0.3720 
  7 C       -0.8890     2.1540     0.8310 C.2   1 <1>   0.0870 
  8 C       -4.2270    -2.2570    -0.3930 C.3   1 <1>  -0.1600 
  9 N       -2.2910     3.8220     0.8950 N.2   1 <1>  -0.4100 
 10 N       -4.2240     2.8750    -0.0800 N.pl3 1 <1>  -0.8210 
 11 O       -1.0850     3.4050     1.1630 O.3   1 <1>  -0.0190 
 12 C        0.3980     1.5570     1.0840 C.ar  1 <1>   0.0530 
 13 C       -4.3720    -3.5410    -1.2050 C.3   1 <1>   0.3430 
 14 C       -4.3710     3.5090    -1.4320 C.3   1 <1>   0.2090 
 15 C       -5.2000     3.4490     0.9090 C.3   1 <1>   0.2090 
 16 C        1.5710     2.2700     0.8340 C.ar  1 <1>  -0.1500 
 17 C        0.5280     0.2680     1.6000 C.ar  1 <1>  -0.1500 
 18 N       -4.1690    -4.7290    -0.3320 N.4   1 <1>  -0.9590 
 19 C       -4.5120     5.0410    -1.3580 C.3   1 <1>   0.1200 
 20 C       -5.3190     4.9840     0.8250 C.3   1 <1>   0.1200 
 21 C        2.8160     1.7210     1.0800 C.ar  1 <1>  -0.1500 
 22 C        1.7700    -0.2880     1.8480 C.ar  1 <1>  -0.1500 
 23 C       -3.9240    -5.9490    -1.1550 C.3   1 <1>   0.3430 
 24 C       -5.2930    -4.9360     0.6320 C.3   1 <1>   0.3430 
 25 O       -5.5500     5.3950    -0.4910 O.3   1 <1>  -0.5600 
 26 C        2.9180     0.4390     1.5880 C.ar  1 <1>  -0.1500 
 27 C       -3.5550    -7.1210    -0.2440 C.3   1 <1>  -0.1600 
 28 C       -4.9540    -6.0880     1.5800 C.3   1 <1>  -0.1600 
 29 C       -4.6330    -7.3780     0.8160 C.3   1 <1>  -0.1600 
 30 H       -4.3480     0.9180    -0.4360 H     1 <1>   0.3700 
 31 H       -3.4470    -1.2230    -2.1170 H     1 <1>   0.0800 
 32 H       -5.1160    -0.8340    -1.7590 H     1 <1>   0.0800 
 33 H       -5.0580    -2.1310     0.2760 H     1 <1>   0.0800 
 34 H       -3.3150    -2.3100     0.1750 H     1 <1>   0.0800 
 35 H       -3.6210    -3.5410    -1.9800 H     1 <1>   0.0800 
 36 H       -5.3420    -3.5800    -1.6750 H     1 <1>   0.0800 
 37 H       -5.2420     3.1060    -1.9180 H     1 <1>   0.0800 
 38 H       -3.5160     3.2670    -2.0410 H     1 <1>   0.0800 
 39 H       -4.9020     3.1770     1.9080 H     1 <1>   0.0800 
 40 H       -6.1700     3.0190     0.7320 H     1 <1>   0.0800 
 41 H        1.5030     3.2690     0.4410 H     1 <1>   0.1500 
 42 H       -0.3550    -0.3060     1.8110 H     1 <1>   0.1500 
 43 H       -3.3170    -4.5670     0.2230 H     1 <1>   0.4500 
 44 H       -4.7440     5.4410    -2.3290 H     1 <1>   0.0800 
 45 H       -3.5980     5.4910    -1.0090 H     1 <1>   0.0800 
 46 H       -4.4200     5.4560     1.1820 H     1 <1>   0.0800 
 47 H       -6.1440     5.3240     1.4250 H     1 <1>   0.0800 
 48 H        3.7060     2.2900     0.8770 H     1 <1>   0.1500 
 49 H        1.8450    -1.2860     2.2430 H     1 <1>   0.1500 
 50 H       -3.1190    -5.7700    -1.8510 H     1 <1>   0.0800 
 51 H       -4.8110    -6.1950    -1.7170 H     1 <1>   0.0800 
 52 H       -6.1980    -5.1680     0.0940 H     1 <1>   0.0800 
 53 H       -5.4600    -4.0400     1.2090 H     1 <1>   0.0800 
 54 H        3.8850     0.0080     1.7790 H     1 <1>   0.1500 
 55 H       -2.6110    -6.9210     0.2320 H     1 <1>   0.0800 
 56 H       -3.4290    -8.0060    -0.8440 H     1 <1>   0.0800 
 57 H       -5.7900    -6.2610     2.2350 H     1 <1>   0.0800 
 58 H       -4.1170    -5.8080     2.1960 H     1 <1>   0.0800 
 59 H       -4.2980    -8.1370     1.5030 H     1 <1>   0.0800 
 60 H       -5.5270    -7.7440     0.3370 H     1 <1>   0.0800 
@<TRIPOS>BOND
  1   1   2  2   
  2   2   3  am  
  3   2   4  1   
  4   3   5  1   
  5   3  30  1   
  6   4   6  1   
  7   4   7  2   
  8   5   8  1   
  9   5  31  1   
 10   5  32  1   
 11   6   9  2   
 12   6  10  1   
 13   7  11  1   
 14   7  12  1   
 15   8  13  1   
 16   8  33  1   
 17   8  34  1   
 18   9  11  1   
 19  10  14  1   
 20  10  15  1   
 21  12  16  ar  
 22  12  17  ar  
 23  13  18  1   
 24  13  35  1   
 25  13  36  1   
 26  14  19  1   
 27  14  37  1   
 28  14  38  1   
 29  15  20  1   
 30  15  39  1   
 31  15  40  1   
 32  16  21  ar  
 33  16  41  1   
 34  17  22  ar  
 35  17  42  1   
 36  18  23  1   
 37  18  24  1   
 38  18  43  1   
 39  19  25  1   
 40  19  44  1   
 41  19  45  1   
 42  20  25  1   
 43  20  46  1   
 44  20  47  1   
 45  21  26  ar  
 46  21  48  1   
 47  22  26  ar  
 48  22  49  1   
 49  23  27  1   
 50  23  50  1   
 51  23  51  1   
 52  24  28  1   
 53  24  52  1   
 54  24  53  1   
 55  26  54  1   
 56  27  29  1   
 57  27  55  1   
 58  27  56  1   
 59  28  29  1   
 60  28  57  1   
 61  28  58  1   
 62  29  59  1   
 63  29  60  1   
@<TRIPOS>SUBSTRUCTURE
  1 ****   2 GROUP 4 **** **** 0

# MOE 2024.06 (io_trps.svl 2023.06)
