@<TRIPOS>MOLECULE
NONAME
33 34 1 0 0 
SMALL
USER_CHARGES


@<TRIPOS>ATOM
  1 CL      -0.2070    -0.1960     1.2690 Cl    1 <1>  -0.1770 
  2 C        1.2590    -1.0060     0.7810 C.ar  1 <1>   0.1770 
  3 C        1.3140    -2.3840     0.8180 C.ar  1 <1>  -0.1500 
  4 C        2.3390    -0.2490     0.3650 C.ar  1 <1>  -0.1500 
  5 C        2.4690    -3.0610     0.4200 C.ar  1 <1>   0.0860 
  6 C        3.5020    -0.8950    -0.0090 C.ar  1 <1>  -0.1500 
  7 C        3.5660    -2.2790     0.0320 C.ar  1 <1>   0.0830 
  8 C        2.5430    -4.5090     0.4090 C.2   1 <1>   0.5440 
  9 O        4.7260    -2.8690    -0.2940 O.3   1 <1>  -0.5320 
 10 O        3.5620    -5.0540     0.8050 O.2   1 <1>  -0.5700 
 11 N        1.5220    -5.3000    -0.0630 N.am  1 <1>  -0.6600 
 12 C        1.4680    -6.7660     0.2690 C.3   1 <1>   0.1400 
 13 C        0.4860    -4.8550    -1.0370 C.3   1 <1>   0.1400 
 14 C        0.0490    -7.3660     0.1620 C.3   1 <1>   0.2000 
 15 C       -0.9240    -5.0810    -0.4680 C.3   1 <1>  -0.1600 
 16 O       -0.1670    -7.8420    -1.1220 O.3   1 <1>  -0.6800 
 17 C       -1.0260    -6.3150     0.4680 C.3   1 <1>  -0.1860 
 18 C       -2.4010    -6.9480     0.4470 C.2   1 <1>   0.9060 
 19 O       -3.1320    -6.8120     1.4310 O.co2 1 <1>  -0.9000 
 20 O       -2.7360    -7.5950    -0.5550 O.co2 1 <1>  -0.9000 
 21 H        0.4590    -2.9410     1.1580 H     1 <1>   0.1500 
 22 H        2.2690     0.8240     0.3420 H     1 <1>   0.1500 
 23 H        4.3650    -0.3370    -0.3270 H     1 <1>   0.1500 
 24 H        4.7160    -3.8300    -0.0580 H     1 <1>   0.4500 
 25 H        2.1410    -7.3100    -0.3700 H     1 <1>   0.0800 
 26 H        1.8050    -6.8880     1.2830 H     1 <1>   0.0800 
 27 H        0.6190    -3.8260    -1.3180 H     1 <1>   0.0800 
 28 H        0.5960    -5.4490    -1.9300 H     1 <1>   0.0800 
 29 H       -0.0490    -8.2060     0.8280 H     1 <1>   0.0800 
 30 H       -1.2570    -4.2090     0.0640 H     1 <1>   0.0800 
 31 H       -1.5940    -5.2130    -1.3000 H     1 <1>   0.0800 
 32 H       -1.1640    -7.9270    -1.2060 H     1 <1>   0.4000 
 33 H       -0.8580    -5.9790     1.4740 H     1 <1>   0.0800 
@<TRIPOS>BOND
  1   1   2  1   
  2   2   3  ar  
  3   2   4  ar  
  4   3   5  ar  
  5   3  21  1   
  6   4   6  ar  
  7   4  22  1   
  8   5   7  ar  
  9   5   8  1   
 10   6   7  ar  
 11   6  23  1   
 12   7   9  1   
 13   8  10  2   
 14   8  11  am  
 15   9  24  1   
 16  11  12  1   
 17  11  13  1   
 18  12  14  1   
 19  12  25  1   
 20  12  26  1   
 21  13  15  1   
 22  13  27  1   
 23  13  28  1   
 24  14  16  1   
 25  14  17  1   
 26  14  29  1   
 27  15  17  1   
 28  15  30  1   
 29  15  31  1   
 30  16  32  1   
 31  17  18  1   
 32  17  33  1   
 33  18  19  ar  
 34  18  20  ar  
@<TRIPOS>SUBSTRUCTURE
  1 ****  11 GROUP 4 **** **** 0

# MOE 2024.06 (io_trps.svl 2023.06)
