@<TRIPOS>MOLECULE
NONAME
34 36 1 0 0 
SMALL
USER_CHARGES


@<TRIPOS>ATOM
  1 S        0.1240    -0.8340    -1.5300 S.3   1 <1>  -0.0800 
  2 C        0.3960     0.5200    -0.5000 C.2   1 <1>   0.4340 
  3 C       -0.9670    -1.4110    -0.3080 C.2   1 <1>   0.4420 
  4 S        1.5420     1.7560    -1.0910 S.3   1 <1>  -0.2860 
  5 N       -0.2590     0.4980     0.5890 N.2   1 <1>  -0.3380 
  6 N       -1.0460    -0.6170     0.7010 N.2   1 <1>  -0.3380 
  7 N       -1.5920    -2.6110    -0.5660 N.am  1 <1>  -0.4940 
  8 C        1.5950     2.9950     0.2740 C.3   1 <1>   0.1500 
  9 C       -2.4900    -3.3190     0.1910 C.2   1 <1>   0.7150 
 10 C        2.0510     4.3210    -0.3330 C.3   1 <1>  -0.2400 
 11 C        2.5650     2.4810     1.3380 C.3   1 <1>  -0.2400 
 12 O       -2.8500    -2.9060     1.2740 O.2   1 <1>  -0.5700 
 13 C       -3.0030    -4.5640    -0.3160 C.2   1 <1>   0.0550 
 14 O       -2.6050    -5.0070    -1.5020 O.3   1 <1>  -0.0190 
 15 C       -3.8780    -5.4340     0.2280 C.2   1 <1>  -0.1500 
 16 N       -3.2170    -6.1470    -1.7160 N.2   1 <1>  -0.4100 
 17 C       -3.9710    -6.4250    -0.7160 C.2   1 <1>   0.2030 
 18 C       -4.8350    -7.6690    -0.6100 C.3   1 <1>  -0.0140 
 19 C       -4.9020    -8.4500     0.6680 C.3   1 <1>  -0.2000 
 20 C       -4.1870    -9.0170    -0.5180 C.3   1 <1>  -0.2000 
 21 H       -1.3570    -3.0470    -1.4540 H     1 <1>   0.3700 
 22 H        0.5960     3.0810     0.6690 H     1 <1>   0.0800 
 23 H        3.0280     4.2170    -0.7710 H     1 <1>   0.0800 
 24 H        2.0910     5.0800     0.4270 H     1 <1>   0.0800 
 25 H        1.3590     4.6340    -1.0940 H     1 <1>   0.0800 
 26 H        3.5450     2.3410     0.9180 H     1 <1>   0.0800 
 27 H        2.2170     1.5450     1.7360 H     1 <1>   0.0800 
 28 H        2.6330     3.1870     2.1460 H     1 <1>   0.0800 
 29 H       -4.3900    -5.3810     1.1720 H     1 <1>   0.1500 
 30 H       -5.7290    -7.5940    -1.2040 H     1 <1>   0.1000 
 31 H       -5.8430    -8.8820     0.9600 H     1 <1>   0.1000 
 32 H       -4.3140    -8.1340     1.5120 H     1 <1>   0.1000 
 33 H       -3.1110    -9.0640    -0.5090 H     1 <1>   0.1000 
 34 H       -4.6310    -9.8350    -1.0570 H     1 <1>   0.1000 
@<TRIPOS>BOND
  1   1   2  1   
  2   1   3  1   
  3   2   4  1   
  4   2   5  2   
  5   3   6  2   
  6   3   7  1   
  7   4   8  1   
  8   5   6  1   
  9   7   9  am  
 10   7  21  1   
 11   8  10  1   
 12   8  11  1   
 13   8  22  1   
 14   9  12  2   
 15   9  13  1   
 16  10  23  1   
 17  10  24  1   
 18  10  25  1   
 19  11  26  1   
 20  11  27  1   
 21  11  28  1   
 22  13  14  1   
 23  13  15  2   
 24  14  16  1   
 25  15  17  1   
 26  15  29  1   
 27  16  17  2   
 28  17  18  1   
 29  18  19  1   
 30  18  20  1   
 31  18  30  1   
 32  19  20  1   
 33  19  31  1   
 34  19  32  1   
 35  20  33  1   
 36  20  34  1   
@<TRIPOS>SUBSTRUCTURE
  1 ****   7 GROUP 4 **** **** 0

# MOE 2024.06 (io_trps.svl 2023.06)
