@<TRIPOS>MOLECULE
NONAME
33 33 1 0 0 
SMALL
USER_CHARGES


@<TRIPOS>ATOM
  1 O        0.8940    -0.4300     1.4440 O.2   1 <1>  -0.5700 
  2 C        1.7220     0.0980     0.7400 C.2   1 <1>   0.6590 
  3 O        1.3700     0.7680    -0.3550 O.3   1 <1>  -0.4300 
  4 C        3.2430     0.0580     1.0790 C.3   1 <1>   0.3310 
  5 C        0.0250     0.8560    -0.7620 C.3   1 <1>   0.1200 
  6 N        3.5630    -0.8560     2.1840 N.3   1 <1>  -0.9900 
  7 C        4.0680    -0.3810    -0.1490 C.3   1 <1>  -0.0160 
  8 C        3.7100     1.4390     1.5510 C.3   1 <1>  -0.2400 
  9 C       -0.0190     1.6170    -2.0830 C.3   1 <1>  -0.2400 
 10 C        3.6960    -1.7680    -0.6650 C.ar  1 <1>  -0.1440 
 11 C        2.7540    -1.9150    -1.6740 C.ar  1 <1>  -0.1500 
 12 C        4.3030    -2.8960    -0.1310 C.ar  1 <1>  -0.1500 
 13 C        2.4150    -3.1740    -2.1360 C.ar  1 <1>  -0.1500 
 14 C        3.9680    -4.1580    -0.5890 C.ar  1 <1>  -0.1500 
 15 C        3.0210    -4.2920    -1.5910 C.ar  1 <1>   0.0820 
 16 O        2.6830    -5.5070    -2.0450 O.3   1 <1>  -0.5330 
 17 H       -0.3630    -0.1430    -0.8780 H     1 <1>   0.0800 
 18 H       -0.5300     1.3720     0.0040 H     1 <1>   0.0800 
 19 H        3.3350    -1.7990     1.8440 H     1 <1>   0.3600 
 20 H        2.8720    -0.6740     2.9220 H     1 <1>   0.3600 
 21 H        3.9340     0.3340    -0.9420 H     1 <1>   0.0800 
 22 H        5.1130    -0.3670     0.1060 H     1 <1>   0.0800 
 23 H        3.5610     2.1690     0.7760 H     1 <1>   0.0800 
 24 H        4.7560     1.4170     1.8050 H     1 <1>   0.0800 
 25 H        3.1470     1.7450     2.4150 H     1 <1>   0.0800 
 26 H        0.5450     1.0920    -2.8330 H     1 <1>   0.0800 
 27 H        0.3820     2.6060    -1.9550 H     1 <1>   0.0800 
 28 H       -1.0370     1.7010    -2.4180 H     1 <1>   0.0800 
 29 H        2.2790    -1.0520    -2.1080 H     1 <1>   0.1500 
 30 H        5.0410    -2.7920     0.6470 H     1 <1>   0.1500 
 31 H        1.6840    -3.2970    -2.9150 H     1 <1>   0.1500 
 32 H        4.4430    -5.0240    -0.1660 H     1 <1>   0.1500 
 33 H        3.1610    -6.2260    -1.5960 H     1 <1>   0.4500 
@<TRIPOS>BOND
  1   1   2  2   
  2   2   3  1   
  3   2   4  1   
  4   3   5  1   
  5   4   6  1   
  6   4   7  1   
  7   4   8  1   
  8   5   9  1   
  9   5  17  1   
 10   5  18  1   
 11   6  19  1   
 12   6  20  1   
 13   7  10  1   
 14   7  21  1   
 15   7  22  1   
 16   8  23  1   
 17   8  24  1   
 18   8  25  1   
 19   9  26  1   
 20   9  27  1   
 21   9  28  1   
 22  10  11  ar  
 23  10  12  ar  
 24  11  13  ar  
 25  11  29  1   
 26  12  14  ar  
 27  12  30  1   
 28  13  15  ar  
 29  13  31  1   
 30  14  15  ar  
 31  14  32  1   
 32  15  16  1   
 33  16  33  1   
@<TRIPOS>SUBSTRUCTURE
  1 ****  10 GROUP 4 **** **** 0

# MOE 2024.06 (io_trps.svl 2023.06)
