@<TRIPOS>MOLECULE
NONAME
55 56 1 0 0 
SMALL
USER_CHARGES


@<TRIPOS>ATOM
  1 O        3.1260    -1.3780    -1.5060 O.2   1 <1>  -0.5700 
  2 C        2.1380    -1.5290    -0.8030 C.2   1 <1>   0.5440 
  3 N        1.2600    -0.4560    -0.6930 N.am  1 <1>  -0.6600 
  4 C        1.9610    -2.8080    -0.1020 C.ar  1 <1>   0.3960 
  5 C        1.3560     0.7360    -1.5820 C.3   1 <1>   0.0600 
  6 C        0.1670    -0.3900     0.3140 C.3   1 <1>   0.0600 
  7 N        0.7340    -3.3370     0.0510 N.ar  1 <1>  -0.6200 
  8 C        3.0960    -3.4570     0.3860 C.ar  1 <1>  -0.1500 
  9 C        0.6410    -4.4960     0.6810 C.ar  1 <1>   0.4100 
 10 C        3.0000    -4.6600     1.0510 C.ar  1 <1>  -0.1500 
 11 N       -0.6180    -5.0450     0.8170 N.pl3 1 <1>  -0.8380 
 12 C        1.7380    -5.1780     1.1960 C.ar  1 <1>  -0.1500 
 13 C       -1.8010    -4.1310     0.8460 C.3   1 <1>   0.2090 
 14 C       -0.9070    -6.2650     0.0060 C.3   1 <1>   0.2090 
 15 C       -3.0790    -4.8920     1.2620 C.3   1 <1>   0.2000 
 16 C       -2.2380    -6.9300     0.4320 C.3   1 <1>   0.2000 
 17 O       -3.2810    -5.9960     0.4160 O.3   1 <1>  -0.5600 
 18 C       -4.3480    -4.0060     1.2590 C.3   1 <1>  -0.0800 
 19 C       -2.6630    -8.0780    -0.4930 C.3   1 <1>  -0.1600 
 20 C       -5.5440    -4.7630     1.8560 C.3   1 <1>  -0.2400 
 21 C       -4.7240    -3.4770    -0.1360 C.3   1 <1>  -0.2400 
 22 C       -1.6850    -9.2650    -0.4750 C.3   1 <1>  -0.1600 
 23 C       -2.2060   -10.4180    -1.3390 C.3   1 <1>  -0.1600 
 24 C       -1.2360   -11.6030    -1.3230 C.3   1 <1>  -0.2400 
 25 H        0.3820     0.9850    -1.9650 H     1 <1>   0.0800 
 26 H        2.0080     0.5420    -2.4160 H     1 <1>   0.0800 
 27 H        1.7450     1.5710    -1.0260 H     1 <1>   0.0800 
 28 H        0.0010     0.6300     0.6150 H     1 <1>   0.0800 
 29 H        0.4250    -0.9630     1.1870 H     1 <1>   0.0800 
 30 H       -0.7380    -0.7870    -0.1130 H     1 <1>   0.0800 
 31 H        4.0600    -3.0050     0.2350 H     1 <1>   0.1500 
 32 H        3.8700    -5.1650     1.4340 H     1 <1>   0.1500 
 33 H        1.5780    -6.1070     1.7080 H     1 <1>   0.1500 
 34 H       -1.6150    -3.3340     1.5430 H     1 <1>   0.0800 
 35 H       -1.9340    -3.7000    -0.1300 H     1 <1>   0.0800 
 36 H       -0.9630    -5.9930    -1.0340 H     1 <1>   0.0800 
 37 H       -0.1020    -6.9680     0.1220 H     1 <1>   0.0800 
 38 H       -2.9320    -5.2690     2.2590 H     1 <1>   0.0800 
 39 H       -2.1440    -7.3010     1.4380 H     1 <1>   0.0800 
 40 H       -4.1540    -3.1580     1.8950 H     1 <1>   0.0800 
 41 H       -3.6310    -8.4220    -0.1730 H     1 <1>   0.0800 
 42 H       -2.7570    -7.7040    -1.4980 H     1 <1>   0.0800 
 43 H       -5.7920    -5.6140     1.2440 H     1 <1>   0.0800 
 44 H       -6.4050    -4.1220     1.9170 H     1 <1>   0.0800 
 45 H       -5.3100    -5.1130     2.8460 H     1 <1>   0.0800 
 46 H       -4.8880    -4.2950    -0.8150 H     1 <1>   0.0800 
 47 H       -3.9490    -2.8500    -0.5370 H     1 <1>   0.0800 
 48 H       -5.6270    -2.8940    -0.0830 H     1 <1>   0.0800 
 49 H       -0.7240    -8.9570    -0.8490 H     1 <1>   0.0800 
 50 H       -1.5590    -9.6090     0.5380 H     1 <1>   0.0800 
 51 H       -3.1650   -10.7420    -0.9710 H     1 <1>   0.0800 
 52 H       -2.3360   -10.0810    -2.3540 H     1 <1>   0.0800 
 53 H       -1.1080   -11.9710    -0.3200 H     1 <1>   0.0800 
 54 H       -0.2770   -11.3100    -1.7100 H     1 <1>   0.0800 
 55 H       -1.6210   -12.4020    -1.9320 H     1 <1>   0.0800 
@<TRIPOS>BOND
  1   1   2  2   
  2   2   3  am  
  3   2   4  1   
  4   3   5  1   
  5   3   6  1   
  6   4   7  ar  
  7   4   8  ar  
  8   5  25  1   
  9   5  26  1   
 10   5  27  1   
 11   6  28  1   
 12   6  29  1   
 13   6  30  1   
 14   7   9  ar  
 15   8  10  ar  
 16   8  31  1   
 17   9  11  1   
 18   9  12  ar  
 19  10  12  ar  
 20  10  32  1   
 21  11  13  1   
 22  11  14  1   
 23  12  33  1   
 24  13  15  1   
 25  13  34  1   
 26  13  35  1   
 27  14  16  1   
 28  14  36  1   
 29  14  37  1   
 30  15  17  1   
 31  15  18  1   
 32  15  38  1   
 33  16  17  1   
 34  16  19  1   
 35  16  39  1   
 36  18  20  1   
 37  18  21  1   
 38  18  40  1   
 39  19  22  1   
 40  19  41  1   
 41  19  42  1   
 42  20  43  1   
 43  20  44  1   
 44  20  45  1   
 45  21  46  1   
 46  21  47  1   
 47  21  48  1   
 48  22  23  1   
 49  22  49  1   
 50  22  50  1   
 51  23  24  1   
 52  23  51  1   
 53  23  52  1   
 54  24  53  1   
 55  24  54  1   
 56  24  55  1   
@<TRIPOS>SUBSTRUCTURE
  1 ****  11 GROUP 4 **** **** 0

# MOE 2024.06 (io_trps.svl 2023.06)
