@<TRIPOS>MOLECULE
NONAME
50 52 1 0 0 
SMALL
USER_CHARGES


@<TRIPOS>ATOM
  1 F       -1.9260     0.2060    -1.7520 F     1 <1>  -0.1900 
  2 C       -2.3890     0.8000    -0.6790 C.ar  1 <1>   0.1900 
  3 C       -2.2060     2.1620    -0.5090 C.ar  1 <1>   0.1900 
  4 C       -3.0740     0.0440     0.2610 C.ar  1 <1>  -0.1440 
  5 F       -1.5700     2.8580    -1.4140 F     1 <1>  -0.1900 
  6 C       -2.6960     2.8070     0.6100 C.ar  1 <1>  -0.1500 
  7 C       -3.5620     0.6940     1.3910 C.ar  1 <1>  -0.1500 
  8 C       -3.2680    -1.4470     0.0640 C.3   1 <1>   0.4870 
  9 C       -3.3760     2.0600     1.5620 C.ar  1 <1>  -0.1500 
 10 N       -4.0110    -1.7410    -1.2040 N.4   1 <1>  -0.9590 
 11 C       -5.4700    -1.4160    -1.2790 C.3   1 <1>   0.4230 
 12 C       -3.7920    -3.1710    -1.5830 C.3   1 <1>   0.2630 
 13 C       -5.7650     0.0340    -1.6530 C.3   1 <1>  -0.1600 
 14 C       -6.2790    -1.6490    -0.0010 C.3   1 <1>  -0.1600 
 15 C       -7.2390     0.2310    -1.2660 C.3   1 <1>  -0.0800 
 16 C       -7.5700    -0.8460    -0.2280 C.3   1 <1>  -0.0800 
 17 C       -7.5760     1.5740    -0.5990 C.3   1 <1>  -0.1600 
 18 C       -8.1120    -0.0940     1.0000 C.3   1 <1>  -0.1600 
 19 C       -8.6250     1.2530     0.4730 C.3   1 <1>   0.4230 
 20 N       -9.9910     1.1130    -0.1300 N.4   1 <1>  -0.9590 
 21 C      -10.4710     2.3810    -0.7730 C.3   1 <1>   0.2630 
 22 C      -11.0220     0.6860     0.8720 C.3   1 <1>   0.2630 
 23 H       -2.5440     3.8650     0.7330 H     1 <1>   0.1500 
 24 H       -4.0850     0.1460     2.1590 H     1 <1>   0.1500 
 25 H       -3.7840    -1.8710     0.9090 H     1 <1>   0.0800 
 26 H       -2.2910    -1.9020     0.0180 H     1 <1>   0.0800 
 27 H       -3.7530     2.5500     2.4460 H     1 <1>   0.1500 
 28 H       -3.5450    -1.1630    -1.9220 H     1 <1>   0.4500 
 29 H       -5.9140    -2.0220    -2.0530 H     1 <1>   0.0800 
 30 H       -4.2480    -3.8260    -0.8580 H     1 <1>   0.0800 
 31 H       -2.7370    -3.3890    -1.6320 H     1 <1>   0.0800 
 32 H       -4.2250    -3.3730    -2.5500 H     1 <1>   0.0800 
 33 H       -5.1520     0.7120    -1.0940 H     1 <1>   0.0800 
 34 H       -5.6160     0.2070    -2.7040 H     1 <1>   0.0800 
 35 H       -6.4920    -2.6930     0.1470 H     1 <1>   0.0800 
 36 H       -5.7660    -1.2600     0.8560 H     1 <1>   0.0800 
 37 H       -7.8640     0.0840    -2.1330 H     1 <1>   0.0800 
 38 H       -8.3340    -1.4930    -0.6300 H     1 <1>   0.0800 
 39 H       -7.8720     2.3220    -1.3110 H     1 <1>   0.0800 
 40 H       -6.7080     1.9520    -0.0870 H     1 <1>   0.0800 
 41 H       -7.3060     0.1220     1.6790 H     1 <1>   0.0800 
 42 H       -8.8380    -0.6690     1.5440 H     1 <1>   0.0800 
 43 H       -8.6350     2.0020     1.2500 H     1 <1>   0.0800 
 44 H       -9.9270     0.3880    -0.8580 H     1 <1>   0.4500 
 45 H      -10.4780     3.1860    -0.0550 H     1 <1>   0.0800 
 46 H      -11.4720     2.2510    -1.1520 H     1 <1>   0.0800 
 47 H       -9.8360     2.6590    -1.5970 H     1 <1>   0.0800 
 48 H      -11.0640     1.3860     1.6900 H     1 <1>   0.0800 
 49 H      -10.7960    -0.2910     1.2640 H     1 <1>   0.0800 
 50 H      -11.9950     0.6420     0.4090 H     1 <1>   0.0800 
@<TRIPOS>BOND
  1   1   2  1   
  2   2   3  ar  
  3   2   4  ar  
  4   3   5  1   
  5   3   6  ar  
  6   4   7  ar  
  7   4   8  1   
  8   6   9  ar  
  9   6  23  1   
 10   7   9  ar  
 11   7  24  1   
 12   8  10  1   
 13   8  25  1   
 14   8  26  1   
 15   9  27  1   
 16  10  11  1   
 17  10  12  1   
 18  10  28  1   
 19  11  13  1   
 20  11  14  1   
 21  11  29  1   
 22  12  30  1   
 23  12  31  1   
 24  12  32  1   
 25  13  15  1   
 26  13  33  1   
 27  13  34  1   
 28  14  16  1   
 29  14  35  1   
 30  14  36  1   
 31  15  16  1   
 32  15  17  1   
 33  15  37  1   
 34  16  18  1   
 35  16  38  1   
 36  17  19  1   
 37  17  39  1   
 38  17  40  1   
 39  18  19  1   
 40  18  41  1   
 41  18  42  1   
 42  19  20  1   
 43  19  43  1   
 44  20  21  1   
 45  20  22  1   
 46  20  44  1   
 47  21  45  1   
 48  21  46  1   
 49  21  47  1   
 50  22  48  1   
 51  22  49  1   
 52  22  50  1   
@<TRIPOS>SUBSTRUCTURE
  1 ****  13 GROUP 4 **** **** 0

# MOE 2024.06 (io_trps.svl 2023.06)
