@<TRIPOS>MOLECULE
NONAME
48 49 1 0 0 
SMALL
USER_CHARGES


@<TRIPOS>ATOM
  1 S        0.3660     0.3710    -0.2130 S.o2  1 <1>   1.3330 
  2 O        0.3860    -0.9050    -0.8940 O.2   1 <1>  -0.6500 
  3 O       -0.8600     1.1340    -0.1620 O.2   1 <1>  -0.6500 
  4 N        0.8480     0.1040     1.3960 N.am  1 <1>  -0.8490 
  5 C        1.6810     1.3880    -0.8870 C.3   1 <1>  -0.0550 
  6 C        0.2290    -1.0990     1.9580 C.3   1 <1>   0.1160 
  7 C        0.5880     1.2520     2.2730 C.3   1 <1>   0.1160 
  8 C        2.9960     0.6270    -1.1660 C.3   1 <1>  -0.0800 
  9 C        4.1170     1.4690    -1.7600 C.3   1 <1>   0.2200 
 10 C        3.6670     0.0070     0.0640 C.3   1 <1>   0.1200 
 11 N        4.2380     2.7520    -1.0360 N.am  1 <1>  -0.7300 
 12 C        5.3210     0.6040    -1.4160 C.3   1 <1>   0.1200 
 13 O        5.0480     0.0680    -0.1540 O.3   1 <1>  -0.5600 
 14 C        3.6210     3.9240    -1.3570 C.2   1 <1>   0.5440 
 15 O        3.0680     3.9930    -2.4380 O.2   1 <1>  -0.5700 
 16 C        3.6110     5.0450    -0.4340 C.ar  1 <1>   0.0860 
 17 C        3.6190     4.8970     0.9650 C.ar  1 <1>   0.0820 
 18 C        3.5920     6.3440    -0.9460 C.ar  1 <1>  -0.1500 
 19 O        3.6080     3.6440     1.4930 O.3   1 <1>  -0.3630 
 20 C        3.6280     6.0230     1.7860 C.ar  1 <1>  -0.1500 
 21 C        3.5970     7.4600    -0.1300 C.ar  1 <1>  -0.1440 
 22 C        3.8380     3.3850     2.8620 C.3   1 <1>   0.0400 
 23 C        3.6180     7.2920     1.2430 C.ar  1 <1>  -0.1500 
 24 C        3.5790     8.8590    -0.7190 C.3   1 <1>  -0.0970 
 25 H        1.3430     1.8110    -1.8130 H     1 <1>   0.0800 
 26 H        1.8620     2.2020    -0.2160 H     1 <1>   0.0800 
 27 H        0.5600    -1.2520     2.9710 H     1 <1>   0.0800 
 28 H        0.5090    -1.9630     1.3790 H     1 <1>   0.0800 
 29 H       -0.8450    -1.0090     1.9440 H     1 <1>   0.0800 
 30 H        0.9790     1.0600     3.2570 H     1 <1>   0.0800 
 31 H       -0.4710     1.4380     2.3470 H     1 <1>   0.0800 
 32 H        1.0660     2.1350     1.8850 H     1 <1>   0.0800 
 33 H        2.7820    -0.1730    -1.8540 H     1 <1>   0.0800 
 34 H        4.0100     1.6350    -2.8190 H     1 <1>   0.0800 
 35 H        3.3750    -1.0190     0.2090 H     1 <1>   0.0800 
 36 H        3.4590     0.5750     0.9550 H     1 <1>   0.0800 
 37 H        4.5740     2.6530    -0.0720 H     1 <1>   0.3700 
 38 H        6.2400     1.1630    -1.3840 H     1 <1>   0.0800 
 39 H        5.4120    -0.2150    -2.1090 H     1 <1>   0.0800 
 40 H        3.5730     6.4690    -2.0150 H     1 <1>   0.1500 
 41 H        3.6360     5.9350     2.8560 H     1 <1>   0.1500 
 42 H        3.8770     2.3190     2.9990 H     1 <1>   0.0800 
 43 H        3.0290     3.7980     3.4380 H     1 <1>   0.0800 
 44 H        4.7780     3.8240     3.1480 H     1 <1>   0.0800 
 45 H        3.6240     8.1520     1.8900 H     1 <1>   0.1500 
 46 H        2.6890     9.3750    -0.4080 H     1 <1>   0.0800 
 47 H        3.5960     8.8240    -1.7940 H     1 <1>   0.0800 
 48 H        4.4380     9.4110    -0.3820 H     1 <1>   0.0800 
@<TRIPOS>BOND
  1   1   2  2   
  2   1   3  2   
  3   1   4  am  
  4   1   5  1   
  5   4   6  1   
  6   4   7  1   
  7   5   8  1   
  8   5  25  1   
  9   5  26  1   
 10   6  27  1   
 11   6  28  1   
 12   6  29  1   
 13   7  30  1   
 14   7  31  1   
 15   7  32  1   
 16   8   9  1   
 17   8  10  1   
 18   8  33  1   
 19   9  11  1   
 20   9  12  1   
 21   9  34  1   
 22  10  13  1   
 23  10  35  1   
 24  10  36  1   
 25  11  14  am  
 26  11  37  1   
 27  12  13  1   
 28  12  38  1   
 29  12  39  1   
 30  14  15  2   
 31  14  16  1   
 32  16  17  ar  
 33  16  18  ar  
 34  17  19  1   
 35  17  20  ar  
 36  18  21  ar  
 37  18  40  1   
 38  19  22  1   
 39  20  23  ar  
 40  20  41  1   
 41  21  23  ar  
 42  21  24  1   
 43  22  42  1   
 44  22  43  1   
 45  22  44  1   
 46  23  45  1   
 47  24  46  1   
 48  24  47  1   
 49  24  48  1   
@<TRIPOS>SUBSTRUCTURE
  1 ****  11 GROUP 4 **** **** 0

# MOE 2024.06 (io_trps.svl 2023.06)
