@<TRIPOS>MOLECULE
Untitled Document
55 59 1 0 0 
SMALL
USER_CHARGES


@<TRIPOS>ATOM
  1 O       -0.5960    -0.3370     1.0390 O.2   1 <1>  -0.5700 
  2 C       -0.8540    -1.4840     0.6990 C.2   1 <1>   0.6160 
  3 N       -2.1570    -1.8380     0.4720 N.am  1 <1>  -0.4690 
  4 C        0.1340    -2.4980     0.5310 C.2   1 <1>  -0.1240 
  5 C       -2.5290    -3.1090     0.1130 C.2   1 <1>   0.0810 
  6 C       -3.3250    -0.9440     0.5750 C.3   1 <1>   0.2840 
  7 C       -0.2010    -3.7790     0.1790 C.2   1 <1>  -0.1380 
  8 C        1.5860    -2.1150     0.7770 C.3   1 <1>   0.2580 
  9 C       -3.9540    -3.1460    -0.0410 C.ar  1 <1>   0.3380 
 10 C       -1.5780    -4.0780    -0.0360 C.2   1 <1>  -0.1500 
 11 C       -4.4740    -1.8830     0.2300 C.ar  1 <1>  -0.1440 
 12 C        0.9410    -4.8060     0.0680 C.3   1 <1>   0.4790 
 13 O        2.4280    -2.8160    -0.1140 O.3   1 <1>  -0.4300 
 14 N       -4.6670    -4.1790    -0.3850 N.ar  1 <1>  -0.6200 
 15 C       -5.8180    -1.6180     0.1500 C.ar  1 <1>   0.0860 
 16 O        1.1900    -5.1910     1.3860 O.3   1 <1>  -0.6800 
 17 C        2.1820    -4.0600    -0.5270 C.2   1 <1>   0.6590 
 18 C        0.5580    -6.1010    -0.7020 C.3   1 <1>  -0.1600 
 19 C       -6.0030    -3.9790    -0.4590 C.ar  1 <1>   0.3100 
 20 C       -6.6370    -2.7370    -0.1860 C.ar  1 <1>   0.0000 
 21 C       -6.3000    -0.2800     0.3920 C.2   1 <1>   0.3040 
 22 O        2.8960    -4.5320    -1.3770 O.2   1 <1>  -0.5700 
 23 C        1.5830    -7.2540    -0.6530 C.3   1 <1>  -0.2400 
 24 C       -6.7920    -5.0850    -0.8170 C.ar  1 <1>  -0.1500 
 25 C       -8.0490    -2.7050    -0.2450 C.ar  1 <1>  -0.1500 
 26 N       -7.3010     0.3010    -0.1390 N.2   1 <1>  -0.5130 
 27 C       -8.1550    -5.0090    -0.8850 C.ar  1 <1>  -0.1500 
 28 C       -8.7900    -3.8040    -0.5880 C.ar  1 <1>  -0.1500 
 29 O       -7.5080     1.5290     0.2400 O.3   1 <1>  -0.2170 
 30 C       -8.5940     2.1740    -0.3620 C.3   1 <1>   0.1200 
 31 C       -8.6270     3.6080     0.1660 C.3   1 <1>   0.3430 
 32 N       -9.7580     4.3870    -0.4190 N.4   1 <1>  -0.8530 
 33 H       -3.4060    -0.5600     1.5770 H     1 <1>   0.0800 
 34 H       -3.2370    -0.1400    -0.1350 H     1 <1>   0.0800 
 35 H        1.8790    -2.3610     1.7830 H     1 <1>   0.0800 
 36 H        1.7510    -1.0640     0.6090 H     1 <1>   0.0800 
 37 H       -1.9040    -5.0610    -0.3200 H     1 <1>   0.1500 
 38 H        0.4030    -5.6480     1.7330 H     1 <1>   0.4000 
 39 H       -0.3580    -6.4960    -0.3100 H     1 <1>   0.0800 
 40 H        0.3830    -5.8410    -1.7320 H     1 <1>   0.0800 
 41 H       -5.7040     0.2790     1.0930 H     1 <1>   0.0600 
 42 H        1.7780    -7.5540     0.3620 H     1 <1>   0.0800 
 43 H        2.5150    -6.9740    -1.1090 H     1 <1>   0.0800 
 44 H        1.1990    -8.1050    -1.1870 H     1 <1>   0.0800 
 45 H       -6.2850    -6.0070    -1.0350 H     1 <1>   0.1500 
 46 H       -8.5740    -1.7980    -0.0120 H     1 <1>   0.1500 
 47 H       -8.7470    -5.8660    -1.1590 H     1 <1>   0.1500 
 48 H       -9.8650    -3.7540    -0.6320 H     1 <1>   0.1500 
 49 H       -8.4400     2.1460    -1.4260 H     1 <1>   0.0800 
 50 H       -9.4830     1.6300    -0.0950 H     1 <1>   0.0800 
 51 H       -7.6920     4.0870    -0.0790 H     1 <1>   0.0800 
 52 H       -8.7240     3.5780     1.2400 H     1 <1>   0.0800 
 53 H       -9.6830     4.4440    -1.4420 H     1 <1>   0.4500 
 54 H       -9.7640     5.3480    -0.0540 H     1 <1>   0.4500 
 55 H      -10.6640     3.9620    -0.1870 H     1 <1>   0.4500 
@<TRIPOS>BOND
  1   1   2  2   
  2   2   3  am  
  3   2   4  1   
  4   3   5  1   
  5   3   6  1   
  6   4   7  2   
  7   4   8  1   
  8   5   9  1   
  9   5  10  2   
 10   6  11  1   
 11   6  33  1   
 12   6  34  1   
 13   7  10  1   
 14   7  12  1   
 15   8  13  1   
 16   8  35  1   
 17   8  36  1   
 18   9  11  ar  
 19   9  14  ar  
 20  10  37  1   
 21  11  15  ar  
 22  12  16  1   
 23  12  17  1   
 24  12  18  1   
 25  13  17  1   
 26  14  19  ar  
 27  15  20  ar  
 28  15  21  1   
 29  16  38  1   
 30  17  22  2   
 31  18  23  1   
 32  18  39  1   
 33  18  40  1   
 34  19  20  ar  
 35  19  24  ar  
 36  20  25  ar  
 37  21  26  2   
 38  21  41  1   
 39  23  42  1   
 40  23  43  1   
 41  23  44  1   
 42  24  27  ar  
 43  24  45  1   
 44  25  28  ar  
 45  25  46  1   
 46  26  29  1   
 47  27  28  ar  
 48  27  47  1   
 49  28  48  1   
 50  29  30  1   
 51  30  31  1   
 52  30  49  1   
 53  30  50  1   
 54  31  32  1   
 55  31  51  1   
 56  31  52  1   
 57  32  53  1   
 58  32  54  1   
 59  32  55  1   
@<TRIPOS>SUBSTRUCTURE
  1 ****   9 GROUP 4 **** **** 0

# MOE 2024.06 (io_trps.svl 2023.06)
