@<TRIPOS>MOLECULE
NONAME
45 47 1 0 0 
SMALL
USER_CHARGES


@<TRIPOS>ATOM
  1 CL      -0.8970     0.1470    -1.1880 Cl    1 <1>  -0.1240 
  2 C       -1.7100    -1.3860    -1.0430 C.2   1 <1>   0.1640 
  3 S       -0.8690    -2.6410    -0.1590 S.3   1 <1>  -0.0800 
  4 C       -2.9030    -1.8060    -1.4970 C.2   1 <1>  -0.1500 
  5 C       -2.2020    -3.7600    -0.4250 C.2   1 <1>  -0.1400 
  6 C       -3.1830    -3.1660    -1.1430 C.2   1 <1>  -0.1500 
  7 C       -2.0030    -5.1380     0.1770 C.3   1 <1>   0.5230 
  8 N       -3.3030    -5.8660     0.2470 N.4   1 <1>  -0.9590 
  9 C       -3.1460    -7.3470     0.4420 C.3   1 <1>   0.3430 
 10 C       -4.2460    -5.2160     1.2080 C.3   1 <1>   0.3430 
 11 C       -4.4930    -8.1460     0.4510 C.3   1 <1>   0.4230 
 12 C       -5.5050    -6.0670     1.4540 C.3   1 <1>  -0.1600 
 13 N       -4.6050    -9.3240    -0.5120 N.4   1 <1>  -0.9590 
 14 C       -5.7620    -7.2420     0.4680 C.3   1 <1>   0.0000 
 15 C       -5.9970    -9.8960    -0.5890 C.3   1 <1>   0.3430 
 16 C       -4.1030    -9.0790    -1.9070 C.3   1 <1>   0.2630 
 17 C       -6.9230    -8.1120     1.0280 C.3   1 <1>  -0.1600 
 18 C       -6.2340    -6.6880    -0.9160 C.3   1 <1>   0.1200 
 19 C       -6.7940    -9.6160     0.6900 C.3   1 <1>  -0.1600 
 20 O       -5.2050    -6.1510    -1.6820 O.3   1 <1>  -0.6800 
 21 H       -3.5920    -1.2080    -2.0670 H     1 <1>   0.1500 
 22 H       -4.1110    -3.6090    -1.4610 H     1 <1>   0.1500 
 23 H       -1.5850    -5.0380     1.1660 H     1 <1>   0.0800 
 24 H       -1.2990    -5.6810    -0.4330 H     1 <1>   0.0800 
 25 H       -3.7560    -5.7430    -0.6820 H     1 <1>   0.4500 
 26 H       -2.5060    -7.7420    -0.3280 H     1 <1>   0.0800 
 27 H       -2.6580    -7.5140     1.3890 H     1 <1>   0.0800 
 28 H       -3.7510    -5.0380     2.1500 H     1 <1>   0.0800 
 29 H       -4.5440    -4.2560     0.8150 H     1 <1>   0.0800 
 30 H       -4.4960    -8.5970     1.4300 H     1 <1>   0.0800 
 31 H       -5.4130    -6.4570     2.4540 H     1 <1>   0.0800 
 32 H       -6.3580    -5.4100     1.4760 H     1 <1>   0.0800 
 33 H       -4.0290   -10.0860    -0.1190 H     1 <1>   0.4500 
 34 H       -6.5240    -9.4600    -1.4220 H     1 <1>   0.0800 
 35 H       -5.9480   -10.9600    -0.7610 H     1 <1>   0.0800 
 36 H       -4.6960    -8.3260    -2.3980 H     1 <1>   0.0800 
 37 H       -4.1630    -9.9860    -2.4880 H     1 <1>   0.0800 
 38 H       -3.0750    -8.7560    -1.8960 H     1 <1>   0.0800 
 39 H       -6.9800    -8.0350     2.1020 H     1 <1>   0.0800 
 40 H       -7.8680    -7.7450     0.6600 H     1 <1>   0.0800 
 41 H       -6.9720    -5.9160    -0.7690 H     1 <1>   0.0800 
 42 H       -6.6950    -7.4610    -1.5050 H     1 <1>   0.0800 
 43 H       -7.7800   -10.0380     0.5870 H     1 <1>   0.0800 
 44 H       -6.3250   -10.1360     1.5080 H     1 <1>   0.0800 
 45 H       -5.5820    -5.7620    -2.5090 H     1 <1>   0.4000 
@<TRIPOS>BOND
  1   1   2  1   
  2   2   3  1   
  3   2   4  2   
  4   3   5  1   
  5   4   6  1   
  6   4  21  1   
  7   5   6  2   
  8   5   7  1   
  9   6  22  1   
 10   7   8  1   
 11   7  23  1   
 12   7  24  1   
 13   8   9  1   
 14   8  10  1   
 15   8  25  1   
 16   9  11  1   
 17   9  26  1   
 18   9  27  1   
 19  10  12  1   
 20  10  28  1   
 21  10  29  1   
 22  11  13  1   
 23  11  14  1   
 24  11  30  1   
 25  12  14  1   
 26  12  31  1   
 27  12  32  1   
 28  13  15  1   
 29  13  16  1   
 30  13  33  1   
 31  14  17  1   
 32  14  18  1   
 33  15  19  1   
 34  15  34  1   
 35  15  35  1   
 36  16  36  1   
 37  16  37  1   
 38  16  38  1   
 39  17  19  1   
 40  17  39  1   
 41  17  40  1   
 42  18  20  1   
 43  18  41  1   
 44  18  42  1   
 45  19  43  1   
 46  19  44  1   
 47  20  45  1   
@<TRIPOS>SUBSTRUCTURE
  1 ****   8 GROUP 4 **** **** 0

# MOE 2024.06 (io_trps.svl 2023.06)
