@<TRIPOS>MOLECULE
NONAME
47 48 1 0 0 
SMALL
USER_CHARGES


@<TRIPOS>ATOM
  1 O       -0.6740    -1.2980    -0.4360 O.2   1 <1>  -0.5700 
  2 C       -1.1770    -0.1990    -0.3630 C.2   1 <1>   0.5690 
  3 N       -2.2000     0.0560     0.5170 N.am  1 <1>  -0.6600 
  4 C       -0.6100     0.8960    -1.2790 C.3   1 <1>   0.1710 
  5 C       -2.6160    -1.0070     1.4800 C.3   1 <1>   0.3200 
  6 C       -3.1680     1.1950     0.4170 C.3   1 <1>   0.1400 
  7 N       -0.0240     2.0410    -0.5270 N.3   1 <1>  -0.8100 
  8 C       -3.6000    -1.9520     0.8130 C.2   1 <1>   0.0060 
  9 C       -2.9650     2.2380     1.5300 C.3   1 <1>   0.1200 
 10 C        0.4310     3.1540    -1.3620 C.3   1 <1>   0.1100 
 11 C        1.1360     1.6650     0.2930 C.3   1 <1>   0.1100 
 12 N       -4.8560    -2.0550     1.1120 N.2   1 <1>  -0.5650 
 13 N       -3.2090    -2.7740    -0.1830 N.pl3 1 <1>   0.0330 
 14 O       -1.7400     2.8740     1.3750 O.3   1 <1>  -0.6800 
 15 C        1.2490     4.0140    -0.3860 C.3   1 <1>   0.4230 
 16 C        2.0280     2.9120     0.3380 C.3   1 <1>  -0.1600 
 17 C       -5.3080    -3.0000     0.2640 C.2   1 <1>   0.0770 
 18 C       -4.3170    -3.4500    -0.5360 C.2   1 <1>  -0.3020 
 19 N        0.3400     4.7440     0.5700 N.4   1 <1>  -0.9590 
 20 C       -0.5520     5.7310    -0.1080 C.3   1 <1>   0.2630 
 21 C        1.0410     5.4130     1.7090 C.3   1 <1>   0.2630 
 22 H       -1.4010     1.2490    -1.9160 H     1 <1>   0.0800 
 23 H        0.1420     0.4560    -1.9100 H     1 <1>   0.0800 
 24 H       -3.0780    -0.5650     2.3450 H     1 <1>   0.0800 
 25 H       -1.7560    -1.5620     1.8140 H     1 <1>   0.0800 
 26 H       -4.1690     0.8020     0.4940 H     1 <1>   0.0800 
 27 H       -3.0950     1.6760    -0.5410 H     1 <1>   0.0800 
 28 H       -2.9870     1.7700     2.5000 H     1 <1>   0.0800 
 29 H       -3.7360     2.9880     1.4900 H     1 <1>   0.0800 
 30 H       -0.3940     3.6790    -1.8080 H     1 <1>   0.0800 
 31 H        1.0740     2.7840    -2.1430 H     1 <1>   0.0800 
 32 H        1.6730     0.8400    -0.1510 H     1 <1>   0.0800 
 33 H        0.8100     1.3770     1.2800 H     1 <1>   0.0800 
 34 H       -2.2580    -2.8190    -0.5730 H     1 <1>   0.2700 
 35 H       -1.1760     2.3160     0.7650 H     1 <1>   0.4000 
 36 H        1.8990     4.7030    -0.8990 H     1 <1>   0.0800 
 37 H        2.9210     2.6970    -0.2240 H     1 <1>   0.0800 
 38 H        2.3330     3.1460     1.3390 H     1 <1>   0.0800 
 39 H       -6.3400    -3.3100     0.2730 H     1 <1>   0.1500 
 40 H       -4.3370    -4.1910    -1.3130 H     1 <1>   0.1500 
 41 H       -0.2890     4.0060     0.9610 H     1 <1>   0.4500 
 42 H        0.0320     6.4870    -0.6070 H     1 <1>   0.0800 
 43 H       -1.1920     6.2080     0.6170 H     1 <1>   0.0800 
 44 H       -1.1800     5.2370    -0.8310 H     1 <1>   0.0800 
 45 H        1.7610     6.1240     1.3410 H     1 <1>   0.0800 
 46 H        1.5470     4.6890     2.3250 H     1 <1>   0.0800 
 47 H        0.3260     5.9320     2.3270 H     1 <1>   0.0800 
@<TRIPOS>BOND
  1   1   2  2   
  2   2   3  am  
  3   2   4  1   
  4   3   5  1   
  5   3   6  1   
  6   4   7  1   
  7   4  22  1   
  8   4  23  1   
  9   5   8  1   
 10   5  24  1   
 11   5  25  1   
 12   6   9  1   
 13   6  26  1   
 14   6  27  1   
 15   7  10  1   
 16   7  11  1   
 17   8  12  2   
 18   8  13  1   
 19   9  14  1   
 20   9  28  1   
 21   9  29  1   
 22  10  15  1   
 23  10  30  1   
 24  10  31  1   
 25  11  16  1   
 26  11  32  1   
 27  11  33  1   
 28  12  17  1   
 29  13  18  1   
 30  13  34  1   
 31  14  35  1   
 32  15  16  1   
 33  15  19  1   
 34  15  36  1   
 35  16  37  1   
 36  16  38  1   
 37  17  18  2   
 38  17  39  1   
 39  18  40  1   
 40  19  20  1   
 41  19  21  1   
 42  19  41  1   
 43  20  42  1   
 44  20  43  1   
 45  20  44  1   
 46  21  45  1   
 47  21  46  1   
 48  21  47  1   
@<TRIPOS>SUBSTRUCTURE
  1 ****   3 GROUP 4 **** **** 0

# MOE 2024.06 (io_trps.svl 2023.06)
