@<TRIPOS>MOLECULE
NONAME
48 50 1 0 0 
SMALL
USER_CHARGES


@<TRIPOS>ATOM
  1 O       -1.2990     0.4940     2.7030 O.2   1 <1>  -0.5700 
  2 C       -1.7040     1.0910     1.7230 C.2   1 <1>   0.5440 
  3 N       -2.4060     0.3910     0.7700 N.am  1 <1>  -0.6600 
  4 C       -1.4880     2.5130     1.6180 C.ar  1 <1>   0.0860 
  5 C       -3.0160     0.9530    -0.4600 C.3   1 <1>   0.1400 
  6 C       -2.6890    -1.0560     0.8670 C.3   1 <1>   0.1400 
  7 C       -0.6750     3.0720     0.6240 C.ar  1 <1>   0.3920 
  8 C       -2.0890     3.3810     2.5180 C.ar  1 <1>  -0.1500 
  9 C       -3.8130    -0.1990    -1.0880 C.3   1 <1>   0.2000 
 10 C       -3.1300    -1.4580    -0.5420 C.3   1 <1>  -0.0800 
 11 O       -0.0620     2.2340    -0.2360 O.3   1 <1>  -0.3630 
 12 N       -0.4620     4.3790     0.4630 N.ar  1 <1>  -0.6200 
 13 C       -1.8660     4.7310     2.3690 C.ar  1 <1>  -0.1500 
 14 O       -5.1380    -0.1690    -0.6340 O.3   1 <1>  -0.5600 
 15 C       -4.0030    -2.7260    -0.5760 C.3   1 <1>   0.0200 
 16 C        0.8360     2.6950    -1.2220 C.3   1 <1>   0.1200 
 17 C       -1.0570     5.1710     1.3370 C.ar  1 <1>   0.1600 
 18 C       -5.9940     0.6610    -1.3530 C.3   1 <1>   0.0400 
 19 C       -3.2410    -3.9880    -0.2050 C.2   1 <1>  -0.0400 
 20 C        1.3310     1.4860    -2.0110 C.3   1 <1>  -0.2400 
 21 O       -3.8920    -5.1190    -0.1420 O.3   1 <1>  -0.0190 
 22 C       -1.9560    -4.2420     0.0920 C.2   1 <1>  -0.1500 
 23 N       -3.1160    -6.1130     0.1830 N.2   1 <1>  -0.4100 
 24 C       -1.9420    -5.6130     0.3320 C.2   1 <1>   0.1080 
 25 C       -0.7180    -6.4120     0.7160 C.3   1 <1>  -0.0590 
 26 H       -3.6400     1.7980    -0.2310 H     1 <1>   0.0800 
 27 H       -2.2320     1.2510    -1.1330 H     1 <1>   0.0800 
 28 H       -1.8170    -1.5950     1.1930 H     1 <1>   0.0800 
 29 H       -3.4880    -1.2030     1.5740 H     1 <1>   0.0800 
 30 H       -2.7080     2.9940     3.3100 H     1 <1>   0.1500 
 31 H       -3.8050    -0.1730    -2.1640 H     1 <1>   0.0800 
 32 H       -2.2450    -1.6290    -1.1270 H     1 <1>   0.0800 
 33 H       -2.3120     5.4380     3.0450 H     1 <1>   0.1500 
 34 H       -4.4040    -2.8530    -1.5650 H     1 <1>   0.0800 
 35 H       -4.8330    -2.6160     0.1000 H     1 <1>   0.0800 
 36 H        0.3160     3.3870    -1.8620 H     1 <1>   0.0800 
 37 H        1.6520     3.1960    -0.7290 H     1 <1>   0.0800 
 38 H       -0.8900     6.2300     1.2270 H     1 <1>   0.1500 
 39 H       -6.9690     0.6040    -0.9010 H     1 <1>   0.0800 
 40 H       -6.0490     0.3190    -2.3720 H     1 <1>   0.0800 
 41 H       -5.6370     1.6750    -1.3110 H     1 <1>   0.0800 
 42 H        0.5040     0.9900    -2.4860 H     1 <1>   0.0800 
 43 H        1.8350     0.8000    -1.3540 H     1 <1>   0.0800 
 44 H        2.0230     1.8070    -2.7680 H     1 <1>   0.0800 
 45 H       -1.1090    -3.5840     0.1450 H     1 <1>   0.1500 
 46 H       -0.3070    -6.0300     1.6320 H     1 <1>   0.0800 
 47 H        0.0200    -6.3450    -0.0610 H     1 <1>   0.0800 
 48 H       -0.9840    -7.4450     0.8570 H     1 <1>   0.0800 
@<TRIPOS>BOND
  1   1   2  2   
  2   2   3  am  
  3   2   4  1   
  4   3   5  1   
  5   3   6  1   
  6   4   7  ar  
  7   4   8  ar  
  8   5   9  1   
  9   5  26  1   
 10   5  27  1   
 11   6  10  1   
 12   6  28  1   
 13   6  29  1   
 14   7  11  1   
 15   7  12  ar  
 16   8  13  ar  
 17   8  30  1   
 18   9  10  1   
 19   9  14  1   
 20   9  31  1   
 21  10  15  1   
 22  10  32  1   
 23  11  16  1   
 24  12  17  ar  
 25  13  17  ar  
 26  13  33  1   
 27  14  18  1   
 28  15  19  1   
 29  15  34  1   
 30  15  35  1   
 31  16  20  1   
 32  16  36  1   
 33  16  37  1   
 34  17  38  1   
 35  18  39  1   
 36  18  40  1   
 37  18  41  1   
 38  19  21  1   
 39  19  22  2   
 40  20  42  1   
 41  20  43  1   
 42  20  44  1   
 43  21  23  1   
 44  22  24  1   
 45  22  45  1   
 46  23  24  2   
 47  24  25  1   
 48  25  46  1   
 49  25  47  1   
 50  25  48  1   
@<TRIPOS>SUBSTRUCTURE
  1 ****   3 GROUP 4 **** **** 0

# MOE 2024.06 (io_trps.svl 2023.06)
