@<TRIPOS>MOLECULE
NONAME
34 35 1 0 0 
SMALL
USER_CHARGES


@<TRIPOS>ATOM
  1 S        1.6890     0.2330    -0.9610 S.3   1 <1>  -0.0800 
  2 C        3.0160     1.1910    -0.3530 C.2   1 <1>   0.2280 
  3 C        0.7100     1.6630    -0.9920 C.2   1 <1>  -0.1100 
  4 N        2.7500     2.4260    -0.1970 N.2   1 <1>  -0.5650 
  5 C        1.4210     2.7270    -0.5590 C.2   1 <1>   0.1410 
  6 C        0.9280     4.0910    -0.4510 C.2   1 <1>   0.7160 
  7 O       -0.2160     4.3750    -0.7600 O.2   1 <1>  -0.5700 
  8 N        1.7960     5.0480     0.0100 N.am  1 <1>  -0.4940 
  9 C        1.6370     6.4430     0.1930 C.2   1 <1>  -0.0880 
 10 N        2.5980     7.2790     0.6710 N.pl3 1 <1>   0.3140 
 11 C        0.5580     7.2210    -0.0550 C.2   1 <1>  -0.1500 
 12 N        2.1620     8.5560     0.7320 N.2   1 <1>  -0.7070 
 13 C        3.9600     6.9160     1.1100 C.3   1 <1>   0.0960 
 14 C        0.9440     8.5080     0.2960 C.2   1 <1>   0.1080 
 15 C        4.8850     6.6780    -0.0930 C.3   1 <1>  -0.1600 
 16 C        0.0720     9.7360     0.1940 C.3   1 <1>  -0.0590 
 17 C        6.2880     6.2550     0.3610 C.3   1 <1>  -0.1600 
 18 C        7.2010     6.0100    -0.8430 C.3   1 <1>  -0.2400 
 19 H        3.9410     0.6740    -0.1600 H     1 <1>   0.1500 
 20 H       -0.3080     1.5830    -1.3310 H     1 <1>   0.1500 
 21 H        2.7110     4.6410     0.2200 H     1 <1>   0.3700 
 22 H       -0.4000     6.9240    -0.4420 H     1 <1>   0.1500 
 23 H        3.8970     6.0340     1.7200 H     1 <1>   0.0800 
 24 H        4.3420     7.7200     1.7130 H     1 <1>   0.0800 
 25 H        4.9530     7.5890    -0.6640 H     1 <1>   0.0800 
 26 H        4.4700     5.9120    -0.7240 H     1 <1>   0.0800 
 27 H       -0.8980     9.4770    -0.1870 H     1 <1>   0.0800 
 28 H        0.5330    10.4480    -0.4640 H     1 <1>   0.0800 
 29 H       -0.0360    10.1790     1.1670 H     1 <1>   0.0800 
 30 H        6.2270     5.3530     0.9460 H     1 <1>   0.0800 
 31 H        6.7170     7.0260     0.9790 H     1 <1>   0.0800 
 32 H        6.8050     5.2270    -1.4650 H     1 <1>   0.0800 
 33 H        8.1810     5.7170    -0.5080 H     1 <1>   0.0800 
 34 H        7.2960     6.9060    -1.4320 H     1 <1>   0.0800 
@<TRIPOS>BOND
  1   1   2  1   
  2   1   3  1   
  3   2   4  2   
  4   2  19  1   
  5   3   5  2   
  6   3  20  1   
  7   4   5  1   
  8   5   6  1   
  9   6   7  2   
 10   6   8  am  
 11   8   9  1   
 12   8  21  1   
 13   9  10  1   
 14   9  11  2   
 15  10  12  1   
 16  10  13  1   
 17  11  14  1   
 18  11  22  1   
 19  12  14  2   
 20  13  15  1   
 21  13  23  1   
 22  13  24  1   
 23  14  16  1   
 24  15  17  1   
 25  15  25  1   
 26  15  26  1   
 27  16  27  1   
 28  16  28  1   
 29  16  29  1   
 30  17  18  1   
 31  17  30  1   
 32  17  31  1   
 33  18  32  1   
 34  18  33  1   
 35  18  34  1   
@<TRIPOS>SUBSTRUCTURE
  1 ****   8 GROUP 4 **** **** 0

# MOE 2024.06 (io_trps.svl 2023.06)
