@<TRIPOS>MOLECULE
NONAME
43 44 1 0 0 
SMALL
USER_CHARGES


@<TRIPOS>ATOM
  1 O        1.7680     1.2990    -1.6520 O.3   1 <1>  -0.5600 
  2 C        1.5880     1.1690    -0.2840 C.3   1 <1>   0.1200 
  3 C        0.9480     2.3140    -2.1310 C.3   1 <1>   0.1200 
  4 C        1.4840     2.6090     0.2060 C.3   1 <1>  -0.0800 
  5 C        0.7160     3.2550    -0.9470 C.3   1 <1>  -0.1600 
  6 C        2.8940     3.2040     0.3920 C.3   1 <1>  -0.1600 
  7 C        2.8500     4.6550     0.8850 C.3   1 <1>   0.3430 
  8 N        4.2130     5.2500     0.9850 N.4   1 <1>  -0.9590 
  9 C        4.9060     5.3970    -0.3340 C.3   1 <1>   0.4860 
 10 C        5.0950     4.6170     2.0120 C.3   1 <1>   0.2630 
 11 C        5.8710     6.5760    -0.2530 C.ar  1 <1>   0.1670 
 12 N        5.4560     7.6190     0.4590 N.ar  1 <1>  -0.6200 
 13 C        7.1000     6.5060    -0.8930 C.ar  1 <1>  -0.1500 
 14 C        6.2970     8.6390     0.5260 C.ar  1 <1>   0.1670 
 15 C        7.9700     7.5710    -0.8100 C.ar  1 <1>  -0.1440 
 16 C        7.5430     8.6590    -0.0800 C.ar  1 <1>  -0.1500 
 17 C        5.8260     9.8380     1.3250 C.3   1 <1>  -0.0970 
 18 C        9.3280     7.5560    -1.4910 C.3   1 <1>  -0.0970 
 19 H        2.4180     0.6270     0.1350 H     1 <1>   0.0800 
 20 H        0.6720     0.6280    -0.1170 H     1 <1>   0.0800 
 21 H        0.0270     1.8720    -2.4720 H     1 <1>   0.0800 
 22 H        1.4500     2.7980    -2.9510 H     1 <1>   0.0800 
 23 H        0.9320     2.6520     1.1300 H     1 <1>   0.0800 
 24 H       -0.3380     3.2790    -0.7290 H     1 <1>   0.0800 
 25 H        1.0330     4.2530    -1.1860 H     1 <1>   0.0800 
 26 H        3.4140     3.1430    -0.5480 H     1 <1>   0.0800 
 27 H        3.4190     2.6000     1.1090 H     1 <1>   0.0800 
 28 H        2.3720     4.6860     1.8510 H     1 <1>   0.0800 
 29 H        2.2560     5.2460     0.2070 H     1 <1>   0.0800 
 30 H        4.1210     6.2490     1.2620 H     1 <1>   0.4500 
 31 H        4.1830     5.6110    -1.1030 H     1 <1>   0.0800 
 32 H        5.4310     4.4930    -0.5930 H     1 <1>   0.0800 
 33 H        5.3280     3.6020     1.7360 H     1 <1>   0.0800 
 34 H        4.6050     4.6130     2.9720 H     1 <1>   0.0800 
 35 H        6.0150     5.1730     2.1010 H     1 <1>   0.0800 
 36 H        7.3800     5.6330    -1.4550 H     1 <1>   0.1500 
 37 H        8.1760     9.5230     0.0160 H     1 <1>   0.1500 
 38 H        4.9170    10.2210     0.8990 H     1 <1>   0.0800 
 39 H        6.5630    10.6200     1.3210 H     1 <1>   0.0800 
 40 H        5.6380     9.5460     2.3410 H     1 <1>   0.0800 
 41 H        9.6820     6.5490    -1.6150 H     1 <1>   0.0800 
 42 H       10.0470     8.0970    -0.9030 H     1 <1>   0.0800 
 43 H        9.2560     8.0200    -2.4590 H     1 <1>   0.0800 
@<TRIPOS>BOND
  1   1   2  1   
  2   1   3  1   
  3   2   4  1   
  4   2  19  1   
  5   2  20  1   
  6   3   5  1   
  7   3  21  1   
  8   3  22  1   
  9   4   5  1   
 10   4   6  1   
 11   4  23  1   
 12   5  24  1   
 13   5  25  1   
 14   6   7  1   
 15   6  26  1   
 16   6  27  1   
 17   7   8  1   
 18   7  28  1   
 19   7  29  1   
 20   8   9  1   
 21   8  10  1   
 22   8  30  1   
 23   9  11  1   
 24   9  31  1   
 25   9  32  1   
 26  10  33  1   
 27  10  34  1   
 28  10  35  1   
 29  11  12  ar  
 30  11  13  ar  
 31  12  14  ar  
 32  13  15  ar  
 33  13  36  1   
 34  14  16  ar  
 35  14  17  1   
 36  15  16  ar  
 37  15  18  1   
 38  16  37  1   
 39  17  38  1   
 40  17  39  1   
 41  17  40  1   
 42  18  41  1   
 43  18  42  1   
 44  18  43  1   
@<TRIPOS>SUBSTRUCTURE
  1 ****   9 GROUP 4 **** **** 0

# MOE 2024.06 (io_trps.svl 2023.06)
