@<TRIPOS>MOLECULE
NONAME
55 56 1 0 0 
SMALL
USER_CHARGES


@<TRIPOS>ATOM
  1 O        0.3980     0.9720    -0.3420 O.2   1 <1>  -0.5700 
  2 C        0.9850     0.7170     0.6850 C.2   1 <1>   0.5690 
  3 N        1.7000     1.6780     1.3590 N.am  1 <1>  -0.6600 
  4 C        0.8890    -0.7380     1.1890 C.3   1 <1>   0.4040 
  5 C        2.4430     1.4720     2.6440 C.3   1 <1>   0.1400 
  6 C        1.9040     3.0270     0.7560 C.3   1 <1>   0.1400 
  7 N        1.6770    -1.7780     0.4160 N.4   1 <1>  -0.9590 
  8 C        3.9010     1.0090     2.4480 C.3   1 <1>   0.1400 
  9 C        3.1810     3.0640    -0.0930 C.3   1 <1>  -0.1600 
 10 C        1.3380    -1.7240    -1.0390 C.3   1 <1>   0.3430 
 11 C        1.5250    -3.1170     1.0460 C.3   1 <1>   0.3430 
 12 N        4.4300     1.2530     1.0700 N.am  1 <1>  -0.6600 
 13 C        4.4650     2.6880     0.6620 C.3   1 <1>   0.1400 
 14 C        2.2120    -2.6430    -1.8940 C.3   1 <1>  -0.1600 
 15 C        2.7280    -4.0050     0.7320 C.3   1 <1>  -0.1600 
 16 C        4.6960     0.2090     0.2230 C.2   1 <1>   0.5690 
 17 C        1.8740    -4.1300    -1.7270 C.3   1 <1>  -0.1600 
 18 C        2.6140    -4.8140    -0.5700 C.3   1 <1>  -0.1600 
 19 O        4.3290    -0.9140     0.4940 O.2   1 <1>  -0.5700 
 20 C        5.4080     0.4310    -1.1010 C.3   1 <1>  -0.0990 
 21 C        6.1330    -0.8210    -1.5910 C.3   1 <1>   0.1200 
 22 O        6.6960    -0.5230    -2.8240 O.3   1 <1>  -0.5600 
 23 C        7.4390    -1.5620    -3.3740 C.3   1 <1>   0.0400 
 24 H       -0.1530    -1.0060     1.1620 H     1 <1>   0.0800 
 25 H        1.2000    -0.7590     2.2160 H     1 <1>   0.0800 
 26 H        1.9260     0.7690     3.2710 H     1 <1>   0.0800 
 27 H        2.4550     2.4010     3.1890 H     1 <1>   0.0800 
 28 H        1.9580     3.7700     1.5340 H     1 <1>   0.0800 
 29 H        1.0600     3.2800     0.1350 H     1 <1>   0.0800 
 30 H        2.6830    -1.5140     0.4810 H     1 <1>   0.4500 
 31 H        3.9650    -0.0380     2.6850 H     1 <1>   0.0800 
 32 H        4.5300     1.5160     3.1600 H     1 <1>   0.0800 
 33 H        3.2960     4.0650    -0.4680 H     1 <1>   0.0800 
 34 H        3.0570     2.4260    -0.9490 H     1 <1>   0.0800 
 35 H        1.4820    -0.7170    -1.3960 H     1 <1>   0.0800 
 36 H        0.3000    -1.9750    -1.1840 H     1 <1>   0.0800 
 37 H        0.6130    -3.5920     0.7220 H     1 <1>   0.0800 
 38 H        1.4770    -2.9960     2.1160 H     1 <1>   0.0800 
 39 H        4.5700     3.3120     1.5340 H     1 <1>   0.0800 
 40 H        5.3180     2.8780     0.0360 H     1 <1>   0.0800 
 41 H        3.2550    -2.4550    -1.7130 H     1 <1>   0.0800 
 42 H        2.0220    -2.3810    -2.9200 H     1 <1>   0.0800 
 43 H        2.8430    -4.7090     1.5380 H     1 <1>   0.0800 
 44 H        3.6250    -3.4120     0.7180 H     1 <1>   0.0800 
 45 H        2.1390    -4.6480    -2.6340 H     1 <1>   0.0800 
 46 H        0.8110    -4.2500    -1.6040 H     1 <1>   0.0800 
 47 H        2.1150    -5.7460    -0.3630 H     1 <1>   0.0800 
 48 H        3.6110    -5.0660    -0.8940 H     1 <1>   0.0800 
 49 H        6.1430     1.2040    -0.9940 H     1 <1>   0.0800 
 50 H        4.6830     0.7290    -1.8350 H     1 <1>   0.0800 
 51 H        5.4500    -1.6430    -1.7160 H     1 <1>   0.0800 
 52 H        6.9160    -1.0970    -0.9040 H     1 <1>   0.0800 
 53 H        7.8240    -1.2330    -4.3220 H     1 <1>   0.0800 
 54 H        6.8020    -2.4180    -3.5190 H     1 <1>   0.0800 
 55 H        8.2560    -1.8030    -2.7150 H     1 <1>   0.0800 
@<TRIPOS>BOND
  1   1   2  2   
  2   2   3  am  
  3   2   4  1   
  4   3   5  1   
  5   3   6  1   
  6   4   7  1   
  7   4  24  1   
  8   4  25  1   
  9   5   8  1   
 10   5  26  1   
 11   5  27  1   
 12   6   9  1   
 13   6  28  1   
 14   6  29  1   
 15   7  10  1   
 16   7  11  1   
 17   7  30  1   
 18   8  12  1   
 19   8  31  1   
 20   8  32  1   
 21   9  13  1   
 22   9  33  1   
 23   9  34  1   
 24  10  14  1   
 25  10  35  1   
 26  10  36  1   
 27  11  15  1   
 28  11  37  1   
 29  11  38  1   
 30  12  13  1   
 31  12  16  am  
 32  13  39  1   
 33  13  40  1   
 34  14  17  1   
 35  14  41  1   
 36  14  42  1   
 37  15  18  1   
 38  15  43  1   
 39  15  44  1   
 40  16  19  2   
 41  16  20  1   
 42  17  18  1   
 43  17  45  1   
 44  17  46  1   
 45  18  47  1   
 46  18  48  1   
 47  20  21  1   
 48  20  49  1   
 49  20  50  1   
 50  21  22  1   
 51  21  51  1   
 52  21  52  1   
 53  22  23  1   
 54  23  53  1   
 55  23  54  1   
 56  23  55  1   
@<TRIPOS>SUBSTRUCTURE
  1 ****  19 GROUP 4 **** **** 0

# MOE 2024.06 (io_trps.svl 2023.06)
