@<TRIPOS>MOLECULE
NONAME
39 40 1 0 0 
SMALL
USER_CHARGES


@<TRIPOS>ATOM
  1 F        0.1330    -0.6520    -0.1880 F     1 <1>  -0.1900 
  2 C       -0.1380    -1.9320    -0.2290 C.ar  1 <1>   0.1900 
  3 C        0.7150    -2.7730    -0.9180 C.ar  1 <1>  -0.1500 
  4 C       -1.2680    -2.3950     0.4180 C.ar  1 <1>  -0.1500 
  5 C        0.4230    -4.1250    -0.9550 C.ar  1 <1>  -0.1500 
  6 C       -1.5470    -3.7500     0.3710 C.ar  1 <1>  -0.1500 
  7 C       -0.7040    -4.6270    -0.3090 C.ar  1 <1>   0.1000 
  8 N       -0.9720    -5.9870    -0.3580 N.pl3 1 <1>  -0.8690 
  9 C       -1.1470    -6.7140     0.9480 C.3   1 <1>   0.2700 
 10 C       -1.2060    -8.2450     0.8150 C.2   1 <1>   0.5690 
 11 O       -0.3140    -8.8750     1.3370 O.2   1 <1>  -0.5700 
 12 N       -2.2240    -8.8770     0.1360 N.am  1 <1>  -0.6600 
 13 C       -2.2600   -10.3670     0.0010 C.3   1 <1>   0.1400 
 14 C       -3.3340    -8.1760    -0.5690 C.3   1 <1>   0.1400 
 15 C       -3.6130   -10.9170     0.4790 C.3   1 <1>   0.2000 
 16 C       -4.6830    -8.6960    -0.0610 C.3   1 <1>  -0.1600 
 17 O       -3.6650   -12.2810     0.2290 O.3   1 <1>  -0.6800 
 18 C       -4.8060   -10.2290    -0.2120 C.3   1 <1>  -0.0800 
 19 C       -6.1340   -10.7650     0.3510 C.3   1 <1>   0.1200 
 20 O       -7.1980   -10.1610    -0.2980 O.3   1 <1>  -0.6800 
 21 H        1.5830    -2.3740    -1.4110 H     1 <1>   0.1500 
 22 H       -1.9100    -1.7090     0.9390 H     1 <1>   0.1500 
 23 H        1.0720    -4.7960    -1.4870 H     1 <1>   0.1500 
 24 H       -2.4270    -4.1300     0.8550 H     1 <1>   0.1500 
 25 H       -0.3130    -6.5050    -0.9510 H     1 <1>   0.4000 
 26 H       -0.3260    -6.4630     1.5970 H     1 <1>   0.0800 
 27 H       -2.0520    -6.3830     1.4230 H     1 <1>   0.0800 
 28 H       -2.1080   -10.6190    -1.0330 H     1 <1>   0.0800 
 29 H       -1.4760   -10.8190     0.5830 H     1 <1>   0.0800 
 30 H       -3.2880    -7.1120    -0.4180 H     1 <1>   0.0800 
 31 H       -3.2460    -8.3590    -1.6270 H     1 <1>   0.0800 
 32 H       -3.6780   -10.7890     1.5460 H     1 <1>   0.0800 
 33 H       -4.7970    -8.4170     0.9720 H     1 <1>   0.0800 
 34 H       -5.4600    -8.2090    -0.6230 H     1 <1>   0.0800 
 35 H       -3.6670   -12.4560    -0.7320 H     1 <1>   0.4000 
 36 H       -4.7650   -10.4660    -1.2610 H     1 <1>   0.0800 
 37 H       -6.2210   -10.5660     1.4060 H     1 <1>   0.0800 
 38 H       -6.2160   -11.8260     0.1890 H     1 <1>   0.0800 
 39 H       -7.2470    -9.2130    -0.0720 H     1 <1>   0.4000 
@<TRIPOS>BOND
  1   1   2  1   
  2   2   3  ar  
  3   2   4  ar  
  4   3   5  ar  
  5   3  21  1   
  6   4   6  ar  
  7   4  22  1   
  8   5   7  ar  
  9   5  23  1   
 10   6   7  ar  
 11   6  24  1   
 12   7   8  1   
 13   8   9  1   
 14   8  25  1   
 15   9  10  1   
 16   9  26  1   
 17   9  27  1   
 18  10  11  2   
 19  10  12  am  
 20  12  13  1   
 21  12  14  1   
 22  13  15  1   
 23  13  28  1   
 24  13  29  1   
 25  14  16  1   
 26  14  30  1   
 27  14  31  1   
 28  15  17  1   
 29  15  18  1   
 30  15  32  1   
 31  16  18  1   
 32  16  33  1   
 33  16  34  1   
 34  17  35  1   
 35  18  19  1   
 36  18  36  1   
 37  19  20  1   
 38  19  37  1   
 39  19  38  1   
 40  20  39  1   
@<TRIPOS>SUBSTRUCTURE
  1 ****   9 GROUP 4 **** **** 0

# MOE 2024.06 (io_trps.svl 2023.06)
