@<TRIPOS>MOLECULE
NONAME
44 47 1 0 0 
SMALL
USER_CHARGES


@<TRIPOS>ATOM
  1 S       -0.3080    -1.1620     2.6940 S.3   1 <1>  -0.0800 
  2 C       -0.1640    -1.6940     1.0140 C.2   1 <1>  -0.0450 
  3 C        0.8760     0.1050     2.4710 C.2   1 <1>  -0.1100 
  4 C        0.7600    -0.9160     0.3870 C.2   1 <1>  -0.1810 
  5 C       -0.9650    -2.8100     0.5720 C.2   1 <1>   0.7150 
  6 C        1.3380     0.0970     1.2080 C.2   1 <1>  -0.1500 
  7 C        1.1990    -1.0620    -1.0590 C.3   1 <1>  -0.0590 
  8 O       -0.4120    -3.7780     0.0800 O.2   1 <1>  -0.5700 
  9 N       -2.3440    -2.8030     0.6480 N.am  1 <1>  -0.6600 
 10 C       -3.1470    -1.5650     0.8930 C.3   1 <1>   0.1400 
 11 C       -3.1440    -4.0160     0.2880 C.3   1 <1>   0.1400 
 12 C       -3.9560    -1.1740    -0.3640 C.3   1 <1>   0.1430 
 13 C       -4.5660    -3.6550    -0.1790 C.3   1 <1>  -0.1600 
 14 C       -5.0170    -0.1800     0.0760 C.ar  1 <1>   0.1670 
 15 C       -4.5510    -2.4140    -1.0860 C.3   1 <1>  -0.1600 
 16 C       -3.0970    -0.3190    -1.3330 C.3   1 <1>  -0.1600 
 17 N       -6.1250    -0.4770     0.7190 N.ar  1 <1>  -0.6200 
 18 C       -4.6780     1.0970    -0.2610 C.ar  1 <1>  -0.1430 
 19 C       -3.3510     1.1550    -0.9740 C.3   1 <1>  -0.0170 
 20 C       -6.8910     0.5660     1.0030 C.ar  1 <1>   0.4770 
 21 C       -5.5460     2.1030     0.0840 C.ar  1 <1>   0.1600 
 22 N       -6.6690     1.8440     0.7220 N.ar  1 <1>  -0.6200 
 23 C       -8.1780     0.2670     1.7310 C.3   1 <1>  -0.0970 
 24 H        1.1070     0.7270     3.3170 H     1 <1>   0.1500 
 25 H        2.0780     0.7750     0.8190 H     1 <1>   0.1500 
 26 H        0.6670    -1.8620    -1.5430 H     1 <1>   0.0800 
 27 H        2.2500    -1.2820    -1.1000 H     1 <1>   0.0800 
 28 H        1.0110    -0.1500    -1.5960 H     1 <1>   0.0800 
 29 H       -2.5290    -0.7380     1.1850 H     1 <1>   0.0800 
 30 H       -3.8250    -1.7590     1.7070 H     1 <1>   0.0800 
 31 H       -3.1930    -4.6740     1.1380 H     1 <1>   0.0800 
 32 H       -2.6450    -4.5420    -0.5090 H     1 <1>   0.0800 
 33 H       -5.1920    -3.4710     0.6770 H     1 <1>   0.0800 
 34 H       -4.9860    -4.4920    -0.7080 H     1 <1>   0.0800 
 35 H       -3.9530    -2.6540    -1.9480 H     1 <1>   0.0800 
 36 H       -5.5470    -2.1980    -1.4310 H     1 <1>   0.0800 
 37 H       -3.4370    -0.4700    -2.3430 H     1 <1>   0.0800 
 38 H       -2.0520    -0.5720    -1.2860 H     1 <1>   0.0800 
 39 H       -3.3940     1.7760    -1.8520 H     1 <1>   0.0800 
 40 H       -2.5930     1.5200    -0.3020 H     1 <1>   0.0800 
 41 H       -5.3220     3.1260    -0.1610 H     1 <1>   0.1500 
 42 H       -8.1090    -0.6760     2.2390 H     1 <1>   0.0800 
 43 H       -8.9840     0.2300     1.0240 H     1 <1>   0.0800 
 44 H       -8.3770     1.0380     2.4520 H     1 <1>   0.0800 
@<TRIPOS>BOND
  1   1   2  1   
  2   1   3  1   
  3   2   4  2   
  4   2   5  1   
  5   3   6  2   
  6   3  24  1   
  7   4   6  1   
  8   4   7  1   
  9   5   8  2   
 10   5   9  am  
 11   6  25  1   
 12   7  26  1   
 13   7  27  1   
 14   7  28  1   
 15   9  10  1   
 16   9  11  1   
 17  10  12  1   
 18  10  29  1   
 19  10  30  1   
 20  11  13  1   
 21  11  31  1   
 22  11  32  1   
 23  12  14  1   
 24  12  15  1   
 25  12  16  1   
 26  13  15  1   
 27  13  33  1   
 28  13  34  1   
 29  14  17  ar  
 30  14  18  ar  
 31  15  35  1   
 32  15  36  1   
 33  16  19  1   
 34  16  37  1   
 35  16  38  1   
 36  17  20  ar  
 37  18  19  1   
 38  18  21  ar  
 39  19  39  1   
 40  19  40  1   
 41  20  22  ar  
 42  20  23  1   
 43  21  22  ar  
 44  21  41  1   
 45  23  42  1   
 46  23  43  1   
 47  23  44  1   
@<TRIPOS>SUBSTRUCTURE
  1 ****  10 GROUP 4 **** **** 0

# MOE 2024.06 (io_trps.svl 2023.06)
