@<TRIPOS>MOLECULE
NONAME
36 37 1 0 0 
SMALL
USER_CHARGES


@<TRIPOS>ATOM
  1 F        0.0710    -0.5360     0.5450 F     1 <1>  -0.1900 
  2 C        0.0200    -1.8370     0.4620 C.ar  1 <1>   0.1900 
  3 C        0.0980    -2.4290    -0.7830 C.ar  1 <1>  -0.1500 
  4 C       -0.1100    -2.5750     1.6220 C.ar  1 <1>  -0.1500 
  5 C        0.0400    -3.8100    -0.8670 C.ar  1 <1>  -0.1500 
  6 C       -0.1670    -3.9560     1.5290 C.ar  1 <1>  -0.1500 
  7 C       -0.0990    -4.5770     0.2860 C.ar  1 <1>  -0.1430 
  8 C       -0.1790    -6.0900     0.1850 C.3   1 <1>   0.4870 
  9 N       -1.5870    -6.5100     0.4140 N.4   1 <1>  -0.9590 
 10 C       -1.6810    -8.0070     0.6120 C.3   1 <1>   0.3430 
 11 C       -2.4840    -6.0200    -0.6750 C.3   1 <1>   0.3430 
 12 C       -3.0160    -8.6320     0.1350 C.3   1 <1>   0.2000 
 13 C       -3.9480    -6.3020    -0.3140 C.3   1 <1>  -0.1600 
 14 O       -2.9110    -8.8790    -1.2300 O.3   1 <1>  -0.6800 
 15 C       -4.1850    -7.6620     0.3940 C.3   1 <1>  -0.0800 
 16 C       -5.5440    -8.2770     0.0210 C.3   1 <1>   0.1200 
 17 O       -6.5470    -7.3730     0.3210 O.3   1 <1>  -0.6800 
 18 H        0.2050    -1.8160    -1.6610 H     1 <1>   0.1500 
 19 H       -0.1610    -2.0720     2.5720 H     1 <1>   0.1500 
 20 H        0.1060    -4.2730    -1.8380 H     1 <1>   0.1500 
 21 H       -0.2590    -4.5300     2.4360 H     1 <1>   0.1500 
 22 H        0.4650    -6.5270     0.9310 H     1 <1>   0.0800 
 23 H        0.1530    -6.4160    -0.7870 H     1 <1>   0.0800 
 24 H       -1.9030    -6.0360     1.2680 H     1 <1>   0.4500 
 25 H       -0.8840    -8.5020     0.0830 H     1 <1>   0.0800 
 26 H       -1.5590    -8.2220     1.6610 H     1 <1>   0.0800 
 27 H       -2.3520    -4.9620    -0.8360 H     1 <1>   0.0800 
 28 H       -2.2420    -6.5350    -1.5920 H     1 <1>   0.0800 
 29 H       -3.1710    -9.5780     0.6260 H     1 <1>   0.0800 
 30 H       -4.3270    -5.5060     0.3030 H     1 <1>   0.0800 
 31 H       -4.5100    -6.2690    -1.2320 H     1 <1>   0.0800 
 32 H       -3.6780    -9.3910    -1.5630 H     1 <1>   0.4000 
 33 H       -4.2030    -7.4860     1.4560 H     1 <1>   0.0800 
 34 H       -5.7360    -9.1890     0.5620 H     1 <1>   0.0800 
 35 H       -5.5980    -8.4750    -1.0360 H     1 <1>   0.0800 
 36 H       -6.7850    -7.3960     1.2700 H     1 <1>   0.4000 
@<TRIPOS>BOND
  1   1   2  1   
  2   2   3  ar  
  3   2   4  ar  
  4   3   5  ar  
  5   3  18  1   
  6   4   6  ar  
  7   4  19  1   
  8   5   7  ar  
  9   5  20  1   
 10   6   7  ar  
 11   6  21  1   
 12   7   8  1   
 13   8   9  1   
 14   8  22  1   
 15   8  23  1   
 16   9  10  1   
 17   9  11  1   
 18   9  24  1   
 19  10  12  1   
 20  10  25  1   
 21  10  26  1   
 22  11  13  1   
 23  11  27  1   
 24  11  28  1   
 25  12  14  1   
 26  12  15  1   
 27  12  29  1   
 28  13  15  1   
 29  13  30  1   
 30  13  31  1   
 31  14  32  1   
 32  15  16  1   
 33  15  33  1   
 34  16  17  1   
 35  16  34  1   
 36  16  35  1   
 37  17  36  1   
@<TRIPOS>SUBSTRUCTURE
  1 ****   9 GROUP 4 **** **** 0

# MOE 2024.06 (io_trps.svl 2023.06)
