@<TRIPOS>MOLECULE
NONAME
46 48 1 0 0 
SMALL
USER_CHARGES


@<TRIPOS>ATOM
  1 S        0.9520     1.5490    -1.3100 S.o2  1 <1>   1.3330 
  2 O        0.1920     2.3710    -2.2250 O.2   1 <1>  -0.6500 
  3 O        1.6260     0.3780    -1.8230 O.2   1 <1>  -0.6500 
  4 N        2.1490     2.5330    -0.6200 N.am  1 <1>  -0.8490 
  5 C       -0.1470     1.0100     0.0150 C.3   1 <1>  -0.0550 
  6 C        3.1010     1.8060     0.2260 C.3   1 <1>   0.1160 
  7 C        2.8840     3.2730    -1.6520 C.3   1 <1>   0.1160 
  8 C       -0.9230     2.0380     0.8810 C.3   1 <1>  -0.0800 
  9 C       -1.5380     3.2160     0.1190 C.3   1 <1>   0.2000 
 10 C       -0.0650     2.6950     1.9670 C.3   1 <1>   0.1400 
 11 O       -2.6750     3.6050     0.8100 O.3   1 <1>  -0.6800 
 12 C       -0.5110     4.3450     0.2330 C.3   1 <1>   0.1400 
 13 N        0.2480     4.0600     1.4830 N.am  1 <1>  -0.6600 
 14 C        1.4340     4.6740     1.8240 C.2   1 <1>   0.5440 
 15 O        2.1210     4.1710     2.6940 O.2   1 <1>  -0.5700 
 16 C        1.8930     5.8790     1.1600 C.ar  1 <1>   0.0860 
 17 C        3.1800     5.9260     0.6280 C.ar  1 <1>  -0.1500 
 18 C        1.0750     7.0130     1.0330 C.ar  1 <1>  -0.1500 
 19 C        3.6290     7.0440    -0.0510 C.ar  1 <1>   0.2270 
 20 C        1.5060     8.1480     0.3680 C.ar  1 <1>  -0.1500 
 21 N        4.8800     7.1820    -0.6490 N.2   1 <1>  -0.5650 
 22 C        2.7800     8.1280    -0.1650 C.ar  1 <1>   0.0400 
 23 C        5.0130     8.3170    -1.2000 C.2   1 <1>   0.1980 
 24 S        3.6130     9.3760    -1.0630 S.3   1 <1>  -0.0800 
 25 C        6.2090     8.8600    -1.9460 C.3   1 <1>  -0.0600 
 26 H       -0.8880     0.3850    -0.4460 H     1 <1>   0.0800 
 27 H        0.4050     0.3700     0.6740 H     1 <1>   0.0800 
 28 H        3.7760     2.4990     0.6990 H     1 <1>   0.0800 
 29 H        3.6710     1.1040    -0.3620 H     1 <1>   0.0800 
 30 H        2.5830     1.2690     0.9990 H     1 <1>   0.0800 
 31 H        3.6580     3.8750    -1.2100 H     1 <1>   0.0800 
 32 H        2.2140     3.9240    -2.1870 H     1 <1>   0.0800 
 33 H        3.3330     2.5890    -2.3540 H     1 <1>   0.0800 
 34 H       -1.7040     1.4770     1.3670 H     1 <1>   0.0800 
 35 H       -1.8250     2.9930    -0.8950 H     1 <1>   0.0800 
 36 H        0.8340     2.1350     2.1620 H     1 <1>   0.0800 
 37 H       -0.6230     2.7780     2.8840 H     1 <1>   0.0800 
 38 H       -2.4100     3.9650     1.6800 H     1 <1>   0.4000 
 39 H       -0.9970     5.3040     0.2710 H     1 <1>   0.0800 
 40 H        0.1620     4.3290    -0.6050 H     1 <1>   0.0800 
 41 H        3.8380     5.0860     0.7430 H     1 <1>   0.1500 
 42 H        0.0920     6.9950     1.4700 H     1 <1>   0.1500 
 43 H        0.8820     9.0180     0.2650 H     1 <1>   0.1500 
 44 H        6.9930     8.1250    -1.9580 H     1 <1>   0.0800 
 45 H        6.5690     9.7480    -1.4610 H     1 <1>   0.0800 
 46 H        5.9320     9.0940    -2.9570 H     1 <1>   0.0800 
@<TRIPOS>BOND
  1   1   2  2   
  2   1   3  2   
  3   1   4  am  
  4   1   5  1   
  5   4   6  1   
  6   4   7  1   
  7   5   8  1   
  8   5  26  1   
  9   5  27  1   
 10   6  28  1   
 11   6  29  1   
 12   6  30  1   
 13   7  31  1   
 14   7  32  1   
 15   7  33  1   
 16   8   9  1   
 17   8  10  1   
 18   8  34  1   
 19   9  11  1   
 20   9  12  1   
 21   9  35  1   
 22  10  13  1   
 23  10  36  1   
 24  10  37  1   
 25  11  38  1   
 26  12  13  1   
 27  12  39  1   
 28  12  40  1   
 29  13  14  am  
 30  14  15  2   
 31  14  16  1   
 32  16  17  ar  
 33  16  18  ar  
 34  17  19  ar  
 35  17  41  1   
 36  18  20  ar  
 37  18  42  1   
 38  19  21  1   
 39  19  22  ar  
 40  20  22  ar  
 41  20  43  1   
 42  21  23  2   
 43  22  24  1   
 44  23  24  1   
 45  23  25  1   
 46  25  44  1   
 47  25  45  1   
 48  25  46  1   
@<TRIPOS>SUBSTRUCTURE
  1 ****  16 GROUP 4 **** **** 0

# MOE 2024.06 (io_trps.svl 2023.06)
