@<TRIPOS>MOLECULE
NONAME
48 50 1 0 0 
SMALL
USER_CHARGES


@<TRIPOS>ATOM
  1 O       -0.8130     0.1970    -0.9280 O.2   1 <1>  -0.5700 
  2 C       -1.6290     0.8230    -0.2800 C.2   1 <1>   0.5440 
  3 N       -2.7010     0.1490     0.2610 N.am  1 <1>  -0.6600 
  4 C       -1.4660     2.2520    -0.1220 C.ar  1 <1>   0.0860 
  5 C       -2.7410    -1.3470     0.3190 C.3   1 <1>   0.1400 
  6 C       -4.0570     0.7600     0.4130 C.3   1 <1>   0.1400 
  7 C       -1.0640     3.0360    -1.2010 C.ar  1 <1>   0.1600 
  8 C       -1.6950     2.9050     1.0830 C.ar  1 <1>  -0.1500 
  9 C       -3.8070    -1.9040    -0.6410 C.3   1 <1>   0.3440 
 10 C       -5.0640     0.1010    -0.5610 C.3   1 <1>   0.2000 
 11 N       -0.9090     4.3520    -1.1890 N.ar  1 <1>  -0.6200 
 12 C       -1.5300     4.2730     1.1210 C.ar  1 <1>  -0.1500 
 13 O       -5.0450    -1.2930    -0.3830 O.3   1 <1>  -0.5600 
 14 C       -3.9360    -3.4160    -0.4820 C.ar  1 <1>  -0.1430 
 15 C       -6.5300     0.6160    -0.4270 C.3   1 <1>   0.0000 
 16 C       -1.1440     4.9410    -0.0280 C.ar  1 <1>   0.1600 
 17 C       -4.8230    -3.9790     0.4260 C.ar  1 <1>  -0.1500 
 18 C       -3.1400    -4.2530    -1.2510 C.ar  1 <1>  -0.1500 
 19 C       -6.6020     2.1360    -0.6590 C.3   1 <1>  -0.2400 
 20 C       -7.1310     0.3050     0.9570 C.3   1 <1>  -0.2400 
 21 C       -7.4090    -0.0590    -1.4960 C.3   1 <1>  -0.2400 
 22 C       -4.9130    -5.3530     0.5630 C.ar  1 <1>  -0.1500 
 23 C       -3.2280    -5.6270    -1.1160 C.ar  1 <1>  -0.1500 
 24 C       -4.1140    -6.1790    -0.2090 C.ar  1 <1>  -0.1500 
 25 H       -1.7830    -1.7650     0.0650 H     1 <1>   0.0800 
 26 H       -2.9760    -1.6590     1.3210 H     1 <1>   0.0800 
 27 H       -4.3880     0.6250     1.4270 H     1 <1>   0.0800 
 28 H       -4.0130     1.8140     0.2120 H     1 <1>   0.0800 
 29 H       -0.8630     2.5340    -2.1330 H     1 <1>   0.1500 
 30 H       -1.9870     2.3510     1.9580 H     1 <1>   0.1500 
 31 H       -3.5310    -1.6770    -1.6560 H     1 <1>   0.0800 
 32 H       -4.7360     0.3000    -1.5670 H     1 <1>   0.0800 
 33 H       -1.6960     4.8210     2.0310 H     1 <1>   0.1500 
 34 H       -1.0200     6.0100     0.0090 H     1 <1>   0.1500 
 35 H       -5.4510    -3.3450     1.0280 H     1 <1>   0.1500 
 36 H       -2.4450    -3.8370    -1.9610 H     1 <1>   0.1500 
 37 H       -7.6270     2.4660    -0.6680 H     1 <1>   0.0800 
 38 H       -6.1590     2.3960    -1.6050 H     1 <1>   0.0800 
 39 H       -6.0950     2.6770     0.1190 H     1 <1>   0.0800 
 40 H       -8.1610     0.6120     0.9970 H     1 <1>   0.0800 
 41 H       -6.6020     0.8180     1.7390 H     1 <1>   0.0800 
 42 H       -7.0900    -0.7520     1.1540 H     1 <1>   0.0800 
 43 H       -8.4200     0.3020    -1.4460 H     1 <1>   0.0800 
 44 H       -7.4290    -1.1260    -1.3510 H     1 <1>   0.0800 
 45 H       -7.0260     0.1370    -2.4820 H     1 <1>   0.0800 
 46 H       -5.6050    -5.7780     1.2680 H     1 <1>   0.1500 
 47 H       -2.6070    -6.2680    -1.7180 H     1 <1>   0.1500 
 48 H       -4.1840    -7.2470    -0.1030 H     1 <1>   0.1500 
@<TRIPOS>BOND
  1   1   2  2   
  2   2   3  am  
  3   2   4  1   
  4   3   5  1   
  5   3   6  1   
  6   4   7  ar  
  7   4   8  ar  
  8   5   9  1   
  9   5  25  1   
 10   5  26  1   
 11   6  10  1   
 12   6  27  1   
 13   6  28  1   
 14   7  11  ar  
 15   7  29  1   
 16   8  12  ar  
 17   8  30  1   
 18   9  13  1   
 19   9  14  1   
 20   9  31  1   
 21  10  13  1   
 22  10  15  1   
 23  10  32  1   
 24  11  16  ar  
 25  12  16  ar  
 26  12  33  1   
 27  14  17  ar  
 28  14  18  ar  
 29  15  19  1   
 30  15  20  1   
 31  15  21  1   
 32  16  34  1   
 33  17  22  ar  
 34  17  35  1   
 35  18  23  ar  
 36  18  36  1   
 37  19  37  1   
 38  19  38  1   
 39  19  39  1   
 40  20  40  1   
 41  20  41  1   
 42  20  42  1   
 43  21  43  1   
 44  21  44  1   
 45  21  45  1   
 46  22  24  ar  
 47  22  46  1   
 48  23  24  ar  
 49  23  47  1   
 50  24  48  1   
@<TRIPOS>SUBSTRUCTURE
  1 ****   3 GROUP 4 **** **** 0

# MOE 2024.06 (io_trps.svl 2023.06)
