@<TRIPOS>MOLECULE
NONAME
48 51 1 0 0 
SMALL
USER_CHARGES


@<TRIPOS>ATOM
  1 O       -0.1570    -0.2860     1.2430 O.2   1 <1>  -0.5700 
  2 C        0.8190    -0.8950     0.8340 C.2   1 <1>   0.5440 
  3 N        1.2160    -2.0540     1.4580 N.am  1 <1>  -0.4200 
  4 C        1.5710    -0.4490    -0.3050 C.ar  1 <1>   0.0860 
  5 C        2.2940    -2.7540     0.9710 C.2   1 <1>   0.4500 
  6 C        0.5010    -2.5830     2.6600 C.3   1 <1>   0.2010 
  7 C        2.6550    -1.2380    -0.7090 C.ar  1 <1>   0.1790 
  8 C        1.2780     0.7150    -1.0220 C.ar  1 <1>  -0.1500 
  9 N        2.9900    -2.3990    -0.0410 N.2   1 <1>  -0.6290 
 10 C       -0.1290    -3.9530     2.4020 C.2   1 <1>   0.5690 
 11 C        3.4120    -0.8490    -1.8090 C.ar  1 <1>  -0.1500 
 12 C        2.0380     1.0880    -2.1110 C.ar  1 <1>  -0.1500 
 13 O        0.4890    -4.9020     2.8290 O.2   1 <1>  -0.5700 
 14 N       -1.3140    -4.1190     1.7180 N.am  1 <1>  -0.6600 
 15 C        3.1110     0.3020    -2.5070 C.ar  1 <1>  -0.1500 
 16 C       -2.1460    -2.9770     1.2230 C.3   1 <1>   0.2200 
 17 C       -1.8130    -5.5060     1.4520 C.3   1 <1>   0.0600 
 18 C       -2.0950    -2.8210    -0.2930 C.3   1 <1>  -0.1600 
 19 C       -3.6360    -3.0950     1.5380 C.3   1 <1>  -0.1600 
 20 C       -3.3030    -1.9330    -0.6190 C.3   1 <1>  -0.0800 
 21 C       -4.3080    -2.1390     0.5430 C.3   1 <1>  -0.0800 
 22 C       -3.8590    -2.1720    -2.0380 C.3   1 <1>   0.1400 
 23 C       -5.7060    -2.6130     0.1000 C.3   1 <1>  -0.0990 
 24 N       -5.2520    -1.6850    -2.1200 N.am  1 <1>  -0.7300 
 25 C       -6.1570    -1.8660    -1.1360 C.2   1 <1>   0.5690 
 26 O       -7.2850    -1.4600    -1.2350 O.2   1 <1>  -0.5700 
 27 H        2.5530    -3.6590     1.4950 H     1 <1>   0.0600 
 28 H        1.2150    -2.6900     3.4550 H     1 <1>   0.0800 
 29 H       -0.2460    -1.8950     3.0070 H     1 <1>   0.0800 
 30 H        0.4460     1.3240    -0.7110 H     1 <1>   0.1500 
 31 H        4.2410    -1.4660    -2.1050 H     1 <1>   0.1500 
 32 H        1.8040     1.9870    -2.6560 H     1 <1>   0.1500 
 33 H        3.7050     0.5930    -3.3560 H     1 <1>   0.1500 
 34 H       -1.8160    -2.0540     1.6590 H     1 <1>   0.0800 
 35 H       -2.3090    -5.5610     0.5000 H     1 <1>   0.0800 
 36 H       -2.5010    -5.7950     2.2270 H     1 <1>   0.0800 
 37 H       -0.9960    -6.2080     1.4420 H     1 <1>   0.0800 
 38 H       -1.1750    -2.3660    -0.6130 H     1 <1>   0.0800 
 39 H       -2.2030    -3.7780    -0.7680 H     1 <1>   0.0800 
 40 H       -3.9880    -4.0940     1.3630 H     1 <1>   0.0800 
 41 H       -3.8440    -2.8150     2.5550 H     1 <1>   0.0800 
 42 H       -2.9720    -0.9090    -0.5740 H     1 <1>   0.0800 
 43 H       -4.4290    -1.1810     1.0250 H     1 <1>   0.0800 
 44 H       -3.8550    -3.2240    -2.2680 H     1 <1>   0.0800 
 45 H       -3.2480    -1.6620    -2.7630 H     1 <1>   0.0800 
 46 H       -6.4180    -2.4620     0.8910 H     1 <1>   0.0800 
 47 H       -5.6910    -3.6590    -0.1460 H     1 <1>   0.0800 
 48 H       -5.5620    -1.2050    -2.9670 H     1 <1>   0.3700 
@<TRIPOS>BOND
  1   1   2  2   
  2   2   3  am  
  3   2   4  1   
  4   3   5  1   
  5   3   6  1   
  6   4   7  ar  
  7   4   8  ar  
  8   5   9  2   
  9   5  27  1   
 10   6  10  1   
 11   6  28  1   
 12   6  29  1   
 13   7   9  1   
 14   7  11  ar  
 15   8  12  ar  
 16   8  30  1   
 17  10  13  2   
 18  10  14  am  
 19  11  15  ar  
 20  11  31  1   
 21  12  15  ar  
 22  12  32  1   
 23  14  16  1   
 24  14  17  1   
 25  15  33  1   
 26  16  18  1   
 27  16  19  1   
 28  16  34  1   
 29  17  35  1   
 30  17  36  1   
 31  17  37  1   
 32  18  20  1   
 33  18  38  1   
 34  18  39  1   
 35  19  21  1   
 36  19  40  1   
 37  19  41  1   
 38  20  21  1   
 39  20  22  1   
 40  20  42  1   
 41  21  23  1   
 42  21  43  1   
 43  22  24  1   
 44  22  44  1   
 45  22  45  1   
 46  23  25  1   
 47  23  46  1   
 48  23  47  1   
 49  24  25  am  
 50  24  48  1   
 51  25  26  2   
@<TRIPOS>SUBSTRUCTURE
  1 ****  18 GROUP 4 **** **** 0

# MOE 2024.06 (io_trps.svl 2023.06)
