@<TRIPOS>MOLECULE
NONAME
61 65 1 0 0 
SMALL
USER_CHARGES


@<TRIPOS>ATOM
  1 N       -0.7660    -0.4160    -0.3320 N.ar  1 <1>  -0.6200 
  2 C        0.5450    -0.3200    -0.4840 C.ar  1 <1>   0.7710 
  3 C       -1.3140    -1.6160    -0.2950 C.ar  1 <1>   0.4100 
  4 N        1.3280    -1.4040    -0.6020 N.ar  1 <1>  -0.1790 
  5 N        1.1130     0.9100    -0.5230 N.pl3 1 <1>  -0.8380 
  6 N       -2.6620    -1.6860    -0.1220 N.pl3 1 <1>  -0.8380 
  7 C       -0.5240    -2.7750    -0.4350 C.ar  1 <1>  -0.1500 
  8 C        0.8170    -2.6560    -0.5860 C.ar  1 <1>   0.2180 
  9 C        2.5560     1.2660    -0.6160 C.3   1 <1>   0.2090 
 10 C        0.2880     2.1490    -0.4530 C.3   1 <1>   0.2090 
 11 C       -3.5780    -0.5420    -0.4790 C.3   1 <1>   0.2090 
 12 C       -3.4030    -2.8510     0.4540 C.3   1 <1>   0.2090 
 13 C        1.7580    -3.8390    -0.7460 C.3   1 <1>  -0.0970 
 14 C        2.6150     2.7560    -0.3110 C.3   1 <1>  -0.1600 
 15 C        1.2540     3.2900    -0.7400 C.3   1 <1>  -0.1600 
 16 C       -4.3760    -0.0490     0.7420 C.3   1 <1>   0.1430 
 17 C       -4.2170    -2.4080     1.6770 C.3   1 <1>  -0.1600 
 18 C       -5.2860     1.0740     0.2850 C.ar  1 <1>   0.1670 
 19 C       -5.1550    -1.2310     1.3550 C.3   1 <1>  -0.1600 
 20 C       -3.4730     0.6570     1.7900 C.3   1 <1>  -0.1600 
 21 N       -6.3520     0.9270    -0.4620 N.ar  1 <1>  -0.6200 
 22 C       -4.8490     2.2860     0.7240 C.ar  1 <1>  -0.1430 
 23 C       -3.5850     2.1700     1.5380 C.3   1 <1>  -0.0170 
 24 C       -6.9990     2.0570    -0.7590 C.ar  1 <1>   0.7200 
 25 C       -5.5790     3.3930     0.3720 C.ar  1 <1>   0.1600 
 26 N       -6.6570     3.2900    -0.3690 N.ar  1 <1>  -0.6200 
 27 N       -8.1260     1.9400    -1.5490 N.pl3 1 <1>  -0.8380 
 28 C       -8.7630     3.1200    -2.1960 C.3   1 <1>   0.1290 
 29 C       -8.7970     0.6320    -1.7820 C.3   1 <1>   0.1290 
 30 H        2.3140    -1.2170    -0.7210 H     1 <1>   0.4570 
 31 H       -0.9990    -3.7360    -0.4360 H     1 <1>   0.1500 
 32 H        2.9060     1.0900    -1.6200 H     1 <1>   0.0800 
 33 H        3.1520     0.7130     0.0910 H     1 <1>   0.0800 
 34 H       -0.1230     2.2470     0.5380 H     1 <1>   0.0800 
 35 H       -0.5150     2.1270    -1.1730 H     1 <1>   0.0800 
 36 H       -4.2720    -0.8790    -1.2310 H     1 <1>   0.0800 
 37 H       -3.0330     0.2820    -0.9050 H     1 <1>   0.0800 
 38 H       -2.7280    -3.6280     0.7610 H     1 <1>   0.0800 
 39 H       -4.0640    -3.2520    -0.2960 H     1 <1>   0.0800 
 40 H        2.4820    -3.8540     0.0490 H     1 <1>   0.0800 
 41 H        2.2720    -3.7860    -1.6900 H     1 <1>   0.0800 
 42 H        1.2080    -4.7630    -0.7160 H     1 <1>   0.0800 
 43 H        3.4250     3.2420    -0.8270 H     1 <1>   0.0800 
 44 H        2.7440     2.8960     0.7490 H     1 <1>   0.0800 
 45 H        0.9790     4.1870    -0.2140 H     1 <1>   0.0800 
 46 H        1.2530     3.4920    -1.7970 H     1 <1>   0.0800 
 47 H       -3.5380    -2.1320     2.4640 H     1 <1>   0.0800 
 48 H       -4.8000    -3.2400     2.0300 H     1 <1>   0.0800 
 49 H       -5.8980    -1.5620     0.6490 H     1 <1>   0.0800 
 50 H       -5.6750    -0.9140     2.2420 H     1 <1>   0.0800 
 51 H       -2.4530     0.3220     1.7470 H     1 <1>   0.0800 
 52 H       -3.8480     0.4580     2.7790 H     1 <1>   0.0800 
 53 H       -2.7490     2.5210     0.9590 H     1 <1>   0.0800 
 54 H       -3.6530     2.7210     2.4600 H     1 <1>   0.0800 
 55 H       -5.2760     4.3720     0.6990 H     1 <1>   0.1500 
 56 H       -8.0280     3.8780    -2.4060 H     1 <1>   0.0800 
 57 H       -9.5100     3.5300    -1.5380 H     1 <1>   0.0800 
 58 H       -9.2240     2.8300    -3.1230 H     1 <1>   0.0800 
 59 H       -8.6340    -0.0300    -0.9490 H     1 <1>   0.0800 
 60 H       -8.3990     0.1780    -2.6730 H     1 <1>   0.0800 
 61 H       -9.8570     0.7740    -1.8970 H     1 <1>   0.0800 
@<TRIPOS>BOND
  1   1   2  ar  
  2   1   3  ar  
  3   2   4  ar  
  4   2   5  1   
  5   3   6  1   
  6   3   7  ar  
  7   4   8  ar  
  8   4  30  1   
  9   5   9  1   
 10   5  10  1   
 11   6  11  1   
 12   6  12  1   
 13   7   8  ar  
 14   7  31  1   
 15   8  13  1   
 16   9  14  1   
 17   9  32  1   
 18   9  33  1   
 19  10  15  1   
 20  10  34  1   
 21  10  35  1   
 22  11  16  1   
 23  11  36  1   
 24  11  37  1   
 25  12  17  1   
 26  12  38  1   
 27  12  39  1   
 28  13  40  1   
 29  13  41  1   
 30  13  42  1   
 31  14  15  1   
 32  14  43  1   
 33  14  44  1   
 34  15  45  1   
 35  15  46  1   
 36  16  18  1   
 37  16  19  1   
 38  16  20  1   
 39  17  19  1   
 40  17  47  1   
 41  17  48  1   
 42  18  21  ar  
 43  18  22  ar  
 44  19  49  1   
 45  19  50  1   
 46  20  23  1   
 47  20  51  1   
 48  20  52  1   
 49  21  24  ar  
 50  22  23  1   
 51  22  25  ar  
 52  23  53  1   
 53  23  54  1   
 54  24  26  ar  
 55  24  27  1   
 56  25  26  ar  
 57  25  55  1   
 58  27  28  1   
 59  27  29  1   
 60  28  56  1   
 61  28  57  1   
 62  28  58  1   
 63  29  59  1   
 64  29  60  1   
 65  29  61  1   
@<TRIPOS>SUBSTRUCTURE
  1 ****  11 GROUP 4 **** **** 0

# MOE 2024.06 (io_trps.svl 2023.06)
