@<TRIPOS>MOLECULE
NONAME
55 59 1 0 0 
SMALL
USER_CHARGES


@<TRIPOS>ATOM
  1 CL       0.0540    -0.5450    -1.0090 Cl    1 <1>  -0.1770 
  2 C       -1.6490    -0.9130    -0.8610 C.ar  1 <1>   0.1770 
  3 C       -2.5680     0.0220    -0.4510 C.ar  1 <1>  -0.1440 
  4 C       -2.0250    -2.2150    -1.1800 C.ar  1 <1>  -0.1500 
  5 C       -3.9330    -0.3450    -0.3490 C.ar  1 <1>   0.3100 
  6 C       -2.1590     1.4550    -0.0960 C.3   1 <1>  -0.0960 
  7 C       -3.3390    -2.5800    -1.0920 C.ar  1 <1>  -0.1500 
  8 N       -4.8140     0.5870     0.0840 N.ar  1 <1>  -0.6200 
  9 C       -4.3310    -1.6620    -0.6860 C.ar  1 <1>   0.0000 
 10 C       -6.0820     0.2840     0.1970 C.ar  1 <1>   0.3630 
 11 C       -5.7080    -1.9890    -0.5810 C.ar  1 <1>   0.0860 
 12 C       -7.0300     1.2760     0.6680 C.2   1 <1>   0.0870 
 13 C       -6.5390    -0.9990    -0.1300 C.ar  1 <1>  -0.1500 
 14 C       -6.2540    -3.2930    -0.9100 C.2   1 <1>   0.5440 
 15 O       -6.6150     2.4770     1.0650 O.3   1 <1>  -0.2800 
 16 C       -8.3870     1.2320     0.8040 C.2   1 <1>  -0.1500 
 17 O       -5.9380    -3.8580    -1.9400 O.2   1 <1>  -0.5700 
 18 N       -7.1480    -3.9020    -0.0540 N.am  1 <1>  -0.6600 
 19 C       -7.6540     3.1870     1.4430 C.2   1 <1>  -0.0100 
 20 C       -8.7880     2.4700     1.3060 C.2   1 <1>  -0.1500 
 21 C       -8.1440    -4.9280    -0.5290 C.3   1 <1>   0.2200 
 22 C       -6.8000    -3.9310     1.4010 C.3   1 <1>   0.0600 
 23 C       -9.3000    -5.1160     0.4800 C.3   1 <1>  -0.1600 
 24 C       -8.8480    -4.5500    -1.8540 C.3   1 <1>  -0.1600 
 25 C      -10.5990    -5.0770    -0.3330 C.3   1 <1>  -0.0800 
 26 C      -10.2770    -4.1370    -1.4940 C.3   1 <1>  -0.0800 
 27 C      -11.8480    -4.6730     0.4640 C.3   1 <1>   0.1400 
 28 C      -10.3160    -2.6370    -1.1110 C.3   1 <1>  -0.0990 
 29 N      -11.8390    -3.2290     0.7720 N.am  1 <1>  -0.7300 
 30 C      -11.1780    -2.2760     0.0830 C.2   1 <1>   0.5690 
 31 O      -11.2420    -1.1230     0.4250 O.2   1 <1>  -0.5700 
 32 H       -1.2690    -2.9130    -1.4930 H     1 <1>   0.1500 
 33 H       -2.6940     2.1500    -0.7210 H     1 <1>   0.0800 
 34 H       -1.1090     1.6350    -0.2240 H     1 <1>   0.0800 
 35 H       -2.4120     1.6620     0.9290 H     1 <1>   0.0800 
 36 H       -3.6120    -3.5910    -1.3410 H     1 <1>   0.1500 
 37 H       -7.5840    -1.2020    -0.0180 H     1 <1>   0.1500 
 38 H       -9.0670     0.4280     0.5820 H     1 <1>   0.1500 
 39 H       -7.4990     4.1910     1.7970 H     1 <1>   0.1500 
 40 H       -9.8010     2.7580     1.5260 H     1 <1>   0.1500 
 41 H       -7.6230    -5.8610    -0.6690 H     1 <1>   0.0800 
 42 H       -6.8700    -4.9360     1.7800 H     1 <1>   0.0800 
 43 H       -7.4700    -3.2940     1.9520 H     1 <1>   0.0800 
 44 H       -5.7920    -3.5860     1.5580 H     1 <1>   0.0800 
 45 H       -9.2060    -6.0470     1.0080 H     1 <1>   0.0800 
 46 H       -9.3320    -4.3100     1.1890 H     1 <1>   0.0800 
 47 H       -8.3500    -3.7920    -2.4290 H     1 <1>   0.0800 
 48 H       -8.8950    -5.4350    -2.4640 H     1 <1>   0.0800 
 49 H      -10.7630    -6.0640    -0.7320 H     1 <1>   0.0800 
 50 H      -10.9520    -4.3130    -2.3140 H     1 <1>   0.0800 
 51 H      -11.8940    -5.2370     1.3810 H     1 <1>   0.0800 
 52 H      -12.7310    -4.8930    -0.1130 H     1 <1>   0.0800 
 53 H      -10.6520    -2.0650    -1.9550 H     1 <1>   0.0800 
 54 H       -9.3290    -2.2950    -0.8770 H     1 <1>   0.0800 
 55 H      -12.4240    -2.9060     1.5450 H     1 <1>   0.3700 
@<TRIPOS>BOND
  1   1   2  1   
  2   2   3  ar  
  3   2   4  ar  
  4   3   5  ar  
  5   3   6  1   
  6   4   7  ar  
  7   4  32  1   
  8   5   8  ar  
  9   5   9  ar  
 10   6  33  1   
 11   6  34  1   
 12   6  35  1   
 13   7   9  ar  
 14   7  36  1   
 15   8  10  ar  
 16   9  11  ar  
 17  10  12  1   
 18  10  13  ar  
 19  11  13  ar  
 20  11  14  1   
 21  12  15  1   
 22  12  16  2   
 23  13  37  1   
 24  14  17  2   
 25  14  18  am  
 26  15  19  1   
 27  16  20  1   
 28  16  38  1   
 29  18  21  1   
 30  18  22  1   
 31  19  20  2   
 32  19  39  1   
 33  20  40  1   
 34  21  23  1   
 35  21  24  1   
 36  21  41  1   
 37  22  42  1   
 38  22  43  1   
 39  22  44  1   
 40  23  25  1   
 41  23  45  1   
 42  23  46  1   
 43  24  26  1   
 44  24  47  1   
 45  24  48  1   
 46  25  26  1   
 47  25  27  1   
 48  25  49  1   
 49  26  28  1   
 50  26  50  1   
 51  27  29  1   
 52  27  51  1   
 53  27  52  1   
 54  28  30  1   
 55  28  53  1   
 56  28  54  1   
 57  29  30  am  
 58  29  55  1   
 59  30  31  2   
@<TRIPOS>SUBSTRUCTURE
  1 ****  13 GROUP 4 **** **** 0

# MOE 2024.06 (io_trps.svl 2023.06)
