@<TRIPOS>MOLECULE
NONAME
41 43 1 0 0 
SMALL
USER_CHARGES


@<TRIPOS>ATOM
  1 O        2.3890    -1.1120     2.2690 O.co2 1 <1>  -0.9000 
  2 C        2.9670    -0.9280     1.2010 C.2   1 <1>   0.9060 
  3 O        3.3080    -1.8380     0.4340 O.co2 1 <1>  -0.9000 
  4 C        3.3010     0.4920     0.8000 C.3   1 <1>  -0.1860 
  5 C        4.8000     0.6060     0.5030 C.3   1 <1>   0.2000 
  6 C        2.4300     0.9870    -0.3850 C.3   1 <1>  -0.1600 
  7 O        5.0930    -0.2150    -0.5750 O.3   1 <1>  -0.6800 
  8 C        5.1720     2.0550     0.1270 C.3   1 <1>   0.3430 
  9 C        3.2030     1.8440    -1.3930 C.3   1 <1>   0.3430 
 10 N        4.0990     2.7840    -0.6620 N.4   1 <1>  -0.9590 
 11 C        4.6930     3.7910    -1.5700 C.3   1 <1>   0.4860 
 12 C        5.2210     4.9370    -0.7280 C.ar  1 <1>  -0.1440 
 13 C        6.5540     4.9690    -0.3520 C.ar  1 <1>  -0.1500 
 14 C        4.3750     5.9580    -0.3220 C.ar  1 <1>  -0.1500 
 15 C        7.0580     5.9960     0.4420 C.ar  1 <1>  -0.0230 
 16 C        4.8610     6.9900     0.4610 C.ar  1 <1>  -0.1500 
 17 N        8.4280     5.9900     0.8370 N.pl3 1 <1>   0.5930 
 18 C        6.1900     7.0070     0.8430 C.ar  1 <1>  -0.1500 
 19 N        9.1240     4.8410     1.0390 N.2   1 <1>  -0.7070 
 20 C        9.2320     7.0580     1.0660 C.2   1 <1>  -0.3020 
 21 C       10.3170     5.2110     1.3860 C.2   1 <1>   0.1390 
 22 C       10.4480     6.5940     1.4210 C.2   1 <1>  -0.1500 
 23 H        3.0910     1.1060     1.6560 H     1 <1>   0.0800 
 24 H        5.3870     0.2620     1.3390 H     1 <1>   0.0800 
 25 H        1.5820     1.5280    -0.0060 H     1 <1>   0.0800 
 26 H        2.0420     0.1350    -0.9190 H     1 <1>   0.0800 
 27 H        4.5870    -1.0710    -0.4070 H     1 <1>   0.4000 
 28 H        6.0900     2.0190    -0.4330 H     1 <1>   0.0800 
 29 H        5.3650     2.6060     1.0330 H     1 <1>   0.0800 
 30 H        2.5080     2.3800    -2.0180 H     1 <1>   0.0800 
 31 H        3.7980     1.1970    -2.0190 H     1 <1>   0.0800 
 32 H        3.5200     3.2820     0.0230 H     1 <1>   0.4500 
 33 H        5.4890     3.3490    -2.1470 H     1 <1>   0.0800 
 34 H        3.9450     4.1660    -2.2480 H     1 <1>   0.0800 
 35 H        7.2290     4.1890    -0.6680 H     1 <1>   0.1500 
 36 H        3.3360     5.9660    -0.6070 H     1 <1>   0.1500 
 37 H        4.2040     7.7840     0.7760 H     1 <1>   0.1500 
 38 H        6.5480     7.8130     1.4620 H     1 <1>   0.1500 
 39 H        8.8950     8.0710     0.9590 H     1 <1>   0.1500 
 40 H       11.1110     4.5210     1.6190 H     1 <1>   0.1500 
 41 H       11.3380     7.1400     1.6780 H     1 <1>   0.1500 
@<TRIPOS>BOND
  1   1   2  ar  
  2   2   3  ar  
  3   2   4  1   
  4   4   5  1   
  5   4   6  1   
  6   4  23  1   
  7   5   7  1   
  8   5   8  1   
  9   5  24  1   
 10   6   9  1   
 11   6  25  1   
 12   6  26  1   
 13   7  27  1   
 14   8  10  1   
 15   8  28  1   
 16   8  29  1   
 17   9  10  1   
 18   9  30  1   
 19   9  31  1   
 20  10  11  1   
 21  10  32  1   
 22  11  12  1   
 23  11  33  1   
 24  11  34  1   
 25  12  13  ar  
 26  12  14  ar  
 27  13  15  ar  
 28  13  35  1   
 29  14  16  ar  
 30  14  36  1   
 31  15  17  1   
 32  15  18  ar  
 33  16  18  ar  
 34  16  37  1   
 35  17  19  1   
 36  17  20  1   
 37  18  38  1   
 38  19  21  2   
 39  20  22  2   
 40  20  39  1   
 41  21  22  1   
 42  21  40  1   
 43  22  41  1   
@<TRIPOS>SUBSTRUCTURE
  1 ****   8 GROUP 4 **** **** 0

# MOE 2024.06 (io_trps.svl 2023.06)
