@<TRIPOS>MOLECULE
NONAME
52 54 1 0 0 
SMALL
USER_CHARGES


@<TRIPOS>ATOM
  1 O        0.3540     1.1320     0.0490 O.2   1 <1>  -0.5700 
  2 C        0.2140     2.2830    -0.2770 C.2   1 <1>   0.5690 
  3 N       -0.7770     3.0340     0.2510 N.am  1 <1>  -0.7300 
  4 C        1.1450     2.9080    -1.3200 C.3   1 <1>   0.1810 
  5 C       -1.0200     4.4510    -0.1160 C.3   1 <1>   0.3640 
  6 O        1.1290     4.3200    -1.2840 O.3   1 <1>  -0.5600 
  7 C       -2.5110     4.6630    -0.3610 C.ar  1 <1>  -0.1440 
  8 C       -0.1740     4.8890    -1.3400 C.3   1 <1>   0.2610 
  9 C       -3.0930     5.8610     0.0260 C.ar  1 <1>  -0.1500 
 10 C       -3.3040     3.7040    -0.9790 C.ar  1 <1>  -0.1500 
 11 C       -0.0920     6.4170    -1.3650 C.2   1 <1>   0.5690 
 12 C       -4.4350     6.1150    -0.2080 C.ar  1 <1>   0.0830 
 13 C       -4.6520     3.9380    -1.1890 C.ar  1 <1>  -0.1500 
 14 O       -0.9570     7.0460    -1.9290 O.2   1 <1>  -0.5700 
 15 N        0.9450     7.0130    -0.7170 N.am  1 <1>  -0.7300 
 16 O       -4.9050     7.3390     0.1320 O.3   1 <1>  -0.3630 
 17 C       -5.2380     5.1310    -0.8010 C.ar  1 <1>   0.0830 
 18 C        1.1900     8.4430    -0.4740 C.3   1 <1>   0.3000 
 19 C       -4.5220     8.3880    -0.7310 C.3   1 <1>   0.0400 
 20 O       -6.5740     5.2390    -1.0490 O.3   1 <1>  -0.3630 
 21 C        2.3760     8.5460     0.4820 C.3   1 <1>  -0.1600 
 22 C        0.0540     9.0410     0.3560 C.3   1 <1>  -0.1600 
 23 C        1.4420     9.1590    -1.8000 C.3   1 <1>  -0.2400 
 24 C       -7.3990     6.0380    -0.2300 C.3   1 <1>   0.0400 
 25 C        1.8090     8.2730     1.8810 C.3   1 <1>  -0.1600 
 26 C        0.3080     8.5790     1.7960 C.3   1 <1>  -0.1600 
 27 H       -1.4100     2.6120     0.9330 H     1 <1>   0.3700 
 28 H        0.8500     2.5890    -2.3030 H     1 <1>   0.0800 
 29 H        2.1530     2.5860    -1.1370 H     1 <1>   0.0800 
 30 H       -0.7250     5.0560     0.7250 H     1 <1>   0.0800 
 31 H       -0.6450     4.5600    -2.2480 H     1 <1>   0.0800 
 32 H       -2.5040     6.6250     0.5000 H     1 <1>   0.1500 
 33 H       -2.8840     2.7670    -1.3020 H     1 <1>   0.1500 
 34 H       -5.2630     3.1900    -1.6600 H     1 <1>   0.1500 
 35 H        1.6910     6.4000    -0.3850 H     1 <1>   0.3700 
 36 H       -4.9700     9.2980    -0.3760 H     1 <1>   0.0800 
 37 H       -4.8730     8.1630    -1.7230 H     1 <1>   0.0800 
 38 H       -3.4500     8.4770    -0.7290 H     1 <1>   0.0800 
 39 H        3.1790     7.8790     0.2200 H     1 <1>   0.0800 
 40 H        2.7550     9.5530     0.4610 H     1 <1>   0.0800 
 41 H        0.1290    10.1140     0.3230 H     1 <1>   0.0800 
 42 H       -0.9200     8.7630    -0.0020 H     1 <1>   0.0800 
 43 H        1.6820    10.1920    -1.6280 H     1 <1>   0.0800 
 44 H        0.5640     9.1200    -2.4190 H     1 <1>   0.0800 
 45 H        2.2620     8.6990    -2.3220 H     1 <1>   0.0800 
 46 H       -8.4170     5.7270    -0.3770 H     1 <1>   0.0800 
 47 H       -7.2870     7.0660    -0.5210 H     1 <1>   0.0800 
 48 H       -7.1140     5.8990     0.7980 H     1 <1>   0.0800 
 49 H        1.9530     7.2390     2.1430 H     1 <1>   0.0800 
 50 H        2.2950     8.8890     2.6190 H     1 <1>   0.0800 
 51 H        0.0160     9.3370     2.5020 H     1 <1>   0.0800 
 52 H       -0.2540     7.6830     1.9940 H     1 <1>   0.0800 
@<TRIPOS>BOND
  1   1   2  2   
  2   2   3  am  
  3   2   4  1   
  4   3   5  1   
  5   3  27  1   
  6   4   6  1   
  7   4  28  1   
  8   4  29  1   
  9   5   7  1   
 10   5   8  1   
 11   5  30  1   
 12   6   8  1   
 13   7   9  ar  
 14   7  10  ar  
 15   8  11  1   
 16   8  31  1   
 17   9  12  ar  
 18   9  32  1   
 19  10  13  ar  
 20  10  33  1   
 21  11  14  2   
 22  11  15  am  
 23  12  16  1   
 24  12  17  ar  
 25  13  17  ar  
 26  13  34  1   
 27  15  18  1   
 28  15  35  1   
 29  16  19  1   
 30  17  20  1   
 31  18  21  1   
 32  18  22  1   
 33  18  23  1   
 34  19  36  1   
 35  19  37  1   
 36  19  38  1   
 37  20  24  1   
 38  21  25  1   
 39  21  39  1   
 40  21  40  1   
 41  22  26  1   
 42  22  41  1   
 43  22  42  1   
 44  23  43  1   
 45  23  44  1   
 46  23  45  1   
 47  24  46  1   
 48  24  47  1   
 49  24  48  1   
 50  25  26  1   
 51  25  49  1   
 52  25  50  1   
 53  26  51  1   
 54  26  52  1   
@<TRIPOS>SUBSTRUCTURE
  1 ****   5 GROUP 4 **** **** 0

# MOE 2024.06 (io_trps.svl 2023.06)
