@<TRIPOS>MOLECULE
NONAME
61 64 1 0 0 
SMALL
USER_CHARGES


@<TRIPOS>ATOM
  1 O       -2.3370     0.3750    -1.9000 O.2   1 <1>  -0.5700 
  2 C       -2.0020     0.6580    -0.7660 C.2   1 <1>   0.5440 
  3 N       -2.0070    -0.3360     0.1700 N.am  1 <1>  -0.7300 
  4 C       -1.6100     2.0120    -0.4140 C.ar  1 <1>   0.0860 
  5 C       -2.4380    -1.7280    -0.0850 C.3   1 <1>   0.2200 
  6 C       -1.7580     2.5130     0.8820 C.ar  1 <1>  -0.1500 
  7 C       -1.0680     2.8700    -1.3700 C.ar  1 <1>  -0.1500 
  8 C       -3.9210    -1.8460     0.2130 C.3   1 <1>  -0.0800 
  9 C       -1.8330    -2.6640     0.9550 C.3   1 <1>   0.1200 
 10 C       -1.3710     3.8010     1.2060 C.ar  1 <1>  -0.1500 
 11 C       -0.6800     4.1580    -1.0510 C.ar  1 <1>  -0.1500 
 12 C       -3.9330    -2.1010     1.7230 C.3   1 <1>   0.1200 
 13 C       -4.5650    -2.9970    -0.5850 C.3   1 <1>  -0.0160 
 14 O       -2.6730    -2.6020     2.0690 O.3   1 <1>  -0.5600 
 15 C       -0.8270     4.6320     0.2420 C.ar  1 <1>  -0.1430 
 16 C       -6.0760    -3.0390    -0.3820 C.ar  1 <1>  -0.1430 
 17 C       -0.4040     6.0500     0.5880 C.3   1 <1>  -0.0170 
 18 C       -6.9470    -2.1120    -1.0030 C.ar  1 <1>   0.0000 
 19 C       -6.6350    -3.9910     0.4190 C.ar  1 <1>  -0.1500 
 20 C       -1.5570     7.0300     0.3110 C.3   1 <1>  -0.1600 
 21 C       -8.3330    -2.2290    -0.7320 C.ar  1 <1>   0.3100 
 22 C       -6.5290    -1.0790    -1.8760 C.ar  1 <1>  -0.1500 
 23 C       -8.0210    -4.0220     0.6160 C.ar  1 <1>   0.1600 
 24 C       -1.2380     8.5110     0.5790 C.3   1 <1>   0.2800 
 25 N       -8.8520    -3.1870     0.0780 N.ar  1 <1>  -0.6200 
 26 C       -9.2210    -1.3190    -1.3260 C.ar  1 <1>  -0.1500 
 27 C       -7.4220    -0.2090    -2.4390 C.ar  1 <1>  -0.1500 
 28 O       -0.1400     8.8550    -0.1640 O.3   1 <1>  -0.6800 
 29 C       -2.3840     9.4050     0.1110 C.3   1 <1>  -0.2400 
 30 C       -0.8930     8.7970     2.0410 C.3   1 <1>  -0.2400 
 31 C       -8.7860    -0.3270    -2.1620 C.ar  1 <1>  -0.1500 
 32 H       -1.7510    -0.1390     1.1380 H     1 <1>   0.3700 
 33 H       -2.1800    -2.0150    -1.0910 H     1 <1>   0.0800 
 34 H       -2.1880     1.8940     1.6470 H     1 <1>   0.1500 
 35 H       -0.9500     2.5160    -2.3800 H     1 <1>   0.1500 
 36 H       -4.4340    -0.9290    -0.0180 H     1 <1>   0.0800 
 37 H       -0.8340    -2.3830     1.2370 H     1 <1>   0.0800 
 38 H       -1.8390    -3.6790     0.5990 H     1 <1>   0.0800 
 39 H       -1.4970     4.1580     2.2130 H     1 <1>   0.1500 
 40 H       -0.2640     4.7950    -1.8130 H     1 <1>   0.1500 
 41 H       -4.6860    -2.8070     2.0260 H     1 <1>   0.0800 
 42 H       -4.0730    -1.1790     2.2610 H     1 <1>   0.0800 
 43 H       -4.1330    -3.9350    -0.2820 H     1 <1>   0.0800 
 44 H       -4.3560    -2.8800    -1.6340 H     1 <1>   0.0800 
 45 H       -0.1160     6.0920     1.6230 H     1 <1>   0.0800 
 46 H        0.4560     6.3190    -0.0010 H     1 <1>   0.0800 
 47 H       -6.0370    -4.7310     0.9180 H     1 <1>   0.1500 
 48 H       -2.4020     6.7440     0.9100 H     1 <1>   0.0800 
 49 H       -1.8510     6.9250    -0.7190 H     1 <1>   0.0800 
 50 H       -5.4860    -0.9670    -2.1090 H     1 <1>   0.1500 
 51 H       -8.4200    -4.7890     1.2580 H     1 <1>   0.1500 
 52 H      -10.2660    -1.4300    -1.0990 H     1 <1>   0.1500 
 53 H       -7.0870     0.5730    -3.0990 H     1 <1>   0.1500 
 54 H        0.0520     9.8010    -0.0340 H     1 <1>   0.4000 
 55 H       -3.2780     9.1700     0.6590 H     1 <1>   0.0800 
 56 H       -2.5790     9.2470    -0.9350 H     1 <1>   0.0800 
 57 H       -2.1540    10.4430     0.2730 H     1 <1>   0.0800 
 58 H       -1.7000     8.4790     2.6750 H     1 <1>   0.0800 
 59 H       -0.7420     9.8500     2.1960 H     1 <1>   0.0800 
 60 H       -0.0020     8.2740     2.3360 H     1 <1>   0.0800 
 61 H       -9.4790     0.3640    -2.6100 H     1 <1>   0.1500 
@<TRIPOS>BOND
  1   1   2  2   
  2   2   3  am  
  3   2   4  1   
  4   3   5  1   
  5   3  32  1   
  6   4   6  ar  
  7   4   7  ar  
  8   5   8  1   
  9   5   9  1   
 10   5  33  1   
 11   6  10  ar  
 12   6  34  1   
 13   7  11  ar  
 14   7  35  1   
 15   8  12  1   
 16   8  13  1   
 17   8  36  1   
 18   9  14  1   
 19   9  37  1   
 20   9  38  1   
 21  10  15  ar  
 22  10  39  1   
 23  11  15  ar  
 24  11  40  1   
 25  12  14  1   
 26  12  41  1   
 27  12  42  1   
 28  13  16  1   
 29  13  43  1   
 30  13  44  1   
 31  15  17  1   
 32  16  18  ar  
 33  16  19  ar  
 34  17  20  1   
 35  17  45  1   
 36  17  46  1   
 37  18  21  ar  
 38  18  22  ar  
 39  19  23  ar  
 40  19  47  1   
 41  20  24  1   
 42  20  48  1   
 43  20  49  1   
 44  21  25  ar  
 45  21  26  ar  
 46  22  27  ar  
 47  22  50  1   
 48  23  25  ar  
 49  23  51  1   
 50  24  28  1   
 51  24  29  1   
 52  24  30  1   
 53  26  31  ar  
 54  26  52  1   
 55  27  31  ar  
 56  27  53  1   
 57  28  54  1   
 58  29  55  1   
 59  29  56  1   
 60  29  57  1   
 61  30  58  1   
 62  30  59  1   
 63  30  60  1   
 64  31  61  1   
@<TRIPOS>SUBSTRUCTURE
  1 ****   2 GROUP 4 **** **** 0

# MOE 2024.06 (io_trps.svl 2023.06)
