@<TRIPOS>MOLECULE
NONAME
48 51 1 0 0 
SMALL
USER_CHARGES


@<TRIPOS>ATOM
  1 O        1.3110    -0.2700    -2.5400 O.2   1 <1>  -0.5700 
  2 C        1.7090    -0.7630    -1.5100 C.2   1 <1>   0.5690 
  3 N        2.3180    -0.0310    -0.5080 N.am  1 <1>  -0.4770 
  4 C        1.5200    -2.2820    -1.3600 C.3   1 <1>   0.1710 
  5 C        2.6640     1.3270    -0.4920 C.ar  1 <1>   0.1170 
  6 C        2.6700    -0.6250     0.8130 C.3   1 <1>   0.1400 
  7 N        0.5980    -2.7130    -0.2700 N.3   1 <1>  -0.8100 
  8 C        3.2400     1.6880     0.7070 C.ar  1 <1>  -0.1430 
  9 C        2.5070     2.2880    -1.4850 C.ar  1 <1>  -0.1500 
 10 C        3.3160     0.5020     1.6320 C.3   1 <1>  -0.0170 
 11 C       -0.7330    -2.0960    -0.3950 C.3   1 <1>   0.1100 
 12 C        0.3830    -4.1700    -0.2490 C.3   1 <1>   0.1100 
 13 C        3.6640     2.9810     0.9500 C.ar  1 <1>  -0.1500 
 14 C        2.9280     3.5870    -1.2560 C.ar  1 <1>  -0.1500 
 15 C       -1.6440    -3.0150     0.4070 C.3   1 <1>   0.2000 
 16 C       -1.1150    -4.3970     0.0230 C.3   1 <1>  -0.0800 
 17 C        3.5050     3.9350    -0.0430 C.ar  1 <1>  -0.1500 
 18 O       -1.3900    -2.7780     1.7460 O.3   1 <1>  -0.6800 
 19 C       -1.3940    -5.5130     1.0480 C.3   1 <1>   0.0200 
 20 C       -0.9570    -6.8840     0.5590 C.2   1 <1>  -0.0400 
 21 O       -0.9180    -7.8720     1.4140 O.3   1 <1>  -0.0190 
 22 C       -0.5730    -7.3640    -0.6350 C.2   1 <1>  -0.1500 
 23 N       -0.5240    -8.9810     0.8590 N.2   1 <1>  -0.4100 
 24 C       -0.3110    -8.7060    -0.3770 C.2   1 <1>   0.1080 
 25 C        0.1600    -9.7140    -1.4010 C.3   1 <1>  -0.0590 
 26 H        2.4860    -2.7230    -1.1950 H     1 <1>   0.0800 
 27 H        1.1520    -2.6550    -2.2990 H     1 <1>   0.0800 
 28 H        1.7770    -0.9730     1.3020 H     1 <1>   0.0800 
 29 H        3.3570    -1.4430     0.6810 H     1 <1>   0.0800 
 30 H        2.0620     2.0280    -2.4270 H     1 <1>   0.1500 
 31 H        2.7650     0.6820     2.5370 H     1 <1>   0.0800 
 32 H        4.3380     0.2660     1.8680 H     1 <1>   0.0800 
 33 H       -0.7440    -1.0870    -0.0170 H     1 <1>   0.0800 
 34 H       -1.0460    -2.0910    -1.4260 H     1 <1>   0.0800 
 35 H        0.6560    -4.6210    -1.1890 H     1 <1>   0.0800 
 36 H        0.9880    -4.6020     0.5300 H     1 <1>   0.0800 
 37 H        4.1110     3.2440     1.8920 H     1 <1>   0.1500 
 38 H        2.8060     4.3300    -2.0250 H     1 <1>   0.1500 
 39 H       -2.6940    -2.8730     0.2140 H     1 <1>   0.0800 
 40 H       -1.5800    -4.6680    -0.9070 H     1 <1>   0.0800 
 41 H        3.8300     4.9470     0.1270 H     1 <1>   0.1500 
 42 H       -0.4170    -2.6870     1.8280 H     1 <1>   0.4000 
 43 H       -2.4460    -5.5460     1.2680 H     1 <1>   0.0800 
 44 H       -0.8760    -5.3020     1.9670 H     1 <1>   0.0800 
 45 H       -0.4780    -6.8740    -1.5860 H     1 <1>   0.1500 
 46 H       -0.5130    -9.7280    -2.2380 H     1 <1>   0.0800 
 47 H        0.1890   -10.6950    -0.9630 H     1 <1>   0.0800 
 48 H        1.1460    -9.4560    -1.7400 H     1 <1>   0.0800 
@<TRIPOS>BOND
  1   1   2  2   
  2   2   3  am  
  3   2   4  1   
  4   3   5  1   
  5   3   6  1   
  6   4   7  1   
  7   4  26  1   
  8   4  27  1   
  9   5   8  ar  
 10   5   9  ar  
 11   6  10  1   
 12   6  28  1   
 13   6  29  1   
 14   7  11  1   
 15   7  12  1   
 16   8  10  1   
 17   8  13  ar  
 18   9  14  ar  
 19   9  30  1   
 20  10  31  1   
 21  10  32  1   
 22  11  15  1   
 23  11  33  1   
 24  11  34  1   
 25  12  16  1   
 26  12  35  1   
 27  12  36  1   
 28  13  17  ar  
 29  13  37  1   
 30  14  17  ar  
 31  14  38  1   
 32  15  16  1   
 33  15  18  1   
 34  15  39  1   
 35  16  19  1   
 36  16  40  1   
 37  17  41  1   
 38  18  42  1   
 39  19  20  1   
 40  19  43  1   
 41  19  44  1   
 42  20  21  1   
 43  20  22  2   
 44  21  23  1   
 45  22  24  1   
 46  22  45  1   
 47  23  24  2   
 48  24  25  1   
 49  25  46  1   
 50  25  47  1   
 51  25  48  1   
@<TRIPOS>SUBSTRUCTURE
  1 ****   7 GROUP 4 **** **** 0

# MOE 2024.06 (io_trps.svl 2023.06)
