@<TRIPOS>MOLECULE
NONAME
44 45 1 0 0 
SMALL
USER_CHARGES


@<TRIPOS>ATOM
  1 F        1.2110     0.3590    -2.2600 F     1 <1>  -0.1900 
  2 C        2.0470     1.0510    -1.5370 C.ar  1 <1>   0.1900 
  3 C        3.0990     1.6900    -2.1620 C.ar  1 <1>  -0.1500 
  4 C        1.8510     1.1200    -0.1720 C.ar  1 <1>  -0.1500 
  5 C        3.9830     2.4270    -1.3910 C.ar  1 <1>  -0.1500 
  6 C        2.7400     1.8600     0.5910 C.ar  1 <1>  -0.1500 
  7 C        3.8080     2.5200    -0.0110 C.ar  1 <1>  -0.1430 
  8 C        4.7550     3.3380     0.8630 C.3   1 <1>   0.5670 
  9 N        4.7030     4.7630     0.4420 N.4   1 <1>  -0.9590 
 10 C        6.1780     2.7920     0.7500 C.3   1 <1>  -0.2400 
 11 C        5.5680     5.6640     1.2510 C.3   1 <1>   0.5240 
 12 C        3.2980     5.2900     0.3950 C.3   1 <1>   0.2630 
 13 C        5.6860     6.9760     0.5120 C.2   1 <1>  -0.1810 
 14 C        6.4670     7.2290    -0.6120 C.2   1 <1>   0.1080 
 15 C        5.0680     8.1510     0.7710 C.2   1 <1>  -0.3020 
 16 N        6.3300     8.4450    -1.0260 N.2   1 <1>  -0.7070 
 17 C        7.3940     6.2700    -1.3280 C.3   1 <1>  -0.0590 
 18 N        5.4730     9.0260    -0.1700 N.pl3 1 <1>   0.3140 
 19 C        5.0880    10.4410    -0.3050 C.3   1 <1>   0.0960 
 20 C        6.2610    11.3350     0.0920 C.3   1 <1>   0.1200 
 21 O        5.8720    12.6620    -0.0120 O.3   1 <1>  -0.6800 
 22 H        3.2170     1.6050    -3.2280 H     1 <1>   0.1500 
 23 H        1.0210     0.6020     0.2760 H     1 <1>   0.1500 
 24 H        4.8030     2.9170    -1.8860 H     1 <1>   0.1500 
 25 H        2.5850     1.9080     1.6560 H     1 <1>   0.1500 
 26 H        4.4300     3.2550     1.8880 H     1 <1>   0.0800 
 27 H        5.0640     4.8060    -0.5170 H     1 <1>   0.4500 
 28 H        6.5920     2.9680    -0.2260 H     1 <1>   0.0800 
 29 H        6.1570     1.7280     0.9120 H     1 <1>   0.0800 
 30 H        6.8220     3.2110     1.5010 H     1 <1>   0.0800 
 31 H        6.5540     5.2480     1.3750 H     1 <1>   0.0800 
 32 H        5.1360     5.8270     2.2250 H     1 <1>   0.0800 
 33 H        2.8550     5.2730     1.3770 H     1 <1>   0.0800 
 34 H        2.6910     4.6930    -0.2670 H     1 <1>   0.0800 
 35 H        3.2910     6.3050     0.0300 H     1 <1>   0.0800 
 36 H        4.3790     8.4240     1.5510 H     1 <1>   0.1500 
 37 H        7.6840     5.4550    -0.6940 H     1 <1>   0.0800 
 38 H        8.2820     6.7980    -1.6290 H     1 <1>   0.0800 
 39 H        6.9130     5.8920    -2.2120 H     1 <1>   0.0800 
 40 H        4.2450    10.6350     0.3310 H     1 <1>   0.0800 
 41 H        4.8180    10.6170    -1.3290 H     1 <1>   0.0800 
 42 H        7.1100    11.1750    -0.5510 H     1 <1>   0.0800 
 43 H        6.5420    11.1560     1.1160 H     1 <1>   0.0800 
 44 H        5.8780    12.9570    -0.9450 H     1 <1>   0.4000 
@<TRIPOS>BOND
  1   1   2  1   
  2   2   3  ar  
  3   2   4  ar  
  4   3   5  ar  
  5   3  22  1   
  6   4   6  ar  
  7   4  23  1   
  8   5   7  ar  
  9   5  24  1   
 10   6   7  ar  
 11   6  25  1   
 12   7   8  1   
 13   8   9  1   
 14   8  10  1   
 15   8  26  1   
 16   9  11  1   
 17   9  12  1   
 18   9  27  1   
 19  10  28  1   
 20  10  29  1   
 21  10  30  1   
 22  11  13  1   
 23  11  31  1   
 24  11  32  1   
 25  12  33  1   
 26  12  34  1   
 27  12  35  1   
 28  13  14  1   
 29  13  15  2   
 30  14  16  2   
 31  14  17  1   
 32  15  18  1   
 33  15  36  1   
 34  16  18  1   
 35  17  37  1   
 36  17  38  1   
 37  17  39  1   
 38  18  19  1   
 39  19  20  1   
 40  19  40  1   
 41  19  41  1   
 42  20  21  1   
 43  20  42  1   
 44  20  43  1   
 45  21  44  1   
@<TRIPOS>SUBSTRUCTURE
  1 ****   9 GROUP 4 **** **** 0

# MOE 2024.06 (io_trps.svl 2023.06)
