@<TRIPOS>MOLECULE
S4878 Neticonazole Hydrochloride.cdx
43 44 1 0 0 
SMALL
USER_CHARGES


@<TRIPOS>ATOM
  1 S       -0.3050     4.2270    -2.4650 S.3   1 <1>  -0.3310 
  2 C       -1.2910     4.9530    -1.1520 C.2   1 <1>  -0.0490 
  3 C        1.1030     5.4030    -2.6590 C.3   1 <1>  -0.0100 
  4 C       -2.2600     4.2830    -0.4940 C.2   1 <1>  -0.0590 
  5 N       -3.0120     4.9140     0.5330 N.pl3 1 <1>   0.3340 
  6 C       -2.6070     2.9040    -0.7520 C.ar  1 <1>   0.0280 
  7 C       -3.4370     6.2040     0.5870 C.2   1 <1>   0.0360 
  8 C       -3.4650     4.3900     1.6940 C.2   1 <1>  -0.3020 
  9 C       -1.9800     1.8530    -0.0770 C.ar  1 <1>   0.0830 
 10 C       -3.5880     2.5830    -1.6850 C.ar  1 <1>  -0.1500 
 11 N       -4.0960     6.5190     1.6560 N.2   1 <1>  -0.5650 
 12 C       -4.1140     5.3700     2.3560 C.2   1 <1>   0.0770 
 13 O       -1.0200     2.1220     0.8310 O.3   1 <1>  -0.3630 
 14 C       -2.3320     0.5340    -0.3170 C.ar  1 <1>  -0.1500 
 15 C       -3.9390     1.2670    -1.9320 C.ar  1 <1>  -0.1500 
 16 C        0.3090     1.9650     0.3910 C.3   1 <1>   0.1200 
 17 C       -3.3130     0.2400    -1.2460 C.ar  1 <1>  -0.1500 
 18 C        1.1560     3.0640     1.0330 C.3   1 <1>  -0.1600 
 19 C        2.5890     3.0470     0.4850 C.3   1 <1>  -0.1600 
 20 C        3.4250     4.1790     1.0920 C.3   1 <1>  -0.1600 
 21 C        4.8500     4.1720     0.5330 C.3   1 <1>  -0.2400 
 22 H       -1.0020     5.9720    -0.9620 H     1 <1>   0.1500 
 23 H        1.7510     5.0120    -3.4230 H     1 <1>   0.0800 
 24 H        1.6160     5.4630    -1.7150 H     1 <1>   0.0800 
 25 H        0.7020     6.3570    -2.9470 H     1 <1>   0.0800 
 26 H       -3.2320     6.8900    -0.2140 H     1 <1>   0.1500 
 27 H       -3.2930     3.3660     1.9700 H     1 <1>   0.1500 
 28 H       -4.0790     3.3740    -2.2230 H     1 <1>   0.1500 
 29 H       -4.6020     5.3090     3.3160 H     1 <1>   0.1500 
 30 H       -1.8400    -0.2530     0.2240 H     1 <1>   0.1500 
 31 H       -4.7010     1.0410    -2.6580 H     1 <1>   0.1500 
 32 H        0.6470     0.9870     0.6830 H     1 <1>   0.0800 
 33 H        0.3340     2.0500    -0.6820 H     1 <1>   0.0800 
 34 H       -3.5880    -0.7830    -1.4370 H     1 <1>   0.1500 
 35 H        0.7070     4.0180     0.8180 H     1 <1>   0.0800 
 36 H        1.1710     2.9220     2.0990 H     1 <1>   0.0800 
 37 H        3.0490     2.1000     0.7130 H     1 <1>   0.0800 
 38 H        2.5630     3.1570    -0.5860 H     1 <1>   0.0800 
 39 H        2.9640     5.1280     0.8740 H     1 <1>   0.0800 
 40 H        3.4640     4.0660     2.1630 H     1 <1>   0.0800 
 41 H        4.8380     4.3040    -0.5350 H     1 <1>   0.0800 
 42 H        5.3390     3.2410     0.7610 H     1 <1>   0.0800 
 43 H        5.4210     4.9720     0.9700 H     1 <1>   0.0800 
@<TRIPOS>BOND
  1   1   2  1   
  2   1   3  1   
  3   2   4  2   
  4   2  22  1   
  5   3  23  1   
  6   3  24  1   
  7   3  25  1   
  8   4   5  1   
  9   4   6  1   
 10   5   7  1   
 11   5   8  1   
 12   6   9  ar  
 13   6  10  ar  
 14   7  11  2   
 15   7  26  1   
 16   8  12  2   
 17   8  27  1   
 18   9  13  1   
 19   9  14  ar  
 20  10  15  ar  
 21  10  28  1   
 22  11  12  1   
 23  12  29  1   
 24  13  16  1   
 25  14  17  ar  
 26  14  30  1   
 27  15  17  ar  
 28  15  31  1   
 29  16  18  1   
 30  16  32  1   
 31  16  33  1   
 32  17  34  1   
 33  18  19  1   
 34  18  35  1   
 35  18  36  1   
 36  19  20  1   
 37  19  37  1   
 38  19  38  1   
 39  20  21  1   
 40  20  39  1   
 41  20  40  1   
 42  21  41  1   
 43  21  42  1   
 44  21  43  1   
@<TRIPOS>SUBSTRUCTURE
  1 ****   4 GROUP 4 **** **** 0

# MOE 2024.06 (io_trps.svl 2023.06)
