@<TRIPOS>MOLECULE
NONAME
46 50 1 0 0 
SMALL
USER_CHARGES


@<TRIPOS>ATOM
  1 S       -0.6610     1.1400     2.6200 S.3   1 <1>  -0.0800 
  2 C       -0.4230     2.2060     1.2510 C.2   1 <1>  -0.1400 
  3 C        0.9580     1.4990     3.2040 C.2   1 <1>  -0.1100 
  4 C        0.7950     2.7630     1.2560 C.2   1 <1>  -0.1810 
  5 C       -1.4870     2.4460     0.2160 C.3   1 <1>   0.0200 
  6 C        1.5880     2.3610     2.3820 C.2   1 <1>  -0.1500 
  7 C        1.2290     3.7190     0.1420 C.3   1 <1>   0.4610 
  8 C       -1.1050     3.7300    -0.5390 C.3   1 <1>   0.1200 
  9 O        0.2590     3.7280    -0.8920 O.3   1 <1>  -0.5600 
 10 C        1.4030     5.1480     0.6770 C.3   1 <1>  -0.1600 
 11 C        2.5300     3.2300    -0.5030 C.3   1 <1>  -0.1600 
 12 C        1.9090     6.1010    -0.4070 C.3   1 <1>   0.1400 
 13 C        3.0290     4.2010    -1.5740 C.3   1 <1>   0.1400 
 14 N        3.1720     5.5580    -0.9760 N.am  1 <1>  -0.6600 
 15 C        4.4080     6.1530    -0.8080 C.2   1 <1>   0.5440 
 16 O        5.4090     5.4710    -0.9250 O.2   1 <1>  -0.5700 
 17 C        4.5430     7.5590    -0.4790 C.ar  1 <1>   0.0860 
 18 C        5.3370     7.9620     0.5990 C.ar  1 <1>  -0.1500 
 19 C        3.8910     8.5500    -1.2260 C.ar  1 <1>  -0.1500 
 20 C        5.4450     9.3010     0.9150 C.ar  1 <1>  -0.1430 
 21 C        4.0020     9.8930    -0.9050 C.ar  1 <1>  -0.1500 
 22 C        4.7840    10.2460     0.1770 C.ar  1 <1>   0.0830 
 23 C        6.2130     9.9950     2.0010 C.3   1 <1>  -0.0170 
 24 O        4.9920    11.4930     0.6170 O.3   1 <1>  -0.3620 
 25 C        5.8650    11.4720     1.7380 C.3   1 <1>   0.1200 
 26 H        1.2710     1.0180     4.1130 H     1 <1>   0.1500 
 27 H       -2.4470     2.5700     0.6830 H     1 <1>   0.0800 
 28 H       -1.5340     1.6140    -0.4630 H     1 <1>   0.0800 
 29 H        2.5880     2.7330     2.5240 H     1 <1>   0.1500 
 30 H       -1.2980     4.5940     0.0720 H     1 <1>   0.0800 
 31 H       -1.6790     3.8130    -1.4440 H     1 <1>   0.0800 
 32 H        2.1170     5.1370     1.4790 H     1 <1>   0.0800 
 33 H        0.4770     5.5060     1.0840 H     1 <1>   0.0800 
 34 H        2.3700     2.2590    -0.9350 H     1 <1>   0.0800 
 35 H        3.2960     3.1320     0.2430 H     1 <1>   0.0800 
 36 H        2.0630     7.0740     0.0240 H     1 <1>   0.0800 
 37 H        1.1770     6.1890    -1.1930 H     1 <1>   0.0800 
 38 H        2.3250     4.2470    -2.3870 H     1 <1>   0.0800 
 39 H        3.9700     3.8570    -1.9700 H     1 <1>   0.0800 
 40 H        5.8620     7.2180     1.1730 H     1 <1>   0.1500 
 41 H        3.2940     8.2530    -2.0700 H     1 <1>   0.1500 
 42 H        3.5010    10.6550    -1.4740 H     1 <1>   0.1500 
 43 H        7.2700     9.8240     1.9030 H     1 <1>   0.0800 
 44 H        5.8790     9.6870     2.9750 H     1 <1>   0.0800 
 45 H        6.7400    12.0460     1.4900 H     1 <1>   0.0800 
 46 H        5.3510    11.9140     2.5720 H     1 <1>   0.0800 
@<TRIPOS>BOND
  1   1   2  1   
  2   1   3  1   
  3   2   4  2   
  4   2   5  1   
  5   3   6  2   
  6   3  26  1   
  7   4   6  1   
  8   4   7  1   
  9   5   8  1   
 10   5  27  1   
 11   5  28  1   
 12   6  29  1   
 13   7   9  1   
 14   7  10  1   
 15   7  11  1   
 16   8   9  1   
 17   8  30  1   
 18   8  31  1   
 19  10  12  1   
 20  10  32  1   
 21  10  33  1   
 22  11  13  1   
 23  11  34  1   
 24  11  35  1   
 25  12  14  1   
 26  12  36  1   
 27  12  37  1   
 28  13  14  1   
 29  13  38  1   
 30  13  39  1   
 31  14  15  am  
 32  15  16  2   
 33  15  17  1   
 34  17  18  ar  
 35  17  19  ar  
 36  18  20  ar  
 37  18  40  1   
 38  19  21  ar  
 39  19  41  1   
 40  20  22  ar  
 41  20  23  1   
 42  21  22  ar  
 43  21  42  1   
 44  22  24  1   
 45  23  25  1   
 46  23  43  1   
 47  23  44  1   
 48  24  25  1   
 49  25  45  1   
 50  25  46  1   
@<TRIPOS>SUBSTRUCTURE
  1 ****  12 GROUP 4 **** **** 0

# MOE 2024.06 (io_trps.svl 2023.06)
