@<TRIPOS>MOLECULE
NONAME
53 55 1 0 0 
SMALL
USER_CHARGES


@<TRIPOS>ATOM
  1 O       -1.1710    -1.8610    -1.4340 O.3   1 <1>  -0.3630 
  2 C       -2.0930    -1.8580    -0.4320 C.ar  1 <1>   0.0820 
  3 C        0.1180    -1.3990    -1.0940 C.3   1 <1>   0.0400 
  4 C       -2.4940    -3.0530     0.1870 C.ar  1 <1>   0.0820 
  5 C       -2.6470    -0.6400    -0.0240 C.ar  1 <1>   0.0820 
  6 O       -2.0640    -4.3070    -0.1590 O.3   1 <1>  -0.3630 
  7 C       -3.4060    -3.0050     1.2380 C.ar  1 <1>  -0.1430 
  8 O       -2.2720     0.4970    -0.6800 O.3   1 <1>  -0.3630 
  9 C       -3.5610    -0.6180     1.0250 C.ar  1 <1>  -0.1500 
 10 C       -1.5750    -4.6080    -1.4510 C.3   1 <1>   0.0400 
 11 C       -3.9310    -1.7910     1.6530 C.ar  1 <1>  -0.1500 
 12 C       -3.8390    -4.2820     1.9360 C.3   1 <1>   0.4860 
 13 C       -2.8430     1.7550    -0.3930 C.3   1 <1>   0.0400 
 14 N       -4.5570    -5.1450     0.9660 N.4   1 <1>  -0.9590 
 15 C       -5.6920    -4.4950     0.2370 C.3   1 <1>   0.3430 
 16 C       -5.0490    -6.4350     1.4950 C.3   1 <1>   0.3430 
 17 C       -6.8020    -5.5580     0.1460 C.3   1 <1>   0.2000 
 18 C       -6.1010    -6.8770     0.4730 C.3   1 <1>  -0.0800 
 19 O       -7.7710    -5.3120     1.1120 O.3   1 <1>  -0.6800 
 20 C       -5.4920    -7.4870    -0.8150 C.3   1 <1>  -0.0170 
 21 C       -4.2440    -8.3150    -0.5610 C.ar  1 <1>   0.1670 
 22 N       -3.1190    -7.6270    -0.4210 N.ar  1 <1>  -0.6200 
 23 C       -4.3280    -9.6970    -0.4880 C.ar  1 <1>  -0.1500 
 24 C       -2.0290    -8.3520    -0.2070 C.ar  1 <1>   0.1600 
 25 C       -3.1870   -10.4350    -0.2570 C.ar  1 <1>  -0.1500 
 26 C       -2.0100    -9.7330    -0.1160 C.ar  1 <1>  -0.1500 
 27 H        0.7570    -1.5250    -1.9500 H     1 <1>   0.0800 
 28 H        0.4890    -1.9780    -0.2670 H     1 <1>   0.0800 
 29 H        0.0670    -0.3580    -0.8300 H     1 <1>   0.0800 
 30 H       -3.9920     0.3040     1.3680 H     1 <1>   0.1500 
 31 H       -1.6010    -5.6740    -1.5870 H     1 <1>   0.0800 
 32 H       -0.5600    -4.2620    -1.5300 H     1 <1>   0.0800 
 33 H       -2.1960    -4.1300    -2.1880 H     1 <1>   0.0800 
 34 H       -4.6330    -1.7420     2.4690 H     1 <1>   0.1500 
 35 H       -4.4800    -4.0440     2.7680 H     1 <1>   0.0800 
 36 H       -2.9670    -4.7960     2.3060 H     1 <1>   0.0800 
 37 H       -2.4120     2.4760    -1.0640 H     1 <1>   0.0800 
 38 H       -2.6130     2.0210     0.6240 H     1 <1>   0.0800 
 39 H       -3.9050     1.7020    -0.5500 H     1 <1>   0.0800 
 40 H       -3.8300    -5.3860     0.2600 H     1 <1>   0.4500 
 41 H       -6.0540    -3.6230     0.7550 H     1 <1>   0.0800 
 42 H       -5.3650    -4.2100    -0.7500 H     1 <1>   0.0800 
 43 H       -4.2530    -7.1540     1.6090 H     1 <1>   0.0800 
 44 H       -5.5210    -6.2830     2.4520 H     1 <1>   0.0800 
 45 H       -7.2920    -5.5550    -0.8140 H     1 <1>   0.0800 
 46 H       -6.7730    -7.5950     0.9110 H     1 <1>   0.0800 
 47 H       -7.4310    -5.3680     2.0250 H     1 <1>   0.4000 
 48 H       -5.2200    -6.7130    -1.5120 H     1 <1>   0.0800 
 49 H       -6.2350    -8.0930    -1.3040 H     1 <1>   0.0800 
 50 H       -5.2710   -10.1990    -0.6110 H     1 <1>   0.1500 
 51 H       -1.0980    -7.8210    -0.0990 H     1 <1>   0.1500 
 52 H       -3.2120   -11.5110    -0.1950 H     1 <1>   0.1500 
 53 H       -1.0840   -10.2510     0.0600 H     1 <1>   0.1500 
@<TRIPOS>BOND
  1   1   2  1   
  2   1   3  1   
  3   2   4  ar  
  4   2   5  ar  
  5   3  27  1   
  6   3  28  1   
  7   3  29  1   
  8   4   6  1   
  9   4   7  ar  
 10   5   8  1   
 11   5   9  ar  
 12   6  10  1   
 13   7  11  ar  
 14   7  12  1   
 15   8  13  1   
 16   9  11  ar  
 17   9  30  1   
 18  10  31  1   
 19  10  32  1   
 20  10  33  1   
 21  11  34  1   
 22  12  14  1   
 23  12  35  1   
 24  12  36  1   
 25  13  37  1   
 26  13  38  1   
 27  13  39  1   
 28  14  15  1   
 29  14  16  1   
 30  14  40  1   
 31  15  17  1   
 32  15  41  1   
 33  15  42  1   
 34  16  18  1   
 35  16  43  1   
 36  16  44  1   
 37  17  18  1   
 38  17  19  1   
 39  17  45  1   
 40  18  20  1   
 41  18  46  1   
 42  19  47  1   
 43  20  21  1   
 44  20  48  1   
 45  20  49  1   
 46  21  22  ar  
 47  21  23  ar  
 48  22  24  ar  
 49  23  25  ar  
 50  23  50  1   
 51  24  26  ar  
 52  24  51  1   
 53  25  26  ar  
 54  25  52  1   
 55  26  53  1   
@<TRIPOS>SUBSTRUCTURE
  1 ****  14 GROUP 4 **** **** 0

# MOE 2024.06 (io_trps.svl 2023.06)
