@<TRIPOS>MOLECULE
NONAME
51 53 1 0 0 
SMALL
USER_CHARGES


@<TRIPOS>ATOM
  1 F        1.3940    -1.5930     2.3750 F     1 <1>  -0.1900 
  2 C        1.0120    -2.6360     1.6880 C.ar  1 <1>   0.1900 
  3 C        0.4550    -2.4440     0.4380 C.ar  1 <1>  -0.1500 
  4 C        1.1790    -3.8930     2.2360 C.ar  1 <1>  -0.1500 
  5 C        0.0520    -3.5530    -0.2850 C.ar  1 <1>  -0.1500 
  6 C        0.7710    -4.9950     1.5020 C.ar  1 <1>  -0.1500 
  7 C        0.2070    -4.8290     0.2430 C.ar  1 <1>  -0.1430 
  8 C       -0.2430    -6.0430    -0.5550 C.3   1 <1>  -0.0160 
  9 C       -1.7040    -6.3860    -0.2280 C.3   1 <1>  -0.0990 
 10 C       -2.2240    -7.6150    -0.9600 C.2   1 <1>   0.5690 
 11 O       -1.5770    -8.0520    -1.8830 O.2   1 <1>  -0.5700 
 12 N       -3.4010    -8.1970    -0.5700 N.am  1 <1>  -0.6600 
 13 C       -3.8460    -9.4880    -1.2020 C.3   1 <1>   0.1400 
 14 C       -4.3070    -7.6400     0.4910 C.3   1 <1>   0.1400 
 15 C       -4.7850   -10.2510    -0.2600 C.3   1 <1>   0.2000 
 16 C       -5.7610    -7.9340     0.1250 C.3   1 <1>  -0.1600 
 17 O       -5.1060   -11.4960    -0.7760 O.3   1 <1>  -0.6800 
 18 C       -6.0730    -9.4630     0.0870 C.3   1 <1>  -0.1060 
 19 C       -6.4570   -10.0310     1.4560 C.2   1 <1>   0.9060 
 20 C       -7.2200    -9.7090    -0.9400 C.3   1 <1>  -0.0160 
 21 O       -6.3280    -9.3460     2.4770 O.co2 1 <1>  -0.9000 
 22 O       -6.8080   -11.2190     1.5100 O.co2 1 <1>  -0.9000 
 23 C       -8.4180    -8.7720    -0.7920 C.ar  1 <1>  -0.1430 
 24 C       -9.2660    -8.8860     0.2990 C.ar  1 <1>  -0.1500 
 25 C       -8.6750    -7.8000    -1.7480 C.ar  1 <1>  -0.1500 
 26 C      -10.3510    -8.0380     0.4360 C.ar  1 <1>  -0.1500 
 27 C       -9.7600    -6.9520    -1.6140 C.ar  1 <1>  -0.1500 
 28 C      -10.6000    -7.0700    -0.5200 C.ar  1 <1>  -0.1500 
 29 H        0.3430    -1.4500     0.0450 H     1 <1>   0.1500 
 30 H        1.6180    -4.0030     3.2110 H     1 <1>   0.1500 
 31 H       -0.3840    -3.4210    -1.2610 H     1 <1>   0.1500 
 32 H        0.8940    -5.9820     1.9140 H     1 <1>   0.1500 
 33 H       -0.1430    -5.8440    -1.6080 H     1 <1>   0.0800 
 34 H        0.3850    -6.8860    -0.3240 H     1 <1>   0.0800 
 35 H       -2.3270    -5.5500    -0.4860 H     1 <1>   0.0800 
 36 H       -1.7850    -6.5560     0.8300 H     1 <1>   0.0800 
 37 H       -4.3550    -9.2700    -2.1230 H     1 <1>   0.0800 
 38 H       -2.9860   -10.0990    -1.4140 H     1 <1>   0.0800 
 39 H       -4.0760    -8.0920     1.4430 H     1 <1>   0.0800 
 40 H       -4.1820    -6.5760     0.5800 H     1 <1>   0.0800 
 41 H       -4.2290   -10.4400     0.6450 H     1 <1>   0.0800 
 42 H       -6.4160    -7.4490     0.8290 H     1 <1>   0.0800 
 43 H       -5.9470    -7.4880    -0.8340 H     1 <1>   0.0800 
 44 H       -5.7370   -11.8960    -0.1230 H     1 <1>   0.4000 
 45 H       -6.8210    -9.6070    -1.9320 H     1 <1>   0.0800 
 46 H       -7.5790   -10.7200    -0.8580 H     1 <1>   0.0800 
 47 H       -9.0790    -9.6370     1.0500 H     1 <1>   0.1500 
 48 H       -8.0270    -7.7010    -2.6000 H     1 <1>   0.1500 
 49 H      -10.9950    -8.1370     1.2920 H     1 <1>   0.1500 
 50 H       -9.9500    -6.2010    -2.3600 H     1 <1>   0.1500 
 51 H      -11.4420    -6.4110    -0.4110 H     1 <1>   0.1500 
@<TRIPOS>BOND
  1   1   2  1   
  2   2   3  ar  
  3   2   4  ar  
  4   3   5  ar  
  5   3  29  1   
  6   4   6  ar  
  7   4  30  1   
  8   5   7  ar  
  9   5  31  1   
 10   6   7  ar  
 11   6  32  1   
 12   7   8  1   
 13   8   9  1   
 14   8  33  1   
 15   8  34  1   
 16   9  10  1   
 17   9  35  1   
 18   9  36  1   
 19  10  11  2   
 20  10  12  am  
 21  12  13  1   
 22  12  14  1   
 23  13  15  1   
 24  13  37  1   
 25  13  38  1   
 26  14  16  1   
 27  14  39  1   
 28  14  40  1   
 29  15  17  1   
 30  15  18  1   
 31  15  41  1   
 32  16  18  1   
 33  16  42  1   
 34  16  43  1   
 35  17  44  1   
 36  18  19  1   
 37  18  20  1   
 38  19  21  ar  
 39  19  22  ar  
 40  20  23  1   
 41  20  45  1   
 42  20  46  1   
 43  23  24  ar  
 44  23  25  ar  
 45  24  26  ar  
 46  24  47  1   
 47  25  27  ar  
 48  25  48  1   
 49  26  28  ar  
 50  26  49  1   
 51  27  28  ar  
 52  27  50  1   
 53  28  51  1   
@<TRIPOS>SUBSTRUCTURE
  1 ****  14 GROUP 4 **** **** 0

# MOE 2024.06 (io_trps.svl 2023.06)
