@<TRIPOS>MOLECULE
NONAME
40 41 1 0 0 
SMALL
USER_CHARGES


@<TRIPOS>ATOM
  1 O        1.5110    -0.8290    -1.0430 O.3   1 <1>  -0.6800 
  2 C        1.4870    -0.0460     0.1140 C.3   1 <1>   0.1200 
  3 C        2.3730    -0.6420     1.2260 C.3   1 <1>   0.1100 
  4 N        3.7840    -0.8630     0.8100 N.3   1 <1>  -0.8100 
  5 C        4.6380     0.3060     1.1180 C.3   1 <1>   0.2900 
  6 C        4.3470    -2.0840     1.4090 C.3   1 <1>   0.2900 
  7 C        4.2640     1.5380     0.3050 C.2   1 <1>   0.0060 
  8 C        3.8220    -3.3110     0.6900 C.2   1 <1>  -0.3320 
  9 N        3.8620     2.6480     0.8430 N.2   1 <1>  -0.5650 
 10 N        4.3230     1.5790    -1.0510 N.pl3 1 <1>   0.0480 
 11 N        2.9840    -3.2500    -0.3590 N.pl3 1 <1>   0.0330 
 12 C        4.0550    -4.6240     0.9060 C.2   1 <1>   0.0770 
 13 C        3.6520     3.4580    -0.2100 C.2   1 <1>   0.0770 
 14 C        3.9260     2.8250    -1.3700 C.2   1 <1>  -0.3020 
 15 C        4.6970     0.5120    -2.0060 C.3   1 <1>   0.0960 
 16 C        2.7570    -4.5320    -0.7140 C.2   1 <1>   0.0070 
 17 N        3.3850    -5.3890     0.0210 N.2   1 <1>  -0.5650 
 18 C        6.2090     0.5090    -2.2510 C.3   1 <1>  -0.2400 
 19 C        1.8450    -4.9060    -1.8610 C.3   1 <1>  -0.0600 
 20 H        0.9930    -0.3880    -1.7460 H     1 <1>   0.4000 
 21 H        0.4680     0.0050     0.4570 H     1 <1>   0.0800 
 22 H        1.8050     0.9490    -0.1380 H     1 <1>   0.0800 
 23 H        1.9250    -1.5750     1.5250 H     1 <1>   0.0800 
 24 H        2.3420     0.0080     2.0840 H     1 <1>   0.0800 
 25 H        5.6640     0.0710     0.8980 H     1 <1>   0.0800 
 26 H        4.5720     0.5420     2.1660 H     1 <1>   0.0800 
 27 H        4.1080    -2.1330     2.4590 H     1 <1>   0.0800 
 28 H        5.4190    -2.0820     1.3070 H     1 <1>   0.0800 
 29 H        2.5920    -2.3790    -0.7500 H     1 <1>   0.2700 
 30 H        4.6800    -5.0710     1.6600 H     1 <1>   0.1500 
 31 H        3.3110     4.4710    -0.0760 H     1 <1>   0.1500 
 32 H        3.8630     3.1850    -2.3800 H     1 <1>   0.1500 
 33 H        4.1760     0.6850    -2.9310 H     1 <1>   0.0800 
 34 H        4.3790    -0.4390    -1.6200 H     1 <1>   0.0800 
 35 H        6.5240     1.4560    -2.6510 H     1 <1>   0.0800 
 36 H        6.4590    -0.2630    -2.9560 H     1 <1>   0.0800 
 37 H        6.7360     0.3150    -1.3340 H     1 <1>   0.0800 
 38 H        0.8560    -4.5250    -1.6810 H     1 <1>   0.0800 
 39 H        1.7950    -5.9760    -1.9510 H     1 <1>   0.0800 
 40 H        2.2240    -4.4960    -2.7790 H     1 <1>   0.0800 
@<TRIPOS>BOND
  1   1   2  1   
  2   1  20  1   
  3   2   3  1   
  4   2  21  1   
  5   2  22  1   
  6   3   4  1   
  7   3  23  1   
  8   3  24  1   
  9   4   5  1   
 10   4   6  1   
 11   5   7  1   
 12   5  25  1   
 13   5  26  1   
 14   6   8  1   
 15   6  27  1   
 16   6  28  1   
 17   7   9  2   
 18   7  10  1   
 19   8  11  1   
 20   8  12  2   
 21   9  13  1   
 22  10  14  1   
 23  10  15  1   
 24  11  16  1   
 25  11  29  1   
 26  12  17  1   
 27  12  30  1   
 28  13  14  2   
 29  13  31  1   
 30  14  32  1   
 31  15  18  1   
 32  15  33  1   
 33  15  34  1   
 34  16  17  2   
 35  16  19  1   
 36  18  35  1   
 37  18  36  1   
 38  18  37  1   
 39  19  38  1   
 40  19  39  1   
 41  19  40  1   
@<TRIPOS>SUBSTRUCTURE
  1 ****   4 GROUP 4 **** **** 0

# MOE 2024.06 (io_trps.svl 2023.06)
