@<TRIPOS>MOLECULE
NONAME
51 53 1 0 0 
SMALL
USER_CHARGES


@<TRIPOS>ATOM
  1 O       -1.2180    -4.6920     1.1230 O.2   1 <1>  -0.5700 
  2 C       -0.1140    -4.1970     1.1830 C.2   1 <1>   0.5690 
  3 N        0.5470    -3.7450     0.0660 N.am  1 <1>  -0.6600 
  4 C        0.5390    -4.1200     2.5530 C.3   1 <1>  -0.0990 
  5 C        1.8960    -3.1150     0.0940 C.3   1 <1>   0.1400 
  6 C       -0.0930    -3.8070    -1.2730 C.3   1 <1>   0.1400 
  7 C        1.7390    -3.1660     2.6130 C.3   1 <1>  -0.1600 
  8 C        2.6400    -3.4070     1.4000 C.3   1 <1>  -0.1600 
  9 C        0.0570    -5.2220    -1.8380 C.3   1 <1>  -0.1600 
 10 C       -0.9130    -5.5050    -3.0040 C.3   1 <1>  -0.0990 
 11 C       -1.5360    -6.8830    -2.8510 C.2   1 <1>   0.5690 
 12 O       -1.0490    -7.7950    -3.4750 O.2   1 <1>  -0.5700 
 13 N       -2.5810    -7.0690    -1.9860 N.am  1 <1>  -0.6600 
 14 C       -3.2730    -6.0120    -1.1980 C.3   1 <1>   0.1400 
 15 C       -2.8760    -8.3960    -1.3980 C.3   1 <1>   0.1400 
 16 C       -3.8580    -6.7260     0.0220 C.3   1 <1>   0.2000 
 17 C       -3.1720    -8.0880     0.0710 C.3   1 <1>  -0.0800 
 18 O       -3.6190    -6.0250     1.1950 O.3   1 <1>  -0.6800 
 19 C       -4.0220    -9.1500     0.7860 C.3   1 <1>  -0.0170 
 20 C       -3.3350   -10.5060     0.8040 C.ar  1 <1>   0.1670 
 21 N       -3.5610   -11.2980    -0.2330 N.ar  1 <1>  -0.6200 
 22 C       -2.5150   -10.8550     1.8750 C.ar  1 <1>   0.1600 
 23 C       -2.9150   -12.4470    -0.1290 C.ar  1 <1>   0.1600 
 24 N       -1.8720   -12.0060     1.9830 N.ar  1 <1>  -0.6200 
 25 C       -2.0990   -12.7890     0.9430 C.ar  1 <1>   0.1600 
 26 H       -0.1990    -3.8180     3.2730 H     1 <1>   0.0800 
 27 H        0.8610    -5.1130     2.8100 H     1 <1>   0.0800 
 28 H        2.4800    -3.4790    -0.7350 H     1 <1>   0.0800 
 29 H        1.7760    -2.0510    -0.0190 H     1 <1>   0.0800 
 30 H       -1.1350    -3.5600    -1.1620 H     1 <1>   0.0800 
 31 H        0.3490    -3.0850    -1.9380 H     1 <1>   0.0800 
 32 H        1.3890    -2.1480     2.6040 H     1 <1>   0.0800 
 33 H        2.2880    -3.3250     3.5250 H     1 <1>   0.0800 
 34 H        2.9820    -4.4280     1.3930 H     1 <1>   0.0800 
 35 H        3.5080    -2.7740     1.4590 H     1 <1>   0.0800 
 36 H        1.0700    -5.3830    -2.1630 H     1 <1>   0.0800 
 37 H       -0.1400    -5.9260    -1.0470 H     1 <1>   0.0800 
 38 H       -0.3790    -5.4660    -3.9360 H     1 <1>   0.0800 
 39 H       -1.6980    -4.7740    -3.0530 H     1 <1>   0.0800 
 40 H       -2.5800    -5.2520    -0.8930 H     1 <1>   0.0800 
 41 H       -4.0600    -5.5760    -1.7870 H     1 <1>   0.0800 
 42 H       -3.7370    -8.8190    -1.8870 H     1 <1>   0.0800 
 43 H       -2.0420    -9.0700    -1.5000 H     1 <1>   0.0800 
 44 H       -4.9230    -6.8320    -0.0940 H     1 <1>   0.0800 
 45 H       -2.2240    -7.9880     0.5720 H     1 <1>   0.0800 
 46 H       -2.7090    -5.6240     1.1880 H     1 <1>   0.4000 
 47 H       -4.9760    -9.2470     0.2980 H     1 <1>   0.0800 
 48 H       -4.2070    -8.8290     1.7960 H     1 <1>   0.0800 
 49 H       -2.3850   -10.1490     2.6770 H     1 <1>   0.1500 
 50 H       -3.0370   -13.1530    -0.9310 H     1 <1>   0.1500 
 51 H       -1.6150   -13.7500     0.9360 H     1 <1>   0.1500 
@<TRIPOS>BOND
  1   1   2  2   
  2   2   3  am  
  3   2   4  1   
  4   3   5  1   
  5   3   6  1   
  6   4   7  1   
  7   4  26  1   
  8   4  27  1   
  9   5   8  1   
 10   5  28  1   
 11   5  29  1   
 12   6   9  1   
 13   6  30  1   
 14   6  31  1   
 15   7   8  1   
 16   7  32  1   
 17   7  33  1   
 18   8  34  1   
 19   8  35  1   
 20   9  10  1   
 21   9  36  1   
 22   9  37  1   
 23  10  11  1   
 24  10  38  1   
 25  10  39  1   
 26  11  12  2   
 27  11  13  am  
 28  13  14  1   
 29  13  15  1   
 30  14  16  1   
 31  14  40  1   
 32  14  41  1   
 33  15  17  1   
 34  15  42  1   
 35  15  43  1   
 36  16  17  1   
 37  16  18  1   
 38  16  44  1   
 39  17  19  1   
 40  17  45  1   
 41  18  46  1   
 42  19  20  1   
 43  19  47  1   
 44  19  48  1   
 45  20  21  ar  
 46  20  22  ar  
 47  21  23  ar  
 48  22  24  ar  
 49  22  49  1   
 50  23  25  ar  
 51  23  50  1   
 52  24  25  ar  
 53  25  51  1   
@<TRIPOS>SUBSTRUCTURE
  1 ****  17 GROUP 4 **** **** 0

# MOE 2024.06 (io_trps.svl 2023.06)
