@<TRIPOS>MOLECULE
NONAME
52 54 1 0 0 
SMALL
USER_CHARGES


@<TRIPOS>ATOM
  1 O        0.3740    -0.7600     2.1210 O.2   1 <1>  -0.5700 
  2 C        0.7440    -1.5430     1.2600 C.2   1 <1>   0.5440 
  3 N        0.8260    -1.0580    -0.0340 N.am  1 <1>  -0.6600 
  4 C        1.1030    -2.9080     1.6580 C.ar  1 <1>   0.3960 
  5 C        0.5590     0.3570    -0.3770 C.3   1 <1>   0.1400 
  6 C        1.3300    -1.7970    -1.2160 C.3   1 <1>   0.1400 
  7 N        0.9490    -3.9480     0.8190 N.ar  1 <1>  -0.6200 
  8 C        1.6050    -3.0910     2.9520 C.ar  1 <1>   0.1600 
  9 C        1.2720     0.5730    -1.7060 C.3   1 <1>  -0.1600 
 10 C        1.2670    -0.8010    -2.3690 C.3   1 <1>  -0.1600 
 11 C        1.3130    -5.1020     1.3330 C.ar  1 <1>   0.4100 
 12 N        1.9890    -4.2460     3.4810 N.ar  1 <1>  -0.6200 
 13 N        1.1370    -6.1580     0.4790 N.pl3 1 <1>  -0.8690 
 14 C        1.8320    -5.2380     2.6290 C.ar  1 <1>   0.1600 
 15 C        0.4390    -7.3830     0.9140 C.3   1 <1>   0.2090 
 16 C       -0.7520    -7.6210    -0.0080 C.3   1 <1>  -0.1600 
 17 C       -1.5240    -8.8690     0.4130 C.3   1 <1>   0.1200 
 18 O       -2.5800    -9.0240    -0.4740 O.3   1 <1>  -0.5600 
 19 C       -3.4100   -10.1160    -0.2360 C.3   1 <1>   0.2000 
 20 C       -2.8060   -11.3670    -0.8920 C.3   1 <1>  -0.1600 
 21 C       -4.7790    -9.7830    -0.8350 C.3   1 <1>  -0.1600 
 22 C       -3.7650   -12.5640    -0.7950 C.3   1 <1>  -0.1600 
 23 C       -5.7400   -10.9770    -0.7320 C.3   1 <1>  -0.1600 
 24 C       -5.1390   -12.2270    -1.3880 C.3   1 <1>  -0.1600 
 25 H        0.9320     1.0200     0.3860 H     1 <1>   0.0800 
 26 H       -0.5030     0.4940    -0.4870 H     1 <1>   0.0800 
 27 H        0.7160    -2.6580    -1.4210 H     1 <1>   0.0800 
 28 H        2.3450    -2.1080    -1.0350 H     1 <1>   0.0800 
 29 H        1.6950    -2.2240     3.5840 H     1 <1>   0.1500 
 30 H        2.2840     0.8830    -1.5120 H     1 <1>   0.0800 
 31 H        0.7830     1.3210    -2.3040 H     1 <1>   0.0800 
 32 H        0.3430    -0.9450    -2.9010 H     1 <1>   0.0800 
 33 H        2.0870    -0.9300    -3.0530 H     1 <1>   0.0800 
 34 H        0.7950    -5.8250    -0.4280 H     1 <1>   0.4000 
 35 H        2.1240    -6.2200     2.9490 H     1 <1>   0.1500 
 36 H        0.0970    -7.2760     1.9310 H     1 <1>   0.0800 
 37 H        1.1210    -8.2150     0.8630 H     1 <1>   0.0800 
 38 H       -0.4030    -7.7530    -1.0170 H     1 <1>   0.0800 
 39 H       -1.4130    -6.7730     0.0360 H     1 <1>   0.0800 
 40 H       -1.9230    -8.7530     1.4070 H     1 <1>   0.0800 
 41 H       -0.8940    -9.7400     0.3650 H     1 <1>   0.0800 
 42 H       -3.5140   -10.2590     0.8270 H     1 <1>   0.0800 
 43 H       -1.8790   -11.6250    -0.4150 H     1 <1>   0.0800 
 44 H       -2.6110   -11.1570    -1.9290 H     1 <1>   0.0800 
 45 H       -4.6540    -9.5190    -1.8700 H     1 <1>   0.0800 
 46 H       -5.1980    -8.9390    -0.3160 H     1 <1>   0.0800 
 47 H       -3.8830   -12.8430     0.2390 H     1 <1>   0.0800 
 48 H       -3.3440   -13.4060    -1.3180 H     1 <1>   0.0800 
 49 H       -6.6720   -10.7310    -1.2120 H     1 <1>   0.0800 
 50 H       -5.9470   -11.1810     0.3050 H     1 <1>   0.0800 
 51 H       -5.8060   -13.0620    -1.2530 H     1 <1>   0.0800 
 52 H       -5.0370   -12.0570    -2.4470 H     1 <1>   0.0800 
@<TRIPOS>BOND
  1   1   2  2   
  2   2   3  am  
  3   2   4  1   
  4   3   5  1   
  5   3   6  1   
  6   4   7  ar  
  7   4   8  ar  
  8   5   9  1   
  9   5  25  1   
 10   5  26  1   
 11   6  10  1   
 12   6  27  1   
 13   6  28  1   
 14   7  11  ar  
 15   8  12  ar  
 16   8  29  1   
 17   9  10  1   
 18   9  30  1   
 19   9  31  1   
 20  10  32  1   
 21  10  33  1   
 22  11  13  1   
 23  11  14  ar  
 24  12  14  ar  
 25  13  15  1   
 26  13  34  1   
 27  14  35  1   
 28  15  16  1   
 29  15  36  1   
 30  15  37  1   
 31  16  17  1   
 32  16  38  1   
 33  16  39  1   
 34  17  18  1   
 35  17  40  1   
 36  17  41  1   
 37  18  19  1   
 38  19  20  1   
 39  19  21  1   
 40  19  42  1   
 41  20  22  1   
 42  20  43  1   
 43  20  44  1   
 44  21  23  1   
 45  21  45  1   
 46  21  46  1   
 47  22  24  1   
 48  22  47  1   
 49  22  48  1   
 50  23  24  1   
 51  23  49  1   
 52  23  50  1   
 53  24  51  1   
 54  24  52  1   
@<TRIPOS>SUBSTRUCTURE
  1 ****  13 GROUP 4 **** **** 0

# MOE 2024.06 (io_trps.svl 2023.06)
