@<TRIPOS>MOLECULE
NONAME
48 49 1 0 0 
SMALL
USER_CHARGES


@<TRIPOS>ATOM
  1 S        0.3370     0.1840     0.6880 S.o2  1 <1>   1.3330 
  2 O        1.7110     0.1740     1.1390 O.2   1 <1>  -0.6500 
  3 O       -0.7330     0.3520     1.6450 O.2   1 <1>  -0.6500 
  4 N        0.0630    -1.2510    -0.1760 N.am  1 <1>  -0.8490 
  5 C        0.1470     1.4460    -0.5690 C.3   1 <1>  -0.0550 
  6 C        1.2550    -1.7540    -0.8660 C.3   1 <1>   0.1160 
  7 C       -0.5070    -2.3070     0.6670 C.3   1 <1>   0.1160 
  8 C        0.2130     2.8770    -0.0100 C.3   1 <1>  -0.0800 
  9 C       -0.0210     3.9300    -1.0910 C.3   1 <1>   0.2000 
 10 C        1.5650     3.2600     0.5970 C.3   1 <1>   0.1400 
 11 O       -1.3800     4.1100    -1.2880 O.3   1 <1>  -0.6800 
 12 C        0.6570     5.2020    -0.5830 C.3   1 <1>   0.1400 
 13 N        1.6620     4.7240     0.3970 N.am  1 <1>  -0.6600 
 14 C        2.5120     5.5360     1.1110 C.2   1 <1>   0.5440 
 15 O        3.2760     5.0250     1.9070 O.2   1 <1>  -0.5700 
 16 C        2.4980     6.9710     0.9420 C.ar  1 <1>   0.0860 
 17 C        2.9390     7.6210    -0.2210 C.ar  1 <1>   0.0820 
 18 C        1.9910     7.7650     1.9710 C.ar  1 <1>  -0.1500 
 19 O        3.4970     6.9770    -1.2720 O.3   1 <1>  -0.3630 
 20 C        2.8140     8.9960    -0.3480 C.ar  1 <1>  -0.1500 
 21 C        1.8850     9.1370     1.8450 C.ar  1 <1>  -0.1500 
 22 C        4.5400     6.0480    -1.0570 C.3   1 <1>   0.0400 
 23 C        2.2890     9.7620     0.6770 C.ar  1 <1>  -0.1440 
 24 C        2.1610    11.2680     0.5400 C.3   1 <1>  -0.0970 
 25 H        0.9030     1.3200    -1.3190 H     1 <1>   0.0800 
 26 H       -0.8080     1.3130    -1.0420 H     1 <1>   0.0800 
 27 H        1.0000    -2.6100    -1.4680 H     1 <1>   0.0800 
 28 H        2.0110    -2.0400    -0.1530 H     1 <1>   0.0800 
 29 H        1.6590    -0.9940    -1.5120 H     1 <1>   0.0800 
 30 H       -0.6830    -3.1950     0.0860 H     1 <1>   0.0800 
 31 H       -1.4490    -1.9830     1.0770 H     1 <1>   0.0800 
 32 H        0.1620    -2.5390     1.4800 H     1 <1>   0.0800 
 33 H       -0.5250     2.9920     0.7660 H     1 <1>   0.0800 
 34 H        0.4210     3.6370    -2.0280 H     1 <1>   0.0800 
 35 H        2.3790     2.7830     0.0770 H     1 <1>   0.0800 
 36 H        1.6190     3.0100     1.6440 H     1 <1>   0.0800 
 37 H       -1.8180     4.3480    -0.4470 H     1 <1>   0.4000 
 38 H       -0.0470     5.8480    -0.0870 H     1 <1>   0.0800 
 39 H        1.1370     5.7250    -1.3920 H     1 <1>   0.0800 
 40 H        1.6730     7.2870     2.8820 H     1 <1>   0.1500 
 41 H        3.1420     9.4600    -1.2610 H     1 <1>   0.1500 
 42 H        1.4860     9.7190     2.6580 H     1 <1>   0.1500 
 43 H        5.1680     6.0410    -1.9290 H     1 <1>   0.0800 
 44 H        4.1180     5.0700    -0.9090 H     1 <1>   0.0800 
 45 H        5.1130     6.3460    -0.1950 H     1 <1>   0.0800 
 46 H        1.1600    11.5770     0.7860 H     1 <1>   0.0800 
 47 H        2.3760    11.5820    -0.4650 H     1 <1>   0.0800 
 48 H        2.8490    11.7550     1.2070 H     1 <1>   0.0800 
@<TRIPOS>BOND
  1   1   2  2   
  2   1   3  2   
  3   1   4  am  
  4   1   5  1   
  5   4   6  1   
  6   4   7  1   
  7   5   8  1   
  8   5  25  1   
  9   5  26  1   
 10   6  27  1   
 11   6  28  1   
 12   6  29  1   
 13   7  30  1   
 14   7  31  1   
 15   7  32  1   
 16   8   9  1   
 17   8  10  1   
 18   8  33  1   
 19   9  11  1   
 20   9  12  1   
 21   9  34  1   
 22  10  13  1   
 23  10  35  1   
 24  10  36  1   
 25  11  37  1   
 26  12  13  1   
 27  12  38  1   
 28  12  39  1   
 29  13  14  am  
 30  14  15  2   
 31  14  16  1   
 32  16  17  ar  
 33  16  18  ar  
 34  17  19  1   
 35  17  20  ar  
 36  18  21  ar  
 37  18  40  1   
 38  19  22  1   
 39  20  23  ar  
 40  20  41  1   
 41  21  23  ar  
 42  21  42  1   
 43  22  43  1   
 44  22  44  1   
 45  22  45  1   
 46  23  24  1   
 47  24  46  1   
 48  24  47  1   
 49  24  48  1   
@<TRIPOS>SUBSTRUCTURE
  1 ****  13 GROUP 4 **** **** 0

# MOE 2024.06 (io_trps.svl 2023.06)
