@<TRIPOS>MOLECULE
NONAME
58 62 1 0 0 
SMALL
USER_CHARGES


@<TRIPOS>ATOM
  1 S       -0.4350     0.9640     0.7930 S.o2  1 <1>   1.3330 
  2 O       -0.6170    -0.2650     1.5330 O.2   1 <1>  -0.6500 
  3 O       -0.4300     2.2300     1.4910 O.2   1 <1>  -0.6500 
  4 N       -1.6580     1.0300    -0.3780 N.am  1 <1>  -0.8490 
  5 C        1.0580     0.8550    -0.1990 C.3   1 <1>  -0.0550 
  6 C       -2.8740     1.6860     0.1500 C.3   1 <1>   0.1960 
  7 C       -1.9970    -0.2950    -0.9150 C.3   1 <1>   0.1960 
  8 C        2.3450     0.6570     0.6200 C.3   1 <1>  -0.0800 
  9 C       -3.9350     1.9030    -0.9470 C.3   1 <1>   0.1440 
 10 C       -2.9940    -0.1640    -2.0720 C.3   1 <1>  -0.1600 
 11 C        2.7300     1.8630     1.4770 C.3   1 <1>  -0.1600 
 12 C        3.5720     0.4410    -0.2610 C.3   1 <1>  -0.1600 
 13 C       -5.1520     2.5590    -0.3210 C.ar  1 <1>   0.1660 
 14 C       -4.2740     0.5580    -1.6210 C.3   1 <1>  -0.1600 
 15 C       -3.4730     2.9710    -1.9760 C.3   1 <1>  -0.1600 
 16 C        4.2400     1.7460     1.6960 C.3   1 <1>  -0.1600 
 17 C        4.7580     0.7520     0.6500 C.3   1 <1>  -0.1600 
 18 N       -6.0170     1.9630     0.4630 N.ar  1 <1>  -0.6200 
 19 C       -5.2430     3.8740    -0.6580 C.ar  1 <1>  -0.1440 
 20 C       -4.1080     4.3070    -1.5520 C.3   1 <1>  -0.0170 
 21 C       -7.0220     2.7270     0.9130 C.ar  1 <1>   0.6200 
 22 C       -6.2980     4.5900    -0.1570 C.ar  1 <1>   0.1600 
 23 N       -7.1920     4.0260     0.6240 N.ar  1 <1>  -0.6200 
 24 C       -8.0060     2.0970     1.7830 C.ar  1 <1>   0.0000 
 25 C       -9.3320     2.5370     1.8300 C.ar  1 <1>  -0.1500 
 26 C       -7.6710     1.0210     2.6120 C.ar  1 <1>  -0.1500 
 27 C      -10.2700     1.9410     2.6540 C.ar  1 <1>  -0.1500 
 28 C       -8.6030     0.4200     3.4380 C.ar  1 <1>  -0.1500 
 29 C       -9.9070     0.8790     3.4610 C.ar  1 <1>  -0.1500 
 30 H        1.1490     1.7430    -0.7930 H     1 <1>   0.0800 
 31 H        0.9650     0.0250    -0.8700 H     1 <1>   0.0800 
 32 H       -2.6220     2.6460     0.5680 H     1 <1>   0.0800 
 33 H       -3.2920     1.0860     0.9430 H     1 <1>   0.0800 
 34 H       -2.4250    -0.9070    -0.1360 H     1 <1>   0.0800 
 35 H       -1.1080    -0.7850    -1.2720 H     1 <1>   0.0800 
 36 H        2.2320    -0.2010     1.2640 H     1 <1>   0.0800 
 37 H       -3.2460    -1.1440    -2.4350 H     1 <1>   0.0800 
 38 H       -2.5270     0.3740    -2.8780 H     1 <1>   0.0800 
 39 H        2.1930     1.8790     2.4110 H     1 <1>   0.0800 
 40 H        2.5210     2.7760     0.9440 H     1 <1>   0.0800 
 41 H        3.5650     1.1420    -1.0790 H     1 <1>   0.0800 
 42 H        3.6200    -0.5600    -0.6520 H     1 <1>   0.0800 
 43 H       -4.9370     0.7090    -2.4540 H     1 <1>   0.0800 
 44 H       -4.7880    -0.0670    -0.9100 H     1 <1>   0.0800 
 45 H       -3.8490     2.7180    -2.9520 H     1 <1>   0.0800 
 46 H       -2.4010     3.0450    -2.0380 H     1 <1>   0.0800 
 47 H        4.4460     1.3740     2.6850 H     1 <1>   0.0800 
 48 H        4.7110     2.7080     1.5830 H     1 <1>   0.0800 
 49 H        5.5860     1.1550     0.0920 H     1 <1>   0.0800 
 50 H        5.0770    -0.1490     1.1440 H     1 <1>   0.0800 
 51 H       -4.4590     4.8660    -2.4020 H     1 <1>   0.0800 
 52 H       -3.4070     4.8980    -0.9870 H     1 <1>   0.0800 
 53 H       -6.4120     5.6330    -0.3950 H     1 <1>   0.1500 
 54 H       -9.6330     3.3630     1.2090 H     1 <1>   0.1500 
 55 H       -6.6610     0.6510     2.6080 H     1 <1>   0.1500 
 56 H      -11.2830     2.3050     2.6670 H     1 <1>   0.1500 
 57 H       -8.3130    -0.4070     4.0630 H     1 <1>   0.1500 
 58 H      -10.6340     0.4130     4.1030 H     1 <1>   0.1500 
@<TRIPOS>BOND
  1   1   2  2   
  2   1   3  2   
  3   1   4  am  
  4   1   5  1   
  5   4   6  1   
  6   4   7  1   
  7   5   8  1   
  8   5  30  1   
  9   5  31  1   
 10   6   9  1   
 11   6  32  1   
 12   6  33  1   
 13   7  10  1   
 14   7  34  1   
 15   7  35  1   
 16   8  11  1   
 17   8  12  1   
 18   8  36  1   
 19   9  13  1   
 20   9  14  1   
 21   9  15  1   
 22  10  14  1   
 23  10  37  1   
 24  10  38  1   
 25  11  16  1   
 26  11  39  1   
 27  11  40  1   
 28  12  17  1   
 29  12  41  1   
 30  12  42  1   
 31  13  18  ar  
 32  13  19  ar  
 33  14  43  1   
 34  14  44  1   
 35  15  20  1   
 36  15  45  1   
 37  15  46  1   
 38  16  17  1   
 39  16  47  1   
 40  16  48  1   
 41  17  49  1   
 42  17  50  1   
 43  18  21  ar  
 44  19  20  1   
 45  19  22  ar  
 46  20  51  1   
 47  20  52  1   
 48  21  23  ar  
 49  21  24  1   
 50  22  23  ar  
 51  22  53  1   
 52  24  25  ar  
 53  24  26  ar  
 54  25  27  ar  
 55  25  54  1   
 56  26  28  ar  
 57  26  55  1   
 58  27  29  ar  
 59  27  56  1   
 60  28  29  ar  
 61  28  57  1   
 62  29  58  1   
@<TRIPOS>SUBSTRUCTURE
  1 ****   6 GROUP 4 **** **** 0

# MOE 2024.06 (io_trps.svl 2023.06)
