@<TRIPOS>MOLECULE
NONAME
57 60 1 0 0 
SMALL
USER_CHARGES


@<TRIPOS>ATOM
  1 O       -1.9850    -0.4620     0.4530 O.2   1 <1>  -0.5700 
  2 C       -2.5340     0.5170    -0.0250 C.2   1 <1>   0.6160 
  3 N       -2.2310     1.7500     0.4570 N.am  1 <1>  -0.5470 
  4 C       -3.5290     0.4160    -1.0450 C.2   1 <1>  -0.1240 
  5 C       -2.8670     2.9160     0.0360 C.ar  1 <1>   0.1170 
  6 C       -4.1740     1.5240    -1.4910 C.2   1 <1>  -0.1780 
  7 C       -3.8030    -0.9740    -1.5790 C.3   1 <1>   0.4810 
  8 C       -3.8630     2.8150    -0.9530 C.ar  1 <1>   0.0280 
  9 C       -2.5410     4.1640     0.5740 C.ar  1 <1>  -0.1440 
 10 N       -4.2360    -1.8610    -0.4720 N.4   1 <1>  -0.9590 
 11 C       -4.5110     3.9740    -1.3770 C.ar  1 <1>  -0.1500 
 12 C       -3.2040     5.2910     0.1310 C.ar  1 <1>  -0.1500 
 13 C       -1.4640     4.3010     1.6430 C.3   1 <1>  -0.0970 
 14 C       -5.5120    -1.4390     0.1630 C.3   1 <1>   0.3430 
 15 C       -4.4200    -3.2690    -0.8740 C.3   1 <1>   0.3430 
 16 C       -4.1900     5.2040    -0.8430 C.ar  1 <1>  -0.1430 
 17 C       -6.1770    -2.7030     0.7150 C.3   1 <1>  -0.0800 
 18 C       -5.2750    -3.8640     0.2350 C.3   1 <1>  -0.0800 
 19 C       -4.8950     6.4670    -1.3040 C.3   1 <1>  -0.0970 
 20 C       -7.6580    -2.8260     0.2770 C.3   1 <1>   0.2800 
 21 C       -6.0210    -5.1230    -0.2390 C.3   1 <1>  -0.1600 
 22 O       -7.6840    -2.7030    -1.1010 O.3   1 <1>  -0.6800 
 23 C       -8.2320    -4.2190     0.6380 C.3   1 <1>  -0.1600 
 24 C       -8.6010    -1.7410     0.8560 C.3   1 <1>  -0.1600 
 25 C       -7.2280    -5.3880     0.6570 C.3   1 <1>  -0.1600 
 26 C       -8.4020    -0.2790     0.4120 C.3   1 <1>  -0.2400 
 27 H       -1.5050     1.7960     1.1700 H     1 <1>   0.3700 
 28 H       -4.9290     1.4870    -2.2580 H     1 <1>   0.1500 
 29 H       -2.9000    -1.3620    -2.0230 H     1 <1>   0.0800 
 30 H       -4.5670    -0.9320    -2.3380 H     1 <1>   0.0800 
 31 H       -3.4830    -1.8120     0.2410 H     1 <1>   0.4500 
 32 H       -5.2720     3.9010    -2.1330 H     1 <1>   0.1500 
 33 H       -2.9610     6.2570     0.5390 H     1 <1>   0.1500 
 34 H       -1.3430     5.3280     1.9380 H     1 <1>   0.0800 
 35 H       -0.5220     3.9480     1.2660 H     1 <1>   0.0800 
 36 H       -1.7330     3.7320     2.5150 H     1 <1>   0.0800 
 37 H       -5.3360    -0.7160     0.9430 H     1 <1>   0.0800 
 38 H       -6.1530    -1.0000    -0.5840 H     1 <1>   0.0800 
 39 H       -4.9680    -3.3130    -1.8020 H     1 <1>   0.0800 
 40 H       -3.4800    -3.7860    -0.9790 H     1 <1>   0.0800 
 41 H       -6.1530    -2.6690     1.7900 H     1 <1>   0.0800 
 42 H       -4.6240    -4.1420     1.0460 H     1 <1>   0.0800 
 43 H       -5.3760     6.9430    -0.4690 H     1 <1>   0.0800 
 44 H       -5.6400     6.2460    -2.0470 H     1 <1>   0.0800 
 45 H       -4.1810     7.1500    -1.7280 H     1 <1>   0.0800 
 46 H       -6.3670    -5.0040    -1.2530 H     1 <1>   0.0800 
 47 H       -5.3580    -5.9720    -0.2190 H     1 <1>   0.0800 
 48 H       -8.5990    -2.8450    -1.4160 H     1 <1>   0.4000 
 49 H       -8.6650    -4.1740     1.6230 H     1 <1>   0.0800 
 50 H       -9.0390    -4.4550    -0.0350 H     1 <1>   0.0800 
 51 H       -9.6120    -2.0150     0.6060 H     1 <1>   0.0800 
 52 H       -8.5410    -1.7730     1.9300 H     1 <1>   0.0800 
 53 H       -6.8810    -5.5400     1.6660 H     1 <1>   0.0800 
 54 H       -7.7230    -6.2930     0.3490 H     1 <1>   0.0800 
 55 H       -8.3560    -0.1990    -0.6600 H     1 <1>   0.0800 
 56 H       -7.5170     0.1490     0.8440 H     1 <1>   0.0800 
 57 H       -9.2370     0.3100     0.7490 H     1 <1>   0.0800 
@<TRIPOS>BOND
  1   1   2  2   
  2   2   3  am  
  3   2   4  1   
  4   3   5  1   
  5   3  27  1   
  6   4   6  2   
  7   4   7  1   
  8   5   8  ar  
  9   5   9  ar  
 10   6   8  1   
 11   6  28  1   
 12   7  10  1   
 13   7  29  1   
 14   7  30  1   
 15   8  11  ar  
 16   9  12  ar  
 17   9  13  1   
 18  10  14  1   
 19  10  15  1   
 20  10  31  1   
 21  11  16  ar  
 22  11  32  1   
 23  12  16  ar  
 24  12  33  1   
 25  13  34  1   
 26  13  35  1   
 27  13  36  1   
 28  14  17  1   
 29  14  37  1   
 30  14  38  1   
 31  15  18  1   
 32  15  39  1   
 33  15  40  1   
 34  16  19  1   
 35  17  18  1   
 36  17  20  1   
 37  17  41  1   
 38  18  21  1   
 39  18  42  1   
 40  19  43  1   
 41  19  44  1   
 42  19  45  1   
 43  20  22  1   
 44  20  23  1   
 45  20  24  1   
 46  21  25  1   
 47  21  46  1   
 48  21  47  1   
 49  22  48  1   
 50  23  25  1   
 51  23  49  1   
 52  23  50  1   
 53  24  26  1   
 54  24  51  1   
 55  24  52  1   
 56  25  53  1   
 57  25  54  1   
 58  26  55  1   
 59  26  56  1   
 60  26  57  1   
@<TRIPOS>SUBSTRUCTURE
  1 ****   4 GROUP 4 **** **** 0

# MOE 2024.06 (io_trps.svl 2023.06)
