@<TRIPOS>MOLECULE
NONAME
36 37 1 0 0 
SMALL
USER_CHARGES


@<TRIPOS>ATOM
  1 CL      -0.2900     0.0960     0.1210 Cl    1 <1>  -0.1770 
  2 C        1.0870    -0.9830     0.2290 C.ar  1 <1>   0.1770 
  3 C        0.9350    -2.2440     0.7960 C.ar  1 <1>  -0.0090 
  4 C        2.3040    -0.5270    -0.2690 C.ar  1 <1>  -0.1440 
  5 S       -0.6590    -2.8190     1.4330 S.o2  1 <1>   1.4470 
  6 C        2.0570    -3.0660     0.8570 C.ar  1 <1>  -0.1500 
  7 C        3.3950    -1.3820    -0.1870 C.ar  1 <1>   0.1770 
  8 C        2.4070     0.8710    -0.8800 C.3   1 <1>  -0.0970 
  9 O       -0.5000    -4.1920     1.8620 O.2   1 <1>  -0.6500 
 10 O       -1.1510    -1.8440     2.3820 O.2   1 <1>  -0.6500 
 11 N       -1.6430    -2.8120     0.0500 N.am  1 <1>  -0.8490 
 12 C        3.2800    -2.6410     0.3700 C.ar  1 <1>  -0.1500 
 13 CL       4.9710    -0.9150    -0.7830 Cl    1 <1>  -0.1770 
 14 C       -1.4140    -3.9400    -0.8770 C.3   1 <1>   0.1960 
 15 C       -3.0690    -2.4870     0.2710 C.3   1 <1>   0.1960 
 16 C       -2.1550    -5.2480    -0.5060 C.3   1 <1>   0.2000 
 17 C       -4.0360    -3.6440    -0.0330 C.3   1 <1>  -0.1600 
 18 O       -2.4990    -5.8490    -1.7030 O.3   1 <1>  -0.6800 
 19 C       -3.4190    -5.0010     0.3440 C.3   1 <1>  -0.1860 
 20 C       -4.4400    -6.1290     0.3460 C.2   1 <1>   0.9060 
 21 O       -5.1080    -6.3080     1.3670 O.co2 1 <1>  -0.9000 
 22 O       -4.5990    -6.8210    -0.6700 O.co2 1 <1>  -0.9000 
 23 H        1.9750    -4.0500     1.2920 H     1 <1>   0.1500 
 24 H        3.4020     1.1070    -1.2080 H     1 <1>   0.0800 
 25 H        2.1170     1.6100    -0.1530 H     1 <1>   0.0800 
 26 H        1.7520     0.9490    -1.7290 H     1 <1>   0.0800 
 27 H        4.1440    -3.2800     0.4210 H     1 <1>   0.1500 
 28 H       -1.7590    -3.6260    -1.8480 H     1 <1>   0.0800 
 29 H       -0.3620    -4.1440    -0.9600 H     1 <1>   0.0800 
 30 H       -3.2270    -2.1850     1.2920 H     1 <1>   0.0800 
 31 H       -3.3300    -1.6460    -0.3480 H     1 <1>   0.0800 
 32 H       -1.5000    -5.9250     0.0140 H     1 <1>   0.0800 
 33 H       -4.9480    -3.4970     0.5180 H     1 <1>   0.0800 
 34 H       -4.2890    -3.6470    -1.0790 H     1 <1>   0.0800 
 35 H       -3.3390    -6.3810    -1.5130 H     1 <1>   0.4000 
 36 H       -3.0950    -4.9210     1.3650 H     1 <1>   0.0800 
@<TRIPOS>BOND
  1   1   2  1   
  2   2   3  ar  
  3   2   4  ar  
  4   3   5  1   
  5   3   6  ar  
  6   4   7  ar  
  7   4   8  1   
  8   5   9  2   
  9   5  10  2   
 10   5  11  am  
 11   6  12  ar  
 12   6  23  1   
 13   7  12  ar  
 14   7  13  1   
 15   8  24  1   
 16   8  25  1   
 17   8  26  1   
 18  11  14  1   
 19  11  15  1   
 20  12  27  1   
 21  14  16  1   
 22  14  28  1   
 23  14  29  1   
 24  15  17  1   
 25  15  30  1   
 26  15  31  1   
 27  16  18  1   
 28  16  19  1   
 29  16  32  1   
 30  17  19  1   
 31  17  33  1   
 32  17  34  1   
 33  18  35  1   
 34  19  20  1   
 35  19  36  1   
 36  20  21  ar  
 37  20  22  ar  
@<TRIPOS>SUBSTRUCTURE
  1 ****  11 GROUP 4 **** **** 0

# MOE 2024.06 (io_trps.svl 2023.06)
