@<TRIPOS>MOLECULE
Untitled Document
36 38 1 0 0 
SMALL
USER_CHARGES


@<TRIPOS>ATOM
  1 N        0.0740     0.0060     0.4910 N.ar  1 <1>  -0.6200 
  2 C        1.0590     0.8430     0.6130 C.ar  1 <1>   0.4100 
  3 C       -1.1490     0.5360     0.1760 C.ar  1 <1>   0.3100 
  4 N        2.2630     0.2970     0.9330 N.pl3 1 <1>  -0.9000 
  5 C        0.9250     2.2520     0.4140 C.ar  1 <1>   0.2270 
  6 C       -1.4020     1.9170    -0.0330 C.ar  1 <1>   0.3100 
  7 C       -2.2280    -0.3400     0.0480 C.ar  1 <1>  -0.1500 
  8 N        1.8750     3.2250     0.4720 N.2   1 <1>  -0.5650 
  9 C       -0.2940     2.7880     0.1060 C.ar  1 <1>  -0.1520 
 10 N       -2.6210     2.4080    -0.3560 N.ar  1 <1>  -0.6200 
 11 C       -3.4550     0.1700    -0.2730 C.ar  1 <1>  -0.1500 
 12 C        1.2310     4.3110     0.2200 C.2   1 <1>   0.0060 
 13 N       -0.1000     4.1280    -0.0020 N.pl3 1 <1>   0.0480 
 14 C       -3.5960     1.5450    -0.4640 C.ar  1 <1>   0.1600 
 15 C        1.9180     5.6620     0.1740 C.3   1 <1>  -0.0600 
 16 C       -1.1050     5.1790    -0.3120 C.3   1 <1>   0.0960 
 17 C       -1.6020     5.9090     0.9530 C.3   1 <1>  -0.0800 
 18 C       -2.3100     4.9660     1.9370 C.3   1 <1>  -0.2400 
 19 C       -2.5580     7.0410     0.5570 C.3   1 <1>  -0.2400 
 20 H        3.0890     0.8880     0.8100 H     1 <1>   0.4000 
 21 H        2.3750    -0.7040     0.7820 H     1 <1>   0.4000 
 22 H       -2.0650    -1.3900     0.2040 H     1 <1>   0.1500 
 23 H       -4.3120    -0.4700    -0.3810 H     1 <1>   0.1500 
 24 H       -4.5730     1.9230    -0.7180 H     1 <1>   0.1500 
 25 H        2.9780     5.5340     0.3030 H     1 <1>   0.0800 
 26 H        1.5550     6.2920     0.9640 H     1 <1>   0.0800 
 27 H        1.7470     6.1370    -0.7740 H     1 <1>   0.0800 
 28 H       -1.9340     4.7380    -0.8310 H     1 <1>   0.0800 
 29 H       -0.6520     5.8880    -0.9800 H     1 <1>   0.0800 
 30 H       -0.7580     6.3500     1.4530 H     1 <1>   0.0800 
 31 H       -3.1550     4.4930     1.4680 H     1 <1>   0.0800 
 32 H       -2.6560     5.5110     2.7970 H     1 <1>   0.0800 
 33 H       -1.6380     4.1990     2.2800 H     1 <1>   0.0800 
 34 H       -3.4270     6.6460     0.0580 H     1 <1>   0.0800 
 35 H       -2.0680     7.7350    -0.1030 H     1 <1>   0.0800 
 36 H       -2.8820     7.5790     1.4310 H     1 <1>   0.0800 
@<TRIPOS>BOND
  1   1   2  ar  
  2   1   3  ar  
  3   2   4  1   
  4   2   5  ar  
  5   3   6  ar  
  6   3   7  ar  
  7   4  20  1   
  8   4  21  1   
  9   5   8  1   
 10   5   9  ar  
 11   6   9  ar  
 12   6  10  ar  
 13   7  11  ar  
 14   7  22  1   
 15   8  12  2   
 16   9  13  1   
 17  10  14  ar  
 18  11  14  ar  
 19  11  23  1   
 20  12  13  1   
 21  12  15  1   
 22  13  16  1   
 23  14  24  1   
 24  15  25  1   
 25  15  26  1   
 26  15  27  1   
 27  16  17  1   
 28  16  28  1   
 29  16  29  1   
 30  17  18  1   
 31  17  19  1   
 32  17  30  1   
 33  18  31  1   
 34  18  32  1   
 35  18  33  1   
 36  19  34  1   
 37  19  35  1   
 38  19  36  1   
@<TRIPOS>SUBSTRUCTURE
  1 ****   9 GROUP 4 **** **** 0

# MOE 2024.06 (io_trps.svl 2023.06)
