@<TRIPOS>MOLECULE
NONAME
46 48 1 0 0 
SMALL
USER_CHARGES


@<TRIPOS>ATOM
  1 S       -0.1710    -0.5280     0.7170 S.o2  1 <1>   1.4470 
  2 O       -1.3700     0.2310     0.9920 O.2   1 <1>  -0.6500 
  3 O        0.1860    -1.6440     1.5610 O.2   1 <1>  -0.6500 
  4 N       -0.4490    -1.1000    -0.8390 N.am  1 <1>  -0.9140 
  5 C        1.2520     0.5730     0.4990 C.ar  1 <1>  -0.0090 
  6 C       -0.9750    -2.4570    -1.0290 C.3   1 <1>   0.2760 
  7 C        2.5280     0.0550     0.3170 C.ar  1 <1>  -0.1500 
  8 C        1.1020     1.9550     0.4890 C.ar  1 <1>  -0.1500 
  9 C       -2.1740    -2.8480    -0.1530 C.3   1 <1>  -0.0800 
 10 C        0.0430    -3.5780    -0.8030 C.3   1 <1>   0.1200 
 11 C        3.6240     0.8810     0.1310 C.ar  1 <1>  -0.1430 
 12 C        2.1860     2.7970     0.3050 C.ar  1 <1>  -0.1430 
 13 C       -1.6910    -4.1360     0.5230 C.3   1 <1>   0.1200 
 14 C       -3.4390    -3.0750    -1.0000 C.3   1 <1>  -0.0170 
 15 O       -0.7050    -4.6440    -0.3140 O.3   1 <1>  -0.5600 
 16 C        3.4460     2.2530     0.1240 C.ar  1 <1>  -0.1500 
 17 C        5.0070     0.2860    -0.0670 C.3   1 <1>  -0.0970 
 18 C        1.9960     4.3030     0.2970 C.3   1 <1>  -0.0970 
 19 C       -4.6320    -3.4540    -0.1360 C.ar  1 <1>  -0.1430 
 20 C       -5.2430    -2.5430     0.7020 C.ar  1 <1>  -0.1500 
 21 C       -5.1660    -4.7270    -0.1430 C.ar  1 <1>  -0.1500 
 22 C       -6.3260    -2.9370     1.4700 C.ar  1 <1>   0.1600 
 23 C       -6.2530    -5.0180     0.6640 C.ar  1 <1>   0.1600 
 24 N       -6.8460    -4.1530     1.4710 N.ar  1 <1>  -0.6200 
 25 H       -1.1510    -0.4500    -1.1870 H     1 <1>   0.4200 
 26 H       -1.2650    -2.5340    -2.0630 H     1 <1>   0.0800 
 27 H        2.6600    -1.0140     0.3210 H     1 <1>   0.1500 
 28 H        0.1220     2.3780     0.6270 H     1 <1>   0.1500 
 29 H       -2.3980    -2.1260     0.6080 H     1 <1>   0.0800 
 30 H        0.7830    -3.3260    -0.0650 H     1 <1>   0.0800 
 31 H        0.5200    -3.8810    -1.7170 H     1 <1>   0.0800 
 32 H       -2.4630    -4.8740     0.6520 H     1 <1>   0.0800 
 33 H       -1.2360    -3.9200     1.4750 H     1 <1>   0.0800 
 34 H       -3.2560    -3.8490    -1.7260 H     1 <1>   0.0800 
 35 H       -3.6780    -2.1730    -1.5350 H     1 <1>   0.0800 
 36 H        4.2920     2.9010    -0.0240 H     1 <1>   0.1500 
 37 H        5.7590     0.9460     0.3280 H     1 <1>   0.0800 
 38 H        5.1920     0.1370    -1.1150 H     1 <1>   0.0800 
 39 H        5.0870    -0.6590     0.4390 H     1 <1>   0.0800 
 40 H        2.8720     4.7940     0.6830 H     1 <1>   0.0800 
 41 H        1.1570     4.5820     0.9080 H     1 <1>   0.0800 
 42 H        1.8230     4.6440    -0.7080 H     1 <1>   0.0800 
 43 H       -4.8870    -1.5300     0.7670 H     1 <1>   0.1500 
 44 H       -4.7490    -5.4960    -0.7670 H     1 <1>   0.1500 
 45 H       -6.7880    -2.2120     2.1180 H     1 <1>   0.1500 
 46 H       -6.6560    -6.0160     0.6450 H     1 <1>   0.1500 
@<TRIPOS>BOND
  1   1   2  2   
  2   1   3  2   
  3   1   4  am  
  4   1   5  1   
  5   4   6  1   
  6   4  25  1   
  7   5   7  ar  
  8   5   8  ar  
  9   6   9  1   
 10   6  10  1   
 11   6  26  1   
 12   7  11  ar  
 13   7  27  1   
 14   8  12  ar  
 15   8  28  1   
 16   9  13  1   
 17   9  14  1   
 18   9  29  1   
 19  10  15  1   
 20  10  30  1   
 21  10  31  1   
 22  11  16  ar  
 23  11  17  1   
 24  12  16  ar  
 25  12  18  1   
 26  13  15  1   
 27  13  32  1   
 28  13  33  1   
 29  14  19  1   
 30  14  34  1   
 31  14  35  1   
 32  16  36  1   
 33  17  37  1   
 34  17  38  1   
 35  17  39  1   
 36  18  40  1   
 37  18  41  1   
 38  18  42  1   
 39  19  20  ar  
 40  19  21  ar  
 41  20  22  ar  
 42  20  43  1   
 43  21  23  ar  
 44  21  44  1   
 45  22  24  ar  
 46  22  45  1   
 47  23  24  ar  
 48  23  46  1   
@<TRIPOS>SUBSTRUCTURE
  1 ****   4 GROUP 4 **** **** 0

# MOE 2024.06 (io_trps.svl 2023.06)
