@<TRIPOS>MOLECULE
NONAME
53 56 1 0 0 
SMALL
USER_CHARGES


@<TRIPOS>ATOM
  1 O        4.0880    -1.2490     0.6990 O.2   1 <1>  -0.5700 
  2 C        2.9210    -1.3740     0.3760 C.2   1 <1>   0.5440 
  3 N        2.1170    -0.2610     0.2650 N.am  1 <1>  -0.4940 
  4 C        2.3750    -2.6900     0.0880 C.ar  1 <1>   0.0860 
  5 C        2.2740     1.0840     0.6900 C.2   1 <1>  -0.0880 
  6 C        1.0280    -2.9770     0.1810 C.ar  1 <1>  -0.1500 
  7 C        3.2230    -3.7460    -0.3040 C.ar  1 <1>  -0.1500 
  8 N        3.3840     1.8810     0.6580 N.pl3 1 <1>   0.3140 
  9 C        1.2840     1.8440     1.2130 C.2   1 <1>  -0.1500 
 10 C        0.4910    -4.2350    -0.1160 C.ar  1 <1>   0.3100 
 11 C        2.7360    -4.9900    -0.5950 C.ar  1 <1>  -0.1500 
 12 N        3.1150     3.1140     1.1610 N.2   1 <1>  -0.7070 
 13 C        4.7420     1.5760     0.1380 C.3   1 <1>   0.1760 
 14 C        1.8620     3.0750     1.4860 C.2   1 <1>   0.1390 
 15 N       -0.8510    -4.3900    -0.0050 N.ar  1 <1>  -0.6200 
 16 C        1.3570    -5.2780    -0.5160 C.ar  1 <1>   0.0000 
 17 C        5.7110     1.3820     1.3140 C.3   1 <1>  -0.1600 
 18 C        5.2590     2.6820    -0.7960 C.3   1 <1>  -0.1600 
 19 C       -1.3450    -5.5550    -0.2800 C.ar  1 <1>   0.1670 
 20 C        0.7840    -6.5340    -0.8060 C.ar  1 <1>  -0.1430 
 21 C        7.1120     1.0760     0.8060 C.3   1 <1>   0.3430 
 22 C        6.6780     2.3730    -1.2620 C.3   1 <1>   0.3430 
 23 C       -0.5690    -6.6530    -0.6820 C.ar  1 <1>  -0.1500 
 24 C       -2.8450    -5.7130    -0.1490 C.3   1 <1>  -0.0970 
 25 C        1.6330    -7.7190    -1.2420 C.3   1 <1>  -0.0970 
 26 N        7.5700     2.1890    -0.0780 N.4   1 <1>  -0.9590 
 27 C        8.9870     1.9810    -0.5020 C.3   1 <1>   0.2630 
 28 H        1.1630    -0.4800    -0.0280 H     1 <1>   0.3700 
 29 H        0.3230    -2.2340     0.5010 H     1 <1>   0.1500 
 30 H        4.2800    -3.5540    -0.3700 H     1 <1>   0.1500 
 31 H        0.2590     1.5800     1.3990 H     1 <1>   0.1500 
 32 H        3.4160    -5.7680    -0.8900 H     1 <1>   0.1500 
 33 H        4.6810     0.6770    -0.4430 H     1 <1>   0.0800 
 34 H        1.3370     3.9110     1.9200 H     1 <1>   0.1500 
 35 H        5.3770     0.5640     1.9280 H     1 <1>   0.0800 
 36 H        5.7330     2.2650     1.9280 H     1 <1>   0.0800 
 37 H        5.2540     3.6350    -0.2960 H     1 <1>   0.0800 
 38 H        4.6140     2.7550    -1.6540 H     1 <1>   0.0800 
 39 H        7.1010     0.1460     0.2580 H     1 <1>   0.0800 
 40 H        7.7810     0.9680     1.6450 H     1 <1>   0.0800 
 41 H        7.0390     3.1850    -1.8730 H     1 <1>   0.0800 
 42 H        6.6750     1.4740    -1.8590 H     1 <1>   0.0800 
 43 H       -1.0630    -7.5840    -0.8890 H     1 <1>   0.1500 
 44 H       -3.3370    -4.9530    -0.7280 H     1 <1>   0.0800 
 45 H       -3.1270    -5.5980     0.8810 H     1 <1>   0.0800 
 46 H       -3.1700    -6.6760    -0.4950 H     1 <1>   0.0800 
 47 H        2.1550    -7.4830    -2.1520 H     1 <1>   0.0800 
 48 H        1.0220    -8.5850    -1.4180 H     1 <1>   0.0800 
 49 H        2.3490    -7.9600    -0.4770 H     1 <1>   0.0800 
 50 H        7.5170     3.0560     0.4790 H     1 <1>   0.4500 
 51 H        9.0760     1.0780    -1.0850 H     1 <1>   0.0800 
 52 H        9.6270     1.8980     0.3620 H     1 <1>   0.0800 
 53 H        9.3250     2.8120    -1.0990 H     1 <1>   0.0800 
@<TRIPOS>BOND
  1   1   2  2   
  2   2   3  am  
  3   2   4  1   
  4   3   5  1   
  5   3  28  1   
  6   4   6  ar  
  7   4   7  ar  
  8   5   8  1   
  9   5   9  2   
 10   6  10  ar  
 11   6  29  1   
 12   7  11  ar  
 13   7  30  1   
 14   8  12  1   
 15   8  13  1   
 16   9  14  1   
 17   9  31  1   
 18  10  15  ar  
 19  10  16  ar  
 20  11  16  ar  
 21  11  32  1   
 22  12  14  2   
 23  13  17  1   
 24  13  18  1   
 25  13  33  1   
 26  14  34  1   
 27  15  19  ar  
 28  16  20  ar  
 29  17  21  1   
 30  17  35  1   
 31  17  36  1   
 32  18  22  1   
 33  18  37  1   
 34  18  38  1   
 35  19  23  ar  
 36  19  24  1   
 37  20  23  ar  
 38  20  25  1   
 39  21  26  1   
 40  21  39  1   
 41  21  40  1   
 42  22  26  1   
 43  22  41  1   
 44  22  42  1   
 45  23  43  1   
 46  24  44  1   
 47  24  45  1   
 48  24  46  1   
 49  25  47  1   
 50  25  48  1   
 51  25  49  1   
 52  26  27  1   
 53  26  50  1   
 54  27  51  1   
 55  27  52  1   
 56  27  53  1   
@<TRIPOS>SUBSTRUCTURE
  1 ****   2 GROUP 4 **** **** 0

# MOE 2024.06 (io_trps.svl 2023.06)
