@<TRIPOS>MOLECULE
NONAME
40 41 1 0 0 
SMALL
USER_CHARGES


@<TRIPOS>ATOM
  1 O       -0.5170     0.5300     2.1270 O.2   1 <1>  -0.5700 
  2 C       -1.1730     1.0840     1.2750 C.2   1 <1>   0.5690 
  3 N       -2.1340     0.4020     0.5750 N.am  1 <1>  -0.6600 
  4 C       -0.9210     2.5760     1.0360 C.3   1 <1>   0.1810 
  5 C       -2.9550     0.9370    -0.5400 C.3   1 <1>   0.1400 
  6 C       -2.3960    -1.0440     0.7660 C.3   1 <1>   0.1400 
  7 O       -0.6510     2.8720    -0.3130 O.3   1 <1>  -0.5600 
  8 C       -4.0440    -0.1140    -0.7430 C.3   1 <1>   0.2000 
  9 C       -3.3530    -1.4320    -0.3690 C.3   1 <1>  -0.0800 
 10 C       -0.4160     4.2400    -0.5570 C.3   1 <1>   0.1810 
 11 O       -5.0650     0.1460     0.1590 O.3   1 <1>  -0.6800 
 12 C       -4.3080    -2.5880    -0.0150 C.3   1 <1>   0.0200 
 13 C       -0.0910     4.5130    -2.0260 C.2   1 <1>   0.5690 
 14 C       -3.5940    -3.9090     0.2160 C.2   1 <1>  -0.0400 
 15 O       -0.1700     5.6360    -2.4530 O.2   1 <1>  -0.5700 
 16 N        0.2880     3.5040    -2.8350 N.am  1 <1>  -0.8000 
 17 O       -4.2880    -4.9260     0.6510 O.3   1 <1>  -0.0190 
 18 C       -2.3230    -4.3180     0.0670 C.2   1 <1>  -0.1500 
 19 N       -3.5530    -5.9890     0.8050 N.2   1 <1>  -0.4100 
 20 C       -2.3630    -5.6520     0.4610 C.2   1 <1>   0.1080 
 21 C       -1.1740    -6.5860     0.4850 C.3   1 <1>  -0.0590 
 22 H       -0.0760     2.8830     1.6260 H     1 <1>   0.0800 
 23 H       -1.7890     3.1300     1.3440 H     1 <1>   0.0800 
 24 H       -3.3690     1.9040    -0.3130 H     1 <1>   0.0800 
 25 H       -2.3420     1.0070    -1.4220 H     1 <1>   0.0800 
 26 H       -1.4760    -1.6030     0.7250 H     1 <1>   0.0800 
 27 H       -2.8550    -1.1920     1.7290 H     1 <1>   0.0800 
 28 H       -4.4570    -0.1110    -1.7380 H     1 <1>   0.0800 
 29 H       -2.7550    -1.7310    -1.2120 H     1 <1>   0.0800 
 30 H       -1.2950     4.7950    -0.2860 H     1 <1>   0.0800 
 31 H        0.4140     4.5610     0.0460 H     1 <1>   0.0800 
 32 H       -4.6770     0.2750     1.0480 H     1 <1>   0.4000 
 33 H       -5.0170    -2.7210    -0.8130 H     1 <1>   0.0800 
 34 H       -4.8650    -2.3460     0.8740 H     1 <1>   0.0800 
 35 H        0.5130     3.6780    -3.8140 H     1 <1>   0.3700 
 36 H        0.3450     2.5440    -2.4900 H     1 <1>   0.3700 
 37 H       -1.4520    -3.7890    -0.2700 H     1 <1>   0.1500 
 38 H       -0.4140    -6.1930     1.1340 H     1 <1>   0.0800 
 39 H       -0.7750    -6.6940    -0.5060 H     1 <1>   0.0800 
 40 H       -1.4740    -7.5530     0.8470 H     1 <1>   0.0800 
@<TRIPOS>BOND
  1   1   2  2   
  2   2   3  am  
  3   2   4  1   
  4   3   5  1   
  5   3   6  1   
  6   4   7  1   
  7   4  22  1   
  8   4  23  1   
  9   5   8  1   
 10   5  24  1   
 11   5  25  1   
 12   6   9  1   
 13   6  26  1   
 14   6  27  1   
 15   7  10  1   
 16   8   9  1   
 17   8  11  1   
 18   8  28  1   
 19   9  12  1   
 20   9  29  1   
 21  10  13  1   
 22  10  30  1   
 23  10  31  1   
 24  11  32  1   
 25  12  14  1   
 26  12  33  1   
 27  12  34  1   
 28  13  15  2   
 29  13  16  am  
 30  14  17  1   
 31  14  18  2   
 32  16  35  1   
 33  16  36  1   
 34  17  19  1   
 35  18  20  1   
 36  18  37  1   
 37  19  20  2   
 38  20  21  1   
 39  21  38  1   
 40  21  39  1   
 41  21  40  1   
@<TRIPOS>SUBSTRUCTURE
  1 ****   6 GROUP 4 **** **** 0

# MOE 2024.06 (io_trps.svl 2023.06)
