@<TRIPOS>MOLECULE
NONAME
54 55 1 0 0 
SMALL
USER_CHARGES


@<TRIPOS>ATOM
  1 O       -0.1350    -0.2550    -1.0560 O.2   1 <1>  -0.5700 
  2 C        0.7550    -0.7110    -0.3640 C.2   1 <1>   0.5440 
  3 N        1.7550     0.1000     0.1040 N.am  1 <1>  -0.4930 
  4 C        0.7610    -2.1210    -0.0210 C.ar  1 <1>   0.0860 
  5 C        2.0060     1.4760    -0.1310 C.2   1 <1>   0.0630 
  6 C        1.9470    -2.8490     0.0980 C.ar  1 <1>  -0.1500 
  7 C       -0.4330    -2.8040     0.2040 C.ar  1 <1>  -0.1500 
  8 C        1.1260     2.5630    -0.1260 C.2   1 <1>   0.1080 
  9 C        3.2180     2.0170    -0.3820 C.2   1 <1>  -0.3320 
 10 C        1.9380    -4.1880     0.4420 C.ar  1 <1>  -0.1500 
 11 C       -0.4470    -4.1430     0.5480 C.ar  1 <1>  -0.1500 
 12 N        1.7340     3.6860    -0.3540 N.2   1 <1>  -0.7070 
 13 C       -0.3640     2.5130     0.1260 C.3   1 <1>  -0.0590 
 14 N        3.0250     3.3540    -0.5180 N.pl3 1 <1>   0.3140 
 15 C        4.5710     1.3310    -0.5160 C.3   1 <1>  -0.0600 
 16 C        0.7410    -4.8450     0.6710 C.ar  1 <1>  -0.1430 
 17 C        4.0380     4.3890    -0.8130 C.3   1 <1>   0.0960 
 18 C        0.7260    -6.3190     1.0400 C.3   1 <1>  -0.0170 
 19 C        4.6790     4.9150     0.4800 C.3   1 <1>  -0.1600 
 20 C        0.6920    -7.1810    -0.2340 C.3   1 <1>  -0.1600 
 21 C        5.7410     5.9800     0.1830 C.3   1 <1>  -0.2400 
 22 C        0.5820    -8.6970     0.0050 C.3   1 <1>   0.2800 
 23 O       -0.5520    -8.9390     0.7350 O.3   1 <1>  -0.6800 
 24 C        0.4200    -9.4470    -1.3160 C.3   1 <1>  -0.2400 
 25 C        1.7510    -9.2670     0.8070 C.3   1 <1>  -0.2400 
 26 H        2.4570    -0.3490     0.6850 H     1 <1>   0.3700 
 27 H        2.8900    -2.3690    -0.0920 H     1 <1>   0.1500 
 28 H       -1.3630    -2.2700     0.1060 H     1 <1>   0.1500 
 29 H        2.8680    -4.7240     0.5260 H     1 <1>   0.1500 
 30 H       -1.3870    -4.6390     0.7160 H     1 <1>   0.1500 
 31 H       -0.5980     1.7260     0.8180 H     1 <1>   0.0800 
 32 H       -0.8760     2.3320    -0.8000 H     1 <1>   0.0800 
 33 H       -0.6970     3.4490     0.5340 H     1 <1>   0.0800 
 34 H        4.4710     0.2680    -0.3960 H     1 <1>   0.0800 
 35 H        5.2500     1.6970     0.2330 H     1 <1>   0.0800 
 36 H        4.9860     1.5210    -1.4890 H     1 <1>   0.0800 
 37 H        3.5480     5.1930    -1.3310 H     1 <1>   0.0800 
 38 H        4.7830     3.9690    -1.4620 H     1 <1>   0.0800 
 39 H       -0.1350    -6.5260     1.6520 H     1 <1>   0.0800 
 40 H        1.6000    -6.5470     1.6230 H     1 <1>   0.0800 
 41 H        5.1340     4.1010     1.0160 H     1 <1>   0.0800 
 42 H        3.9110     5.3440     1.1010 H     1 <1>   0.0800 
 43 H        1.5860    -6.9880    -0.7980 H     1 <1>   0.0800 
 44 H       -0.1350    -6.8630    -0.8440 H     1 <1>   0.0800 
 45 H        6.5300     5.5710    -0.4240 H     1 <1>   0.0800 
 46 H        6.1700     6.3370     1.1040 H     1 <1>   0.0800 
 47 H        5.3020     6.8160    -0.3330 H     1 <1>   0.0800 
 48 H       -1.3330    -8.6860     0.2110 H     1 <1>   0.4000 
 49 H       -0.4210    -9.0730    -1.8700 H     1 <1>   0.0800 
 50 H        0.2860   -10.4990    -1.1360 H     1 <1>   0.0800 
 51 H        1.3020    -9.3200    -1.9170 H     1 <1>   0.0800 
 52 H        1.7870    -8.8400     1.7910 H     1 <1>   0.0800 
 53 H        2.6790    -9.0610     0.3060 H     1 <1>   0.0800 
 54 H        1.6480   -10.3330     0.9040 H     1 <1>   0.0800 
@<TRIPOS>BOND
  1   1   2  2   
  2   2   3  am  
  3   2   4  1   
  4   3   5  1   
  5   3  26  1   
  6   4   6  ar  
  7   4   7  ar  
  8   5   8  1   
  9   5   9  2   
 10   6  10  ar  
 11   6  27  1   
 12   7  11  ar  
 13   7  28  1   
 14   8  12  2   
 15   8  13  1   
 16   9  14  1   
 17   9  15  1   
 18  10  16  ar  
 19  10  29  1   
 20  11  16  ar  
 21  11  30  1   
 22  12  14  1   
 23  13  31  1   
 24  13  32  1   
 25  13  33  1   
 26  14  17  1   
 27  15  34  1   
 28  15  35  1   
 29  15  36  1   
 30  16  18  1   
 31  17  19  1   
 32  17  37  1   
 33  17  38  1   
 34  18  20  1   
 35  18  39  1   
 36  18  40  1   
 37  19  21  1   
 38  19  41  1   
 39  19  42  1   
 40  20  22  1   
 41  20  43  1   
 42  20  44  1   
 43  21  45  1   
 44  21  46  1   
 45  21  47  1   
 46  22  23  1   
 47  22  24  1   
 48  22  25  1   
 49  23  48  1   
 50  24  49  1   
 51  24  50  1   
 52  24  51  1   
 53  25  52  1   
 54  25  53  1   
 55  25  54  1   
@<TRIPOS>SUBSTRUCTURE
  1 ****   4 GROUP 4 **** **** 0

# MOE 2024.06 (io_trps.svl 2023.06)
