@<TRIPOS>MOLECULE
NONAME
44 45 1 0 0 
SMALL
USER_CHARGES


@<TRIPOS>ATOM
  1 O       -0.5240    -0.0650    -0.7050 O.2   1 <1>  -0.5700 
  2 C       -0.5990    -1.2580    -0.5080 C.2   1 <1>   0.6900 
  3 N       -1.7560    -1.9270    -0.6280 N.am  1 <1>  -0.7300 
  4 N        0.4960    -1.9380    -0.1680 N.am  1 <1>  -0.8000 
  5 C       -3.0800    -1.2680    -0.8040 C.3   1 <1>   0.2010 
  6 C       -4.2310    -2.0580    -0.1670 C.2   1 <1>   0.5690 
  7 O       -4.0100    -3.1970     0.1880 O.2   1 <1>  -0.5700 
  8 N       -5.4690    -1.4800    -0.0130 N.am  1 <1>  -0.6600 
  9 C       -6.5710    -2.2290     0.6650 C.3   1 <1>   0.1400 
 10 C       -5.7910    -0.0940    -0.4700 C.3   1 <1>   0.1400 
 11 C       -7.4570    -1.2630     1.4550 C.3   1 <1>  -0.1600 
 12 C       -7.2910     0.0450    -0.7290 C.3   1 <1>  -0.1600 
 13 C       -8.1150    -0.1880     0.5570 C.3   1 <1>   0.2800 
 14 O       -8.0120     1.0220     1.2790 O.3   1 <1>  -0.5600 
 15 C       -9.6040    -0.5540     0.2590 C.3   1 <1>   0.2000 
 16 C       -9.1700     1.7400     1.6000 C.3   1 <1>   0.1200 
 17 O       -9.7220    -1.6910    -0.5490 O.3   1 <1>  -0.6800 
 18 C      -10.4440     0.6370    -0.2920 C.3   1 <1>   0.2800 
 19 C       -9.9850     1.9700     0.3250 C.3   1 <1>  -0.1600 
 20 O      -11.7480     0.4200     0.1130 O.3   1 <1>  -0.6800 
 21 C      -10.5170     0.7470    -1.8230 C.3   1 <1>  -0.2400 
 22 H       -1.8370    -2.8650    -0.2280 H     1 <1>   0.3700 
 23 H        1.3830    -1.4390    -0.1700 H     1 <1>   0.3700 
 24 H        0.5290    -2.9520    -0.1970 H     1 <1>   0.3700 
 25 H       -3.0440    -0.2870    -0.3650 H     1 <1>   0.0800 
 26 H       -3.2750    -1.1640    -1.8560 H     1 <1>   0.0800 
 27 H       -7.1580    -2.7430    -0.0780 H     1 <1>   0.0800 
 28 H       -6.1600    -2.9650     1.3350 H     1 <1>   0.0800 
 29 H       -5.4910     0.6080     0.2900 H     1 <1>   0.0800 
 30 H       -5.2580     0.1320    -1.3770 H     1 <1>   0.0800 
 31 H       -6.8420    -0.7950     2.2040 H     1 <1>   0.0800 
 32 H       -8.2080    -1.8340     1.9690 H     1 <1>   0.0800 
 33 H       -7.5620    -0.6690    -1.4860 H     1 <1>   0.0800 
 34 H       -7.4930     1.0240    -1.1200 H     1 <1>   0.0800 
 35 H      -10.0380    -0.8290     1.2040 H     1 <1>   0.0800 
 36 H       -9.7300     1.1880     2.3370 H     1 <1>   0.0800 
 37 H       -8.8620     2.6780     2.0280 H     1 <1>   0.0800 
 38 H      -10.6750    -1.8750    -0.6760 H     1 <1>   0.4000 
 39 H       -9.3520     2.4990    -0.3640 H     1 <1>   0.0800 
 40 H      -10.8260     2.6050     0.5380 H     1 <1>   0.0800 
 41 H      -12.3290     1.1000    -0.2770 H     1 <1>   0.4000 
 42 H       -9.5330     0.8550    -2.2390 H     1 <1>   0.0800 
 43 H      -11.0960     1.6040    -2.1160 H     1 <1>   0.0800 
 44 H      -10.9590    -0.1350    -2.2510 H     1 <1>   0.0800 
@<TRIPOS>BOND
  1   1   2  2   
  2   2   3  am  
  3   2   4  am  
  4   3   5  1   
  5   3  22  1   
  6   4  23  1   
  7   4  24  1   
  8   5   6  1   
  9   5  25  1   
 10   5  26  1   
 11   6   7  2   
 12   6   8  am  
 13   8   9  1   
 14   8  10  1   
 15   9  11  1   
 16   9  27  1   
 17   9  28  1   
 18  10  12  1   
 19  10  29  1   
 20  10  30  1   
 21  11  13  1   
 22  11  31  1   
 23  11  32  1   
 24  12  13  1   
 25  12  33  1   
 26  12  34  1   
 27  13  14  1   
 28  13  15  1   
 29  14  16  1   
 30  15  17  1   
 31  15  18  1   
 32  15  35  1   
 33  16  19  1   
 34  16  36  1   
 35  16  37  1   
 36  17  38  1   
 37  18  19  1   
 38  18  20  1   
 39  18  21  1   
 40  19  39  1   
 41  19  40  1   
 42  20  41  1   
 43  21  42  1   
 44  21  43  1   
 45  21  44  1   
@<TRIPOS>SUBSTRUCTURE
  1 ****  10 GROUP 4 **** **** 0

# MOE 2024.06 (io_trps.svl 2023.06)
