@<TRIPOS>MOLECULE
NONAME
39 41 1 0 0 
SMALL
USER_CHARGES


@<TRIPOS>ATOM
  1 CL       0.4930    -0.6020    -0.6050 Cl    1 <1>  -0.1770 
  2 C       -0.5240    -1.9670    -0.2220 C.ar  1 <1>   0.1770 
  3 C        0.0420    -3.1080     0.3130 C.ar  1 <1>  -0.1500 
  4 C       -1.8830    -1.8930    -0.4570 C.ar  1 <1>  -0.1500 
  5 C       -0.7690    -4.1870     0.6150 C.ar  1 <1>  -0.1500 
  6 C       -2.6830    -2.9780    -0.1480 C.ar  1 <1>  -0.1500 
  7 C       -2.1490    -4.1520     0.3920 C.ar  1 <1>   0.0530 
  8 C       -2.9760    -5.2900     0.7160 C.2   1 <1>   0.0870 
  9 O       -2.5720    -6.1680     1.6060 O.3   1 <1>  -0.0190 
 10 C       -4.1860    -5.7160     0.2750 C.2   1 <1>  -0.2330 
 11 N       -3.4300    -7.1380     1.7880 N.2   1 <1>  -0.4100 
 12 C       -4.4150    -6.8830     1.0010 C.2   1 <1>   0.3720 
 13 C       -5.0570    -5.1630    -0.7050 C.2   1 <1>   1.0330 
 14 N       -5.5320    -7.7180     0.9260 N.pl3 1 <1>  -0.8210 
 15 O       -5.0420    -5.5740    -1.8760 O.co2 1 <1>  -0.9000 
 16 O       -5.8480    -4.2550    -0.3950 O.co2 1 <1>  -0.9000 
 17 C       -5.5230    -8.6090    -0.2710 C.3   1 <1>   0.2090 
 18 C       -6.8460    -7.0370     1.0700 C.3   1 <1>   0.2090 
 19 C       -6.5610    -9.7260    -0.0770 C.3   1 <1>   0.2000 
 20 C       -7.9260    -8.0990     1.3090 C.3   1 <1>  -0.1600 
 21 O       -6.5940   -10.5300    -1.2220 O.3   1 <1>  -0.5600 
 22 C       -7.9620    -9.1370     0.1700 C.3   1 <1>  -0.1600 
 23 C       -7.0080   -11.8430    -1.0130 C.3   1 <1>   0.0400 
 24 H        1.1020    -3.1470     0.4890 H     1 <1>   0.1500 
 25 H       -2.3110    -1.0000    -0.8740 H     1 <1>   0.1500 
 26 H       -0.3300    -5.0780     1.0280 H     1 <1>   0.1500 
 27 H       -3.7430    -2.9100    -0.3290 H     1 <1>   0.1500 
 28 H       -4.5450    -9.0410    -0.3880 H     1 <1>   0.0800 
 29 H       -5.7590    -8.0350    -1.1520 H     1 <1>   0.0800 
 30 H       -7.0820    -6.4870     0.1740 H     1 <1>   0.0800 
 31 H       -6.8070    -6.3450     1.8940 H     1 <1>   0.0800 
 32 H       -6.2480   -10.3240     0.7620 H     1 <1>   0.0800 
 33 H       -8.8820    -7.6140     1.3870 H     1 <1>   0.0800 
 34 H       -7.7220    -8.5880     2.2450 H     1 <1>   0.0800 
 35 H       -8.6560    -9.9160     0.4220 H     1 <1>   0.0800 
 36 H       -8.2930    -8.6510    -0.7320 H     1 <1>   0.0800 
 37 H       -6.9750   -12.3550    -1.9580 H     1 <1>   0.0800 
 38 H       -8.0140   -11.8470    -0.6350 H     1 <1>   0.0800 
 39 H       -6.3380   -12.3190    -0.3190 H     1 <1>   0.0800 
@<TRIPOS>BOND
  1   1   2  1   
  2   2   3  ar  
  3   2   4  ar  
  4   3   5  ar  
  5   3  24  1   
  6   4   6  ar  
  7   4  25  1   
  8   5   7  ar  
  9   5  26  1   
 10   6   7  ar  
 11   6  27  1   
 12   7   8  1   
 13   8   9  1   
 14   8  10  2   
 15   9  11  1   
 16  10  12  1   
 17  10  13  1   
 18  11  12  2   
 19  12  14  1   
 20  13  15  ar  
 21  13  16  ar  
 22  14  17  1   
 23  14  18  1   
 24  17  19  1   
 25  17  28  1   
 26  17  29  1   
 27  18  20  1   
 28  18  30  1   
 29  18  31  1   
 30  19  21  1   
 31  19  22  1   
 32  19  32  1   
 33  20  22  1   
 34  20  33  1   
 35  20  34  1   
 36  21  23  1   
 37  22  35  1   
 38  22  36  1   
 39  23  37  1   
 40  23  38  1   
 41  23  39  1   
@<TRIPOS>SUBSTRUCTURE
  1 ****  10 GROUP 4 **** **** 0

# MOE 2024.06 (io_trps.svl 2023.06)
