@<TRIPOS>MOLECULE
NONAME
52 55 1 0 0 
SMALL
USER_CHARGES


@<TRIPOS>ATOM
  1 O        1.0220     0.7000     1.1560 O.3   1 <1>  -0.2800 
  2 C        0.6460     0.1830     0.0100 C.2   1 <1>   0.4250 
  3 C        2.3000     0.4600     1.1140 C.2   1 <1>   0.2980 
  4 N        1.6230    -0.3320    -0.6580 N.2   1 <1>  -0.3380 
  5 C       -0.7450     0.2460    -0.3890 C.ar  1 <1>   0.0530 
  6 N        2.6990    -0.1540     0.0690 N.2   1 <1>  -0.3380 
  7 C        3.1930     0.9500     2.2530 C.3   1 <1>   0.3890 
  8 C       -1.6910     0.9560     0.3550 C.ar  1 <1>  -0.1500 
  9 C       -1.1950    -0.3980    -1.5430 C.ar  1 <1>  -0.1500 
 10 N        3.3070     2.4530     2.2970 N.pl3 1 <1>  -0.8380 
 11 C       -3.0160     1.0220    -0.0340 C.ar  1 <1>  -0.1500 
 12 C       -2.5190    -0.3360    -1.9380 C.ar  1 <1>  -0.1500 
 13 C        3.3170     3.2130     1.1690 C.ar  1 <1>   0.4100 
 14 C        3.0880     3.0500     3.6490 C.3   1 <1>   0.1290 
 15 C       -3.4330     0.3760    -1.1830 C.ar  1 <1>  -0.1500 
 16 N        2.6590     4.3550     1.1900 N.ar  1 <1>  -0.6200 
 17 C        3.9830     2.7740     0.0070 C.ar  1 <1>  -0.1500 
 18 C        2.5770     5.0510     0.0650 C.ar  1 <1>   0.7710 
 19 C        3.8780     3.4930    -1.1340 C.ar  1 <1>   0.2180 
 20 N        3.1510     4.6320    -1.0750 N.ar  1 <1>  -0.1790 
 21 N        1.8900     6.2190     0.0590 N.pl3 1 <1>  -0.8380 
 22 C        4.5240     3.0830    -2.4510 C.3   1 <1>  -0.0170 
 23 C        1.1970     6.7200     1.2800 C.3   1 <1>   0.2090 
 24 C        1.7070     7.1850    -1.0590 C.3   1 <1>   0.2090 
 25 C        5.5860     4.0900    -2.9130 C.3   1 <1>  -0.2400 
 26 C        0.3830     7.9190     0.8160 C.3   1 <1>  -0.1600 
 27 C        1.1260     8.4340    -0.4110 C.3   1 <1>  -0.1600 
 28 H        4.1750     0.5270     2.1420 H     1 <1>   0.0800 
 29 H        2.7800     0.5880     3.1780 H     1 <1>   0.0800 
 30 H       -1.3890     1.4660     1.2530 H     1 <1>   0.1500 
 31 H       -0.4980    -0.9590    -2.1420 H     1 <1>   0.1500 
 32 H       -3.7270     1.5750     0.5570 H     1 <1>   0.1500 
 33 H       -2.8400    -0.8420    -2.8320 H     1 <1>   0.1500 
 34 H        3.7040     2.5520     4.3780 H     1 <1>   0.0800 
 35 H        2.0540     2.9510     3.9290 H     1 <1>   0.0800 
 36 H        3.3480     4.0950     3.6470 H     1 <1>   0.0800 
 37 H       -4.4650     0.4250    -1.4880 H     1 <1>   0.1500 
 38 H        4.5580     1.8690     0.0490 H     1 <1>   0.1500 
 39 H        3.0140     5.2260    -1.8810 H     1 <1>   0.4570 
 40 H        3.7660     2.9780    -3.2090 H     1 <1>   0.0800 
 41 H        4.9890     2.1180    -2.3330 H     1 <1>   0.0800 
 42 H        1.9330     7.0260     2.0060 H     1 <1>   0.0800 
 43 H        0.5640     5.9610     1.7120 H     1 <1>   0.0800 
 44 H        1.0000     6.7850    -1.7670 H     1 <1>   0.0800 
 45 H        2.6390     7.4130    -1.5480 H     1 <1>   0.0800 
 46 H        5.1560     5.0540    -3.1160 H     1 <1>   0.0800 
 47 H        6.0540     3.7350    -3.8160 H     1 <1>   0.0800 
 48 H        6.3510     4.2000    -2.1630 H     1 <1>   0.0800 
 49 H        0.2960     8.6650     1.5870 H     1 <1>   0.0800 
 50 H       -0.6020     7.5870     0.5390 H     1 <1>   0.0800 
 51 H        0.4810     8.9740    -1.0820 H     1 <1>   0.0800 
 52 H        1.9300     9.0800    -0.1050 H     1 <1>   0.0800 
@<TRIPOS>BOND
  1   1   2  1   
  2   1   3  1   
  3   2   4  2   
  4   2   5  1   
  5   3   6  2   
  6   3   7  1   
  7   4   6  1   
  8   5   8  ar  
  9   5   9  ar  
 10   7  10  1   
 11   7  28  1   
 12   7  29  1   
 13   8  11  ar  
 14   8  30  1   
 15   9  12  ar  
 16   9  31  1   
 17  10  13  1   
 18  10  14  1   
 19  11  15  ar  
 20  11  32  1   
 21  12  15  ar  
 22  12  33  1   
 23  13  16  ar  
 24  13  17  ar  
 25  14  34  1   
 26  14  35  1   
 27  14  36  1   
 28  15  37  1   
 29  16  18  ar  
 30  17  19  ar  
 31  17  38  1   
 32  18  20  ar  
 33  18  21  1   
 34  19  20  ar  
 35  19  22  1   
 36  20  39  1   
 37  21  23  1   
 38  21  24  1   
 39  22  25  1   
 40  22  40  1   
 41  22  41  1   
 42  23  26  1   
 43  23  42  1   
 44  23  43  1   
 45  24  27  1   
 46  24  44  1   
 47  24  45  1   
 48  25  46  1   
 49  25  47  1   
 50  25  48  1   
 51  26  27  1   
 52  26  49  1   
 53  26  50  1   
 54  27  51  1   
 55  27  52  1   
@<TRIPOS>SUBSTRUCTURE
  1 ****  13 GROUP 4 **** **** 0

# MOE 2024.06 (io_trps.svl 2023.06)
