@<TRIPOS>MOLECULE
NONAME
24 23 1 0 0 
SMALL
USER_CHARGES


@<TRIPOS>ATOM
  1 O        1.3680     0.7750    -1.7030 O.2   1 <1>  -0.5700 
  2 C        1.1750     0.8990    -0.5170 C.2   1 <1>   0.6590 
  3 O        0.1090     0.3550     0.0690 O.3   1 <1>  -0.4300 
  4 C        2.1620     1.7000     0.3830 C.3   1 <1>   0.3410 
  5 C       -0.8310    -0.4130    -0.6530 C.3   1 <1>   0.0400 
  6 O        2.0250     1.3840     1.7350 O.3   1 <1>  -0.6800 
  7 C        3.6210     1.4030     0.0020 C.3   1 <1>  -0.0990 
  8 C        1.8850     3.2050     0.2900 C.3   1 <1>  -0.2400 
  9 C        3.9480    -0.0740     0.0370 C.2   1 <1>   0.6590 
 10 O        3.3300    -0.8590     0.7120 O.2   1 <1>  -0.5700 
 11 O        4.9720    -0.4480    -0.7190 O.3   1 <1>  -0.4300 
 12 C        5.3830    -1.7970    -0.7970 C.3   1 <1>   0.0400 
 13 H       -1.5950    -0.7420     0.0270 H     1 <1>   0.0800 
 14 H       -0.3270    -1.2610    -1.0840 H     1 <1>   0.0800 
 15 H       -1.2590     0.1990    -1.4280 H     1 <1>   0.0800 
 16 H        2.1310     0.4110     1.8380 H     1 <1>   0.4000 
 17 H        4.2900     1.9250     0.6600 H     1 <1>   0.0800 
 18 H        3.7990     1.7550    -0.9970 H     1 <1>   0.0800 
 19 H        0.8750     3.4100     0.6000 H     1 <1>   0.0800 
 20 H        2.0000     3.5410    -0.7250 H     1 <1>   0.0800 
 21 H        2.5640     3.7560     0.9160 H     1 <1>   0.0800 
 22 H        6.2240    -1.8590    -1.4650 H     1 <1>   0.0800 
 23 H        4.5660    -2.3880    -1.1720 H     1 <1>   0.0800 
 24 H        5.6640    -2.1330     0.1860 H     1 <1>   0.0800 
@<TRIPOS>BOND
  1   1   2  2   
  2   2   3  1   
  3   2   4  1   
  4   3   5  1   
  5   4   6  1   
  6   4   7  1   
  7   4   8  1   
  8   5  13  1   
  9   5  14  1   
 10   5  15  1   
 11   6  16  1   
 12   7   9  1   
 13   7  17  1   
 14   7  18  1   
 15   8  19  1   
 16   8  20  1   
 17   8  21  1   
 18   9  10  2   
 19   9  11  1   
 20  11  12  1   
 21  12  22  1   
 22  12  23  1   
 23  12  24  1   
@<TRIPOS>SUBSTRUCTURE
  1 ****   4 GROUP 4 **** **** 0

# MOE 2024.06 (io_trps.svl 2023.06)
