@<TRIPOS>MOLECULE
NONAME
52 54 1 0 0 
SMALL
USER_CHARGES


@<TRIPOS>ATOM
  1 O        4.4050    -0.0560     1.0330 O.2   1 <1>  -0.5700 
  2 C        3.3550    -0.3550     0.4970 C.2   1 <1>   0.5440 
  3 N        2.8410     0.5650    -0.3840 N.am  1 <1>  -0.6600 
  4 C        2.7490    -1.6600     0.6690 C.ar  1 <1>   0.0860 
  5 C        3.0010     0.3350    -1.8520 C.3   1 <1>   0.1400 
  6 C        2.6060     1.9820     0.0270 C.3   1 <1>   0.1400 
  7 C        3.4660    -2.8400     0.4950 C.ar  1 <1>   0.1660 
  8 C        1.4060    -1.8210     0.9960 C.ar  1 <1>   0.1660 
  9 C        4.4810     0.4690    -2.2860 C.3   1 <1>   0.3430 
 10 C        3.8800     2.8440    -0.0020 C.3   1 <1>  -0.1600 
 11 N        2.9120    -4.0270     0.5890 N.ar  1 <1>  -0.6200 
 12 C        4.9540    -2.8570     0.1810 C.3   1 <1>  -0.0960 
 13 N        0.8370    -3.0020     1.0890 N.ar  1 <1>  -0.6200 
 14 C        0.4860    -0.6470     1.2850 C.3   1 <1>  -0.0970 
 15 N        5.2570     1.3420    -1.3520 N.4   1 <1>  -0.9590 
 16 C        4.7250     2.7270    -1.2700 C.3   1 <1>   0.3430 
 17 C        1.6240    -4.0410     0.8800 C.ar  1 <1>   0.4700 
 18 C        6.7330     1.2760    -1.5370 C.3   1 <1>   0.5230 
 19 C        7.4280     1.9110    -0.3480 C.2   1 <1>  -0.0400 
 20 O        7.5880     3.2200    -0.3240 O.3   1 <1>  -0.2800 
 21 C        7.9440     1.3520     0.7680 C.2   1 <1>  -0.1500 
 22 C        8.2060     3.5320     0.7980 C.2   1 <1>  -0.0400 
 23 C        8.4550     2.4170     1.5190 C.2   1 <1>  -0.1500 
 24 C        8.5150     4.9960     1.0620 C.3   1 <1>   0.0200 
 25 C        9.2270     5.2160     2.4010 C.3   1 <1>  -0.2400 
 26 H        2.4030     1.0470    -2.3950 H     1 <1>   0.0800 
 27 H        2.6400    -0.6460    -2.1100 H     1 <1>   0.0800 
 28 H        2.2070     1.9940     1.0280 H     1 <1>   0.0800 
 29 H        1.8600     2.4140    -0.6190 H     1 <1>   0.0800 
 30 H        4.5310     0.8510    -3.2930 H     1 <1>   0.0800 
 31 H        4.9170    -0.5170    -2.2890 H     1 <1>   0.0800 
 32 H        4.4910     2.6140     0.8540 H     1 <1>   0.0800 
 33 H        3.5840     3.8720     0.1100 H     1 <1>   0.0800 
 34 H        5.1930    -2.1530    -0.5910 H     1 <1>   0.0800 
 35 H        5.2570    -3.8360    -0.1480 H     1 <1>   0.0800 
 36 H        5.5100    -2.6140     1.0690 H     1 <1>   0.0800 
 37 H        0.9840     0.0850     1.8930 H     1 <1>   0.0800 
 38 H       -0.3870    -0.9800     1.8200 H     1 <1>   0.0800 
 39 H        0.1660    -0.1950     0.3640 H     1 <1>   0.0800 
 40 H        5.0790     0.9540    -0.3980 H     1 <1>   0.4500 
 41 H        5.5320     3.4390    -1.2180 H     1 <1>   0.0800 
 42 H        4.1310     2.9580    -2.1390 H     1 <1>   0.0800 
 43 H        1.1620    -5.0120     0.9580 H     1 <1>   0.1500 
 44 H        7.0280     1.7820    -2.4410 H     1 <1>   0.0800 
 45 H        7.0410     0.2460    -1.6020 H     1 <1>   0.0800 
 46 H        7.9790     0.3190     1.0690 H     1 <1>   0.1500 
 47 H        8.9410     2.3260     2.4750 H     1 <1>   0.1500 
 48 H        7.5940     5.5520     1.0550 H     1 <1>   0.0800 
 49 H        9.1340     5.3690     0.2650 H     1 <1>   0.0800 
 50 H        8.6130     4.8670     3.2120 H     1 <1>   0.0800 
 51 H        9.4230     6.2640     2.5450 H     1 <1>   0.0800 
 52 H       10.1630     4.6870     2.4170 H     1 <1>   0.0800 
@<TRIPOS>BOND
  1   1   2  2   
  2   2   3  am  
  3   2   4  1   
  4   3   5  1   
  5   3   6  1   
  6   4   7  ar  
  7   4   8  ar  
  8   5   9  1   
  9   5  26  1   
 10   5  27  1   
 11   6  10  1   
 12   6  28  1   
 13   6  29  1   
 14   7  11  ar  
 15   7  12  1   
 16   8  13  ar  
 17   8  14  1   
 18   9  15  1   
 19   9  30  1   
 20   9  31  1   
 21  10  16  1   
 22  10  32  1   
 23  10  33  1   
 24  11  17  ar  
 25  12  34  1   
 26  12  35  1   
 27  12  36  1   
 28  13  17  ar  
 29  14  37  1   
 30  14  38  1   
 31  14  39  1   
 32  15  16  1   
 33  15  18  1   
 34  15  40  1   
 35  16  41  1   
 36  16  42  1   
 37  17  43  1   
 38  18  19  1   
 39  18  44  1   
 40  18  45  1   
 41  19  20  1   
 42  19  21  2   
 43  20  22  1   
 44  21  23  1   
 45  21  46  1   
 46  22  23  2   
 47  22  24  1   
 48  23  47  1   
 49  24  25  1   
 50  24  48  1   
 51  24  49  1   
 52  25  50  1   
 53  25  51  1   
 54  25  52  1   
@<TRIPOS>SUBSTRUCTURE
  1 ****   1 GROUP 4 **** **** 0

# MOE 2024.06 (io_trps.svl 2023.06)
