@<TRIPOS>MOLECULE
NONAME
59 61 1 0 0 
SMALL
USER_CHARGES


@<TRIPOS>ATOM
  1 O        0.0380    -0.7160     1.2100 O.2   1 <1>  -0.5700 
  2 C       -0.6410     0.0320     0.5430 C.2   1 <1>   0.5690 
  3 N       -1.9780     0.2350     0.8320 N.am  1 <1>  -0.6600 
  4 C        0.0680     0.7030    -0.6370 C.3   1 <1>   0.0440 
  5 C       -2.8190     1.2290     0.1040 C.3   1 <1>   0.2200 
  6 C       -2.6160    -0.4890     1.9760 C.3   1 <1>   0.0600 
  7 C        0.0910     2.2280    -0.5660 C.ar  1 <1>  -0.1440 
  8 C       -2.9700     2.5400     0.8700 C.3   1 <1>  -0.1600 
  9 C       -4.2640     0.8300    -0.1910 C.3   1 <1>  -0.1600 
 10 C       -0.4950     2.9920    -1.5640 C.ar  1 <1>  -0.1500 
 11 C        0.6700     2.8670     0.5190 C.ar  1 <1>  -0.1500 
 12 C       -4.0810     3.2620     0.1060 C.3   1 <1>  -0.0800 
 13 C       -4.9090     2.1690    -0.5840 C.3   1 <1>  -0.0800 
 14 C       -0.5520     4.3710    -1.4600 C.ar  1 <1>   0.0820 
 15 C        0.6320     4.2470     0.6270 C.ar  1 <1>  -0.1500 
 16 C       -5.0670     4.0570     0.9700 C.3   1 <1>  -0.1600 
 17 C       -6.3550     2.3950    -0.1210 C.3   1 <1>  -0.1600 
 18 O       -1.1930     5.0350    -2.4550 O.3   1 <1>  -0.3620 
 19 C        0.0040     5.0160    -0.3500 C.ar  1 <1>   0.0820 
 20 C       -6.4210     3.8750     0.2800 C.3   1 <1>   0.4230 
 21 C       -0.4100     5.9100    -3.2390 C.3   1 <1>   0.0400 
 22 O       -0.1090     6.3730    -0.2540 O.3   1 <1>  -0.3630 
 23 N       -6.5090     4.7490    -0.9360 N.4   1 <1>  -0.9590 
 24 C        0.5070     7.0920     0.7910 C.3   1 <1>   0.0400 
 25 C       -6.4100     6.2100    -0.6140 C.3   1 <1>   0.2630 
 26 C       -7.7550     4.5170    -1.7330 C.3   1 <1>   0.2630 
 27 H        1.0830     0.3510    -0.6700 H     1 <1>   0.0800 
 28 H       -0.4060     0.3740    -1.5430 H     1 <1>   0.0800 
 29 H       -2.3770     1.4380    -0.8500 H     1 <1>   0.0800 
 30 H       -3.1630     0.1970     2.5960 H     1 <1>   0.0800 
 31 H       -1.8760    -0.9730     2.5890 H     1 <1>   0.0800 
 32 H       -3.2860    -1.2410     1.5990 H     1 <1>   0.0800 
 33 H       -3.2670     2.3370     1.8820 H     1 <1>   0.0800 
 34 H       -2.0660     3.1170     0.8790 H     1 <1>   0.0800 
 35 H       -4.3190     0.1090    -0.9870 H     1 <1>   0.0800 
 36 H       -4.7350     0.4370     0.6910 H     1 <1>   0.0800 
 37 H       -0.9290     2.5270    -2.4290 H     1 <1>   0.1500 
 38 H        1.1430     2.2850     1.2940 H     1 <1>   0.1500 
 39 H       -3.6390     3.8990    -0.6450 H     1 <1>   0.0800 
 40 H       -4.8330     2.3020    -1.6520 H     1 <1>   0.0800 
 41 H        1.0870     4.6970     1.4880 H     1 <1>   0.1500 
 42 H       -4.7580     5.0750     1.1130 H     1 <1>   0.0800 
 43 H       -5.1370     3.6050     1.9440 H     1 <1>   0.0800 
 44 H       -6.5410     1.8120     0.7650 H     1 <1>   0.0800 
 45 H       -7.0750     2.0930    -0.8580 H     1 <1>   0.0800 
 46 H       -7.2420     4.0720     0.9520 H     1 <1>   0.0800 
 47 H       -0.9750     6.1760    -4.1130 H     1 <1>   0.0800 
 48 H        0.4970     5.4070    -3.5250 H     1 <1>   0.0800 
 49 H       -0.1850     6.7920    -2.6690 H     1 <1>   0.0800 
 50 H       -5.6950     4.4980    -1.5170 H     1 <1>   0.4500 
 51 H        0.3140     8.1380     0.6350 H     1 <1>   0.0800 
 52 H        1.5670     6.9090     0.7650 H     1 <1>   0.0800 
 53 H        0.0830     6.7790     1.7290 H     1 <1>   0.0800 
 54 H       -7.1810     6.4930     0.0840 H     1 <1>   0.0800 
 55 H       -6.5240     6.7970    -1.5100 H     1 <1>   0.0800 
 56 H       -5.4500     6.4420    -0.1840 H     1 <1>   0.0800 
 57 H       -8.6270     4.6880    -1.1220 H     1 <1>   0.0800 
 58 H       -7.7870     3.5080    -2.1080 H     1 <1>   0.0800 
 59 H       -7.7880     5.1880    -2.5760 H     1 <1>   0.0800 
@<TRIPOS>BOND
  1   1   2  2   
  2   2   3  am  
  3   2   4  1   
  4   3   5  1   
  5   3   6  1   
  6   4   7  1   
  7   4  27  1   
  8   4  28  1   
  9   5   8  1   
 10   5   9  1   
 11   5  29  1   
 12   6  30  1   
 13   6  31  1   
 14   6  32  1   
 15   7  10  ar  
 16   7  11  ar  
 17   8  12  1   
 18   8  33  1   
 19   8  34  1   
 20   9  13  1   
 21   9  35  1   
 22   9  36  1   
 23  10  14  ar  
 24  10  37  1   
 25  11  15  ar  
 26  11  38  1   
 27  12  13  1   
 28  12  16  1   
 29  12  39  1   
 30  13  17  1   
 31  13  40  1   
 32  14  18  1   
 33  14  19  ar  
 34  15  19  ar  
 35  15  41  1   
 36  16  20  1   
 37  16  42  1   
 38  16  43  1   
 39  17  20  1   
 40  17  44  1   
 41  17  45  1   
 42  18  21  1   
 43  19  22  1   
 44  20  23  1   
 45  20  46  1   
 46  21  47  1   
 47  21  48  1   
 48  21  49  1   
 49  22  24  1   
 50  23  25  1   
 51  23  26  1   
 52  23  50  1   
 53  24  51  1   
 54  24  52  1   
 55  24  53  1   
 56  25  54  1   
 57  25  55  1   
 58  25  56  1   
 59  26  57  1   
 60  26  58  1   
 61  26  59  1   
@<TRIPOS>SUBSTRUCTURE
  1 ****   8 GROUP 4 **** **** 0

# MOE 2024.06 (io_trps.svl 2023.06)
