@<TRIPOS>MOLECULE
NONAME
52 54 1 0 0 
SMALL
USER_CHARGES


@<TRIPOS>ATOM
  1 O       -1.8590    -0.1360     2.4510 O.2   1 <1>  -0.5700 
  2 C       -1.9440     0.4540     1.4000 C.2   1 <1>   0.5690 
  3 N       -2.1830    -0.2050     0.2220 N.am  1 <1>  -0.6600 
  4 C       -1.7800     1.9690     1.4400 C.3   1 <1>   0.0440 
  5 C       -2.2830    -1.7050     0.1990 C.3   1 <1>   0.3640 
  6 C       -2.3450     0.4840    -1.0990 C.3   1 <1>   0.1400 
  7 C       -0.5780     2.4680     0.6420 C.ar  1 <1>  -0.1440 
  8 C       -0.9410    -2.3680    -0.1630 C.ar  1 <1>  -0.1440 
  9 C       -3.4290    -2.1940    -0.7460 C.3   1 <1>   0.2000 
 10 C       -2.7080    -0.4890    -2.2300 C.3   1 <1>   0.1200 
 11 C        0.6570     1.8520     0.7820 C.ar  1 <1>  -0.1500 
 12 C       -0.7090     3.5350    -0.2350 C.ar  1 <1>  -0.1500 
 13 C       -0.8370    -3.7450    -0.0090 C.ar  1 <1>  -0.1500 
 14 C        0.1730    -1.6700    -0.6210 C.ar  1 <1>  -0.1500 
 15 O       -3.7430    -1.3180    -1.8090 O.3   1 <1>  -0.5600 
 16 C       -4.7310    -2.4200     0.0300 C.3   1 <1>   0.1200 
 17 C        1.7450     2.2890     0.0470 C.ar  1 <1>  -0.1500 
 18 C        0.3790     3.9730    -0.9700 C.ar  1 <1>  -0.1500 
 19 C        0.3280    -4.4210    -0.3260 C.ar  1 <1>   0.0830 
 20 C        1.3510    -2.3330    -0.9230 C.ar  1 <1>  -0.1500 
 21 O       -4.6180    -3.5420     0.8450 O.3   1 <1>  -0.6800 
 22 C        1.6060     3.3490    -0.8310 C.ar  1 <1>  -0.1500 
 23 O        0.3200    -5.7710    -0.1910 O.3   1 <1>  -0.3620 
 24 C        1.4450    -3.7030    -0.7660 C.ar  1 <1>   0.0830 
 25 C        0.5160    -6.5270    -1.3670 C.3   1 <1>   0.0400 
 26 O        2.6370    -4.2870    -1.0400 O.3   1 <1>  -0.3630 
 27 C        3.3290    -4.8220     0.0670 C.3   1 <1>   0.0400 
 28 H       -2.6860     2.4180     1.0800 H     1 <1>   0.0800 
 29 H       -1.6560     2.2720     2.4630 H     1 <1>   0.0800 
 30 H       -2.5180    -2.0500     1.1920 H     1 <1>   0.0800 
 31 H       -3.1230     1.2220    -1.0200 H     1 <1>   0.0800 
 32 H       -1.4320     0.9890    -1.3620 H     1 <1>   0.0800 
 33 H       -3.1460    -3.1250    -1.2010 H     1 <1>   0.0800 
 34 H       -1.8650    -1.0950    -2.5150 H     1 <1>   0.0800 
 35 H       -3.0470     0.0540    -3.0940 H     1 <1>   0.0800 
 36 H        0.7780     1.0270     1.4650 H     1 <1>   0.1500 
 37 H       -1.6550     4.0330    -0.3510 H     1 <1>   0.1500 
 38 H       -1.6690    -4.3170     0.3620 H     1 <1>   0.1500 
 39 H        0.1510    -0.6030    -0.7410 H     1 <1>   0.1500 
 40 H       -5.5540    -2.5790    -0.6450 H     1 <1>   0.0800 
 41 H       -4.9390    -1.5710     0.6590 H     1 <1>   0.0800 
 42 H        2.6990     1.8040     0.1610 H     1 <1>   0.1500 
 43 H        0.2730     4.8020    -1.6490 H     1 <1>   0.1500 
 44 H        2.2070    -1.7850    -1.2730 H     1 <1>   0.1500 
 45 H       -4.7210    -4.3630     0.3240 H     1 <1>   0.4000 
 46 H        2.4520     3.6900    -1.4020 H     1 <1>   0.1500 
 47 H        0.3240    -7.5590    -1.1380 H     1 <1>   0.0800 
 48 H        1.5310    -6.4100    -1.7020 H     1 <1>   0.0800 
 49 H       -0.1680    -6.1810    -2.1210 H     1 <1>   0.0800 
 50 H        4.2830    -5.1800    -0.2740 H     1 <1>   0.0800 
 51 H        2.7600    -5.6330     0.4850 H     1 <1>   0.0800 
 52 H        3.4650    -4.0460     0.7990 H     1 <1>   0.0800 
@<TRIPOS>BOND
  1   1   2  2   
  2   2   3  am  
  3   2   4  1   
  4   3   5  1   
  5   3   6  1   
  6   4   7  1   
  7   4  28  1   
  8   4  29  1   
  9   5   8  1   
 10   5   9  1   
 11   5  30  1   
 12   6  10  1   
 13   6  31  1   
 14   6  32  1   
 15   7  11  ar  
 16   7  12  ar  
 17   8  13  ar  
 18   8  14  ar  
 19   9  15  1   
 20   9  16  1   
 21   9  33  1   
 22  10  15  1   
 23  10  34  1   
 24  10  35  1   
 25  11  17  ar  
 26  11  36  1   
 27  12  18  ar  
 28  12  37  1   
 29  13  19  ar  
 30  13  38  1   
 31  14  20  ar  
 32  14  39  1   
 33  16  21  1   
 34  16  40  1   
 35  16  41  1   
 36  17  22  ar  
 37  17  42  1   
 38  18  22  ar  
 39  18  43  1   
 40  19  23  1   
 41  19  24  ar  
 42  20  24  ar  
 43  20  44  1   
 44  21  45  1   
 45  22  46  1   
 46  23  25  1   
 47  24  26  1   
 48  25  47  1   
 49  25  48  1   
 50  25  49  1   
 51  26  27  1   
 52  27  50  1   
 53  27  51  1   
 54  27  52  1   
@<TRIPOS>SUBSTRUCTURE
  1 ****  14 GROUP 4 **** **** 0

# MOE 2024.06 (io_trps.svl 2023.06)
