@<TRIPOS>MOLECULE
NONAME
45 48 1 0 0 
SMALL
USER_CHARGES


@<TRIPOS>ATOM
  1 O       -1.7760     0.4360    -1.4120 O.2   1 <1>  -0.5700 
  2 C       -2.0260     0.6890    -0.2430 C.2   1 <1>   0.7160 
  3 N       -2.9390    -0.1110     0.4000 N.am  1 <1>  -0.6600 
  4 C       -1.4470     1.8540     0.4180 C.2   1 <1>   0.2030 
  5 C       -2.9050    -1.5990     0.3290 C.3   1 <1>   0.3640 
  6 C       -4.3160     0.4160     0.5620 C.3   1 <1>   0.1400 
  7 N       -1.8810     2.4460     1.5270 N.2   1 <1>  -0.7070 
  8 C       -0.3140     2.5340    -0.0470 C.2   1 <1>  -0.1810 
  9 C       -1.4730    -2.1510     0.2800 C.ar  1 <1>  -0.1440 
 10 C       -3.8790    -2.1090    -0.7680 C.3   1 <1>   0.2000 
 11 C       -5.2150    -0.1620    -0.5450 C.3   1 <1>   0.1200 
 12 N       -1.0330     3.4680     1.7530 N.pl3 1 <1>   0.3000 
 13 C       -0.0860     3.5250     0.8020 C.2   1 <1>  -0.3320 
 14 C        0.6930     2.4870    -1.1610 C.3   1 <1>   0.0210 
 15 C       -0.8580    -2.5170     1.4700 C.ar  1 <1>  -0.1500 
 16 C       -0.7670    -2.3060    -0.9070 C.ar  1 <1>  -0.1500 
 17 O       -5.1610    -1.5630    -0.5460 O.3   1 <1>  -0.5600 
 18 C       -4.0560    -3.6380    -0.7620 C.3   1 <1>   0.1200 
 19 C        1.1100     4.3670     0.4610 C.3   1 <1>   0.0200 
 20 C        1.5780     3.7290    -0.8710 C.3   1 <1>  -0.1600 
 21 C        0.4230    -3.0400     1.4740 C.ar  1 <1>  -0.1500 
 22 C        0.5140    -2.8300    -0.9060 C.ar  1 <1>  -0.1500 
 23 O       -2.9360    -4.2960    -1.2620 O.3   1 <1>  -0.6800 
 24 C        1.1100    -3.2000     0.2850 C.ar  1 <1>  -0.1500 
 25 H       -3.3190    -1.9530     1.2570 H     1 <1>   0.0800 
 26 H       -4.6980     0.1420     1.5290 H     1 <1>   0.0800 
 27 H       -4.3100     1.4910     0.4990 H     1 <1>   0.0800 
 28 H       -3.5510    -1.7910    -1.7420 H     1 <1>   0.0800 
 29 H       -4.9020     0.1960    -1.5110 H     1 <1>   0.0800 
 30 H       -6.2380     0.1290    -0.3830 H     1 <1>   0.0800 
 31 H       -1.1240     4.1030     2.5550 H     1 <1>   0.2700 
 32 H        1.2610     1.5750    -1.1060 H     1 <1>   0.0800 
 33 H        0.2050     2.5590    -2.1170 H     1 <1>   0.0800 
 34 H       -1.3730    -2.3930     2.4070 H     1 <1>   0.1500 
 35 H       -1.2070    -2.0160    -1.8460 H     1 <1>   0.1500 
 36 H       -4.8860    -3.9090    -1.3900 H     1 <1>   0.0800 
 37 H       -4.2350    -3.9950     0.2370 H     1 <1>   0.0800 
 38 H        0.8350     5.3980     0.3260 H     1 <1>   0.0800 
 39 H        1.8650     4.2770     1.2220 H     1 <1>   0.0800 
 40 H        1.4640     4.4410    -1.6700 H     1 <1>   0.0800 
 41 H        2.6130     3.4440    -0.8090 H     1 <1>   0.0800 
 42 H        0.8870    -3.3210     2.4040 H     1 <1>   0.1500 
 43 H        1.0450    -2.9450    -1.8350 H     1 <1>   0.1500 
 44 H       -2.1190    -4.0110    -0.7940 H     1 <1>   0.4000 
 45 H        2.1060    -3.6070     0.2860 H     1 <1>   0.1500 
@<TRIPOS>BOND
  1   1   2  2   
  2   2   3  am  
  3   2   4  1   
  4   3   5  1   
  5   3   6  1   
  6   4   7  2   
  7   4   8  1   
  8   5   9  1   
  9   5  10  1   
 10   5  25  1   
 11   6  11  1   
 12   6  26  1   
 13   6  27  1   
 14   7  12  1   
 15   8  13  2   
 16   8  14  1   
 17   9  15  ar  
 18   9  16  ar  
 19  10  17  1   
 20  10  18  1   
 21  10  28  1   
 22  11  17  1   
 23  11  29  1   
 24  11  30  1   
 25  12  13  1   
 26  12  31  1   
 27  13  19  1   
 28  14  20  1   
 29  14  32  1   
 30  14  33  1   
 31  15  21  ar  
 32  15  34  1   
 33  16  22  ar  
 34  16  35  1   
 35  18  23  1   
 36  18  36  1   
 37  18  37  1   
 38  19  20  1   
 39  19  38  1   
 40  19  39  1   
 41  20  40  1   
 42  20  41  1   
 43  21  24  ar  
 44  21  42  1   
 45  22  24  ar  
 46  22  43  1   
 47  23  44  1   
 48  24  45  1   
@<TRIPOS>SUBSTRUCTURE
  1 ****   2 GROUP 4 **** **** 0

# MOE 2024.06 (io_trps.svl 2023.06)
