@<TRIPOS>MOLECULE
NONAME
53 57 1 0 0 
SMALL
USER_CHARGES


@<TRIPOS>ATOM
  1 N       -0.0340    -0.2400     0.9390 N.ar  1 <1>  -0.1790 
  2 C       -0.0800    -1.5780     0.9190 C.ar  1 <1>   0.4610 
  3 C        1.0510     0.5070     0.5130 C.ar  1 <1>   0.3610 
  4 N       -1.1740    -2.2430     1.3420 N.3   1 <1>  -0.5900 
  5 C        1.0670    -2.2580     0.4420 C.ar  1 <1>  -0.1500 
  6 C        2.1920    -0.1640     0.0260 C.ar  1 <1>   0.0000 
  7 C        1.0140     1.9060     0.5650 C.ar  1 <1>  -0.1500 
  8 C       -2.5110    -1.9040     1.9470 C.3   1 <1>   0.2450 
  9 C       -1.4280    -3.7050     1.6060 C.3   1 <1>   0.2450 
 10 C        2.1720    -1.5930     0.0050 C.ar  1 <1>  -0.1440 
 11 C        3.2800     0.6140    -0.4080 C.ar  1 <1>  -0.1500 
 12 C        2.0980     2.6260     0.1340 C.ar  1 <1>  -0.1430 
 13 C       -2.9540    -3.3780     1.6620 C.3   1 <1>   0.4720 
 14 C        3.3850    -2.3670    -0.5000 C.3   1 <1>  -0.0960 
 15 C        3.2180     1.9820    -0.3480 C.ar  1 <1>  -0.1430 
 16 C        2.2760     4.1260     0.0960 C.3   1 <1>  -0.0170 
 17 N       -3.6910    -3.5890     0.3610 N.4   1 <1>  -0.9280 
 18 C        4.2760     2.9750    -0.7660 C.3   1 <1>  -0.0170 
 19 C        3.5210     4.3140    -0.7860 C.3   1 <1>  -0.1600 
 20 C       -5.0520    -2.9700     0.3920 C.3   1 <1>   0.3430 
 21 C       -3.7860    -5.0430     0.0210 C.3   1 <1>   0.3430 
 22 C       -5.6990    -3.0790    -0.9910 C.3   1 <1>  -0.1600 
 23 C       -4.3980    -5.2070    -1.3710 C.3   1 <1>  -0.1600 
 24 C       -5.7740    -4.5350    -1.4680 C.3   1 <1>  -0.1600 
 25 H       -0.8280     0.2770     1.3060 H     1 <1>   0.4570 
 26 H        1.0450    -3.3330     0.4340 H     1 <1>   0.1500 
 27 H        0.1500     2.4270     0.9370 H     1 <1>   0.1500 
 28 H       -3.0370    -1.1570     1.3800 H     1 <1>   0.0000 
 29 H       -2.4120    -1.6800     2.9940 H     1 <1>   0.0000 
 30 H       -1.0180    -4.0010     2.5560 H     1 <1>   0.0000 
 31 H       -1.1330    -4.3280     0.7810 H     1 <1>   0.0000 
 32 H        4.1710     0.1460    -0.7890 H     1 <1>   0.1500 
 33 H       -3.4650    -3.8420     2.4860 H     1 <1>   0.0000 
 34 H        3.2220    -3.4290    -0.4490 H     1 <1>   0.0800 
 35 H        4.2500    -2.1340     0.0970 H     1 <1>   0.0800 
 36 H        3.5910    -2.1100    -1.5240 H     1 <1>   0.0800 
 37 H        2.4630     4.4930     1.0900 H     1 <1>   0.0800 
 38 H        1.4190     4.6250    -0.3230 H     1 <1>   0.0800 
 39 H       -3.1600    -3.1370    -0.3940 H     1 <1>   0.4500 
 40 H        4.6880     2.7390    -1.7320 H     1 <1>   0.0800 
 41 H        5.0610     2.9960    -0.0300 H     1 <1>   0.0800 
 42 H        4.1370     5.1280    -0.4440 H     1 <1>   0.0800 
 43 H        3.2040     4.5170    -1.7950 H     1 <1>   0.0800 
 44 H       -4.9890    -1.9310     0.6710 H     1 <1>   0.0800 
 45 H       -5.6700    -3.4790     1.1150 H     1 <1>   0.0800 
 46 H       -4.4040    -5.5500     0.7450 H     1 <1>   0.0800 
 47 H       -2.8080    -5.4980     0.0320 H     1 <1>   0.0800 
 48 H       -5.1430    -2.4890    -1.6980 H     1 <1>   0.0800 
 49 H       -6.6940    -2.6710    -0.9470 H     1 <1>   0.0800 
 50 H       -4.5030    -6.2570    -1.5890 H     1 <1>   0.0800 
 51 H       -3.7340    -4.7930    -2.1100 H     1 <1>   0.0800 
 52 H       -6.1280    -4.5700    -2.4860 H     1 <1>   0.0800 
 53 H       -6.4810    -5.0760    -0.8600 H     1 <1>   0.0800 
@<TRIPOS>BOND
  1   1   2  ar  
  2   1   3  ar  
  3   1  25  1   
  4   2   4  1   
  5   2   5  ar  
  6   3   6  ar  
  7   3   7  ar  
  8   4   8  1   
  9   4   9  1   
 10   5  10  ar  
 11   5  26  1   
 12   6  10  ar  
 13   6  11  ar  
 14   7  12  ar  
 15   7  27  1   
 16   8  13  1   
 17   8  28  1   
 18   8  29  1   
 19   9  13  1   
 20   9  30  1   
 21   9  31  1   
 22  10  14  1   
 23  11  15  ar  
 24  11  32  1   
 25  12  15  ar  
 26  12  16  1   
 27  13  17  1   
 28  13  33  1   
 29  14  34  1   
 30  14  35  1   
 31  14  36  1   
 32  15  18  1   
 33  16  19  1   
 34  16  37  1   
 35  16  38  1   
 36  17  20  1   
 37  17  21  1   
 38  17  39  1   
 39  18  19  1   
 40  18  40  1   
 41  18  41  1   
 42  19  42  1   
 43  19  43  1   
 44  20  22  1   
 45  20  44  1   
 46  20  45  1   
 47  21  23  1   
 48  21  46  1   
 49  21  47  1   
 50  22  24  1   
 51  22  48  1   
 52  22  49  1   
 53  23  24  1   
 54  23  50  1   
 55  23  51  1   
 56  24  52  1   
 57  24  53  1   
@<TRIPOS>SUBSTRUCTURE
  1 ****   2 GROUP 4 **** **** 0

# MOE 2024.06 (io_trps.svl 2023.06)
