@<TRIPOS>MOLECULE
NONAME
42 44 1 0 0 
SMALL
USER_CHARGES


@<TRIPOS>ATOM
  1 O       -0.0560     0.4030     0.3350 O.2   1 <1>  -0.5700 
  2 C       -0.6370     1.4610     0.1370 C.2   1 <1>   0.6160 
  3 N       -2.0140     1.5740     0.2110 N.am  1 <1>  -0.4200 
  4 C        0.0640     2.6400    -0.1800 C.2   1 <1>  -0.1240 
  5 C       -2.6010     2.8090    -0.0260 C.2   1 <1>   0.4490 
  6 C       -2.8320     0.3690     0.5450 C.3   1 <1>   0.0600 
  7 C       -0.5900     3.7830    -0.3910 C.2   1 <1>   0.0330 
  8 C        1.5470     2.7930    -0.3220 C.3   1 <1>   0.3470 
  9 N       -1.9490     3.8850    -0.3170 N.2   1 <1>  -0.6210 
 10 C       -4.1110     2.9260     0.0570 C.3   1 <1>  -0.1790 
 11 C        0.3630     4.9100    -0.7100 C.3   1 <1>   0.3470 
 12 N        1.7100     4.2350    -0.6870 N.pl3 1 <1>  -0.8380 
 13 C        2.8650     4.9440    -0.4390 C.ar  1 <1>   0.4100 
 14 N        2.7390     6.2510    -0.2370 N.ar  1 <1>  -0.6200 
 15 C        4.1090     4.3120    -0.4150 C.ar  1 <1>  -0.1500 
 16 C        3.8490     6.9270     0.0000 C.ar  1 <1>   0.1600 
 17 C        5.2540     5.0310    -0.1690 C.ar  1 <1>  -0.1500 
 18 C        5.1390     6.4020     0.0460 C.ar  1 <1>   0.0860 
 19 C        6.2720     7.2610     0.3030 C.2   1 <1>   0.5440 
 20 O        6.1200     8.3380     0.8470 O.2   1 <1>  -0.5700 
 21 N        7.5370     6.8940    -0.0720 N.am  1 <1>  -0.7300 
 22 C        8.7560     7.6910     0.1660 C.3   1 <1>   0.1400 
 23 C        9.9100     6.7390     0.4580 C.3   1 <1>  -0.2400 
 24 H       -2.2120    -0.4970     0.6930 H     1 <1>   0.0800 
 25 H       -3.5160     0.1610    -0.2580 H     1 <1>   0.0800 
 26 H       -3.3850     0.5460     1.4510 H     1 <1>   0.0800 
 27 H        1.9210     2.1600    -1.1080 H     1 <1>   0.0800 
 28 H        2.0430     2.5730     0.6080 H     1 <1>   0.0800 
 29 H       -4.5730     2.2830    -0.6680 H     1 <1>   0.0800 
 30 H       -4.4130     3.9370    -0.1500 H     1 <1>   0.0800 
 31 H       -4.4490     2.6690     1.0420 H     1 <1>   0.0800 
 32 H        0.2930     5.6780     0.0410 H     1 <1>   0.0800 
 33 H        0.1650     5.3210    -1.6840 H     1 <1>   0.0800 
 34 H        4.1690     3.2570    -0.5960 H     1 <1>   0.1500 
 35 H        3.7370     7.9850     0.1710 H     1 <1>   0.1500 
 36 H        6.2110     4.5430    -0.1380 H     1 <1>   0.1500 
 37 H        7.6670     6.0670    -0.6530 H     1 <1>   0.3700 
 38 H        8.6050     8.3540     1.0030 H     1 <1>   0.0800 
 39 H        8.9700     8.2850    -0.7060 H     1 <1>   0.0800 
 40 H        9.6920     6.1500     1.3310 H     1 <1>   0.0800 
 41 H       10.8040     7.3060     0.6460 H     1 <1>   0.0800 
 42 H       10.0880     6.0920    -0.3820 H     1 <1>   0.0800 
@<TRIPOS>BOND
  1   1   2  2   
  2   2   3  am  
  3   2   4  1   
  4   3   5  1   
  5   3   6  1   
  6   4   7  2   
  7   4   8  1   
  8   5   9  2   
  9   5  10  1   
 10   6  24  1   
 11   6  25  1   
 12   6  26  1   
 13   7   9  1   
 14   7  11  1   
 15   8  12  1   
 16   8  27  1   
 17   8  28  1   
 18  10  29  1   
 19  10  30  1   
 20  10  31  1   
 21  11  12  1   
 22  11  32  1   
 23  11  33  1   
 24  12  13  1   
 25  13  14  ar  
 26  13  15  ar  
 27  14  16  ar  
 28  15  17  ar  
 29  15  34  1   
 30  16  18  ar  
 31  16  35  1   
 32  17  18  ar  
 33  17  36  1   
 34  18  19  1   
 35  19  20  2   
 36  19  21  am  
 37  21  22  1   
 38  21  37  1   
 39  22  23  1   
 40  22  38  1   
 41  22  39  1   
 42  23  40  1   
 43  23  41  1   
 44  23  42  1   
@<TRIPOS>SUBSTRUCTURE
  1 ****  12 GROUP 4 **** **** 0

# MOE 2024.06 (io_trps.svl 2023.06)
