@<TRIPOS>MOLECULE
NONAME
50 52 1 0 0 
SMALL
USER_CHARGES


@<TRIPOS>ATOM
  1 CL      -2.0060    -1.4050    -2.2000 Cl    1 <1>  -0.1770 
  2 C       -1.9560    -3.1430    -2.0570 C.ar  1 <1>   0.1770 
  3 C       -2.4990    -3.7470    -0.9400 C.ar  1 <1>  -0.1500 
  4 C       -1.3730    -3.8880    -3.0660 C.ar  1 <1>  -0.1500 
  5 C       -2.4620    -5.1270    -0.8240 C.ar  1 <1>   0.0830 
  6 C       -1.3340    -5.2670    -2.9520 C.ar  1 <1>  -0.1500 
  7 O       -3.0120    -5.6580     0.2960 O.3   1 <1>  -0.3630 
  8 C       -1.8750    -5.8870    -1.8360 C.ar  1 <1>  -0.1500 
  9 C       -3.0440    -7.0540     0.5060 C.3   1 <1>   0.1200 
 10 C       -3.7360    -7.3390     1.8370 C.3   1 <1>   0.2090 
 11 N       -3.7760    -8.8110     2.0800 N.pl3 1 <1>  -0.8380 
 12 C       -5.0030    -9.3290     2.4300 C.ar  1 <1>   0.4100 
 13 C       -2.6350    -9.3120     2.8910 C.3   1 <1>   0.1290 
 14 N       -5.5620    -8.8550     3.5350 N.ar  1 <1>  -0.6200 
 15 C       -5.5820   -10.3030     1.6330 C.ar  1 <1>  -0.1500 
 16 C       -6.7320    -9.3800     3.8520 C.ar  1 <1>   0.1600 
 17 C       -6.8170   -10.8380     1.9480 C.ar  1 <1>   0.0860 
 18 C       -7.3850   -10.3470     3.1150 C.ar  1 <1>  -0.1500 
 19 C       -7.4750   -11.8440     1.1370 C.2   1 <1>   0.5440 
 20 O       -7.9480   -12.8220     1.6860 O.2   1 <1>  -0.5700 
 21 N       -7.5920   -11.7200    -0.2320 N.am  1 <1>  -0.6600 
 22 C       -7.9650   -12.8790    -1.0890 C.3   1 <1>   0.1400 
 23 C       -7.5200   -10.4240    -0.9610 C.3   1 <1>   0.1400 
 24 C       -6.9610   -13.0090    -2.2400 C.3   1 <1>  -0.1600 
 25 C       -6.5020   -10.5290    -2.1010 C.3   1 <1>  -0.1600 
 26 C       -6.8310   -11.7020    -3.0370 C.3   1 <1>  -0.1600 
 27 H       -2.9480    -3.1520    -0.1670 H     1 <1>   0.1500 
 28 H       -0.9580    -3.3910    -3.9240 H     1 <1>   0.1500 
 29 H       -0.8810    -5.8570    -3.7310 H     1 <1>   0.1500 
 30 H       -1.8300    -6.9580    -1.7740 H     1 <1>   0.1500 
 31 H       -2.0330    -7.4170     0.5280 H     1 <1>   0.0800 
 32 H       -3.5960    -7.5070    -0.2980 H     1 <1>   0.0800 
 33 H       -4.7390    -6.9490     1.7990 H     1 <1>   0.0800 
 34 H       -3.2100    -6.8490     2.6380 H     1 <1>   0.0800 
 35 H       -1.7050    -9.1040     2.3920 H     1 <1>   0.0800 
 36 H       -2.7250   -10.3750     3.0300 H     1 <1>   0.0800 
 37 H       -2.6380    -8.8360     3.8570 H     1 <1>   0.0800 
 38 H       -5.0520   -10.6380     0.7640 H     1 <1>   0.1500 
 39 H       -7.1960    -9.0160     4.7530 H     1 <1>   0.1500 
 40 H       -8.3360   -10.7300     3.4390 H     1 <1>   0.1500 
 41 H       -8.9570   -12.7230    -1.4780 H     1 <1>   0.0800 
 42 H       -7.9700   -13.7900    -0.5150 H     1 <1>   0.0800 
 43 H       -7.2530    -9.6180    -0.3000 H     1 <1>   0.0800 
 44 H       -8.4930   -10.2030    -1.3670 H     1 <1>   0.0800 
 45 H       -7.2740   -13.8030    -2.8950 H     1 <1>   0.0800 
 46 H       -6.0040   -13.2820    -1.8310 H     1 <1>   0.0800 
 47 H       -5.5200   -10.6620    -1.6840 H     1 <1>   0.0800 
 48 H       -6.5000    -9.6110    -2.6610 H     1 <1>   0.0800 
 49 H       -7.7580   -11.5030    -3.5460 H     1 <1>   0.0800 
 50 H       -6.0580   -11.8040    -3.7800 H     1 <1>   0.0800 
@<TRIPOS>BOND
  1   1   2  1   
  2   2   3  ar  
  3   2   4  ar  
  4   3   5  ar  
  5   3  27  1   
  6   4   6  ar  
  7   4  28  1   
  8   5   7  1   
  9   5   8  ar  
 10   6   8  ar  
 11   6  29  1   
 12   7   9  1   
 13   8  30  1   
 14   9  10  1   
 15   9  31  1   
 16   9  32  1   
 17  10  11  1   
 18  10  33  1   
 19  10  34  1   
 20  11  12  1   
 21  11  13  1   
 22  12  14  ar  
 23  12  15  ar  
 24  13  35  1   
 25  13  36  1   
 26  13  37  1   
 27  14  16  ar  
 28  15  17  ar  
 29  15  38  1   
 30  16  18  ar  
 31  16  39  1   
 32  17  18  ar  
 33  17  19  1   
 34  18  40  1   
 35  19  20  2   
 36  19  21  am  
 37  21  22  1   
 38  21  23  1   
 39  22  24  1   
 40  22  41  1   
 41  22  42  1   
 42  23  25  1   
 43  23  43  1   
 44  23  44  1   
 45  24  26  1   
 46  24  45  1   
 47  24  46  1   
 48  25  26  1   
 49  25  47  1   
 50  25  48  1   
 51  26  49  1   
 52  26  50  1   
@<TRIPOS>SUBSTRUCTURE
  1 ****  11 GROUP 4 **** **** 0

# MOE 2024.06 (io_trps.svl 2023.06)
