@<TRIPOS>MOLECULE
NONAME
54 56 1 0 0 
SMALL
USER_CHARGES


@<TRIPOS>ATOM
  1 O       -0.5970     0.8010    -2.0660 O.co2 1 <1>  -0.9000 
  2 C       -1.0610     0.8200    -0.9220 C.2   1 <1>   0.9060 
  3 O       -1.7400    -0.0980    -0.4560 O.co2 1 <1>  -0.9000 
  4 C       -0.8160     2.0420    -0.0600 C.3   1 <1>  -0.1060 
  5 C       -2.1710     2.4700     0.5350 C.3   1 <1>   0.2000 
  6 C       -0.4060     3.1440    -1.0420 C.3   1 <1>   0.3430 
  7 C        0.2540     1.6740     1.0210 C.3   1 <1>  -0.0170 
  8 O       -2.5290     1.5870     1.5290 O.3   1 <1>  -0.6800 
  9 C       -2.1820     3.8970     1.1090 C.3   1 <1>  -0.1600 
 10 N       -0.3690     4.5400    -0.4700 N.4   1 <1>  -0.9590 
 11 C        1.6800     2.1360     0.7300 C.ar  1 <1>  -0.1440 
 12 C       -0.8400     4.6120     0.9480 C.3   1 <1>   0.3430 
 13 C        1.0110     5.0650    -0.6550 C.3   1 <1>   0.3430 
 14 C        2.3370     1.7200    -0.4180 C.ar  1 <1>  -0.1500 
 15 C        2.3400     2.9690     1.6230 C.ar  1 <1>  -0.1500 
 16 C        1.0950     6.5530    -0.3340 C.3   1 <1>  -0.1600 
 17 C        3.6190     2.1650    -0.6920 C.ar  1 <1>  -0.1500 
 18 C        3.6230     3.4130     1.3520 C.ar  1 <1>  -0.1500 
 19 C        2.5140     7.0560    -0.5880 C.3   1 <1>   0.1200 
 20 C        4.2610     3.0160     0.1900 C.ar  1 <1>  -0.1500 
 21 O        2.5450     8.4170    -0.2400 O.3   1 <1>  -0.3620 
 22 C        3.6840     9.1450    -0.3450 C.ar  1 <1>   0.0820 
 23 C        3.6110    10.4760     0.0350 C.ar  1 <1>  -0.1500 
 24 C        4.8950     8.6320    -0.8060 C.ar  1 <1>  -0.1500 
 25 C        4.7270    11.2910    -0.0390 C.ar  1 <1>  -0.1500 
 26 C        6.0100     9.4490    -0.8800 C.ar  1 <1>  -0.1500 
 27 C        5.9270    10.7770    -0.4970 C.ar  1 <1>  -0.1500 
 28 H       -2.9310     2.3960    -0.2270 H     1 <1>   0.0800 
 29 H       -1.1160     3.1260    -1.8550 H     1 <1>   0.0800 
 30 H        0.5440     2.8870    -1.4770 H     1 <1>   0.0800 
 31 H       -0.0420     2.0690     1.9760 H     1 <1>   0.0800 
 32 H        0.2720     0.6040     1.1540 H     1 <1>   0.0800 
 33 H       -2.4770     0.6780     1.1190 H     1 <1>   0.4000 
 34 H       -2.9400     4.4680     0.6050 H     1 <1>   0.0800 
 35 H       -2.4380     3.8760     2.1540 H     1 <1>   0.0800 
 36 H       -1.0050     5.1060    -1.0430 H     1 <1>   0.4500 
 37 H       -0.1130     4.1450     1.5900 H     1 <1>   0.0800 
 38 H       -0.9430     5.6400     1.2550 H     1 <1>   0.0800 
 39 H        1.6970     4.5230    -0.0290 H     1 <1>   0.0800 
 40 H        1.3150     4.9090    -1.6780 H     1 <1>   0.0800 
 41 H        1.8530     1.0420    -1.1060 H     1 <1>   0.1500 
 42 H        1.8640     3.2720     2.5400 H     1 <1>   0.1500 
 43 H        0.8600     6.7270     0.7000 H     1 <1>   0.0800 
 44 H        0.4150     7.1020    -0.9620 H     1 <1>   0.0800 
 45 H        4.1170     1.8360    -1.5880 H     1 <1>   0.1500 
 46 H        4.1300     4.0570     2.0510 H     1 <1>   0.1500 
 47 H        2.7800     6.9670    -1.6280 H     1 <1>   0.0800 
 48 H        3.2270     6.5340     0.0290 H     1 <1>   0.0800 
 49 H        5.2610     3.3540    -0.0200 H     1 <1>   0.1500 
 50 H        2.6760    10.8700     0.3900 H     1 <1>   0.1500 
 51 H        4.9920     7.6080    -1.1120 H     1 <1>   0.1500 
 52 H        4.6610    12.3230     0.2580 H     1 <1>   0.1500 
 53 H        6.9450     9.0530    -1.2370 H     1 <1>   0.1500 
 54 H        6.7960    11.4100    -0.5560 H     1 <1>   0.1500 
@<TRIPOS>BOND
  1   1   2  ar  
  2   2   3  ar  
  3   2   4  1   
  4   4   5  1   
  5   4   6  1   
  6   4   7  1   
  7   5   8  1   
  8   5   9  1   
  9   5  28  1   
 10   6  10  1   
 11   6  29  1   
 12   6  30  1   
 13   7  11  1   
 14   7  31  1   
 15   7  32  1   
 16   8  33  1   
 17   9  12  1   
 18   9  34  1   
 19   9  35  1   
 20  10  12  1   
 21  10  13  1   
 22  10  36  1   
 23  11  14  ar  
 24  11  15  ar  
 25  12  37  1   
 26  12  38  1   
 27  13  16  1   
 28  13  39  1   
 29  13  40  1   
 30  14  17  ar  
 31  14  41  1   
 32  15  18  ar  
 33  15  42  1   
 34  16  19  1   
 35  16  43  1   
 36  16  44  1   
 37  17  20  ar  
 38  17  45  1   
 39  18  20  ar  
 40  18  46  1   
 41  19  21  1   
 42  19  47  1   
 43  19  48  1   
 44  20  49  1   
 45  21  22  1   
 46  22  23  ar  
 47  22  24  ar  
 48  23  25  ar  
 49  23  50  1   
 50  24  26  ar  
 51  24  51  1   
 52  25  27  ar  
 53  25  52  1   
 54  26  27  ar  
 55  26  53  1   
 56  27  54  1   
@<TRIPOS>SUBSTRUCTURE
  1 ****  13 GROUP 4 **** **** 0

# MOE 2024.06 (io_trps.svl 2023.06)
