@<TRIPOS>MOLECULE
NONAME
45 47 1 0 0 
SMALL
USER_CHARGES


@<TRIPOS>ATOM
  1 S        0.6020     1.0870    -0.6140 S.o2  1 <1>   1.3330 
  2 O        1.8880     1.5930    -0.1900 O.2   1 <1>  -0.6500 
  3 O        0.0040     1.5900    -1.8300 O.2   1 <1>  -0.6500 
  4 N        0.7420    -0.5990    -0.7610 N.am  1 <1>  -0.8490 
  5 C       -0.6000     1.2570     0.7140 C.3   1 <1>  -0.0550 
  6 C        1.0550    -1.0170    -2.1310 C.3   1 <1>   0.1160 
  7 C        1.7060    -1.1920     0.1720 C.3   1 <1>   0.1160 
  8 C       -0.9610     2.6910     1.1640 C.3   1 <1>  -0.0800 
  9 C       -1.4670     3.5860     0.0300 C.3   1 <1>   0.2000 
 10 C        0.2260     3.4590     1.7740 C.3   1 <1>   0.1100 
 11 O       -2.4350     4.4160     0.5640 O.3   1 <1>  -0.6800 
 12 C       -0.2620     4.4600    -0.3020 C.3   1 <1>   0.1100 
 13 N        0.3850     4.6960     0.9970 N.3   1 <1>  -0.8100 
 14 C        1.8050     5.0770     0.8440 C.3   1 <1>   0.2900 
 15 C        1.9590     6.4930     0.3090 C.2   1 <1>  -0.0400 
 16 O        3.1760     6.8820    -0.0670 O.3   1 <1>  -0.2800 
 17 C        1.0630     7.4860     0.1400 C.2   1 <1>  -0.1500 
 18 C        3.0770     8.1420    -0.4930 C.ar  1 <1>   0.1400 
 19 C        1.7700     8.5840    -0.3900 C.ar  1 <1>   0.0000 
 20 C        4.0900     8.9560    -0.9810 C.ar  1 <1>  -0.1500 
 21 C        1.4510     9.8830    -0.7860 C.ar  1 <1>  -0.1500 
 22 C        3.7680    10.2410    -1.3710 C.ar  1 <1>  -0.1500 
 23 C        2.4510    10.7010    -1.2730 C.ar  1 <1>  -0.1500 
 24 H       -1.5050     0.7740     0.4010 H     1 <1>   0.0800 
 25 H       -0.2420     0.7210     1.5700 H     1 <1>   0.0800 
 26 H        1.1230    -2.0900    -2.1890 H     1 <1>   0.0800 
 27 H        1.9890    -0.5840    -2.4510 H     1 <1>   0.0800 
 28 H        0.2770    -0.6950    -2.8030 H     1 <1>   0.0800 
 29 H        1.6800    -2.2650     0.0980 H     1 <1>   0.0800 
 30 H        1.4640    -0.9160     1.1840 H     1 <1>   0.0800 
 31 H        2.7040    -0.8500    -0.0500 H     1 <1>   0.0800 
 32 H       -1.7280     2.5910     1.9130 H     1 <1>   0.0800 
 33 H       -1.8820     3.0650    -0.8150 H     1 <1>   0.0800 
 34 H        1.1270     2.8710     1.7480 H     1 <1>   0.0800 
 35 H        0.0220     3.7140     2.8000 H     1 <1>   0.0800 
 36 H       -1.9650     5.0370     1.1610 H     1 <1>   0.4000 
 37 H       -0.5590     5.3790    -0.7770 H     1 <1>   0.0800 
 38 H        0.4050     3.9330    -0.9620 H     1 <1>   0.0800 
 39 H        2.2930     5.0310     1.8020 H     1 <1>   0.0800 
 40 H        2.3020     4.3860     0.1830 H     1 <1>   0.0800 
 41 H        0.0110     7.4810     0.3570 H     1 <1>   0.1500 
 42 H        5.0920     8.5750    -1.0450 H     1 <1>   0.1500 
 43 H        0.4350    10.2250    -0.7060 H     1 <1>   0.1500 
 44 H        4.5310    10.8970    -1.7540 H     1 <1>   0.1500 
 45 H        2.2220    11.7060    -1.5830 H     1 <1>   0.1500 
@<TRIPOS>BOND
  1   1   2  2   
  2   1   3  2   
  3   1   4  am  
  4   1   5  1   
  5   4   6  1   
  6   4   7  1   
  7   5   8  1   
  8   5  24  1   
  9   5  25  1   
 10   6  26  1   
 11   6  27  1   
 12   6  28  1   
 13   7  29  1   
 14   7  30  1   
 15   7  31  1   
 16   8   9  1   
 17   8  10  1   
 18   8  32  1   
 19   9  11  1   
 20   9  12  1   
 21   9  33  1   
 22  10  13  1   
 23  10  34  1   
 24  10  35  1   
 25  11  36  1   
 26  12  13  1   
 27  12  37  1   
 28  12  38  1   
 29  13  14  1   
 30  14  15  1   
 31  14  39  1   
 32  14  40  1   
 33  15  16  1   
 34  15  17  2   
 35  16  18  1   
 36  17  19  1   
 37  17  41  1   
 38  18  19  ar  
 39  18  20  ar  
 40  19  21  ar  
 41  20  22  ar  
 42  20  42  1   
 43  21  23  ar  
 44  21  43  1   
 45  22  23  ar  
 46  22  44  1   
 47  23  45  1   
@<TRIPOS>SUBSTRUCTURE
  1 ****  14 GROUP 4 **** **** 0

# MOE 2024.06 (io_trps.svl 2023.06)
