@<TRIPOS>MOLECULE
NONAME
49 51 1 0 0 
SMALL
USER_CHARGES


@<TRIPOS>ATOM
  1 CL       0.8260     2.2120    -1.0000 Cl    1 <1>  -0.1770 
  2 C       -0.7650     2.1980    -0.2710 C.ar  1 <1>   0.1770 
  3 C       -0.9920     2.8450     0.9400 C.ar  1 <1>  -0.1440 
  4 C       -1.7750     1.5360    -0.9440 C.ar  1 <1>  -0.1500 
  5 C       -2.2740     2.8180     1.4740 C.ar  1 <1>  -0.1500 
  6 C        0.1150     3.5830     1.6910 C.3   1 <1>   0.0450 
  7 C       -3.0470     1.5170    -0.4040 C.ar  1 <1>   0.0830 
  8 C       -3.2950     2.1530     0.8140 C.ar  1 <1>   0.0830 
  9 C        0.2520     5.0270     1.2410 C.2   1 <1>   0.5690 
 10 O       -4.0360     0.8810    -1.0800 O.3   1 <1>  -0.3630 
 11 O       -4.5300     2.1310     1.3770 O.3   1 <1>  -0.3630 
 12 O        0.0970     5.9000     2.0590 O.2   1 <1>  -0.5700 
 13 N        0.5600     5.2700    -0.0610 N.am  1 <1>  -0.7300 
 14 C       -5.3660     1.1460    -0.6720 C.3   1 <1>   0.1200 
 15 C       -5.4530     1.1910     0.8600 C.3   1 <1>   0.1200 
 16 C        0.8210     6.5620    -0.7320 C.3   1 <1>   0.3640 
 17 C        2.2780     6.9440    -0.4960 C.ar  1 <1>  -0.1430 
 18 C       -0.2140     7.6350    -0.3360 C.3   1 <1>  -0.1600 
 19 C        3.1890     6.8540    -1.5400 C.ar  1 <1>   0.1600 
 20 C        2.7350     7.3770     0.7360 C.ar  1 <1>  -0.1500 
 21 C       -0.3820     8.7860    -1.3510 C.3   1 <1>  -0.0800 
 22 N        4.4750     7.1580    -1.4630 N.ar  1 <1>  -0.6200 
 23 C        4.0710     7.6990     0.8370 C.ar  1 <1>  -0.1500 
 24 C        0.8540     9.6930    -1.4360 C.3   1 <1>  -0.2400 
 25 C       -1.5960     9.6370    -0.9570 C.3   1 <1>  -0.2400 
 26 C        4.8840     7.5750    -0.2760 C.ar  1 <1>   0.1600 
 27 H       -1.5780     1.0430    -1.8780 H     1 <1>   0.1500 
 28 H       -2.4960     3.3110     2.4050 H     1 <1>   0.1500 
 29 H        1.0580     3.0880     1.5630 H     1 <1>   0.0800 
 30 H       -0.1010     3.5740     2.7440 H     1 <1>   0.0800 
 31 H        0.7380     4.4600    -0.6580 H     1 <1>   0.3700 
 32 H       -5.9950     0.3700    -1.0680 H     1 <1>   0.0800 
 33 H       -5.6620     2.0910    -1.0910 H     1 <1>   0.0800 
 34 H       -6.4370     1.4840     1.1790 H     1 <1>   0.0800 
 35 H       -5.2190     0.2270     1.2770 H     1 <1>   0.0800 
 36 H        0.6870     6.3860    -1.7850 H     1 <1>   0.0800 
 37 H        0.0280     8.0450     0.6270 H     1 <1>   0.0800 
 38 H       -1.1660     7.1420    -0.2430 H     1 <1>   0.0800 
 39 H        2.8440     6.5120    -2.5000 H     1 <1>   0.1500 
 40 H        2.0790     7.4600     1.5860 H     1 <1>   0.1500 
 41 H       -0.5730     8.3710    -2.3270 H     1 <1>   0.0800 
 42 H        4.4780     8.0420     1.7700 H     1 <1>   0.1500 
 43 H        1.1350    10.0430    -0.4580 H     1 <1>   0.0800 
 44 H        0.6490    10.5460    -2.0580 H     1 <1>   0.0800 
 45 H        1.6880     9.1730    -1.8680 H     1 <1>   0.0800 
 46 H       -1.4510    10.0750     0.0150 H     1 <1>   0.0800 
 47 H       -2.4860     9.0330    -0.9300 H     1 <1>   0.0800 
 48 H       -1.7490    10.4270    -1.6700 H     1 <1>   0.0800 
 49 H        5.9260     7.8300    -0.1840 H     1 <1>   0.1500 
@<TRIPOS>BOND
  1   1   2  1   
  2   2   3  ar  
  3   2   4  ar  
  4   3   5  ar  
  5   3   6  1   
  6   4   7  ar  
  7   4  27  1   
  8   5   8  ar  
  9   5  28  1   
 10   6   9  1   
 11   6  29  1   
 12   6  30  1   
 13   7   8  ar  
 14   7  10  1   
 15   8  11  1   
 16   9  12  2   
 17   9  13  am  
 18  10  14  1   
 19  11  15  1   
 20  13  16  1   
 21  13  31  1   
 22  14  15  1   
 23  14  32  1   
 24  14  33  1   
 25  15  34  1   
 26  15  35  1   
 27  16  17  1   
 28  16  18  1   
 29  16  36  1   
 30  17  19  ar  
 31  17  20  ar  
 32  18  21  1   
 33  18  37  1   
 34  18  38  1   
 35  19  22  ar  
 36  19  39  1   
 37  20  23  ar  
 38  20  40  1   
 39  21  24  1   
 40  21  25  1   
 41  21  41  1   
 42  22  26  ar  
 43  23  26  ar  
 44  23  42  1   
 45  24  43  1   
 46  24  44  1   
 47  24  45  1   
 48  25  46  1   
 49  25  47  1   
 50  25  48  1   
 51  26  49  1   
@<TRIPOS>SUBSTRUCTURE
  1 ****  13 GROUP 4 **** **** 0

# MOE 2024.06 (io_trps.svl 2023.06)
