@<TRIPOS>MOLECULE
NONAME
51 53 1 0 0 
SMALL
USER_CHARGES


@<TRIPOS>ATOM
  1 O       -2.3630     1.5640     1.7940 O.2   1 <1>  -0.5700 
  2 C       -2.3300     1.6380     0.5880 C.2   1 <1>   0.5690 
  3 N       -2.2850     0.5300    -0.2000 N.am  1 <1>  -0.7300 
  4 C       -2.3340     3.0230    -0.0740 C.3   1 <1>   0.1710 
  5 C       -2.2270    -0.8590     0.2840 C.3   1 <1>   0.2200 
  6 N       -0.9950     3.6160    -0.3540 N.3   1 <1>  -0.8100 
  7 C       -0.8530    -1.4300    -0.0930 C.3   1 <1>  -0.1600 
  8 C       -3.4250    -1.6080    -0.3110 C.3   1 <1>  -0.1600 
  9 C       -0.2370     3.8020     0.9010 C.3   1 <1>   0.2530 
 10 C       -0.2310     2.8360    -1.3400 C.3   1 <1>   0.0300 
 11 C       -0.5470    -2.7470     0.6370 C.3   1 <1>  -0.1600 
 12 C       -3.4820    -3.1090     0.0190 C.3   1 <1>  -0.1600 
 13 C        1.0250     4.6260     0.6730 C.ar  1 <1>  -0.1440 
 14 C       -1.0570    -4.0130    -0.0690 C.3   1 <1>  -0.1600 
 15 C       -2.4300    -3.9200    -0.7510 C.3   1 <1>  -0.1600 
 16 C        0.9900     5.8010    -0.0320 C.ar  1 <1>  -0.1500 
 17 C        2.2460     4.1780     1.1960 C.ar  1 <1>  -0.1500 
 18 C        2.1520     6.5670    -0.2470 C.ar  1 <1>   0.0000 
 19 C        3.3890     4.9070     1.0000 C.ar  1 <1>  -0.1500 
 20 C        3.3800     6.1110     0.2790 C.ar  1 <1>   0.3100 
 21 C        2.1510     7.7730    -0.9680 C.ar  1 <1>  -0.1500 
 22 N        4.5470     6.7880     0.1160 N.ar  1 <1>  -0.6200 
 23 C        3.3320     8.4340    -1.1190 C.ar  1 <1>  -0.1500 
 24 C        4.5000     7.8980    -0.5570 C.ar  1 <1>   0.1600 
 25 H       -2.2320     0.6340    -1.2120 H     1 <1>   0.3700 
 26 H       -2.8760     3.6920     0.5700 H     1 <1>   0.0800 
 27 H       -2.8840     2.9620    -0.9950 H     1 <1>   0.0800 
 28 H       -2.3190    -0.8600     1.3580 H     1 <1>   0.0800 
 29 H       -0.1090    -0.7160     0.2150 H     1 <1>   0.0800 
 30 H       -0.7690    -1.5600    -1.1570 H     1 <1>   0.0800 
 31 H       -3.4350    -1.4840    -1.3790 H     1 <1>   0.0800 
 32 H       -4.3180    -1.1510     0.0790 H     1 <1>   0.0800 
 33 H        0.0190     2.8420     1.3170 H     1 <1>   0.0800 
 34 H       -0.8530     4.3180     1.6180 H     1 <1>   0.0800 
 35 H       -0.8170     2.6940    -2.2310 H     1 <1>   0.0800 
 36 H        0.0450     1.8760    -0.9360 H     1 <1>   0.0800 
 37 H        0.6660     3.3650    -1.6130 H     1 <1>   0.0800 
 38 H       -0.9530    -2.7050     1.6330 H     1 <1>   0.0800 
 39 H        0.5210    -2.8410     0.7450 H     1 <1>   0.0800 
 40 H       -4.4540    -3.4680    -0.2740 H     1 <1>   0.0800 
 41 H       -3.3900    -3.2730     1.0800 H     1 <1>   0.0800 
 42 H       -1.0870    -4.8050     0.6600 H     1 <1>   0.0800 
 43 H       -0.3380    -4.3060    -0.8150 H     1 <1>   0.0800 
 44 H       -2.3120    -3.5090    -1.7390 H     1 <1>   0.0800 
 45 H       -2.7980    -4.9240    -0.8800 H     1 <1>   0.0800 
 46 H        0.0590     6.1520    -0.4410 H     1 <1>   0.1500 
 47 H        2.2790     3.2570     1.7520 H     1 <1>   0.1500 
 48 H        4.3310     4.5760     1.3940 H     1 <1>   0.1500 
 49 H        1.2310     8.1440    -1.3820 H     1 <1>   0.1500 
 50 H        3.3930     9.3600    -1.6600 H     1 <1>   0.1500 
 51 H        5.4180     8.4440    -0.6930 H     1 <1>   0.1500 
@<TRIPOS>BOND
  1   1   2  2   
  2   2   3  am  
  3   2   4  1   
  4   3   5  1   
  5   3  25  1   
  6   4   6  1   
  7   4  26  1   
  8   4  27  1   
  9   5   7  1   
 10   5   8  1   
 11   5  28  1   
 12   6   9  1   
 13   6  10  1   
 14   7  11  1   
 15   7  29  1   
 16   7  30  1   
 17   8  12  1   
 18   8  31  1   
 19   8  32  1   
 20   9  13  1   
 21   9  33  1   
 22   9  34  1   
 23  10  35  1   
 24  10  36  1   
 25  10  37  1   
 26  11  14  1   
 27  11  38  1   
 28  11  39  1   
 29  12  15  1   
 30  12  40  1   
 31  12  41  1   
 32  13  16  ar  
 33  13  17  ar  
 34  14  15  1   
 35  14  42  1   
 36  14  43  1   
 37  15  44  1   
 38  15  45  1   
 39  16  18  ar  
 40  16  46  1   
 41  17  19  ar  
 42  17  47  1   
 43  18  20  ar  
 44  18  21  ar  
 45  19  20  ar  
 46  19  48  1   
 47  20  22  ar  
 48  21  23  ar  
 49  21  49  1   
 50  22  24  ar  
 51  23  24  ar  
 52  23  50  1   
 53  24  51  1   
@<TRIPOS>SUBSTRUCTURE
  1 ****  10 GROUP 4 **** **** 0

# MOE 2024.06 (io_trps.svl 2023.06)
