@<TRIPOS>MOLECULE
NONAME
51 54 1 0 0 
SMALL
USER_CHARGES


@<TRIPOS>ATOM
  1 O       -0.5390    -0.0390    -2.5450 O.2   1 <1>  -0.5700 
  2 C       -1.1890     0.6870    -1.8290 C.2   1 <1>   0.5690 
  3 N       -2.2710     0.2080    -1.1360 N.am  1 <1>  -0.6600 
  4 C       -0.7610     2.1460    -1.7230 C.3   1 <1>   0.0820 
  5 C       -3.0920     0.9600    -0.1500 C.3   1 <1>   0.1400 
  6 C       -2.6010    -1.2340    -1.0800 C.3   1 <1>   0.1400 
  7 C       -0.3630     2.5530    -0.3060 C.2   1 <1>  -0.1810 
  8 C       -3.9760    -0.0940     0.5150 C.3   1 <1>   0.2000 
  9 C       -3.2580    -1.4240     0.2880 C.3   1 <1>  -0.0800 
 10 C        0.5190     1.8670     0.5290 C.2   1 <1>   0.1080 
 11 C       -0.7800     3.6110     0.4270 C.2   1 <1>  -0.3320 
 12 O       -4.1200     0.1470     1.8720 O.3   1 <1>  -0.6800 
 13 C       -4.2050    -2.6350     0.3670 C.3   1 <1>  -0.0170 
 14 N        0.6310     2.4300     1.6890 N.2   1 <1>  -0.7070 
 15 C        1.2830     0.6070     0.1850 C.3   1 <1>  -0.0590 
 16 N       -0.1610     3.5130     1.6230 N.pl3 1 <1>   0.3000 
 17 C       -1.7390     4.7420     0.0940 C.3   1 <1>  -0.0600 
 18 C       -3.5580    -4.0130     0.1760 C.ar  1 <1>  -0.1440 
 19 C       -4.3680    -5.1500    -0.0710 C.ar  1 <1>   0.0000 
 20 C       -2.2080    -4.2210     0.2450 C.ar  1 <1>  -0.1500 
 21 C       -3.7240    -6.3970    -0.2670 C.ar  1 <1>   0.3100 
 22 C       -5.7830    -5.1280    -0.1260 C.ar  1 <1>  -0.1500 
 23 C       -1.6730    -5.4990     0.0460 C.ar  1 <1>   0.1600 
 24 N       -2.3780    -6.5530    -0.2070 N.ar  1 <1>  -0.6200 
 25 C       -4.5020    -7.5350    -0.5300 C.ar  1 <1>  -0.1500 
 26 C       -6.5130    -6.2570    -0.3810 C.ar  1 <1>  -0.1500 
 27 C       -5.8680    -7.4770    -0.5900 C.ar  1 <1>  -0.1500 
 28 H        0.0800     2.3070    -2.3730 H     1 <1>   0.0800 
 29 H       -1.5660     2.7580    -2.0780 H     1 <1>   0.0800 
 30 H       -2.4530     1.4160     0.5850 H     1 <1>   0.0800 
 31 H       -3.6870     1.7060    -0.6450 H     1 <1>   0.0800 
 32 H       -3.2890    -1.4670    -1.8750 H     1 <1>   0.0800 
 33 H       -1.7160    -1.8380    -1.1910 H     1 <1>   0.0800 
 34 H       -4.9540    -0.0910     0.0630 H     1 <1>   0.0800 
 35 H       -2.4770    -1.5180     1.0220 H     1 <1>   0.0800 
 36 H       -3.2460     0.1540     2.3100 H     1 <1>   0.4000 
 37 H       -4.9610    -2.5000    -0.3870 H     1 <1>   0.0800 
 38 H       -4.6970    -2.6260     1.3250 H     1 <1>   0.0800 
 39 H        1.6490     0.6560    -0.8230 H     1 <1>   0.0800 
 40 H        0.6400    -0.2470     0.2880 H     1 <1>   0.0800 
 41 H        2.1190     0.4960     0.8510 H     1 <1>   0.0800 
 42 H       -0.2540     4.1660     2.4100 H     1 <1>   0.2700 
 43 H       -2.0990     4.6590    -0.9150 H     1 <1>   0.0800 
 44 H       -1.2400     5.6900     0.1960 H     1 <1>   0.0800 
 45 H       -2.5830     4.7200     0.7600 H     1 <1>   0.0800 
 46 H       -1.5070    -3.4370     0.4520 H     1 <1>   0.1500 
 47 H       -6.3070    -4.2070     0.0400 H     1 <1>   0.1500 
 48 H       -0.6040    -5.6090     0.1040 H     1 <1>   0.1500 
 49 H       -3.9820    -8.4630    -0.6830 H     1 <1>   0.1500 
 50 H       -7.5880    -6.2220    -0.4220 H     1 <1>   0.1500 
 51 H       -6.4520    -8.3590    -0.7920 H     1 <1>   0.1500 
@<TRIPOS>BOND
  1   1   2  2   
  2   2   3  am  
  3   2   4  1   
  4   3   5  1   
  5   3   6  1   
  6   4   7  1   
  7   4  28  1   
  8   4  29  1   
  9   5   8  1   
 10   5  30  1   
 11   5  31  1   
 12   6   9  1   
 13   6  32  1   
 14   6  33  1   
 15   7  10  1   
 16   7  11  2   
 17   8   9  1   
 18   8  12  1   
 19   8  34  1   
 20   9  13  1   
 21   9  35  1   
 22  10  14  2   
 23  10  15  1   
 24  11  16  1   
 25  11  17  1   
 26  12  36  1   
 27  13  18  1   
 28  13  37  1   
 29  13  38  1   
 30  14  16  1   
 31  15  39  1   
 32  15  40  1   
 33  15  41  1   
 34  16  42  1   
 35  17  43  1   
 36  17  44  1   
 37  17  45  1   
 38  18  19  ar  
 39  18  20  ar  
 40  19  21  ar  
 41  19  22  ar  
 42  20  23  ar  
 43  20  46  1   
 44  21  24  ar  
 45  21  25  ar  
 46  22  26  ar  
 47  22  47  1   
 48  23  24  ar  
 49  23  48  1   
 50  25  27  ar  
 51  25  49  1   
 52  26  27  ar  
 53  26  50  1   
 54  27  51  1   
@<TRIPOS>SUBSTRUCTURE
  1 ****   9 GROUP 4 **** **** 0

# MOE 2024.06 (io_trps.svl 2023.06)
