@<TRIPOS>MOLECULE
NONAME
49 51 1 0 0 
SMALL
USER_CHARGES


@<TRIPOS>ATOM
  1 S       -1.3660    -1.3710     0.3760 S.3   1 <1>  -0.0800 
  2 C       -2.1970    -1.5220    -1.1370 C.2   1 <1>   0.4420 
  3 C       -0.6550     0.0800    -0.2440 C.2   1 <1>   0.1980 
  4 N       -1.9260    -0.5580    -1.9400 N.2   1 <1>  -0.3380 
  5 N       -3.0110    -2.6200    -1.2830 N.am  1 <1>  -0.4940 
  6 N       -1.0450     0.3530    -1.4240 N.2   1 <1>  -0.3380 
  7 C        0.3030     0.8570     0.6430 C.3   1 <1>   0.3000 
  8 C       -3.8330    -2.9990    -2.3000 C.2   1 <1>   0.5690 
  9 O        1.2660     0.0030     1.1920 O.3   1 <1>  -0.5600 
 10 O       -4.0400    -2.3500    -3.2940 O.2   1 <1>  -0.5700 
 11 C       -4.5230    -4.3530    -2.1290 C.3   1 <1>   0.1710 
 12 C        2.2190     0.6450     1.9750 C.3   1 <1>   0.0400 
 13 N       -4.5910    -4.8090    -0.7030 N.3   1 <1>  -0.8100 
 14 C       -4.7680    -6.2740    -0.6410 C.3   1 <1>   0.1100 
 15 C       -5.6800    -4.1050     0.0020 C.3   1 <1>   0.0300 
 16 C       -4.4610    -6.8170     0.7580 C.3   1 <1>   0.0960 
 17 N       -4.4930    -8.2910     0.7250 N.pl3 1 <1>   0.0480 
 18 C       -5.6340    -9.0570     0.7940 C.ar  1 <1>  -0.1520 
 19 C       -3.4300    -9.1360     0.5280 C.2   1 <1>  -0.3320 
 20 C       -5.2750   -10.3930     0.6430 C.ar  1 <1>   0.0000 
 21 C       -6.9750    -8.7010     0.9750 C.ar  1 <1>  -0.1500 
 22 C       -3.8760   -10.4140     0.4790 C.2   1 <1>  -0.1500 
 23 C       -1.9920    -8.6650     0.3920 C.3   1 <1>  -0.0600 
 24 C       -6.2570   -11.3870     0.6720 C.ar  1 <1>  -0.1500 
 25 C       -7.9330    -9.6880     1.0010 C.ar  1 <1>  -0.1500 
 26 C       -7.5740   -11.0330     0.8500 C.ar  1 <1>  -0.1500 
 27 H       -3.0430    -3.2800    -0.5040 H     1 <1>   0.3700 
 28 H       -0.2420     1.3210     1.4460 H     1 <1>   0.0800 
 29 H        0.8020     1.6100     0.0580 H     1 <1>   0.0800 
 30 H       -3.9560    -5.0590    -2.7100 H     1 <1>   0.0800 
 31 H       -5.5110    -4.3010    -2.5530 H     1 <1>   0.0800 
 32 H        2.9020    -0.0990     2.3470 H     1 <1>   0.0800 
 33 H        1.7340     1.1350     2.8010 H     1 <1>   0.0800 
 34 H        2.7570     1.3570     1.3710 H     1 <1>   0.0800 
 35 H       -4.0830    -6.7430    -1.3280 H     1 <1>   0.0800 
 36 H       -5.7720    -6.5420    -0.9290 H     1 <1>   0.0800 
 37 H       -5.5620    -3.0390    -0.0930 H     1 <1>   0.0800 
 38 H       -5.6690    -4.3460     1.0510 H     1 <1>   0.0800 
 39 H       -6.6380    -4.3810    -0.4090 H     1 <1>   0.0800 
 40 H       -5.1880    -6.4770     1.4690 H     1 <1>   0.0800 
 41 H       -3.4860    -6.4930     1.0710 H     1 <1>   0.0800 
 42 H       -7.2500    -7.6700     1.0930 H     1 <1>   0.1500 
 43 H       -3.3060   -11.3150     0.3400 H     1 <1>   0.1500 
 44 H       -1.8960    -7.9910    -0.4400 H     1 <1>   0.0800 
 45 H       -1.3420    -9.5060     0.2280 H     1 <1>   0.0800 
 46 H       -1.6790    -8.1640     1.2910 H     1 <1>   0.0800 
 47 H       -5.9640   -12.4140     0.5550 H     1 <1>   0.1500 
 48 H       -8.9700    -9.4380     1.1400 H     1 <1>   0.1500 
 49 H       -8.3410   -11.7870     0.8750 H     1 <1>   0.1500 
@<TRIPOS>BOND
  1   1   2  1   
  2   1   3  1   
  3   2   4  2   
  4   2   5  1   
  5   3   6  2   
  6   3   7  1   
  7   4   6  1   
  8   5   8  am  
  9   5  27  1   
 10   7   9  1   
 11   7  28  1   
 12   7  29  1   
 13   8  10  2   
 14   8  11  1   
 15   9  12  1   
 16  11  13  1   
 17  11  30  1   
 18  11  31  1   
 19  12  32  1   
 20  12  33  1   
 21  12  34  1   
 22  13  14  1   
 23  13  15  1   
 24  14  16  1   
 25  14  35  1   
 26  14  36  1   
 27  15  37  1   
 28  15  38  1   
 29  15  39  1   
 30  16  17  1   
 31  16  40  1   
 32  16  41  1   
 33  17  18  1   
 34  17  19  1   
 35  18  20  ar  
 36  18  21  ar  
 37  19  22  2   
 38  19  23  1   
 39  20  22  1   
 40  20  24  ar  
 41  21  25  ar  
 42  21  42  1   
 43  22  43  1   
 44  23  44  1   
 45  23  45  1   
 46  23  46  1   
 47  24  26  ar  
 48  24  47  1   
 49  25  26  ar  
 50  25  48  1   
 51  26  49  1   
@<TRIPOS>SUBSTRUCTURE
  1 ****  13 GROUP 4 **** **** 0

# MOE 2024.06 (io_trps.svl 2023.06)
