@<TRIPOS>MOLECULE
NONAME
52 55 1 0 0 
SMALL
USER_CHARGES


@<TRIPOS>ATOM
  1 O       -0.4340    -0.9050     0.8340 O.3   1 <1>  -0.5600 
  2 C       -1.2820    -1.8410     1.4350 C.3   1 <1>   0.1200 
  3 C        0.7290    -1.4540     0.2940 C.3   1 <1>   0.1200 
  4 C       -1.7420    -2.8900     0.4070 C.3   1 <1>   0.2090 
  5 C        0.3810    -2.4760    -0.8060 C.3   1 <1>   0.2090 
  6 N       -0.5650    -3.5310    -0.2920 N.pl3 1 <1>  -0.8380 
  7 C       -0.4400    -4.8830    -0.3940 C.ar  1 <1>   0.7710 
  8 N       -1.3140    -5.6670     0.2250 N.ar  1 <1>  -0.6200 
  9 N        0.5660    -5.3970    -1.1270 N.ar  1 <1>  -0.1790 
 10 C       -1.1690    -6.9670     0.1200 C.ar  1 <1>   0.4100 
 11 C        0.7520    -6.7320    -1.2610 C.ar  1 <1>   0.2180 
 12 N       -2.0870    -7.6850     0.7840 N.pl3 1 <1>  -0.8690 
 13 C       -0.1260    -7.5450    -0.6260 C.ar  1 <1>  -0.1500 
 14 C        1.9140    -7.2350    -2.0990 C.3   1 <1>  -0.0970 
 15 C       -2.2650    -9.1550     0.9010 C.3   1 <1>   0.2890 
 16 C       -3.7350    -9.5350     0.8930 C.3   1 <1>  -0.0800 
 17 C       -1.8020    -9.6980     2.2440 C.3   1 <1>   0.1200 
 18 C       -3.7800   -10.7750     1.7930 C.3   1 <1>   0.1200 
 19 C       -4.2900    -9.7710    -0.5200 C.3   1 <1>  -0.0170 
 20 O       -2.5450   -10.8580     2.4400 O.3   1 <1>  -0.5600 
 21 C       -5.7440   -10.2130    -0.4740 C.ar  1 <1>  -0.1430 
 22 C       -6.7680    -9.3180    -0.2340 C.ar  1 <1>  -0.1500 
 23 C       -6.1180   -11.5280    -0.6670 C.ar  1 <1>  -0.1500 
 24 C       -8.0770    -9.7690    -0.1940 C.ar  1 <1>   0.1600 
 25 C       -7.4580   -11.8750    -0.6060 C.ar  1 <1>   0.1600 
 26 N       -8.4460   -11.0270    -0.3720 N.ar  1 <1>  -0.6200 
 27 H       -0.7610    -2.3100     2.2520 H     1 <1>   0.0800 
 28 H       -2.1310    -1.3090     1.8270 H     1 <1>   0.0800 
 29 H        1.3080    -0.6460    -0.1170 H     1 <1>   0.0800 
 30 H        1.2930    -1.9150     1.0860 H     1 <1>   0.0800 
 31 H       -2.3660    -2.4040    -0.3230 H     1 <1>   0.0800 
 32 H       -2.3540    -3.6140     0.9170 H     1 <1>   0.0800 
 33 H        1.2970    -2.9040    -1.1680 H     1 <1>   0.0800 
 34 H       -0.0850    -1.9490    -1.6220 H     1 <1>   0.0800 
 35 H        1.1640    -4.7240    -1.5870 H     1 <1>   0.4570 
 36 H       -2.7640    -7.1400     1.3280 H     1 <1>   0.4000 
 37 H       -0.0440    -8.6130    -0.6780 H     1 <1>   0.1500 
 38 H        1.9330    -8.3110    -2.1100 H     1 <1>   0.0800 
 39 H        2.8490    -6.8890    -1.6940 H     1 <1>   0.0800 
 40 H        1.8230    -6.8920    -3.1150 H     1 <1>   0.0800 
 41 H       -1.7430    -9.6760     0.1180 H     1 <1>   0.0800 
 42 H       -4.3110    -8.7670     1.3790 H     1 <1>   0.0800 
 43 H       -2.0370    -9.0170     3.0430 H     1 <1>   0.0800 
 44 H       -0.7560    -9.9470     2.2500 H     1 <1>   0.0800 
 45 H       -3.9130   -11.6820     1.2300 H     1 <1>   0.0800 
 46 H       -4.5550   -10.6960     2.5370 H     1 <1>   0.0800 
 47 H       -3.7030   -10.5180    -1.0260 H     1 <1>   0.0800 
 48 H       -4.2170    -8.8600    -1.0900 H     1 <1>   0.0800 
 49 H       -6.5620    -8.2750    -0.0790 H     1 <1>   0.1500 
 50 H       -5.3850   -12.2880    -0.8640 H     1 <1>   0.1500 
 51 H       -8.8620    -9.0570    -0.0060 H     1 <1>   0.1500 
 52 H       -7.7310   -12.9050    -0.7580 H     1 <1>   0.1500 
@<TRIPOS>BOND
  1   1   2  1   
  2   1   3  1   
  3   2   4  1   
  4   2  27  1   
  5   2  28  1   
  6   3   5  1   
  7   3  29  1   
  8   3  30  1   
  9   4   6  1   
 10   4  31  1   
 11   4  32  1   
 12   5   6  1   
 13   5  33  1   
 14   5  34  1   
 15   6   7  1   
 16   7   8  ar  
 17   7   9  ar  
 18   8  10  ar  
 19   9  11  ar  
 20   9  35  1   
 21  10  12  1   
 22  10  13  ar  
 23  11  13  ar  
 24  11  14  1   
 25  12  15  1   
 26  12  36  1   
 27  13  37  1   
 28  14  38  1   
 29  14  39  1   
 30  14  40  1   
 31  15  16  1   
 32  15  17  1   
 33  15  41  1   
 34  16  18  1   
 35  16  19  1   
 36  16  42  1   
 37  17  20  1   
 38  17  43  1   
 39  17  44  1   
 40  18  20  1   
 41  18  45  1   
 42  18  46  1   
 43  19  21  1   
 44  19  47  1   
 45  19  48  1   
 46  21  22  ar  
 47  21  23  ar  
 48  22  24  ar  
 49  22  49  1   
 50  23  25  ar  
 51  23  50  1   
 52  24  26  ar  
 53  24  51  1   
 54  25  26  ar  
 55  25  52  1   
@<TRIPOS>SUBSTRUCTURE
  1 ****  12 GROUP 4 **** **** 0

# MOE 2024.06 (io_trps.svl 2023.06)
