@<TRIPOS>MOLECULE
NONAME
50 53 1 0 0 
SMALL
USER_CHARGES


@<TRIPOS>ATOM
  1 O       -0.2080    -0.9820     0.3100 O.2   1 <1>  -0.5700 
  2 C        0.9440    -1.3770     0.4410 C.2   1 <1>   0.5440 
  3 N        1.2610    -2.3050     1.4220 N.am  1 <1>  -0.2980 
  4 C        2.0000    -0.9120    -0.4150 C.ar  1 <1>   0.0860 
  5 N        2.5270    -2.7960     1.6170 N.2   1 <1>  -0.5120 
  6 C        0.2190    -2.7930     2.3810 C.3   1 <1>   0.2010 
  7 C        3.2900    -1.4270    -0.2110 C.ar  1 <1>   0.0860 
  8 C        1.7870     0.0230    -1.4340 C.ar  1 <1>  -0.1500 
  9 C        3.4700    -2.3830     0.8490 C.2   1 <1>   0.3030 
 10 C       -0.1840    -4.2490     2.1510 C.2   1 <1>   0.5690 
 11 C        4.3230    -0.9780    -1.0500 C.ar  1 <1>  -0.1500 
 12 C        2.8170     0.4470    -2.2430 C.ar  1 <1>  -0.1500 
 13 C        4.8510    -2.9620     1.1060 C.3   1 <1>  -0.1790 
 14 O        0.1240    -5.0650     2.9900 O.2   1 <1>  -0.5700 
 15 N       -0.9120    -4.6310     1.0520 N.am  1 <1>  -0.6600 
 16 C        4.0920    -0.0580    -2.0490 C.ar  1 <1>  -0.1500 
 17 C       -1.4720    -3.7520    -0.0050 C.3   1 <1>   0.1400 
 18 C       -1.1950    -6.0530     0.7450 C.3   1 <1>   0.1400 
 19 C       -2.4630    -4.6430    -0.7520 C.3   1 <1>   0.2000 
 20 C       -1.8380    -6.0390    -0.6470 C.3   1 <1>  -0.0800 
 21 O       -3.6670    -4.6250    -0.0630 O.3   1 <1>  -0.6800 
 22 C       -2.8090    -7.2080    -0.8970 C.3   1 <1>   0.0200 
 23 C       -2.1160    -8.5600    -0.9240 C.2   1 <1>  -0.0400 
 24 O       -2.8490    -9.6390    -0.9970 O.3   1 <1>  -0.0190 
 25 C       -0.8290    -8.9440    -0.8910 C.2   1 <1>  -0.1500 
 26 N       -2.1250   -10.7210    -1.0110 N.2   1 <1>  -0.4100 
 27 C       -0.9030   -10.3330    -0.9470 C.2   1 <1>   0.1080 
 28 C        0.2870   -11.2660    -0.9340 C.3   1 <1>  -0.0590 
 29 H        0.6200    -2.7110     3.3740 H     1 <1>   0.0800 
 30 H       -0.6570    -2.1760     2.3360 H     1 <1>   0.0800 
 31 H        0.7950     0.4170    -1.5820 H     1 <1>   0.1500 
 32 H        5.3230    -1.3520    -0.9220 H     1 <1>   0.1500 
 33 H        2.6370     1.1680    -3.0230 H     1 <1>   0.1500 
 34 H        5.2020    -3.4840     0.2350 H     1 <1>   0.0800 
 35 H        4.8180    -3.6580     1.9260 H     1 <1>   0.0800 
 36 H        5.5400    -2.1770     1.3590 H     1 <1>   0.0800 
 37 H        4.8980     0.2740    -2.6830 H     1 <1>   0.1500 
 38 H       -1.9520    -2.8790     0.4020 H     1 <1>   0.0800 
 39 H       -0.6800    -3.4540    -0.6700 H     1 <1>   0.0800 
 40 H       -0.2870    -6.6290     0.7650 H     1 <1>   0.0800 
 41 H       -1.8760    -6.4410     1.4840 H     1 <1>   0.0800 
 42 H       -2.6410    -4.3250    -1.7640 H     1 <1>   0.0800 
 43 H       -1.0470    -6.0920    -1.3740 H     1 <1>   0.0800 
 44 H       -3.4830    -4.7310     0.8920 H     1 <1>   0.4000 
 45 H       -3.3070    -7.0630    -1.8400 H     1 <1>   0.0800 
 46 H       -3.5650    -7.2300    -0.1320 H     1 <1>   0.0800 
 47 H        0.0730    -8.3640    -0.8360 H     1 <1>   0.1500 
 48 H        0.8860   -11.0810    -0.0610 H     1 <1>   0.0800 
 49 H        0.8820   -11.1100    -1.8140 H     1 <1>   0.0800 
 50 H       -0.0490   -12.2870    -0.9160 H     1 <1>   0.0800 
@<TRIPOS>BOND
  1   1   2  2   
  2   2   3  am  
  3   2   4  1   
  4   3   5  1   
  5   3   6  1   
  6   4   7  ar  
  7   4   8  ar  
  8   5   9  2   
  9   6  10  1   
 10   6  29  1   
 11   6  30  1   
 12   7   9  1   
 13   7  11  ar  
 14   8  12  ar  
 15   8  31  1   
 16   9  13  1   
 17  10  14  2   
 18  10  15  am  
 19  11  16  ar  
 20  11  32  1   
 21  12  16  ar  
 22  12  33  1   
 23  13  34  1   
 24  13  35  1   
 25  13  36  1   
 26  15  17  1   
 27  15  18  1   
 28  16  37  1   
 29  17  19  1   
 30  17  38  1   
 31  17  39  1   
 32  18  20  1   
 33  18  40  1   
 34  18  41  1   
 35  19  20  1   
 36  19  21  1   
 37  19  42  1   
 38  20  22  1   
 39  20  43  1   
 40  21  44  1   
 41  22  23  1   
 42  22  45  1   
 43  22  46  1   
 44  23  24  1   
 45  23  25  2   
 46  24  26  1   
 47  25  27  1   
 48  25  47  1   
 49  26  27  2   
 50  27  28  1   
 51  28  48  1   
 52  28  49  1   
 53  28  50  1   
@<TRIPOS>SUBSTRUCTURE
  1 ****  15 GROUP 4 **** **** 0

# MOE 2024.06 (io_trps.svl 2023.06)
