@<TRIPOS>MOLECULE
NONAME
51 54 1 0 0 
SMALL
USER_CHARGES


@<TRIPOS>ATOM
  1 S       -1.0130     0.0330     1.3680 S.3   1 <1>  -0.0800 
  2 C       -1.6860    -1.1120     0.2270 C.ar  1 <1>   0.0400 
  3 C       -1.3740     1.3380     0.2450 C.2   1 <1>   0.1980 
  4 C       -2.1110    -0.4050    -0.8810 C.ar  1 <1>   0.2270 
  5 C       -1.8010    -2.4820     0.3490 C.ar  1 <1>  -0.1500 
  6 N       -1.9250     0.9730    -0.8400 N.2   1 <1>  -0.5650 
  7 C       -0.9990     2.7360     0.6780 C.3   1 <1>  -0.0600 
  8 C       -2.6780    -1.1170    -1.9270 C.ar  1 <1>  -0.1500 
  9 C       -2.3830    -3.2040    -0.6920 C.ar  1 <1>   0.0860 
 10 C       -2.8050    -2.4930    -1.8280 C.ar  1 <1>  -0.1500 
 11 C       -2.5350    -4.6440    -0.5990 C.2   1 <1>   0.5440 
 12 O       -1.6030    -5.3160    -0.2020 O.2   1 <1>  -0.5700 
 13 N       -3.7150    -5.2760    -0.9310 N.am  1 <1>  -0.6600 
 14 C       -5.0550    -4.6140    -0.8700 C.3   1 <1>   0.1400 
 15 C       -3.8080    -6.7630    -1.0730 C.3   1 <1>   0.1400 
 16 C       -5.9790    -5.3310     0.1330 C.3   1 <1>   0.2950 
 17 C       -4.8030    -7.3570    -0.0530 C.3   1 <1>   0.2000 
 18 O       -6.0340    -6.6990    -0.1490 O.3   1 <1>  -0.5600 
 19 C       -7.4100    -4.7880     0.0670 C.3   1 <1>  -0.1950 
 20 C       -5.0820    -8.8490    -0.2790 C.3   1 <1>  -0.1600 
 21 C       -7.8170    -3.5830     0.8570 C.3   1 <1>  -0.2000 
 22 C       -8.3500    -4.9400     1.2210 C.3   1 <1>  -0.2000 
 23 C       -3.8430    -9.7330    -0.0590 C.3   1 <1>  -0.1600 
 24 C       -4.1970   -11.2180    -0.2020 C.3   1 <1>  -0.1600 
 25 C       -2.9650   -12.1010     0.0150 C.3   1 <1>  -0.2400 
 26 H       -1.4460    -2.9870     1.2300 H     1 <1>   0.1500 
 27 H       -1.2700     3.4380    -0.0900 H     1 <1>   0.0800 
 28 H        0.0600     2.7930     0.8470 H     1 <1>   0.0800 
 29 H       -1.5190     2.9890     1.5830 H     1 <1>   0.0800 
 30 H       -3.0060    -0.5830    -2.8000 H     1 <1>   0.1500 
 31 H       -3.2360    -3.0430    -2.6480 H     1 <1>   0.1500 
 32 H       -4.9620    -3.5860    -0.5710 H     1 <1>   0.0800 
 33 H       -5.5060    -4.6390    -1.8460 H     1 <1>   0.0800 
 34 H       -4.1380    -7.0000    -2.0690 H     1 <1>   0.0800 
 35 H       -2.8410    -7.2120    -0.9350 H     1 <1>   0.0800 
 36 H       -5.5940    -5.2110     1.1310 H     1 <1>   0.0800 
 37 H       -4.4230    -7.2150     0.9450 H     1 <1>   0.0800 
 38 H       -7.8310    -4.8920    -0.9180 H     1 <1>   0.1000 
 39 H       -5.8500    -9.1520     0.4100 H     1 <1>   0.0800 
 40 H       -5.4530    -8.9910    -1.2790 H     1 <1>   0.0800 
 41 H       -7.1130    -3.1190     1.5260 H     1 <1>   0.1000 
 42 H       -8.4890    -2.8710     0.4090 H     1 <1>   0.1000 
 43 H       -9.3800    -5.1730     1.0120 H     1 <1>   0.1000 
 44 H       -7.9940    -5.4230     2.1150 H     1 <1>   0.1000 
 45 H       -3.0810    -9.4860    -0.7770 H     1 <1>   0.0800 
 46 H       -3.4460    -9.5550     0.9260 H     1 <1>   0.0800 
 47 H       -4.9520   -11.4820     0.5200 H     1 <1>   0.0800 
 48 H       -4.5970   -11.4030    -1.1840 H     1 <1>   0.0800 
 49 H       -2.5610   -11.9490     1.0000 H     1 <1>   0.0800 
 50 H       -2.2050   -11.8710    -0.7110 H     1 <1>   0.0800 
 51 H       -3.2340   -13.1380    -0.0880 H     1 <1>   0.0800 
@<TRIPOS>BOND
  1   1   2  1   
  2   1   3  1   
  3   2   4  ar  
  4   2   5  ar  
  5   3   6  2   
  6   3   7  1   
  7   4   6  1   
  8   4   8  ar  
  9   5   9  ar  
 10   5  26  1   
 11   7  27  1   
 12   7  28  1   
 13   7  29  1   
 14   8  10  ar  
 15   8  30  1   
 16   9  10  ar  
 17   9  11  1   
 18  10  31  1   
 19  11  12  2   
 20  11  13  am  
 21  13  14  1   
 22  13  15  1   
 23  14  16  1   
 24  14  32  1   
 25  14  33  1   
 26  15  17  1   
 27  15  34  1   
 28  15  35  1   
 29  16  18  1   
 30  16  19  1   
 31  16  36  1   
 32  17  18  1   
 33  17  20  1   
 34  17  37  1   
 35  19  21  1   
 36  19  22  1   
 37  19  38  1   
 38  20  23  1   
 39  20  39  1   
 40  20  40  1   
 41  21  22  1   
 42  21  41  1   
 43  21  42  1   
 44  22  43  1   
 45  22  44  1   
 46  23  24  1   
 47  23  45  1   
 48  23  46  1   
 49  24  25  1   
 50  24  47  1   
 51  24  48  1   
 52  25  49  1   
 53  25  50  1   
 54  25  51  1   
@<TRIPOS>SUBSTRUCTURE
  1 ****  13 GROUP 4 **** **** 0

# MOE 2024.06 (io_trps.svl 2023.06)
