@<TRIPOS>MOLECULE
NONAME
49 51 1 0 0 
SMALL
USER_CHARGES


@<TRIPOS>ATOM
  1 O        0.8210    -2.4760    -0.8040 O.3   1 <1>  -0.5600 
  2 C       -0.0040    -2.3380     0.3270 C.3   1 <1>   0.2800 
  3 C        0.9280    -1.3930    -1.6870 C.3   1 <1>   0.1200 
  4 C       -1.4250    -1.9350    -0.1190 C.3   1 <1>  -0.1600 
  5 C        0.6320    -1.3620     1.3480 C.3   1 <1>  -0.1600 
  6 C       -0.0230    -3.7290     0.9800 C.3   1 <1>  -0.1600 
  7 C       -0.4510    -1.0350    -2.2450 C.3   1 <1>  -0.1600 
  8 C       -1.4570    -0.7790    -1.1230 C.3   1 <1>   0.2800 
  9 C        1.8450    -1.9220     2.0980 C.3   1 <1>   0.3430 
 10 C        1.3840    -4.2430     1.3180 C.3   1 <1>   0.3430 
 11 O       -1.0960     0.3760    -0.4700 O.3   1 <1>  -0.6800 
 12 C       -2.8650    -0.5420    -1.6650 C.3   1 <1>  -0.2400 
 13 N        2.3540    -3.1200     1.3940 N.4   1 <1>  -0.9590 
 14 C        3.7510    -3.4830     1.7440 C.3   1 <1>   0.5240 
 15 C        4.6850    -2.4420     1.1320 C.2   1 <1>   0.1080 
 16 N        4.3550    -1.7160     0.1000 N.2   1 <1>  -0.7070 
 17 C        5.9630    -2.1450     1.5890 C.2   1 <1>  -0.1500 
 18 N        5.4290    -0.9360    -0.1370 N.pl3 1 <1>   0.3140 
 19 C        6.4070    -1.1800     0.7560 C.2   1 <1>  -0.3020 
 20 C        5.4710     0.0380    -1.2480 C.3   1 <1>   0.0960 
 21 C        5.9910    -0.6150    -2.5340 C.3   1 <1>  -0.2400 
 22 H        1.5840    -1.6910    -2.4870 H     1 <1>   0.0800 
 23 H        1.3740    -0.5570    -1.1800 H     1 <1>   0.0800 
 24 H       -2.0320    -1.6920     0.7350 H     1 <1>   0.0800 
 25 H       -1.8800    -2.7870    -0.5910 H     1 <1>   0.0800 
 26 H       -0.1060    -1.1030     2.0850 H     1 <1>   0.0800 
 27 H        0.9120    -0.4360     0.8850 H     1 <1>   0.0800 
 28 H       -0.5030    -4.4380     0.3290 H     1 <1>   0.0800 
 29 H       -0.6060    -3.6890     1.8820 H     1 <1>   0.0800 
 30 H       -0.7910    -1.8580    -2.8480 H     1 <1>   0.0800 
 31 H       -0.3770    -0.1760    -2.8850 H     1 <1>   0.0800 
 32 H        1.5640    -2.1850     3.1040 H     1 <1>   0.0800 
 33 H        2.6120    -1.1640     2.1410 H     1 <1>   0.0800 
 34 H        1.7000    -4.9200     0.5400 H     1 <1>   0.0800 
 35 H        1.3580    -4.7840     2.2500 H     1 <1>   0.0800 
 36 H       -1.2710     1.1420    -1.0480 H     1 <1>   0.4000 
 37 H       -3.2150    -1.4200    -2.1770 H     1 <1>   0.0800 
 38 H       -2.8740     0.2750    -2.3640 H     1 <1>   0.0800 
 39 H       -3.5460    -0.3300    -0.8610 H     1 <1>   0.0800 
 40 H        2.4480    -2.7730     0.4130 H     1 <1>   0.4500 
 41 H        3.9950    -4.4450     1.3250 H     1 <1>   0.0800 
 42 H        3.8780    -3.5210     2.8120 H     1 <1>   0.0800 
 43 H        6.4800    -2.5910     2.4220 H     1 <1>   0.1500 
 44 H        7.3510    -0.6640     0.7470 H     1 <1>   0.1500 
 45 H        6.1070     0.8560    -0.9630 H     1 <1>   0.0800 
 46 H        4.4760     0.4140    -1.4030 H     1 <1>   0.0800 
 47 H        6.9910    -0.9850    -2.3890 H     1 <1>   0.0800 
 48 H        6.0050     0.1070    -3.3300 H     1 <1>   0.0800 
 49 H        5.3500    -1.4290    -2.8220 H     1 <1>   0.0800 
@<TRIPOS>BOND
  1   1   2  1   
  2   1   3  1   
  3   2   4  1   
  4   2   5  1   
  5   2   6  1   
  6   3   7  1   
  7   3  22  1   
  8   3  23  1   
  9   4   8  1   
 10   4  24  1   
 11   4  25  1   
 12   5   9  1   
 13   5  26  1   
 14   5  27  1   
 15   6  10  1   
 16   6  28  1   
 17   6  29  1   
 18   7   8  1   
 19   7  30  1   
 20   7  31  1   
 21   8  11  1   
 22   8  12  1   
 23   9  13  1   
 24   9  32  1   
 25   9  33  1   
 26  10  13  1   
 27  10  34  1   
 28  10  35  1   
 29  11  36  1   
 30  12  37  1   
 31  12  38  1   
 32  12  39  1   
 33  13  14  1   
 34  13  40  1   
 35  14  15  1   
 36  14  41  1   
 37  14  42  1   
 38  15  16  2   
 39  15  17  1   
 40  16  18  1   
 41  17  19  2   
 42  17  43  1   
 43  18  19  1   
 44  18  20  1   
 45  19  44  1   
 46  20  21  1   
 47  20  45  1   
 48  20  46  1   
 49  21  47  1   
 50  21  48  1   
 51  21  49  1   
@<TRIPOS>SUBSTRUCTURE
  1 ****   1 GROUP 4 **** **** 0

# MOE 2024.06 (io_trps.svl 2023.06)
