@<TRIPOS>MOLECULE
NONAME
55 57 1 0 0 
SMALL
USER_CHARGES


@<TRIPOS>ATOM
  1 O       -1.3310     0.6960     1.8300 O.2   1 <1>  -0.5700 
  2 C       -1.1180     1.7510     1.2560 C.2   1 <1>   0.7150 
  3 N       -2.1950     2.4290     0.7160 N.am  1 <1>  -0.6600 
  4 C        0.2300     2.2740     1.1580 C.2   1 <1>   0.0550 
  5 C       -3.5860     2.0250     1.0650 C.3   1 <1>   0.1400 
  6 C       -2.0340     3.4280    -0.3780 C.3   1 <1>   0.1400 
  7 O        1.2660     1.4680     0.9380 O.3   1 <1>  -0.2800 
  8 C        0.7000     3.5510     1.2550 C.2   1 <1>  -0.1500 
  9 C       -4.5490     3.2040     0.8990 C.3   1 <1>  -0.1600 
 10 C       -3.2650     3.4180    -1.2840 C.3   1 <1>  -0.1600 
 11 C        2.3650     2.1860     0.8910 C.2   1 <1>  -0.0100 
 12 C        2.0830     3.4920     1.0790 C.2   1 <1>  -0.1500 
 13 C       -4.5390     3.8490    -0.5160 C.3   1 <1>   0.2800 
 14 O       -4.4190     5.2350    -0.2740 O.3   1 <1>  -0.5600 
 15 C       -5.8750     3.5310    -1.2860 C.3   1 <1>   0.2000 
 16 C       -4.8440     6.1250    -1.2600 C.3   1 <1>   0.1200 
 17 O       -5.6540     3.3670    -2.6630 O.3   1 <1>  -0.6800 
 18 C       -6.9490     4.6390    -1.0660 C.3   1 <1>   0.3000 
 19 C       -6.3580     6.0000    -1.4910 C.3   1 <1>  -0.1600 
 20 N       -7.2720     4.7670     0.3760 N.am  1 <1>  -0.7300 
 21 C       -8.2430     4.3930    -1.8620 C.3   1 <1>  -0.2400 
 22 C       -8.0120     4.0530     1.2630 C.2   1 <1>   0.5690 
 23 O       -7.9030     4.3360     2.4480 O.2   1 <1>  -0.5700 
 24 C       -8.9350     2.8900     0.8370 C.3   1 <1>   0.2010 
 25 N       -9.4360     2.0930     1.9610 N.am  1 <1>  -0.7300 
 26 C      -10.2020     1.0120     1.9100 C.2   1 <1>   0.5690 
 27 O      -10.5430     0.4620     2.9430 O.2   1 <1>  -0.5700 
 28 C      -10.6490     0.4690     0.5650 C.3   1 <1>  -0.1790 
 29 H       -3.8830     1.2080     0.4280 H     1 <1>   0.0800 
 30 H       -3.6170     1.6790     2.0850 H     1 <1>   0.0800 
 31 H       -1.9100     4.4080     0.0520 H     1 <1>   0.0800 
 32 H       -1.1590     3.1930    -0.9600 H     1 <1>   0.0800 
 33 H        0.1350     4.4470     1.4400 H     1 <1>   0.1500 
 34 H       -4.2850     3.9390     1.6400 H     1 <1>   0.0800 
 35 H       -5.5280     2.8500     1.1530 H     1 <1>   0.0800 
 36 H       -3.3870     2.4220    -1.6730 H     1 <1>   0.0800 
 37 H       -3.0900     4.0630    -2.1240 H     1 <1>   0.0800 
 38 H        3.3050     1.6890     0.7210 H     1 <1>   0.1500 
 39 H        2.7600     4.3280     1.0990 H     1 <1>   0.1500 
 40 H       -6.2610     2.5860    -0.9520 H     1 <1>   0.0800 
 41 H       -4.5970     7.1200    -0.9310 H     1 <1>   0.0800 
 42 H       -4.2950     5.9240    -2.1630 H     1 <1>   0.0800 
 43 H       -5.2150     4.1560    -3.0330 H     1 <1>   0.4000 
 44 H       -6.8700     6.8000    -0.9840 H     1 <1>   0.0800 
 45 H       -6.5220     6.1620    -2.5410 H     1 <1>   0.0800 
 46 H       -6.6300     5.4230     0.8360 H     1 <1>   0.3700 
 47 H       -8.0680     4.5370    -2.9130 H     1 <1>   0.0800 
 48 H       -9.0130     5.0800    -1.5570 H     1 <1>   0.0800 
 49 H       -8.5860     3.3840    -1.7530 H     1 <1>   0.0800 
 50 H       -8.3710     2.2410     0.1690 H     1 <1>   0.0800 
 51 H       -9.7770     3.3160     0.2920 H     1 <1>   0.0800 
 52 H       -9.1880     2.4140     2.8890 H     1 <1>   0.3700 
 53 H      -11.2200     1.2290     0.0370 H     1 <1>   0.0800 
 54 H      -11.2780    -0.4060     0.7270 H     1 <1>   0.0800 
 55 H       -9.7770     0.1810    -0.0190 H     1 <1>   0.0800 
@<TRIPOS>BOND
  1   1   2  2   
  2   2   3  am  
  3   2   4  1   
  4   3   5  1   
  5   3   6  1   
  6   4   7  1   
  7   4   8  2   
  8   5   9  1   
  9   5  29  1   
 10   5  30  1   
 11   6  10  1   
 12   6  31  1   
 13   6  32  1   
 14   7  11  1   
 15   8  12  1   
 16   8  33  1   
 17   9  13  1   
 18   9  34  1   
 19   9  35  1   
 20  10  13  1   
 21  10  36  1   
 22  10  37  1   
 23  11  12  2   
 24  11  38  1   
 25  12  39  1   
 26  13  14  1   
 27  13  15  1   
 28  14  16  1   
 29  15  17  1   
 30  15  18  1   
 31  15  40  1   
 32  16  19  1   
 33  16  41  1   
 34  16  42  1   
 35  17  43  1   
 36  18  19  1   
 37  18  20  1   
 38  18  21  1   
 39  19  44  1   
 40  19  45  1   
 41  20  22  am  
 42  20  46  1   
 43  21  47  1   
 44  21  48  1   
 45  21  49  1   
 46  22  23  2   
 47  22  24  1   
 48  24  25  1   
 49  24  50  1   
 50  24  51  1   
 51  25  26  am  
 52  25  52  1   
 53  26  27  2   
 54  26  28  1   
 55  28  53  1   
 56  28  54  1   
 57  28  55  1   
@<TRIPOS>SUBSTRUCTURE
  1 ****   9 GROUP 4 **** **** 0

# MOE 2024.06 (io_trps.svl 2023.06)
