@<TRIPOS>MOLECULE
NONAME
41 44 1 0 0 
SMALL
USER_CHARGES


@<TRIPOS>ATOM
  1 S        1.2210    -0.9900     1.9810 S.3   1 <1>  -0.0800 
  2 C       -0.0910    -1.1130     0.8310 C.2   1 <1>   0.1980 
  3 C        1.6830     0.5190     1.2480 C.2   1 <1>  -0.1100 
  4 N       -0.1660    -0.1430     0.0040 N.2   1 <1>  -0.5650 
  5 C       -0.9950    -2.3370     0.9230 C.3   1 <1>   0.5230 
  6 C        0.8400     0.7860     0.2390 C.2   1 <1>   0.0770 
  7 N       -2.1720    -2.1490     0.0180 N.4   1 <1>  -0.9590 
  8 C       -3.1490    -1.1730     0.6110 C.3   1 <1>   0.3430 
  9 C       -2.8260    -3.4230    -0.3830 C.3   1 <1>   0.3430 
 10 C       -4.2690    -0.8180    -0.3800 C.3   1 <1>   0.1430 
 11 C       -3.9200    -3.1330    -1.4150 C.3   1 <1>  -0.1600 
 12 C       -5.2740     0.0510     0.3360 C.ar  1 <1>   0.1670 
 13 C       -4.9460    -2.1030    -0.9050 C.3   1 <1>  -0.1600 
 14 C       -3.7840     0.1040    -1.5320 C.3   1 <1>  -0.1600 
 15 N       -5.7720    -0.2130     1.5170 N.ar  1 <1>  -0.6200 
 16 C       -5.5900     1.1630    -0.3860 C.ar  1 <1>  -0.1430 
 17 C       -4.8500     1.2050    -1.6990 C.3   1 <1>  -0.0170 
 18 C       -6.6200     0.7090     1.9540 C.ar  1 <1>   0.7200 
 19 C       -6.4900     2.0430     0.1660 C.ar  1 <1>   0.1600 
 20 N       -7.0180     1.8190     1.3490 N.ar  1 <1>  -0.6200 
 21 N       -7.1580     0.4840     3.1530 N.pl3 1 <1>  -0.9000 
 22 H        2.5330     1.0420     1.6490 H     1 <1>   0.1500 
 23 H       -1.3210    -2.4770     1.9400 H     1 <1>   0.0800 
 24 H       -0.4280    -3.2010     0.6190 H     1 <1>   0.0800 
 25 H        0.8840     1.6560    -0.3960 H     1 <1>   0.1500 
 26 H       -1.7790    -1.6840    -0.8160 H     1 <1>   0.4500 
 27 H       -2.6430    -0.2650     0.9000 H     1 <1>   0.0800 
 28 H       -3.5970    -1.5970     1.4950 H     1 <1>   0.0800 
 29 H       -3.2650    -3.8960     0.4810 H     1 <1>   0.0800 
 30 H       -2.1000    -4.0980    -0.8100 H     1 <1>   0.0800 
 31 H       -4.4320    -4.0520    -1.6460 H     1 <1>   0.0800 
 32 H       -3.4660    -2.7890    -2.3270 H     1 <1>   0.0800 
 33 H       -5.6460    -1.8590    -1.6860 H     1 <1>   0.0800 
 34 H       -5.5110    -2.5480    -0.1020 H     1 <1>   0.0800 
 35 H       -3.6260    -0.4220    -2.4570 H     1 <1>   0.0800 
 36 H       -2.8590     0.5800    -1.2510 H     1 <1>   0.0800 
 37 H       -5.5270     0.9650    -2.5020 H     1 <1>   0.0800 
 38 H       -4.4040     2.1690    -1.8750 H     1 <1>   0.0800 
 39 H       -6.7780     2.9360    -0.3620 H     1 <1>   0.1500 
 40 H       -7.9760     1.0510     3.3640 H     1 <1>   0.4000 
 41 H       -7.1890    -0.4840     3.4570 H     1 <1>   0.4000 
@<TRIPOS>BOND
  1   1   2  1   
  2   1   3  1   
  3   2   4  2   
  4   2   5  1   
  5   3   6  2   
  6   3  22  1   
  7   4   6  1   
  8   5   7  1   
  9   5  23  1   
 10   5  24  1   
 11   6  25  1   
 12   7   8  1   
 13   7   9  1   
 14   7  26  1   
 15   8  10  1   
 16   8  27  1   
 17   8  28  1   
 18   9  11  1   
 19   9  29  1   
 20   9  30  1   
 21  10  12  1   
 22  10  13  1   
 23  10  14  1   
 24  11  13  1   
 25  11  31  1   
 26  11  32  1   
 27  12  15  ar  
 28  12  16  ar  
 29  13  33  1   
 30  13  34  1   
 31  14  17  1   
 32  14  35  1   
 33  14  36  1   
 34  15  18  ar  
 35  16  17  1   
 36  16  19  ar  
 37  17  37  1   
 38  17  38  1   
 39  18  20  ar  
 40  18  21  1   
 41  19  20  ar  
 42  19  39  1   
 43  21  40  1   
 44  21  41  1   
@<TRIPOS>SUBSTRUCTURE
  1 ****   8 GROUP 4 **** **** 0

# MOE 2024.06 (io_trps.svl 2023.06)
