@<TRIPOS>MOLECULE
NONAME
55 57 1 0 0 
SMALL
USER_CHARGES


@<TRIPOS>ATOM
  1 O        0.1420     1.3210    -0.4550 O.2   1 <1>  -0.5700 
  2 C       -0.0900     2.4940    -0.5980 C.2   1 <1>   0.5690 
  3 N       -1.0520     3.1030     0.1270 N.am  1 <1>  -0.7300 
  4 C        0.6830     3.3130    -1.6320 C.3   1 <1>   0.1810 
  5 C       -1.4510     4.5220    -0.0510 C.3   1 <1>   0.3640 
  6 O        0.6430     4.6950    -1.3540 O.3   1 <1>  -0.5600 
  7 C       -2.9580     4.5710    -0.2990 C.ar  1 <1>  -0.1440 
  8 C       -0.6680     5.2320    -1.1920 C.3   1 <1>   0.2610 
  9 C       -3.7120     5.5800     0.2810 C.ar  1 <1>  -0.1500 
 10 C       -3.6000     3.6390    -1.1030 C.ar  1 <1>  -0.1500 
 11 C       -0.5880     6.7370    -0.9040 C.2   1 <1>   0.5690 
 12 C       -5.0800     5.6850     0.0580 C.ar  1 <1>   0.0830 
 13 C       -4.9660     3.7140    -1.3080 C.ar  1 <1>  -0.1500 
 14 O       -1.5940     7.4070    -0.9230 O.2   1 <1>  -0.5700 
 15 N        0.6230     7.2850    -0.6200 N.am  1 <1>  -0.7300 
 16 O       -5.7550     6.7370     0.5950 O.3   1 <1>  -0.3630 
 17 C       -5.7240     4.7180    -0.7310 C.ar  1 <1>   0.0830 
 18 C        0.9020     8.7020    -0.3430 C.3   1 <1>   0.2200 
 19 C       -5.1980     8.0280     0.4550 C.3   1 <1>   0.0400 
 20 O       -7.0580     4.6600    -1.0100 O.3   1 <1>  -0.3630 
 21 C        1.8520     9.2170    -1.4330 C.3   1 <1>  -0.1600 
 22 C        1.4480     8.7960     1.0860 C.3   1 <1>  -0.1600 
 23 C       -8.0200     5.3020    -0.2040 C.3   1 <1>   0.0400 
 24 C        1.9540    10.7500    -1.4440 C.3   1 <1>  -0.1600 
 25 C        1.8770    10.2050     1.5270 C.3   1 <1>  -0.1600 
 26 C        3.0190    11.3360    -0.5040 C.3   1 <1>  -0.1600 
 27 C        3.1860    10.6550     0.8630 C.3   1 <1>  -0.1600 
 28 H       -1.5990     2.5440     0.7840 H     1 <1>   0.3700 
 29 H        0.2680     3.1480    -2.6100 H     1 <1>   0.0800 
 30 H        1.7130     3.0060    -1.6330 H     1 <1>   0.0800 
 31 H       -1.2360     5.0360     0.8710 H     1 <1>   0.0800 
 32 H       -1.1910     5.1000    -2.1220 H     1 <1>   0.0800 
 33 H       -3.2260     6.3050     0.9070 H     1 <1>   0.1500 
 34 H       -3.0480     2.8440    -1.5750 H     1 <1>   0.1500 
 35 H       -5.4590     2.9830    -1.9230 H     1 <1>   0.1500 
 36 H        1.4380     6.6680    -0.6800 H     1 <1>   0.3700 
 37 H       -0.0210     9.2560    -0.3990 H     1 <1>   0.0800 
 38 H       -5.9750     8.7500     0.6260 H     1 <1>   0.0800 
 39 H       -4.8070     8.1370    -0.5430 H     1 <1>   0.0800 
 40 H       -4.4160     8.1570     1.1810 H     1 <1>   0.0800 
 41 H        2.8270     8.7740    -1.3340 H     1 <1>   0.0800 
 42 H        1.4470     8.9180    -2.3850 H     1 <1>   0.0800 
 43 H        0.6700     8.4650     1.7520 H     1 <1>   0.0800 
 44 H        2.2800     8.1240     1.1980 H     1 <1>   0.0800 
 45 H       -8.9870     4.9100    -0.4580 H     1 <1>   0.0800 
 46 H       -7.9900     6.3580    -0.4030 H     1 <1>   0.0800 
 47 H       -7.8000     5.1010     0.8300 H     1 <1>   0.0800 
 48 H        2.1880    11.0720    -2.4440 H     1 <1>   0.0800 
 49 H        0.9930    11.1730    -1.2030 H     1 <1>   0.0800 
 50 H        1.0920    10.9200     1.3480 H     1 <1>   0.0800 
 51 H        2.0420    10.1750     2.5910 H     1 <1>   0.0800 
 52 H        3.9720    11.3080    -1.0040 H     1 <1>   0.0800 
 53 H        2.7820    12.3740    -0.3450 H     1 <1>   0.0800 
 54 H        3.6810    11.3530     1.5170 H     1 <1>   0.0800 
 55 H        3.8470     9.8100     0.7630 H     1 <1>   0.0800 
@<TRIPOS>BOND
  1   1   2  2   
  2   2   3  am  
  3   2   4  1   
  4   3   5  1   
  5   3  28  1   
  6   4   6  1   
  7   4  29  1   
  8   4  30  1   
  9   5   7  1   
 10   5   8  1   
 11   5  31  1   
 12   6   8  1   
 13   7   9  ar  
 14   7  10  ar  
 15   8  11  1   
 16   8  32  1   
 17   9  12  ar  
 18   9  33  1   
 19  10  13  ar  
 20  10  34  1   
 21  11  14  2   
 22  11  15  am  
 23  12  16  1   
 24  12  17  ar  
 25  13  17  ar  
 26  13  35  1   
 27  15  18  1   
 28  15  36  1   
 29  16  19  1   
 30  17  20  1   
 31  18  21  1   
 32  18  22  1   
 33  18  37  1   
 34  19  38  1   
 35  19  39  1   
 36  19  40  1   
 37  20  23  1   
 38  21  24  1   
 39  21  41  1   
 40  21  42  1   
 41  22  25  1   
 42  22  43  1   
 43  22  44  1   
 44  23  45  1   
 45  23  46  1   
 46  23  47  1   
 47  24  26  1   
 48  24  48  1   
 49  24  49  1   
 50  25  27  1   
 51  25  50  1   
 52  25  51  1   
 53  26  27  1   
 54  26  52  1   
 55  26  53  1   
 56  27  54  1   
 57  27  55  1   
@<TRIPOS>SUBSTRUCTURE
  1 ****  11 GROUP 4 **** **** 0

# MOE 2024.06 (io_trps.svl 2023.06)
