@<TRIPOS>MOLECULE
NONAME
55 57 1 0 0 
SMALL
USER_CHARGES


@<TRIPOS>ATOM
  1 O       -0.4380    -0.5140     1.5440 O.3   1 <1>  -0.5600 
  2 C       -0.1660    -1.6460     0.7580 C.3   1 <1>   0.2800 
  3 C       -1.7230     0.0490     1.5160 C.3   1 <1>   0.1200 
  4 C       -1.4210    -2.1410    -0.0210 C.3   1 <1>   0.2000 
  5 C        0.3050    -2.7260     1.7570 C.3   1 <1>  -0.1600 
  6 C        0.9770    -1.2100    -0.1860 C.3   1 <1>  -0.1600 
  7 C       -2.1370     0.3050     0.0630 C.3   1 <1>  -0.1600 
  8 O       -1.1020    -3.2070    -0.8740 O.3   1 <1>  -0.6800 
  9 C       -2.1900    -1.0020    -0.7510 C.3   1 <1>   0.2800 
 10 C        1.3580    -3.6210     1.1150 C.3   1 <1>   0.3430 
 11 C        2.3230    -1.3730     0.5030 C.3   1 <1>   0.3430 
 12 O       -3.5080    -1.4060    -0.8110 O.3   1 <1>  -0.6800 
 13 C       -1.7820    -0.7490    -2.2100 C.3   1 <1>  -0.2400 
 14 N        2.5860    -2.8280     0.7820 N.4   1 <1>  -0.9590 
 15 C        3.3220    -3.4830    -0.3340 C.3   1 <1>   0.4860 
 16 C        4.6890    -2.8390    -0.4690 C.ar  1 <1>  -0.1440 
 17 C        4.9520    -1.9880    -1.5330 C.ar  1 <1>  -0.1500 
 18 C        5.6850    -3.0920     0.4650 C.ar  1 <1>  -0.1500 
 19 C        6.1920    -1.3870    -1.6510 C.ar  1 <1>  -0.1500 
 20 C        6.9250    -2.4910     0.3460 C.ar  1 <1>  -0.1500 
 21 C        7.1840    -1.6290    -0.7160 C.ar  1 <1>   0.0820 
 22 O        8.3680    -0.9980    -0.9080 O.3   1 <1>  -0.3630 
 23 C        9.4710    -1.2220    -0.0550 C.3   1 <1>   0.1200 
 24 C       10.6600    -0.4230    -0.5850 C.3   1 <1>   0.1200 
 25 O       11.7310    -0.5610     0.2880 O.3   1 <1>  -0.6800 
 26 H       -2.4090    -0.6190     2.0110 H     1 <1>   0.0800 
 27 H       -1.6860     0.9740     2.0670 H     1 <1>   0.0800 
 28 H       -2.0970    -2.5500     0.7120 H     1 <1>   0.0800 
 29 H        0.7210    -2.2760     2.6410 H     1 <1>   0.0800 
 30 H       -0.5250    -3.3350     2.0680 H     1 <1>   0.0800 
 31 H        0.9850    -1.7900    -1.0900 H     1 <1>   0.0800 
 32 H        0.8430    -0.1810    -0.4680 H     1 <1>   0.0800 
 33 H       -1.4100     0.9760    -0.3590 H     1 <1>   0.0800 
 34 H       -3.0860     0.8100     0.0390 H     1 <1>   0.0800 
 35 H       -1.9250    -3.4660    -1.3440 H     1 <1>   0.4000 
 36 H        0.9370    -4.0400     0.2140 H     1 <1>   0.0800 
 37 H        1.6090    -4.4320     1.7790 H     1 <1>   0.0800 
 38 H        2.2920    -0.8270     1.4330 H     1 <1>   0.0800 
 39 H        3.1090    -0.9510    -0.1020 H     1 <1>   0.0800 
 40 H       -4.0340    -0.7520    -1.3090 H     1 <1>   0.4000 
 41 H       -0.7490    -0.4640    -2.2710 H     1 <1>   0.0800 
 42 H       -2.3670     0.0490    -2.6320 H     1 <1>   0.0800 
 43 H       -1.9200    -1.6320    -2.8070 H     1 <1>   0.0800 
 44 H        3.2190    -2.8490     1.5910 H     1 <1>   0.4500 
 45 H        3.4470    -4.5340    -0.1290 H     1 <1>   0.0800 
 46 H        2.7710    -3.3790    -1.2540 H     1 <1>   0.0800 
 47 H        4.2050    -1.7830    -2.2810 H     1 <1>   0.1500 
 48 H        5.5130    -3.7610     1.2910 H     1 <1>   0.1500 
 49 H        6.4040    -0.7250    -2.4720 H     1 <1>   0.1500 
 50 H        7.6770    -2.7040     1.0830 H     1 <1>   0.1500 
 51 H        9.2020    -0.8930     0.9320 H     1 <1>   0.0800 
 52 H        9.6990    -2.2740    -0.0640 H     1 <1>   0.0800 
 53 H       10.4200     0.6230    -0.6660 H     1 <1>   0.0800 
 54 H       10.9660    -0.8040    -1.5440 H     1 <1>   0.0800 
 55 H       11.5850    -0.0450     1.1050 H     1 <1>   0.4000 
@<TRIPOS>BOND
  1   1   2  1   
  2   1   3  1   
  3   2   4  1   
  4   2   5  1   
  5   2   6  1   
  6   3   7  1   
  7   3  26  1   
  8   3  27  1   
  9   4   8  1   
 10   4   9  1   
 11   4  28  1   
 12   5  10  1   
 13   5  29  1   
 14   5  30  1   
 15   6  11  1   
 16   6  31  1   
 17   6  32  1   
 18   7   9  1   
 19   7  33  1   
 20   7  34  1   
 21   8  35  1   
 22   9  12  1   
 23   9  13  1   
 24  10  14  1   
 25  10  36  1   
 26  10  37  1   
 27  11  14  1   
 28  11  38  1   
 29  11  39  1   
 30  12  40  1   
 31  13  41  1   
 32  13  42  1   
 33  13  43  1   
 34  14  15  1   
 35  14  44  1   
 36  15  16  1   
 37  15  45  1   
 38  15  46  1   
 39  16  17  ar  
 40  16  18  ar  
 41  17  19  ar  
 42  17  47  1   
 43  18  20  ar  
 44  18  48  1   
 45  19  21  ar  
 46  19  49  1   
 47  20  21  ar  
 48  20  50  1   
 49  21  22  1   
 50  22  23  1   
 51  23  24  1   
 52  23  51  1   
 53  23  52  1   
 54  24  25  1   
 55  24  53  1   
 56  24  54  1   
 57  25  55  1   
@<TRIPOS>SUBSTRUCTURE
  1 ****  11 GROUP 4 **** **** 0

# MOE 2024.06 (io_trps.svl 2023.06)
