@<TRIPOS>MOLECULE
NONAME
43 47 1 0 0 
SMALL
USER_CHARGES


@<TRIPOS>ATOM
  1 N        0.3300     0.3310     1.3650 N.ar  1 <1>  -0.6200 
  2 C       -0.3890     1.3150     1.8860 C.ar  1 <1>   0.7200 
  3 C        1.2220     0.7270     0.4880 C.ar  1 <1>   0.1660 
  4 N       -0.3260     2.6140     1.6290 N.ar  1 <1>  -0.6200 
  5 N       -1.3190     0.9460     2.7680 N.pl3 1 <1>  -0.9000 
  6 C        1.3950     2.0380     0.1480 C.ar  1 <1>  -0.1430 
  7 C        2.1860    -0.1740    -0.2630 C.3   1 <1>   0.1430 
  8 C        0.5850     2.9690     0.7510 C.ar  1 <1>   0.1600 
  9 C        2.4950     2.2180    -0.8680 C.3   1 <1>  -0.0170 
 10 C        3.2810    -0.6550     0.7120 C.3   1 <1>   0.2090 
 11 C        1.4810    -1.3950    -0.8920 C.3   1 <1>  -0.1600 
 12 C        2.7560     0.7800    -1.3490 C.3   1 <1>  -0.1600 
 13 N        4.2480    -1.5760     0.0330 N.pl3 1 <1>  -0.8380 
 14 C        2.4980    -2.3430    -1.5540 C.3   1 <1>  -0.1600 
 15 C        5.5470    -1.6720     0.5040 C.ar  1 <1>   0.4100 
 16 C        3.6000    -2.7720    -0.5780 C.3   1 <1>   0.2090 
 17 N        5.9920    -2.8660     0.8310 N.ar  1 <1>  -0.6200 
 18 C        6.3770    -0.5450     0.6410 C.ar  1 <1>   0.0000 
 19 C        7.2400    -2.9330     1.3110 C.ar  1 <1>   0.4700 
 20 C        7.6400    -0.7620     1.1510 C.ar  1 <1>   0.1050 
 21 C        6.3030     0.8450     0.3790 C.2   1 <1>  -0.1500 
 22 N        8.0990    -1.9640     1.5010 N.ar  1 <1>  -0.5670 
 23 N        8.3110     0.4200     1.2180 N.pl3 1 <1>   0.0330 
 24 C        7.4850     1.4010     0.7410 C.2   1 <1>  -0.3020 
 25 H       -2.0610     1.6230     2.9200 H     1 <1>   0.4000 
 26 H       -1.5860    -0.0320     2.7290 H     1 <1>   0.4000 
 27 H        0.6850     4.0140     0.5120 H     1 <1>   0.1500 
 28 H        3.3670     2.6270    -0.3890 H     1 <1>   0.0800 
 29 H        2.1890     2.8560    -1.6790 H     1 <1>   0.0800 
 30 H        2.8150    -1.1860     1.5250 H     1 <1>   0.0800 
 31 H        3.7940     0.1900     1.1320 H     1 <1>   0.0800 
 32 H        0.7480    -1.0740    -1.6100 H     1 <1>   0.0800 
 33 H        0.9610    -1.9330    -0.1180 H     1 <1>   0.0800 
 34 H        2.2150     0.6370    -2.2680 H     1 <1>   0.0800 
 35 H        3.7970     0.6000    -1.5470 H     1 <1>   0.0800 
 36 H        2.9570    -1.8630    -2.4000 H     1 <1>   0.0800 
 37 H        1.9900    -3.2190    -1.9140 H     1 <1>   0.0800 
 38 H        3.1840    -3.3830     0.2050 H     1 <1>   0.0800 
 39 H        4.3360    -3.3560    -1.1050 H     1 <1>   0.0800 
 40 H        7.5710    -3.9230     1.5750 H     1 <1>   0.1500 
 41 H        5.4450     1.3340    -0.0400 H     1 <1>   0.1500 
 42 H        9.2700     0.5120     1.5630 H     1 <1>   0.2700 
 43 H        7.7950     2.4310     0.6860 H     1 <1>   0.1500 
@<TRIPOS>BOND
  1   1   2  ar  
  2   1   3  ar  
  3   2   4  ar  
  4   2   5  1   
  5   3   6  ar  
  6   3   7  1   
  7   4   8  ar  
  8   5  25  1   
  9   5  26  1   
 10   6   8  ar  
 11   6   9  1   
 12   7  10  1   
 13   7  11  1   
 14   7  12  1   
 15   8  27  1   
 16   9  12  1   
 17   9  28  1   
 18   9  29  1   
 19  10  13  1   
 20  10  30  1   
 21  10  31  1   
 22  11  14  1   
 23  11  32  1   
 24  11  33  1   
 25  12  34  1   
 26  12  35  1   
 27  13  15  1   
 28  13  16  1   
 29  14  16  1   
 30  14  36  1   
 31  14  37  1   
 32  15  17  ar  
 33  15  18  ar  
 34  16  38  1   
 35  16  39  1   
 36  17  19  ar  
 37  18  20  ar  
 38  18  21  1   
 39  19  22  ar  
 40  19  40  1   
 41  20  22  ar  
 42  20  23  1   
 43  21  24  2   
 44  21  41  1   
 45  23  24  1   
 46  23  42  1   
 47  24  43  1   
@<TRIPOS>SUBSTRUCTURE
  1 ****  10 GROUP 4 **** **** 0

# MOE 2024.06 (io_trps.svl 2023.06)
