@<TRIPOS>MOLECULE
NONAME
41 42 1 0 0 
SMALL
USER_CHARGES


@<TRIPOS>ATOM
  1 F       -0.3380    -0.3720     0.3860 F     1 <1>  -0.1900 
  2 C       -0.8690    -1.5690     0.4120 C.ar  1 <1>   0.1900 
  3 C       -0.4030    -2.6060    -0.4030 C.ar  1 <1>   0.0820 
  4 C       -1.9150    -1.7580     1.2950 C.ar  1 <1>  -0.1500 
  5 O        0.6160    -2.5420    -1.3100 O.3   1 <1>  -0.3630 
  6 C       -1.0270    -3.8380    -0.2950 C.ar  1 <1>  -0.1500 
  7 C       -2.5120    -3.0010     1.3780 C.ar  1 <1>  -0.1500 
  8 C        1.2890    -1.3440    -1.6260 C.3   1 <1>   0.0400 
  9 C       -2.0870    -4.0680     0.5850 C.ar  1 <1>   0.0530 
 10 C       -2.6910    -5.3760     0.6760 C.2   1 <1>   0.0870 
 11 O       -1.9160    -6.4320     0.5810 O.3   1 <1>  -0.0190 
 12 C       -3.9610    -5.8340     0.8520 C.2   1 <1>  -0.2330 
 13 N       -2.5680    -7.5560     0.6980 N.2   1 <1>  -0.4100 
 14 C       -3.7970    -7.2200     0.8700 C.2   1 <1>   0.3720 
 15 C       -5.2230    -5.1580     0.9600 C.2   1 <1>   1.0330 
 16 N       -4.8270    -8.1280     1.0570 N.pl3 1 <1>  -0.8520 
 17 O       -5.2990    -3.9240     0.8590 O.co2 1 <1>  -0.9000 
 18 O       -6.2810    -5.7930     1.1370 O.co2 1 <1>  -0.9000 
 19 C       -4.9320    -9.2380     0.0970 C.3   1 <1>   0.2890 
 20 C       -6.2020    -9.1120    -0.7830 C.3   1 <1>  -0.0800 
 21 C       -4.8960   -10.5320     0.9070 C.3   1 <1>  -0.2400 
 22 C       -6.0950    -7.9200    -1.7480 C.3   1 <1>  -0.2400 
 23 C       -7.5180    -9.0080     0.0110 C.3   1 <1>  -0.2400 
 24 H       -2.2610    -0.9460     1.9070 H     1 <1>   0.1500 
 25 H       -0.6820    -4.6450    -0.9150 H     1 <1>   0.1500 
 26 H       -3.3290    -3.1520     2.0630 H     1 <1>   0.1500 
 27 H        1.9990    -1.5550    -2.4050 H     1 <1>   0.0800 
 28 H        1.8040    -0.9900    -0.7510 H     1 <1>   0.0800 
 29 H        0.5710    -0.6210    -1.9720 H     1 <1>   0.0800 
 30 H       -5.7100    -7.5750     1.0760 H     1 <1>   0.4000 
 31 H       -4.0740    -9.2330    -0.5540 H     1 <1>   0.0800 
 32 H       -6.2550   -10.0000    -1.3870 H     1 <1>   0.0800 
 33 H       -5.6830   -10.5450     1.6380 H     1 <1>   0.0800 
 34 H       -3.9510   -10.6030     1.4150 H     1 <1>   0.0800 
 35 H       -5.0010   -11.3810     0.2580 H     1 <1>   0.0800 
 36 H       -6.0990    -6.9910    -1.2050 H     1 <1>   0.0800 
 37 H       -6.9260    -7.9130    -2.4300 H     1 <1>   0.0800 
 38 H       -5.1840    -7.9750    -2.3170 H     1 <1>   0.0800 
 39 H       -7.5300    -8.1180     0.6160 H     1 <1>   0.0800 
 40 H       -7.6510    -9.8590     0.6520 H     1 <1>   0.0800 
 41 H       -8.3540    -8.9620    -0.6630 H     1 <1>   0.0800 
@<TRIPOS>BOND
  1   1   2  1   
  2   2   3  ar  
  3   2   4  ar  
  4   3   5  1   
  5   3   6  ar  
  6   4   7  ar  
  7   4  24  1   
  8   5   8  1   
  9   6   9  ar  
 10   6  25  1   
 11   7   9  ar  
 12   7  26  1   
 13   8  27  1   
 14   8  28  1   
 15   8  29  1   
 16   9  10  1   
 17  10  11  1   
 18  10  12  2   
 19  11  13  1   
 20  12  14  1   
 21  12  15  1   
 22  13  14  2   
 23  14  16  1   
 24  15  17  ar  
 25  15  18  ar  
 26  16  19  1   
 27  16  30  1   
 28  19  20  1   
 29  19  21  1   
 30  19  31  1   
 31  20  22  1   
 32  20  23  1   
 33  20  32  1   
 34  21  33  1   
 35  21  34  1   
 36  21  35  1   
 37  22  36  1   
 38  22  37  1   
 39  22  38  1   
 40  23  39  1   
 41  23  40  1   
 42  23  41  1   
@<TRIPOS>SUBSTRUCTURE
  1 ****  10 GROUP 4 **** **** 0

# MOE 2024.06 (io_trps.svl 2023.06)
