@<TRIPOS>MOLECULE
NONAME
62 64 1 0 0 
SMALL
USER_CHARGES


@<TRIPOS>ATOM
  1 CL       1.8960     1.1020     2.3220 Cl    1 <1>  -0.1770 
  2 C        2.3550    -0.3200     1.4220 C.ar  1 <1>   0.1770 
  3 C        3.6000    -0.8790     1.6310 C.ar  1 <1>  -0.1500 
  4 C        1.4530    -0.8630     0.5260 C.ar  1 <1>  -0.1500 
  5 C        3.9650    -2.0140     0.9160 C.ar  1 <1>   0.0830 
  6 C        1.8060    -1.9930    -0.1960 C.ar  1 <1>  -0.1440 
  7 O        5.1510    -2.6530     1.1150 O.3   1 <1>  -0.3620 
  8 C        3.0710    -2.5470    -0.0230 C.ar  1 <1>   0.0830 
  9 C        0.8230    -2.6260    -1.1660 C.3   1 <1>   0.4870 
 10 C        6.1650    -2.0950     1.9260 C.3   1 <1>   0.0400 
 11 O        3.3840    -3.6460    -0.7610 O.3   1 <1>  -0.3630 
 12 N       -0.0180    -3.6330    -0.4450 N.4   1 <1>  -0.9590 
 13 C        4.4600    -3.5590    -1.6760 C.3   1 <1>   0.2000 
 14 C        0.8690    -4.7350     0.0910 C.3   1 <1>   0.3430 
 15 C       -1.0710    -4.1580    -1.3630 C.3   1 <1>   0.3430 
 16 C        3.9180    -3.0490    -3.0110 C.3   1 <1>  -0.2400 
 17 C        5.0540    -4.9570    -1.8100 C.3   1 <1>  -0.2400 
 18 C        0.1220    -5.9460     0.7170 C.3   1 <1>   0.4230 
 19 C       -1.8710    -5.2740    -0.6770 C.3   1 <1>  -0.1600 
 20 N        1.0290    -7.0420     1.2710 N.4   1 <1>  -0.9590 
 21 C       -1.0080    -6.4790    -0.2070 C.3   1 <1>   0.0000 
 22 C        0.3290    -8.3510     1.5040 C.3   1 <1>   0.3430 
 23 C        2.2820    -7.2780     0.4730 C.3   1 <1>   0.2630 
 24 C       -1.9060    -7.4330     0.6300 C.3   1 <1>  -0.1600 
 25 C       -0.4950    -7.2660    -1.4500 C.3   1 <1>   0.1200 
 26 C       -1.1610    -8.1380     1.7850 C.3   1 <1>  -0.1600 
 27 O        0.4950    -6.5730    -2.1300 O.3   1 <1>  -0.6800 
 28 H        4.2490    -0.4200     2.3520 H     1 <1>   0.1500 
 29 H        0.4940    -0.3870     0.4100 H     1 <1>   0.1500 
 30 H        1.3640    -3.1020    -1.9680 H     1 <1>   0.0800 
 31 H        0.1990    -1.8560    -1.5920 H     1 <1>   0.0800 
 32 H        7.0250    -2.7380     1.8770 H     1 <1>   0.0800 
 33 H        5.8130    -2.0370     2.9410 H     1 <1>   0.0800 
 34 H        6.4190    -1.1190     1.5500 H     1 <1>   0.0800 
 35 H       -0.4620    -3.1340     0.3370 H     1 <1>   0.4500 
 36 H        5.2060    -2.8800    -1.2980 H     1 <1>   0.0800 
 37 H        1.4810    -5.0960    -0.7180 H     1 <1>   0.0800 
 38 H        1.5270    -4.3230     0.8370 H     1 <1>   0.0800 
 39 H       -1.7400    -3.3620    -1.6500 H     1 <1>   0.0800 
 40 H       -0.6150    -4.5440    -2.2610 H     1 <1>   0.0800 
 41 H        3.1630    -3.7090    -3.3970 H     1 <1>   0.0800 
 42 H        4.7200    -3.0000    -3.7270 H     1 <1>   0.0800 
 43 H        3.5190    -2.0570    -2.8990 H     1 <1>   0.0800 
 44 H        4.3220    -5.6520    -2.1800 H     1 <1>   0.0800 
 45 H        5.4250    -5.2890    -0.8560 H     1 <1>   0.0800 
 46 H        5.8810    -4.9350    -2.4980 H     1 <1>   0.0800 
 47 H       -0.3940    -5.5380     1.5710 H     1 <1>   0.0800 
 48 H       -2.3950    -4.8390     0.1570 H     1 <1>   0.0800 
 49 H       -2.6230    -5.6210    -1.3650 H     1 <1>   0.0800 
 50 H        1.3340    -6.7260     2.2050 H     1 <1>   0.4500 
 51 H        0.4270    -8.9790     0.6340 H     1 <1>   0.0800 
 52 H        0.7860    -8.8690     2.3330 H     1 <1>   0.0800 
 53 H        2.0400    -7.5950    -0.5280 H     1 <1>   0.0800 
 54 H        2.8820    -8.0460     0.9370 H     1 <1>   0.0800 
 55 H        2.8760    -6.3800     0.4140 H     1 <1>   0.0800 
 56 H       -2.7330    -6.8970     1.0680 H     1 <1>   0.0800 
 57 H       -2.3470    -8.1770    -0.0140 H     1 <1>   0.0800 
 58 H       -1.3060    -7.4450    -2.1390 H     1 <1>   0.0800 
 59 H       -0.0870    -8.2210    -1.1720 H     1 <1>   0.0800 
 60 H       -1.6230    -9.0930     1.9700 H     1 <1>   0.0800 
 61 H       -1.2630    -7.5660     2.6920 H     1 <1>   0.0800 
 62 H        0.7040    -7.0240    -2.9810 H     1 <1>   0.4000 
@<TRIPOS>BOND
  1   1   2  1   
  2   2   3  ar  
  3   2   4  ar  
  4   3   5  ar  
  5   3  28  1   
  6   4   6  ar  
  7   4  29  1   
  8   5   7  1   
  9   5   8  ar  
 10   6   8  ar  
 11   6   9  1   
 12   7  10  1   
 13   8  11  1   
 14   9  12  1   
 15   9  30  1   
 16   9  31  1   
 17  10  32  1   
 18  10  33  1   
 19  10  34  1   
 20  11  13  1   
 21  12  14  1   
 22  12  15  1   
 23  12  35  1   
 24  13  16  1   
 25  13  17  1   
 26  13  36  1   
 27  14  18  1   
 28  14  37  1   
 29  14  38  1   
 30  15  19  1   
 31  15  39  1   
 32  15  40  1   
 33  16  41  1   
 34  16  42  1   
 35  16  43  1   
 36  17  44  1   
 37  17  45  1   
 38  17  46  1   
 39  18  20  1   
 40  18  21  1   
 41  18  47  1   
 42  19  21  1   
 43  19  48  1   
 44  19  49  1   
 45  20  22  1   
 46  20  23  1   
 47  20  50  1   
 48  21  24  1   
 49  21  25  1   
 50  22  26  1   
 51  22  51  1   
 52  22  52  1   
 53  23  53  1   
 54  23  54  1   
 55  23  55  1   
 56  24  26  1   
 57  24  56  1   
 58  24  57  1   
 59  25  27  1   
 60  25  58  1   
 61  25  59  1   
 62  26  60  1   
 63  26  61  1   
 64  27  62  1   
@<TRIPOS>SUBSTRUCTURE
  1 ****  14 GROUP 4 **** **** 0

# MOE 2024.06 (io_trps.svl 2023.06)
