@<TRIPOS>MOLECULE
NONAME
41 42 1 0 0 
SMALL
USER_CHARGES


@<TRIPOS>ATOM
  1 O        0.5810     0.5700    -0.2780 O.3   1 <1>  -0.3620 
  2 C        0.3870     1.8720    -0.0810 C.ar  1 <1>   0.3920 
  3 C       -0.4270    -0.3010    -0.7560 C.3   1 <1>   0.0400 
  4 N       -0.8090     2.3940    -0.3400 N.ar  1 <1>  -0.6200 
  5 C        1.4520     2.6140     0.3850 C.ar  1 <1>  -0.1500 
  6 C       -0.9280     3.6780    -0.1210 C.ar  1 <1>   0.7710 
  7 C        1.2990     3.9690     0.6020 C.ar  1 <1>   0.4610 
  8 N        0.0750     4.4530     0.3340 N.ar  1 <1>  -0.1790 
  9 N       -2.1230     4.2160    -0.3700 N.pl3 1 <1>  -0.9000 
 10 N        2.2720     4.8160     1.0680 N.pl3 1 <1>  -0.8380 
 11 C        3.5320     4.2800     1.6760 C.3   1 <1>   0.2090 
 12 C        2.1860     6.3160     1.0320 C.3   1 <1>   0.2090 
 13 C        4.5850     4.0370     0.5890 C.3   1 <1>  -0.1600 
 14 C        3.5120     7.0190     0.7150 C.3   1 <1>  -0.1600 
 15 C        5.3070     5.2970     0.0720 C.3   1 <1>  -0.0800 
 16 C        4.3320     6.3870    -0.4230 C.3   1 <1>  -0.1600 
 17 C        6.2940     4.8740    -1.0370 C.3   1 <1>  -0.1600 
 18 C        7.2970     5.9680    -1.4280 C.3   1 <1>  -0.2400 
 19 H       -0.0130    -1.2920    -0.8250 H     1 <1>   0.0800 
 20 H       -0.7460     0.0330    -1.7280 H     1 <1>   0.0800 
 21 H       -1.2520    -0.2950    -0.0660 H     1 <1>   0.0800 
 22 H        2.3830     2.1140     0.5630 H     1 <1>   0.1500 
 23 H       -0.1080     5.4250     0.5110 H     1 <1>   0.4570 
 24 H       -2.4210     5.1880    -0.2760 H     1 <1>   0.4000 
 25 H       -2.8590     3.5890    -0.7130 H     1 <1>   0.4000 
 26 H        3.3210     3.3520     2.1800 H     1 <1>   0.0800 
 27 H        3.9130     4.9550     2.4240 H     1 <1>   0.0800 
 28 H        1.8270     6.6720     1.9840 H     1 <1>   0.0800 
 29 H        1.4850     6.6190     0.2750 H     1 <1>   0.0800 
 30 H        4.1370     3.5150    -0.2360 H     1 <1>   0.0800 
 31 H        5.3300     3.3820     1.0080 H     1 <1>   0.0800 
 32 H        4.1110     7.0960     1.6050 H     1 <1>   0.0800 
 33 H        3.2730     8.0300     0.4330 H     1 <1>   0.0800 
 34 H        5.8860     5.7030     0.8840 H     1 <1>   0.0800 
 35 H        4.9030     7.1800    -0.8700 H     1 <1>   0.0800 
 36 H        3.6840     5.9920    -1.1870 H     1 <1>   0.0800 
 37 H        5.7500     4.5610    -1.9120 H     1 <1>   0.0800 
 38 H        6.8620     4.0260    -0.6930 H     1 <1>   0.0800 
 39 H        6.8120     6.7870    -1.9270 H     1 <1>   0.0800 
 40 H        8.0310     5.5620    -2.1020 H     1 <1>   0.0800 
 41 H        7.8090     6.3420    -0.5580 H     1 <1>   0.0800 
@<TRIPOS>BOND
  1   1   2  1   
  2   1   3  1   
  3   2   4  ar  
  4   2   5  ar  
  5   3  19  1   
  6   3  20  1   
  7   3  21  1   
  8   4   6  ar  
  9   5   7  ar  
 10   5  22  1   
 11   6   8  ar  
 12   6   9  1   
 13   7   8  ar  
 14   7  10  1   
 15   8  23  1   
 16   9  24  1   
 17   9  25  1   
 18  10  11  1   
 19  10  12  1   
 20  11  13  1   
 21  11  26  1   
 22  11  27  1   
 23  12  14  1   
 24  12  28  1   
 25  12  29  1   
 26  13  15  1   
 27  13  30  1   
 28  13  31  1   
 29  14  16  1   
 30  14  32  1   
 31  14  33  1   
 32  15  16  1   
 33  15  17  1   
 34  15  34  1   
 35  16  35  1   
 36  16  36  1   
 37  17  18  1   
 38  17  37  1   
 39  17  38  1   
 40  18  39  1   
 41  18  40  1   
 42  18  41  1   
@<TRIPOS>SUBSTRUCTURE
  1 ****   7 GROUP 4 **** **** 0

# MOE 2024.06 (io_trps.svl 2023.06)
