@<TRIPOS>MOLECULE
NONAME
56 59 1 0 0 
SMALL
USER_CHARGES


@<TRIPOS>ATOM
  1 S       -0.0970     0.0320     0.3210 S.3   1 <1>  -0.0800 
  2 C        0.9490     1.4150     0.0150 C.2   1 <1>   0.3250 
  3 C       -1.4150     1.0960     0.7000 C.2   1 <1>  -0.1400 
  4 N        0.3330     2.5320     0.1920 N.2   1 <1>  -0.5650 
  5 C        2.3180     1.1560    -0.3810 C.ar  1 <1>   0.0530 
  6 C       -0.9750     2.3580     0.5780 C.2   1 <1>   0.0770 
  7 C       -2.7260     0.4390     1.0750 C.3   1 <1>   0.5230 
  8 C        3.4130     1.8510     0.1560 C.ar  1 <1>  -0.1440 
  9 C        2.5840     0.1750    -1.3400 C.ar  1 <1>  -0.1500 
 10 N       -3.8530     1.4050     0.9350 N.4   1 <1>  -0.9590 
 11 C        4.7020     1.5590    -0.2620 C.ar  1 <1>  -0.1500 
 12 C        3.2280     2.9350     1.2110 C.3   1 <1>  -0.0970 
 13 C        3.8710    -0.1130    -1.7500 C.ar  1 <1>  -0.1500 
 14 C       -5.1010     0.8670     1.5430 C.3   1 <1>   0.3430 
 15 C       -4.0610     1.8010    -0.4900 C.3   1 <1>   0.3430 
 16 C        4.9350     0.5810    -1.2100 C.ar  1 <1>  -0.1500 
 17 C       -6.1970     1.9260     1.4830 C.3   1 <1>  -0.1600 
 18 C       -5.1290     2.8880    -0.5660 C.3   1 <1>  -0.1600 
 19 C       -6.4600     2.4300     0.0540 C.3   1 <1>   0.2800 
 20 O       -7.2580     3.5590     0.2180 O.3   1 <1>  -0.5600 
 21 C       -7.1910     1.3770    -0.8200 C.3   1 <1>  -0.1600 
 22 C       -7.9530     4.0460    -0.8940 C.3   1 <1>   0.1200 
 23 C       -8.7100     1.6020    -0.8780 C.3   1 <1>   0.2800 
 24 C       -9.0120     3.0330    -1.3550 C.3   1 <1>  -0.1600 
 25 O       -9.2010     0.7190    -1.8280 O.3   1 <1>  -0.6800 
 26 C       -9.4140     1.2880     0.4670 C.3   1 <1>   0.1200 
 27 O      -10.7840     1.1540     0.2850 O.3   1 <1>  -0.6800 
 28 H       -1.5450     3.2560     0.7530 H     1 <1>   0.1500 
 29 H       -2.6600     0.0850     2.0910 H     1 <1>   0.0800 
 30 H       -2.8940    -0.4100     0.4320 H     1 <1>   0.0800 
 31 H        1.7710    -0.3720    -1.7810 H     1 <1>   0.1500 
 32 H       -3.5920     2.2500     1.4620 H     1 <1>   0.4500 
 33 H        5.5410     2.0940     0.1490 H     1 <1>   0.1500 
 34 H        2.6060     2.5750     2.0110 H     1 <1>   0.0800 
 35 H        2.7620     3.7970     0.7690 H     1 <1>   0.0800 
 36 H        4.1710     3.2360     1.6300 H     1 <1>   0.0800 
 37 H        4.0470    -0.8740    -2.4910 H     1 <1>   0.1500 
 38 H       -4.9260     0.5960     2.5730 H     1 <1>   0.0800 
 39 H       -5.4190    -0.0160     1.0110 H     1 <1>   0.0800 
 40 H       -4.3720     0.9460    -1.0680 H     1 <1>   0.0800 
 41 H       -3.1420     2.1770    -0.9120 H     1 <1>   0.0800 
 42 H        5.9410     0.3630    -1.5260 H     1 <1>   0.1500 
 43 H       -5.9090     2.7550     2.1060 H     1 <1>   0.0800 
 44 H       -7.0950     1.5140     1.9020 H     1 <1>   0.0800 
 45 H       -5.2690     3.1550    -1.5970 H     1 <1>   0.0800 
 46 H       -4.7730     3.7640    -0.0510 H     1 <1>   0.0800 
 47 H       -6.9900     0.3810    -0.4730 H     1 <1>   0.0800 
 48 H       -6.8130     1.4390    -1.8250 H     1 <1>   0.0800 
 49 H       -7.2490     4.2530    -1.6810 H     1 <1>   0.0800 
 50 H       -8.4240     4.9710    -0.6090 H     1 <1>   0.0800 
 51 H       -9.0640     3.0800    -2.4270 H     1 <1>   0.0800 
 52 H       -9.9710     3.3460    -0.9790 H     1 <1>   0.0800 
 53 H       -9.0250     1.0530    -2.7280 H     1 <1>   0.4000 
 54 H       -9.2510     2.0740     1.1840 H     1 <1>   0.0800 
 55 H       -9.0500     0.3610     0.8700 H     1 <1>   0.0800 
 56 H      -10.9230     0.6550    -0.5490 H     1 <1>   0.4000 
@<TRIPOS>BOND
  1   1   2  1   
  2   1   3  1   
  3   2   4  2   
  4   2   5  1   
  5   3   6  2   
  6   3   7  1   
  7   4   6  1   
  8   5   8  ar  
  9   5   9  ar  
 10   6  28  1   
 11   7  10  1   
 12   7  29  1   
 13   7  30  1   
 14   8  11  ar  
 15   8  12  1   
 16   9  13  ar  
 17   9  31  1   
 18  10  14  1   
 19  10  15  1   
 20  10  32  1   
 21  11  16  ar  
 22  11  33  1   
 23  12  34  1   
 24  12  35  1   
 25  12  36  1   
 26  13  16  ar  
 27  13  37  1   
 28  14  17  1   
 29  14  38  1   
 30  14  39  1   
 31  15  18  1   
 32  15  40  1   
 33  15  41  1   
 34  16  42  1   
 35  17  19  1   
 36  17  43  1   
 37  17  44  1   
 38  18  19  1   
 39  18  45  1   
 40  18  46  1   
 41  19  20  1   
 42  19  21  1   
 43  20  22  1   
 44  21  23  1   
 45  21  47  1   
 46  21  48  1   
 47  22  24  1   
 48  22  49  1   
 49  22  50  1   
 50  23  24  1   
 51  23  25  1   
 52  23  26  1   
 53  24  51  1   
 54  24  52  1   
 55  25  53  1   
 56  26  27  1   
 57  26  54  1   
 58  26  55  1   
 59  27  56  1   
@<TRIPOS>SUBSTRUCTURE
  1 ****  15 GROUP 4 **** **** 0

# MOE 2024.06 (io_trps.svl 2023.06)
