@<TRIPOS>MOLECULE
NONAME
47 48 1 0 0 
SMALL
USER_CHARGES


@<TRIPOS>ATOM
  1 S        1.2640     0.6280     1.3040 S.o2  1 <1>   1.3330 
  2 O        1.4110    -0.6100     2.0360 O.2   1 <1>  -0.6500 
  3 O        1.5550     1.8860     1.9550 O.2   1 <1>  -0.6500 
  4 N       -0.3250     0.6930     0.7090 N.am  1 <1>  -0.8490 
  5 C        2.2520     0.5440    -0.1870 C.3   1 <1>  -0.0550 
  6 C       -1.2310     1.3970     1.6210 C.3   1 <1>   0.1160 
  7 C       -0.8780    -0.6230     0.3730 C.3   1 <1>   0.1160 
  8 C        3.7620     0.5130     0.0990 C.3   1 <1>  -0.0800 
  9 C        4.5970     0.6370    -1.1660 C.3   1 <1>   0.2200 
 10 C        4.2710    -0.7830     0.7170 C.3   1 <1>   0.1200 
 11 N        5.0100     2.0440    -1.3330 N.am  1 <1>  -0.7300 
 12 C        5.7780    -0.3060    -0.9280 C.3   1 <1>   0.1200 
 13 O        5.6090    -0.8430     0.3490 O.3   1 <1>  -0.5600 
 14 C        4.3290     2.9600    -2.0660 C.2   1 <1>   0.5690 
 15 O        3.4140     2.6400    -2.7850 O.2   1 <1>  -0.5700 
 16 C        4.6970     4.4300    -1.9450 C.3   1 <1>   0.0440 
 17 C        5.4460     4.7420    -0.6460 C.ar  1 <1>  -0.1440 
 18 C        4.7960     4.7960     0.5890 C.ar  1 <1>  -0.1440 
 19 C        6.8160     4.9590    -0.7060 C.ar  1 <1>  -0.1500 
 20 C        5.5210     5.0600     1.7450 C.ar  1 <1>  -0.1500 
 21 C        3.2930     4.5720     0.7190 C.3   1 <1>  -0.0970 
 22 C        7.5080     5.2200     0.4600 C.ar  1 <1>   0.1900 
 23 C        6.8870     5.2740     1.6890 C.ar  1 <1>  -0.1500 
 24 F        8.7970     5.4190     0.3950 F     1 <1>  -0.1900 
 25 H        1.9770    -0.3210    -0.7570 H     1 <1>   0.0800 
 26 H        2.0340     1.4090    -0.7840 H     1 <1>   0.0800 
 27 H       -2.2240     1.4350     1.2060 H     1 <1>   0.0800 
 28 H       -0.8920     2.4080     1.7710 H     1 <1>   0.0800 
 29 H       -1.2630     0.8980     2.5760 H     1 <1>   0.0800 
 30 H       -1.8490    -0.5110    -0.0800 H     1 <1>   0.0800 
 31 H       -0.9730    -1.2300     1.2590 H     1 <1>   0.0800 
 32 H       -0.2360    -1.1290    -0.3260 H     1 <1>   0.0800 
 33 H        4.0130     1.3090     0.7800 H     1 <1>   0.0800 
 34 H        4.0520     0.3070    -2.0360 H     1 <1>   0.0800 
 35 H        3.7730    -1.6460     0.3090 H     1 <1>   0.0800 
 36 H        4.1970    -0.7880     1.7920 H     1 <1>   0.0800 
 37 H        5.6840     2.3900    -0.6410 H     1 <1>   0.3700 
 38 H        6.7260     0.2000    -0.9670 H     1 <1>   0.0800 
 39 H        5.7630    -1.1200    -1.6320 H     1 <1>   0.0800 
 40 H        5.2980     4.6920    -2.7950 H     1 <1>   0.0800 
 41 H        3.7990     5.0160    -1.9970 H     1 <1>   0.0800 
 42 H        7.3520     4.9270    -1.6370 H     1 <1>   0.1500 
 43 H        5.0240     5.1000     2.6990 H     1 <1>   0.1500 
 44 H        2.9950     4.5260     1.7510 H     1 <1>   0.0800 
 45 H        3.0000     3.6480     0.2580 H     1 <1>   0.0800 
 46 H        2.7580     5.3790     0.2510 H     1 <1>   0.0800 
 47 H        7.4570     5.4790     2.5770 H     1 <1>   0.1500 
@<TRIPOS>BOND
  1   1   2  2   
  2   1   3  2   
  3   1   4  am  
  4   1   5  1   
  5   4   6  1   
  6   4   7  1   
  7   5   8  1   
  8   5  25  1   
  9   5  26  1   
 10   6  27  1   
 11   6  28  1   
 12   6  29  1   
 13   7  30  1   
 14   7  31  1   
 15   7  32  1   
 16   8   9  1   
 17   8  10  1   
 18   8  33  1   
 19   9  11  1   
 20   9  12  1   
 21   9  34  1   
 22  10  13  1   
 23  10  35  1   
 24  10  36  1   
 25  11  14  am  
 26  11  37  1   
 27  12  13  1   
 28  12  38  1   
 29  12  39  1   
 30  14  15  2   
 31  14  16  1   
 32  16  17  1   
 33  16  40  1   
 34  16  41  1   
 35  17  18  ar  
 36  17  19  ar  
 37  18  20  ar  
 38  18  21  1   
 39  19  22  ar  
 40  19  42  1   
 41  20  23  ar  
 42  20  43  1   
 43  21  44  1   
 44  21  45  1   
 45  21  46  1   
 46  22  23  ar  
 47  22  24  1   
 48  23  47  1   
@<TRIPOS>SUBSTRUCTURE
  1 ****   8 GROUP 4 **** **** 0

# MOE 2024.06 (io_trps.svl 2023.06)
