@<TRIPOS>MOLECULE
NONAME
59 61 1 0 0 
SMALL
USER_CHARGES


@<TRIPOS>ATOM
  1 O       -0.2420     1.8040     2.5670 O.2   1 <1>  -0.5700 
  2 C       -0.3180     2.3900     1.5020 C.2   1 <1>   0.5440 
  3 N       -1.5590     2.6050     0.9400 N.am  1 <1>  -0.6600 
  4 C        0.8920     2.8490     0.8590 C.ar  1 <1>   0.0860 
  5 C       -1.7200     3.1960    -0.4190 C.3   1 <1>   0.1400 
  6 C       -2.8070     2.2750     1.6860 C.3   1 <1>   0.1400 
  7 C        1.5240     2.1700    -0.1970 C.ar  1 <1>   0.0830 
  8 C        1.4540     4.0520     1.2830 C.ar  1 <1>  -0.1500 
  9 C       -3.0720     2.7960    -1.0060 C.3   1 <1>  -0.1600 
 10 C       -3.9180     3.2710     1.3420 C.3   1 <1>  -0.1600 
 11 O        1.1000     0.9860    -0.7040 O.3   1 <1>  -0.3620 
 12 C        2.6450     2.7140    -0.8060 C.ar  1 <1>  -0.1500 
 13 C        2.5770     4.5890     0.6830 C.ar  1 <1>   0.0830 
 14 C       -4.2480     3.3650    -0.1730 C.3   1 <1>   0.2800 
 15 C        0.7060    -0.0660     0.1530 C.3   1 <1>   0.0400 
 16 C        3.1760     3.9140    -0.3760 C.ar  1 <1>  -0.1500 
 17 O        3.0280     5.7710     1.1760 O.3   1 <1>  -0.3620 
 18 O       -4.3060     4.7500    -0.4410 O.3   1 <1>  -0.5600 
 19 C       -5.6290     2.6780    -0.4920 C.3   1 <1>   0.2000 
 20 C        4.1770     6.3930     0.6450 C.3   1 <1>   0.0400 
 21 C       -5.0210     5.1870    -1.5540 C.3   1 <1>   0.1200 
 22 O       -5.6160     2.0510    -1.7490 O.3   1 <1>  -0.6800 
 23 C       -6.8100     3.6940    -0.4360 C.3   1 <1>   0.3000 
 24 C       -6.5150     4.8550    -1.4090 C.3   1 <1>  -0.1600 
 25 N       -6.9070     4.3080     0.9110 N.am  1 <1>  -0.7300 
 26 C       -8.1640     3.0680    -0.8130 C.3   1 <1>  -0.2400 
 27 C       -7.3700     3.9050     2.1170 C.2   1 <1>   0.5690 
 28 O       -7.1650     4.5970     3.0790 O.2   1 <1>  -0.5700 
 29 C       -8.1000     2.6020     2.3280 C.3   1 <1>  -0.1790 
 30 H       -1.6520     4.2690    -0.3500 H     1 <1>   0.0800 
 31 H       -0.9380     2.8440    -1.0690 H     1 <1>   0.0800 
 32 H       -3.1120     1.2750     1.4310 H     1 <1>   0.0800 
 33 H       -2.6190     2.3070     2.7460 H     1 <1>   0.0800 
 34 H        0.9980     4.5820     2.0990 H     1 <1>   0.1500 
 35 H       -3.1180     1.7210    -1.0230 H     1 <1>   0.0800 
 36 H       -3.1290     3.1280    -2.0240 H     1 <1>   0.0800 
 37 H       -3.6070     4.2340     1.7100 H     1 <1>   0.0800 
 38 H       -4.7850     2.9900     1.9070 H     1 <1>   0.0800 
 39 H        3.1020     2.1830    -1.6220 H     1 <1>   0.1500 
 40 H        0.8760    -0.9960    -0.3580 H     1 <1>   0.0800 
 41 H       -0.3410     0.0360     0.3770 H     1 <1>   0.0800 
 42 H        1.2920    -0.0300     1.0560 H     1 <1>   0.0800 
 43 H        4.0460     4.3030    -0.8700 H     1 <1>   0.1500 
 44 H       -5.8050     1.8870     0.2150 H     1 <1>   0.0800 
 45 H        4.3470     7.3030     1.1930 H     1 <1>   0.0800 
 46 H        4.0030     6.6190    -0.3920 H     1 <1>   0.0800 
 47 H        5.0180     5.7330     0.7630 H     1 <1>   0.0800 
 48 H       -4.8810     6.2510    -1.6360 H     1 <1>   0.0800 
 49 H       -4.6040     4.7250    -2.4320 H     1 <1>   0.0800 
 50 H       -5.3960     2.6990    -2.4440 H     1 <1>   0.4000 
 51 H       -7.0550     5.7350    -1.1070 H     1 <1>   0.0800 
 52 H       -6.8720     4.6110    -2.3930 H     1 <1>   0.0800 
 53 H       -6.3230     5.1470     0.9740 H     1 <1>   0.3700 
 54 H       -8.1890     2.8280    -1.8610 H     1 <1>   0.0800 
 55 H       -8.9680     3.7510    -0.6060 H     1 <1>   0.0800 
 56 H       -8.3250     2.1460    -0.2890 H     1 <1>   0.0800 
 57 H       -7.5540     1.7910     1.8880 H     1 <1>   0.0800 
 58 H       -9.0830     2.6650     1.9020 H     1 <1>   0.0800 
 59 H       -8.1990     2.4140     3.3820 H     1 <1>   0.0800 
@<TRIPOS>BOND
  1   1   2  2   
  2   2   3  am  
  3   2   4  1   
  4   3   5  1   
  5   3   6  1   
  6   4   7  ar  
  7   4   8  ar  
  8   5   9  1   
  9   5  30  1   
 10   5  31  1   
 11   6  10  1   
 12   6  32  1   
 13   6  33  1   
 14   7  11  1   
 15   7  12  ar  
 16   8  13  ar  
 17   8  34  1   
 18   9  14  1   
 19   9  35  1   
 20   9  36  1   
 21  10  14  1   
 22  10  37  1   
 23  10  38  1   
 24  11  15  1   
 25  12  16  ar  
 26  12  39  1   
 27  13  16  ar  
 28  13  17  1   
 29  14  18  1   
 30  14  19  1   
 31  15  40  1   
 32  15  41  1   
 33  15  42  1   
 34  16  43  1   
 35  17  20  1   
 36  18  21  1   
 37  19  22  1   
 38  19  23  1   
 39  19  44  1   
 40  20  45  1   
 41  20  46  1   
 42  20  47  1   
 43  21  24  1   
 44  21  48  1   
 45  21  49  1   
 46  22  50  1   
 47  23  24  1   
 48  23  25  1   
 49  23  26  1   
 50  24  51  1   
 51  24  52  1   
 52  25  27  am  
 53  25  53  1   
 54  26  54  1   
 55  26  55  1   
 56  26  56  1   
 57  27  28  2   
 58  27  29  1   
 59  29  57  1   
 60  29  58  1   
 61  29  59  1   
@<TRIPOS>SUBSTRUCTURE
  1 ****   5 GROUP 4 **** **** 0

# MOE 2024.06 (io_trps.svl 2023.06)
