@<TRIPOS>MOLECULE
NONAME
45 47 1 0 0 
SMALL
USER_CHARGES


@<TRIPOS>ATOM
  1 O        0.1970    -0.0970    -0.1620 O.3   1 <1>  -0.0190 
  2 N        1.2020     0.4770    -0.7120 N.2   1 <1>  -0.4100 
  3 C       -0.8200     0.7190    -0.1030 C.2   1 <1>   0.4250 
  4 C        0.7670     1.6500    -0.9780 C.2   1 <1>   0.3350 
  5 N       -0.5080     1.8590    -0.6180 N.2   1 <1>  -0.5650 
  6 C       -2.0800     0.3100     0.4800 C.ar  1 <1>   0.0530 
  7 C        1.6000     2.7450    -1.6560 C.3   1 <1>   0.2910 
  8 C       -3.1660     1.1860     0.5300 C.ar  1 <1>  -0.1500 
  9 C       -2.2640    -0.9680     1.0160 C.ar  1 <1>  -0.1500 
 10 N        2.1810     3.7520    -0.7300 N.3   1 <1>  -0.8100 
 11 C       -4.3740     0.8100     1.0860 C.ar  1 <1>  -0.1500 
 12 C       -3.4700    -1.3490     1.5730 C.ar  1 <1>  -0.1500 
 13 C        1.1170     4.5230    -0.0270 C.3   1 <1>   0.2900 
 14 C        3.1760     3.1630     0.1780 C.3   1 <1>   0.1100 
 15 C       -4.5290    -0.4610     1.6100 C.ar  1 <1>  -0.1500 
 16 C        1.6090     5.7760     0.6930 C.2   1 <1>   0.2980 
 17 C        4.4620     3.9750     0.0760 C.3   1 <1>  -0.2400 
 18 O        2.1420     5.6460     1.8830 O.3   1 <1>  -0.0190 
 19 N        1.5300     6.9720     0.2590 N.2   1 <1>  -0.5650 
 20 N        2.4420     6.8600     2.2300 N.2   1 <1>  -0.4100 
 21 C        2.0850     7.6230     1.2750 C.2   1 <1>   0.3350 
 22 C        2.2640     9.1420     1.2680 C.3   1 <1>   0.1010 
 23 C        0.9120     9.8640     1.1750 C.3   1 <1>  -0.2400 
 24 C        3.1860     9.5860     0.1230 C.3   1 <1>  -0.2400 
 25 H        0.9810     3.2470    -2.3770 H     1 <1>   0.0800 
 26 H        2.4020     2.2760    -2.2000 H     1 <1>   0.0800 
 27 H       -3.0600     2.1780     0.1250 H     1 <1>   0.1500 
 28 H       -1.4540    -1.6760     0.9980 H     1 <1>   0.1500 
 29 H       -5.1960     1.5050     1.1110 H     1 <1>   0.1500 
 30 H       -3.5880    -2.3390     1.9800 H     1 <1>   0.1500 
 31 H        0.6180     3.8940     0.6890 H     1 <1>   0.0800 
 32 H        0.3860     4.8400    -0.7500 H     1 <1>   0.0800 
 33 H        3.3950     2.1460    -0.1020 H     1 <1>   0.0800 
 34 H        2.8160     3.1530     1.1940 H     1 <1>   0.0800 
 35 H       -5.4690    -0.7560     2.0430 H     1 <1>   0.1500 
 36 H        4.8360     3.9500    -0.9310 H     1 <1>   0.0800 
 37 H        5.2070     3.5580     0.7290 H     1 <1>   0.0800 
 38 H        4.2950     4.9970     0.3630 H     1 <1>   0.0800 
 39 H        2.7290     9.4190     2.1980 H     1 <1>   0.0800 
 40 H        0.4210     9.6190     0.2500 H     1 <1>   0.0800 
 41 H        1.0510    10.9290     1.2250 H     1 <1>   0.0800 
 42 H        0.2790     9.5600     1.9890 H     1 <1>   0.0800 
 43 H        2.7490     9.3340    -0.8270 H     1 <1>   0.0800 
 44 H        4.1350     9.0880     0.2050 H     1 <1>   0.0800 
 45 H        3.3490    10.6480     0.1610 H     1 <1>   0.0800 
@<TRIPOS>BOND
  1   1   2  1   
  2   1   3  1   
  3   2   4  2   
  4   3   5  2   
  5   3   6  1   
  6   4   5  1   
  7   4   7  1   
  8   6   8  ar  
  9   6   9  ar  
 10   7  10  1   
 11   7  25  1   
 12   7  26  1   
 13   8  11  ar  
 14   8  27  1   
 15   9  12  ar  
 16   9  28  1   
 17  10  13  1   
 18  10  14  1   
 19  11  15  ar  
 20  11  29  1   
 21  12  15  ar  
 22  12  30  1   
 23  13  16  1   
 24  13  31  1   
 25  13  32  1   
 26  14  17  1   
 27  14  33  1   
 28  14  34  1   
 29  15  35  1   
 30  16  18  1   
 31  16  19  2   
 32  17  36  1   
 33  17  37  1   
 34  17  38  1   
 35  18  20  1   
 36  19  21  1   
 37  20  21  2   
 38  21  22  1   
 39  22  23  1   
 40  22  24  1   
 41  22  39  1   
 42  23  40  1   
 43  23  41  1   
 44  23  42  1   
 45  24  43  1   
 46  24  44  1   
 47  24  45  1   
@<TRIPOS>SUBSTRUCTURE
  1 ****  13 GROUP 4 **** **** 0

# MOE 2024.06 (io_trps.svl 2023.06)
