@<TRIPOS>MOLECULE
NONAME
53 57 1 0 0 
SMALL
USER_CHARGES


@<TRIPOS>ATOM
  1 N        0.7030     0.2650     0.4660 N.ar  1 <1>  -0.6200 
  2 C       -0.2530     1.1980     0.5200 C.ar  1 <1>   0.7200 
  3 C        1.6030     0.4540    -0.4640 C.ar  1 <1>   0.1660 
  4 N       -0.3490     2.2730    -0.2680 N.ar  1 <1>  -0.6200 
  5 N       -1.2270     1.0360     1.4830 N.pl3 1 <1>  -0.8380 
  6 C        1.5960     1.5130    -1.3170 C.ar  1 <1>  -0.1430 
  7 C        2.7780    -0.4600    -0.7090 C.3   1 <1>   0.1430 
  8 C        0.5780     2.4230    -1.1860 C.ar  1 <1>   0.1600 
  9 C       -1.5690    -0.2940     2.0580 C.3   1 <1>   0.1290 
 10 C       -2.1470     2.1470     1.8580 C.3   1 <1>   0.1290 
 11 C        2.7630     1.4680    -2.2710 C.3   1 <1>  -0.0160 
 12 C        3.4440    -0.7620     0.6440 C.3   1 <1>   0.3430 
 13 C        2.3030    -1.7650    -1.3840 C.3   1 <1>  -0.1600 
 14 C        3.6750     0.3930    -1.6470 C.3   1 <1>  -0.1600 
 15 N        4.5210    -1.7990     0.5180 N.4   1 <1>  -0.9590 
 16 C        3.4090    -2.8350    -1.4200 C.3   1 <1>  -0.1600 
 17 C        4.0170    -3.0820    -0.0360 C.3   1 <1>   0.3430 
 18 C        5.2640    -1.9630     1.7840 C.3   1 <1>   0.5240 
 19 C        6.2240    -0.8010     1.8880 C.2   1 <1>  -0.1810 
 20 C        6.9060    -0.1970     0.8790 C.2   1 <1>  -0.0260 
 21 C        6.6100    -0.1320     3.0390 C.2   1 <1>   0.1390 
 22 N        6.9090    -0.4480    -0.4810 N.2   1 <1>  -0.5760 
 23 N        7.6650     0.7880     1.4740 N.pl3 1 <1>   0.6010 
 24 N        7.4670     0.8210     2.8050 N.2   1 <1>  -0.7070 
 25 C        7.7050     0.2920    -1.1910 C.2   1 <1>   0.3760 
 26 C        8.4950     1.5640     0.6950 C.2   1 <1>  -0.1810 
 27 C        8.5230     1.3210    -0.6410 C.2   1 <1>  -0.1360 
 28 H        0.5210     3.2800    -1.8340 H     1 <1>   0.1500 
 29 H       -1.1870    -1.0870     1.4390 H     1 <1>   0.0800 
 30 H       -2.6370    -0.4030     2.1230 H     1 <1>   0.0800 
 31 H       -1.1430    -0.3800     3.0420 H     1 <1>   0.0800 
 32 H       -1.6490     3.0960     1.7610 H     1 <1>   0.0800 
 33 H       -2.4650     2.0350     2.8800 H     1 <1>   0.0800 
 34 H       -3.0070     2.1360     1.2120 H     1 <1>   0.0800 
 35 H        3.2590     2.4210    -2.3400 H     1 <1>   0.0800 
 36 H        2.4210     1.1640    -3.2450 H     1 <1>   0.0800 
 37 H        2.6840    -1.1120     1.3240 H     1 <1>   0.0800 
 38 H        3.8500     0.1520     1.0440 H     1 <1>   0.0800 
 39 H        1.9520    -1.5600    -2.3810 H     1 <1>   0.0800 
 40 H        1.4650    -2.1550    -0.8290 H     1 <1>   0.0800 
 41 H        4.1670    -0.1890    -2.4060 H     1 <1>   0.0800 
 42 H        4.4270     0.8970    -1.0650 H     1 <1>   0.0800 
 43 H        5.2390    -1.4170    -0.1310 H     1 <1>   0.4500 
 44 H        4.1890    -2.5460    -2.1020 H     1 <1>   0.0800 
 45 H        2.9940    -3.7580    -1.7870 H     1 <1>   0.0800 
 46 H        3.2640    -3.4930     0.6180 H     1 <1>   0.0800 
 47 H        4.8240    -3.7930    -0.1200 H     1 <1>   0.0800 
 48 H        5.8290    -2.8800     1.7690 H     1 <1>   0.0800 
 49 H        4.5880    -1.9800     2.6230 H     1 <1>   0.0800 
 50 H        6.2600    -0.3530     4.0360 H     1 <1>   0.1500 
 51 H        7.7580     0.1350    -2.2540 H     1 <1>   0.0600 
 52 H        9.0700     2.3130     1.2070 H     1 <1>   0.1500 
 53 H        9.1490     1.8820    -1.3120 H     1 <1>   0.1500 
@<TRIPOS>BOND
  1   1   2  ar  
  2   1   3  ar  
  3   2   4  ar  
  4   2   5  1   
  5   3   6  ar  
  6   3   7  1   
  7   4   8  ar  
  8   5   9  1   
  9   5  10  1   
 10   6   8  ar  
 11   6  11  1   
 12   7  12  1   
 13   7  13  1   
 14   7  14  1   
 15   8  28  1   
 16   9  29  1   
 17   9  30  1   
 18   9  31  1   
 19  10  32  1   
 20  10  33  1   
 21  10  34  1   
 22  11  14  1   
 23  11  35  1   
 24  11  36  1   
 25  12  15  1   
 26  12  37  1   
 27  12  38  1   
 28  13  16  1   
 29  13  39  1   
 30  13  40  1   
 31  14  41  1   
 32  14  42  1   
 33  15  17  1   
 34  15  18  1   
 35  15  43  1   
 36  16  17  1   
 37  16  44  1   
 38  16  45  1   
 39  17  46  1   
 40  17  47  1   
 41  18  19  1   
 42  18  48  1   
 43  18  49  1   
 44  19  20  2   
 45  19  21  1   
 46  20  22  1   
 47  20  23  1   
 48  21  24  2   
 49  21  50  1   
 50  22  25  2   
 51  23  24  1   
 52  23  26  1   
 53  25  27  1   
 54  25  51  1   
 55  26  27  2   
 56  26  52  1   
 57  27  53  1   
@<TRIPOS>SUBSTRUCTURE
  1 ****  12 GROUP 4 **** **** 0

# MOE 2024.06 (io_trps.svl 2023.06)
