@<TRIPOS>MOLECULE
NONAME
46 48 1 0 0 
SMALL
USER_CHARGES


@<TRIPOS>ATOM
  1 S       -0.1060    -0.0700    -1.1810 S.o2  1 <1>   1.4470 
  2 O        0.1270    -1.4980    -1.2910 O.2   1 <1>  -0.6500 
  3 O       -0.2550     0.7040    -2.3900 O.2   1 <1>  -0.6500 
  4 N       -1.5230     0.0910    -0.2620 N.am  1 <1>  -0.8490 
  5 C        1.1510     0.6990    -0.1260 C.ar  1 <1>  -0.0090 
  6 C       -1.7460    -1.0400     0.6710 C.3   1 <1>   0.1960 
  7 C       -2.7040     0.4320    -1.0980 C.3   1 <1>   0.1960 
  8 C        1.0440     2.0370     0.2640 C.ar  1 <1>   0.0730 
  9 C        2.2450    -0.0420     0.3100 C.ar  1 <1>  -0.1500 
 10 C       -2.6380    -2.0870    -0.0340 C.3   1 <1>   0.4230 
 11 C       -4.0340    -0.0190    -0.4660 C.3   1 <1>  -0.1600 
 12 C       -0.0490     2.8740    -0.1500 C.1   1 <1>   0.4840 
 13 C        2.0260     2.5860     1.0840 C.ar  1 <1>  -0.1500 
 14 C        3.2140     0.5150     1.1240 C.ar  1 <1>  -0.1500 
 15 N       -2.6120    -3.4990     0.4630 N.4   1 <1>  -0.9590 
 16 C       -4.0710    -1.5290    -0.0620 C.3   1 <1>  -0.1060 
 17 N       -0.9060     3.5580    -0.4600 N.1   1 <1>  -0.5570 
 18 C        3.1020     1.8350     1.5140 C.ar  1 <1>  -0.1500 
 19 C       -3.3850    -4.3900    -0.4460 C.3   1 <1>   0.3430 
 20 C       -1.2500    -4.0260     0.7400 C.3   1 <1>   0.2630 
 21 C       -4.7100    -1.6500     1.3340 C.2   1 <1>   0.9060 
 22 C       -4.8610    -2.3810    -1.0810 C.3   1 <1>  -0.1600 
 23 C       -4.8100    -3.8690    -0.6830 C.3   1 <1>  -0.1600 
 24 O       -4.0950    -2.2440     2.2350 O.co2 1 <1>  -0.9000 
 25 O       -5.8380    -1.1970     1.5100 O.co2 1 <1>  -0.9000 
 26 H       -0.8050    -1.4550     0.9800 H     1 <1>   0.0800 
 27 H       -2.2380    -0.6710     1.5550 H     1 <1>   0.0800 
 28 H       -2.7220     1.4970    -1.2680 H     1 <1>   0.0800 
 29 H       -2.6210    -0.0450    -2.0620 H     1 <1>   0.0800 
 30 H        2.3470    -1.0720     0.0100 H     1 <1>   0.1500 
 31 H       -2.2840    -2.1220    -1.0500 H     1 <1>   0.0800 
 32 H       -4.1910     0.5940     0.4070 H     1 <1>   0.0800 
 33 H       -4.8470     0.2060    -1.1340 H     1 <1>   0.0800 
 34 H        1.9490     3.6160     1.3910 H     1 <1>   0.1500 
 35 H        4.0540    -0.0750     1.4520 H     1 <1>   0.1500 
 36 H       -3.1510    -3.4060     1.3670 H     1 <1>   0.4500 
 37 H        3.8540     2.2760     2.1480 H     1 <1>   0.1500 
 38 H       -2.8750    -4.4540    -1.3930 H     1 <1>   0.0800 
 39 H       -3.4380    -5.3810    -0.0250 H     1 <1>   0.0800 
 40 H       -0.6400    -3.9670    -0.1470 H     1 <1>   0.0800 
 41 H       -1.3090    -5.0530     1.0610 H     1 <1>   0.0800 
 42 H       -0.7830    -3.4540     1.5240 H     1 <1>   0.0800 
 43 H       -5.8880    -2.0540    -1.1020 H     1 <1>   0.0800 
 44 H       -4.4500    -2.2510    -2.0680 H     1 <1>   0.0800 
 45 H       -5.2760    -4.4580    -1.4520 H     1 <1>   0.0800 
 46 H       -5.3850    -4.0200     0.2160 H     1 <1>   0.0800 
@<TRIPOS>BOND
  1   1   2  2   
  2   1   3  2   
  3   1   4  am  
  4   1   5  1   
  5   4   6  1   
  6   4   7  1   
  7   5   8  ar  
  8   5   9  ar  
  9   6  10  1   
 10   6  26  1   
 11   6  27  1   
 12   7  11  1   
 13   7  28  1   
 14   7  29  1   
 15   8  12  1   
 16   8  13  ar  
 17   9  14  ar  
 18   9  30  1   
 19  10  15  1   
 20  10  16  1   
 21  10  31  1   
 22  11  16  1   
 23  11  32  1   
 24  11  33  1   
 25  12  17  3   
 26  13  18  ar  
 27  13  34  1   
 28  14  18  ar  
 29  14  35  1   
 30  15  19  1   
 31  15  20  1   
 32  15  36  1   
 33  16  21  1   
 34  16  22  1   
 35  18  37  1   
 36  19  23  1   
 37  19  38  1   
 38  19  39  1   
 39  20  40  1   
 40  20  41  1   
 41  20  42  1   
 42  21  24  ar  
 43  21  25  ar  
 44  22  23  1   
 45  22  43  1   
 46  22  44  1   
 47  23  45  1   
 48  23  46  1   
@<TRIPOS>SUBSTRUCTURE
  1 ****   4 GROUP 4 **** **** 0

# MOE 2024.06 (io_trps.svl 2023.06)
