@<TRIPOS>MOLECULE
NONAME
48 51 1 0 0 
SMALL
USER_CHARGES


@<TRIPOS>ATOM
  1 S       -1.1420     0.3300     1.7150 S.3   1 <1>  -0.0800 
  2 C       -2.2350    -0.1330     0.4220 C.2   1 <1>  -0.1400 
  3 C       -0.2730    -1.1890     1.5860 C.2   1 <1>  -0.1100 
  4 C       -1.9180    -1.3560    -0.0450 C.2   1 <1>  -0.1500 
  5 C       -3.3220     0.8640     0.0460 C.3   1 <1>   0.0810 
  6 C       -0.8040    -1.9580     0.6190 C.2   1 <1>  -0.1500 
  7 C       -4.3750     0.2770    -0.8860 C.2   1 <1>   0.5690 
  8 O       -4.3800     0.6780    -2.0280 O.2   1 <1>  -0.5700 
  9 N       -5.2840    -0.6580    -0.4460 N.am  1 <1>  -0.6600 
 10 C       -6.2800    -1.2640    -1.3730 C.3   1 <1>   0.1400 
 11 C       -5.3670    -1.2040     0.9400 C.3   1 <1>   0.1400 
 12 C       -6.0370    -2.7730    -1.4500 C.3   1 <1>  -0.1600 
 13 C       -5.1400    -2.7180     0.9160 C.3   1 <1>  -0.1600 
 14 C       -6.0880    -3.4370    -0.0590 C.3   1 <1>   0.4240 
 15 O       -7.3690    -3.1720     0.4710 O.3   1 <1>  -0.5600 
 16 C       -5.7930    -4.9640    -0.1140 C.ar  1 <1>  -0.1430 
 17 C       -8.4100    -4.0190     0.1100 C.3   1 <1>   0.1200 
 18 C       -4.5600    -5.4720    -0.5490 C.ar  1 <1>   0.0830 
 19 C       -6.7760    -5.8740     0.2740 C.ar  1 <1>  -0.1430 
 20 C       -8.1380    -5.3840     0.7220 C.3   1 <1>  -0.0170 
 21 O       -3.5950    -4.6060    -0.9600 O.3   1 <1>  -0.3630 
 22 C       -4.3350    -6.8480    -0.5630 C.ar  1 <1>  -0.1500 
 23 C       -6.5400    -7.2380     0.2550 C.ar  1 <1>  -0.1500 
 24 C       -2.3860    -5.0330    -1.5490 C.3   1 <1>   0.0400 
 25 C       -5.3190    -7.7270    -0.1610 C.ar  1 <1>  -0.1500 
 26 H        0.5530    -1.3450     2.2570 H     1 <1>   0.1500 
 27 H       -2.4320    -1.8710    -0.8400 H     1 <1>   0.1500 
 28 H       -2.8620     1.7050    -0.4390 H     1 <1>   0.0800 
 29 H       -3.8070     1.2290     0.9300 H     1 <1>   0.0800 
 30 H       -0.4590    -2.9380     0.3380 H     1 <1>   0.1500 
 31 H       -6.1980    -0.8360    -2.3570 H     1 <1>   0.0800 
 32 H       -7.2720    -1.0650    -1.0050 H     1 <1>   0.0800 
 33 H       -6.3440    -0.9910     1.3400 H     1 <1>   0.0800 
 34 H       -4.6400    -0.7500     1.5880 H     1 <1>   0.0800 
 35 H       -5.0750    -2.9190    -1.8990 H     1 <1>   0.0800 
 36 H       -6.7550    -3.2290    -2.1030 H     1 <1>   0.0800 
 37 H       -5.2820    -3.1230     1.9000 H     1 <1>   0.0800 
 38 H       -4.1180    -2.8930     0.6530 H     1 <1>   0.0800 
 39 H       -8.4710    -4.0760    -0.9620 H     1 <1>   0.0800 
 40 H       -9.3230    -3.6050     0.4980 H     1 <1>   0.0800 
 41 H       -8.9040    -6.0690     0.4080 H     1 <1>   0.0800 
 42 H       -8.1640    -5.3100     1.7940 H     1 <1>   0.0800 
 43 H       -3.3970    -7.2600    -0.8820 H     1 <1>   0.1500 
 44 H       -7.3060    -7.9270     0.5650 H     1 <1>   0.1500 
 45 H       -1.8350    -4.1610    -1.8490 H     1 <1>   0.0800 
 46 H       -2.6120    -5.6360    -2.4110 H     1 <1>   0.0800 
 47 H       -1.8220    -5.5900    -0.8230 H     1 <1>   0.0800 
 48 H       -5.1380    -8.7870    -0.1730 H     1 <1>   0.1500 
@<TRIPOS>BOND
  1   1   2  1   
  2   1   3  1   
  3   2   4  2   
  4   2   5  1   
  5   3   6  2   
  6   3  26  1   
  7   4   6  1   
  8   4  27  1   
  9   5   7  1   
 10   5  28  1   
 11   5  29  1   
 12   6  30  1   
 13   7   8  2   
 14   7   9  am  
 15   9  10  1   
 16   9  11  1   
 17  10  12  1   
 18  10  31  1   
 19  10  32  1   
 20  11  13  1   
 21  11  33  1   
 22  11  34  1   
 23  12  14  1   
 24  12  35  1   
 25  12  36  1   
 26  13  14  1   
 27  13  37  1   
 28  13  38  1   
 29  14  15  1   
 30  14  16  1   
 31  15  17  1   
 32  16  18  ar  
 33  16  19  ar  
 34  17  20  1   
 35  17  39  1   
 36  17  40  1   
 37  18  21  1   
 38  18  22  ar  
 39  19  20  1   
 40  19  23  ar  
 41  20  41  1   
 42  20  42  1   
 43  21  24  1   
 44  22  25  ar  
 45  22  43  1   
 46  23  25  ar  
 47  23  44  1   
 48  24  45  1   
 49  24  46  1   
 50  24  47  1   
 51  25  48  1   
@<TRIPOS>SUBSTRUCTURE
  1 ****  13 GROUP 4 **** **** 0

# MOE 2024.06 (io_trps.svl 2023.06)
