@<TRIPOS>MOLECULE
NONAME
52 54 1 0 0 
SMALL
USER_CHARGES


@<TRIPOS>ATOM
  1 O       -1.6420     0.2970     3.0950 O.2   1 <1>  -0.5700 
  2 C       -1.9110     0.9990     2.1470 C.2   1 <1>   0.5690 
  3 N       -2.5350     0.4890     1.0400 N.am  1 <1>  -0.6600 
  4 C       -1.5700     2.4840     2.2360 C.3   1 <1>   0.1810 
  5 C       -2.8290     1.2180    -0.2200 C.3   1 <1>   0.1400 
  6 C       -2.9290    -0.9290     0.9100 C.3   1 <1>   0.1400 
  7 O       -0.7240     2.8870     1.1690 O.3   1 <1>  -0.3620 
  8 C       -3.5470     0.2070    -1.1250 C.3   1 <1>   0.2000 
  9 C       -3.0800    -1.1530    -0.5960 C.3   1 <1>  -0.0800 
 10 C       -0.4620     4.1960     0.9140 C.ar  1 <1>   0.0820 
 11 O       -4.9330     0.3080    -0.9500 O.3   1 <1>  -0.5600 
 12 C       -4.0040    -2.3320    -0.9540 C.3   1 <1>   0.0200 
 13 C        0.2050     4.5150    -0.2710 C.ar  1 <1>  -0.1440 
 14 C       -0.8460     5.2080     1.7900 C.ar  1 <1>  -0.1500 
 15 C       -5.5610     1.2790    -1.7270 C.3   1 <1>   0.0400 
 16 C       -3.4240    -3.6840    -0.5690 C.2   1 <1>  -0.0400 
 17 C        0.4540     5.8500    -0.5800 C.ar  1 <1>  -0.1440 
 18 C        0.6540     3.4070    -1.2260 C.3   1 <1>  -0.0970 
 19 C       -0.5860     6.5280     1.4810 C.ar  1 <1>  -0.1500 
 20 O       -4.1540    -4.7530    -0.7510 O.3   1 <1>  -0.0190 
 21 C       -2.2490    -4.0770    -0.0520 C.2   1 <1>  -0.1500 
 22 C        0.0580     6.8460     0.3000 C.ar  1 <1>  -0.1500 
 23 C        1.1570     6.2660    -1.8660 C.3   1 <1>  -0.0970 
 24 N       -3.5330    -5.8360    -0.3810 N.2   1 <1>  -0.4100 
 25 C       -2.3830    -5.4580     0.0460 C.2   1 <1>   0.1080 
 26 C       -1.3240    -6.3960     0.5810 C.3   1 <1>  -0.0590 
 27 H       -1.0600     2.6830     3.1610 H     1 <1>   0.0800 
 28 H       -2.4790     3.0530     2.1870 H     1 <1>   0.0800 
 29 H       -3.4310     2.0890    -0.0320 H     1 <1>   0.0800 
 30 H       -1.9000     1.5120    -0.6750 H     1 <1>   0.0800 
 31 H       -2.1880    -1.5760     1.3480 H     1 <1>   0.0800 
 32 H       -3.8710    -1.0720     1.4120 H     1 <1>   0.0800 
 33 H       -3.3090     0.3380    -2.1670 H     1 <1>   0.0800 
 34 H       -2.1020    -1.3420    -1.0010 H     1 <1>   0.0800 
 35 H       -4.1860    -2.3320    -2.0130 H     1 <1>   0.0800 
 36 H       -4.9530    -2.2140    -0.4610 H     1 <1>   0.0800 
 37 H       -1.3420     4.9950     2.7160 H     1 <1>   0.1500 
 38 H       -6.6110     1.2630    -1.4950 H     1 <1>   0.0800 
 39 H       -5.4190     1.0480    -2.7690 H     1 <1>   0.0800 
 40 H       -5.1560     2.2490    -1.4950 H     1 <1>   0.0800 
 41 H        1.6250     3.6250    -1.6310 H     1 <1>   0.0800 
 42 H       -0.0500     3.3170    -2.0320 H     1 <1>   0.0800 
 43 H        0.7300     2.4580    -0.7280 H     1 <1>   0.0800 
 44 H       -0.8820     7.3100     2.1570 H     1 <1>   0.1500 
 45 H       -1.3850    -3.5060     0.2330 H     1 <1>   0.1500 
 46 H        0.2510     7.8790     0.0730 H     1 <1>   0.1500 
 47 H        1.1060     7.3310    -2.0080 H     1 <1>   0.0800 
 48 H        0.6930     5.7950    -2.7130 H     1 <1>   0.0800 
 49 H        2.1920     5.9800    -1.8260 H     1 <1>   0.0800 
 50 H       -0.4390    -6.3300    -0.0240 H     1 <1>   0.0800 
 51 H       -1.6860    -7.4080     0.5610 H     1 <1>   0.0800 
 52 H       -1.0830    -6.1320     1.5940 H     1 <1>   0.0800 
@<TRIPOS>BOND
  1   1   2  2   
  2   2   3  am  
  3   2   4  1   
  4   3   5  1   
  5   3   6  1   
  6   4   7  1   
  7   4  27  1   
  8   4  28  1   
  9   5   8  1   
 10   5  29  1   
 11   5  30  1   
 12   6   9  1   
 13   6  31  1   
 14   6  32  1   
 15   7  10  1   
 16   8   9  1   
 17   8  11  1   
 18   8  33  1   
 19   9  12  1   
 20   9  34  1   
 21  10  13  ar  
 22  10  14  ar  
 23  11  15  1   
 24  12  16  1   
 25  12  35  1   
 26  12  36  1   
 27  13  17  ar  
 28  13  18  1   
 29  14  19  ar  
 30  14  37  1   
 31  15  38  1   
 32  15  39  1   
 33  15  40  1   
 34  16  20  1   
 35  16  21  2   
 36  17  22  ar  
 37  17  23  1   
 38  18  41  1   
 39  18  42  1   
 40  18  43  1   
 41  19  22  ar  
 42  19  44  1   
 43  20  24  1   
 44  21  25  1   
 45  21  45  1   
 46  22  46  1   
 47  23  47  1   
 48  23  48  1   
 49  23  49  1   
 50  24  25  2   
 51  25  26  1   
 52  26  50  1   
 53  26  51  1   
 54  26  52  1   
@<TRIPOS>SUBSTRUCTURE
  1 ****   3 GROUP 4 **** **** 0

# MOE 2024.06 (io_trps.svl 2023.06)
