@<TRIPOS>MOLECULE
NONAME
21 21 1 0 0 
SMALL
USER_CHARGES


@<TRIPOS>ATOM
  1 CL       0.3600    -0.0860     0.2960 Cl    1 <1>  -0.2900 
  2 C        1.2910     1.3300    -0.1590 C.3   1 <1>   0.1300 
  3 C        2.5770     1.3380     0.6590 C.3   1 <1>   0.0960 
  4 N        3.4230     2.4620     0.2260 N.pl3 1 <1>   0.3140 
  5 N        3.0050     3.7310     0.3770 N.2   1 <1>  -0.7070 
  6 C        4.6390     2.4120    -0.3660 C.2   1 <1>  -0.3320 
  7 C        3.9590     4.4580    -0.1110 C.2   1 <1>   0.1080 
  8 C        5.0100     3.6900    -0.5930 C.2   1 <1>  -0.1500 
  9 C        5.4100     1.1450    -0.6960 C.3   1 <1>  -0.0600 
 10 C        3.8950     5.9670    -0.1340 C.3   1 <1>  -0.0590 
 11 H        0.6900     2.1990     0.0490 H     1 <1>   0.0800 
 12 H        1.4960     1.2590    -1.2120 H     1 <1>   0.0800 
 13 H        3.1100     0.4180     0.5220 H     1 <1>   0.0800 
 14 H        2.3500     1.4730     1.7000 H     1 <1>   0.0800 
 15 H        5.9120     4.0620    -1.0440 H     1 <1>   0.1500 
 16 H        4.8440     0.5270    -1.3700 H     1 <1>   0.0800 
 17 H        5.6190     0.5910     0.2020 H     1 <1>   0.0800 
 18 H        6.3450     1.3940    -1.1670 H     1 <1>   0.0800 
 19 H        3.0410     6.2800    -0.7050 H     1 <1>   0.0800 
 20 H        4.7850     6.3740    -0.5770 H     1 <1>   0.0800 
 21 H        3.7990     6.3360     0.8700 H     1 <1>   0.0800 
@<TRIPOS>BOND
  1   1   2  1   
  2   2   3  1   
  3   2  11  1   
  4   2  12  1   
  5   3   4  1   
  6   3  13  1   
  7   3  14  1   
  8   4   5  1   
  9   4   6  1   
 10   5   7  2   
 11   6   8  2   
 12   6   9  1   
 13   7   8  1   
 14   7  10  1   
 15   8  15  1   
 16   9  16  1   
 17   9  17  1   
 18   9  18  1   
 19  10  19  1   
 20  10  20  1   
 21  10  21  1   
@<TRIPOS>SUBSTRUCTURE
  1 ****   4 GROUP 4 **** **** 0

# MOE 2024.06 (io_trps.svl 2023.06)
