@<TRIPOS>MOLECULE
NONAME
49 52 1 0 0 
SMALL
USER_CHARGES


@<TRIPOS>ATOM
  1 F       -1.9030     1.6130    -2.1100 F     1 <1>  -0.3400 
  2 C       -2.8370     1.1200    -1.3120 C.3   1 <1>   1.1640 
  3 F       -3.9710     1.1230    -2.0090 F     1 <1>  -0.3400 
  4 F       -2.5410    -0.1580    -1.1190 F     1 <1>  -0.3400 
  5 C       -3.0200     1.8740     0.0190 C.ar  1 <1>  -0.1440 
  6 C       -3.8830     1.4120     1.0230 C.ar  1 <1>  -0.1440 
  7 C       -2.3160     3.0560     0.2370 C.ar  1 <1>  -0.1500 
  8 C       -4.0090     2.1290     2.2060 C.ar  1 <1>  -0.1500 
  9 C       -4.7140     0.1370     0.8920 C.3   1 <1>   0.4870 
 10 C       -2.4570     3.7630     1.4160 C.ar  1 <1>  -0.1500 
 11 C       -3.3030     3.2990     2.4020 C.ar  1 <1>  -0.1500 
 12 N       -5.8750     0.3860    -0.0060 N.4   1 <1>  -0.9590 
 13 C       -6.7810     1.4570     0.5390 C.3   1 <1>   0.3430 
 14 C       -6.6290    -0.8690    -0.2840 C.3   1 <1>   0.3430 
 15 C       -7.9090     1.8080    -0.4440 C.3   1 <1>   0.1440 
 16 C       -7.7280    -0.5900    -1.3130 C.3   1 <1>  -0.1600 
 17 C       -8.8410     2.7830     0.2320 C.ar  1 <1>   0.1670 
 18 C       -8.6760     0.5340    -0.8580 C.3   1 <1>  -0.1600 
 19 C       -7.4110     2.6170    -1.6730 C.3   1 <1>  -0.1600 
 20 N       -9.3120     2.6380     1.4490 N.ar  1 <1>  -0.6200 
 21 C       -9.1290     3.8480    -0.5650 C.ar  1 <1>  -0.1430 
 22 C       -8.4330     3.7500    -1.8990 C.3   1 <1>  -0.0170 
 23 C      -10.1160     3.6210     1.8370 C.ar  1 <1>   0.4770 
 24 C       -9.9670     4.8110    -0.0590 C.ar  1 <1>   0.1600 
 25 N      -10.4680     4.7020     1.1540 N.ar  1 <1>  -0.6200 
 26 C      -10.6980     3.5060     3.2250 C.3   1 <1>  -0.0970 
 27 H       -1.6420     3.4490    -0.5080 H     1 <1>   0.1500 
 28 H       -4.6580     1.7890     2.9970 H     1 <1>   0.1500 
 29 H       -5.0640    -0.1650     1.8660 H     1 <1>   0.0800 
 30 H       -4.1030    -0.6600     0.5000 H     1 <1>   0.0800 
 31 H       -1.9040     4.6760     1.5690 H     1 <1>   0.1500 
 32 H       -3.4070     3.8500     3.3220 H     1 <1>   0.1500 
 33 H       -5.5090     0.7290    -0.9060 H     1 <1>   0.4500 
 34 H       -6.2200     2.3520     0.7530 H     1 <1>   0.0800 
 35 H       -7.2260     1.1200     1.4610 H     1 <1>   0.0800 
 36 H       -7.0760    -1.2370     0.6260 H     1 <1>   0.0800 
 37 H       -5.9630    -1.6260    -0.6680 H     1 <1>   0.0800 
 38 H       -8.3000    -1.4900    -1.4630 H     1 <1>   0.0800 
 39 H       -7.2780    -0.3430    -2.2590 H     1 <1>   0.0800 
 40 H       -9.3820     0.7640    -1.6390 H     1 <1>   0.0800 
 41 H       -9.2450     0.1840    -0.0120 H     1 <1>   0.0800 
 42 H       -7.2990     2.0170    -2.5580 H     1 <1>   0.0800 
 43 H       -6.4610     3.0710    -1.4480 H     1 <1>   0.0800 
 44 H       -9.1460     3.4770    -2.6580 H     1 <1>   0.0800 
 45 H       -7.9510     4.6750    -2.1670 H     1 <1>   0.0800 
 46 H      -10.2310     5.6750    -0.6460 H     1 <1>   0.1500 
 47 H      -10.6040     2.5010     3.5930 H     1 <1>   0.0800 
 48 H      -11.7380     3.7720     3.2040 H     1 <1>   0.0800 
 49 H      -10.1780     4.1740     3.8850 H     1 <1>   0.0800 
@<TRIPOS>BOND
  1   1   2  1   
  2   2   3  1   
  3   2   4  1   
  4   2   5  1   
  5   5   6  ar  
  6   5   7  ar  
  7   6   8  ar  
  8   6   9  1   
  9   7  10  ar  
 10   7  27  1   
 11   8  11  ar  
 12   8  28  1   
 13   9  12  1   
 14   9  29  1   
 15   9  30  1   
 16  10  11  ar  
 17  10  31  1   
 18  11  32  1   
 19  12  13  1   
 20  12  14  1   
 21  12  33  1   
 22  13  15  1   
 23  13  34  1   
 24  13  35  1   
 25  14  16  1   
 26  14  36  1   
 27  14  37  1   
 28  15  17  1   
 29  15  18  1   
 30  15  19  1   
 31  16  18  1   
 32  16  38  1   
 33  16  39  1   
 34  17  20  ar  
 35  17  21  ar  
 36  18  40  1   
 37  18  41  1   
 38  19  22  1   
 39  19  42  1   
 40  19  43  1   
 41  20  23  ar  
 42  21  22  1   
 43  21  24  ar  
 44  22  44  1   
 45  22  45  1   
 46  23  25  ar  
 47  23  26  1   
 48  24  25  ar  
 49  24  46  1   
 50  26  47  1   
 51  26  48  1   
 52  26  49  1   
@<TRIPOS>SUBSTRUCTURE
  1 ****  13 GROUP 4 **** **** 0

# MOE 2024.06 (io_trps.svl 2023.06)
