@<TRIPOS>MOLECULE
NONAME
49 52 1 0 0 
SMALL
USER_CHARGES


@<TRIPOS>ATOM
  1 O        0.6850     1.9560    -0.4770 O.2   1 <1>  -0.5700 
  2 C        0.0460     2.9250    -0.8160 C.2   1 <1>   0.5690 
  3 N       -0.9250     3.5030    -0.0450 N.am  1 <1>  -0.5090 
  4 C        0.3360     3.5540    -2.1720 C.3   1 <1>   0.1810 
  5 C       -1.6690     4.7040    -0.5420 C.3   1 <1>   0.3640 
  6 C       -1.1410     3.1250     1.3730 C.3   1 <1>   0.0490 
  7 O        0.3130     4.9530    -2.0750 O.3   1 <1>  -0.5600 
  8 C       -3.0550     4.3080    -1.0550 C.ar  1 <1>  -0.1440 
  9 C       -0.9280     5.5110    -1.6510 C.3   1 <1>   0.2610 
 10 C       -1.5310     1.7150     1.6840 C.3   1 <1>  -0.2000 
 11 C       -2.5190     2.8190     1.8760 C.3   1 <1>  -0.2000 
 12 C       -4.0940     5.2220    -0.9390 C.ar  1 <1>   0.1600 
 13 C       -3.3210     3.0810    -1.6390 C.ar  1 <1>  -0.1500 
 14 C       -0.7270     6.9450    -1.1560 C.2   1 <1>   0.5690 
 15 N       -5.3360     5.0160    -1.3470 N.ar  1 <1>  -0.6200 
 16 C       -4.6100     2.8520    -2.0670 C.ar  1 <1>  -0.1500 
 17 O       -1.6950     7.5810    -0.8140 O.2   1 <1>  -0.5700 
 18 N        0.5320     7.4530    -1.0860 N.am  1 <1>  -0.7300 
 19 C       -5.5660     3.8380    -1.9000 C.ar  1 <1>   0.1600 
 20 C        0.9110     8.7840    -0.5540 C.3   1 <1>   0.1400 
 21 C        1.7570     8.6120     0.7070 C.3   1 <1>  -0.0170 
 22 C        2.2660     9.9560     1.1960 C.ar  1 <1>   0.1670 
 23 N        1.3490    10.7990     1.6420 N.ar  1 <1>  -0.6200 
 24 C        3.6240    10.2380     1.1560 C.ar  1 <1>  -0.1500 
 25 C        1.8010    11.9690     2.0660 C.ar  1 <1>   0.1600 
 26 C        4.0810    11.4610     1.6000 C.ar  1 <1>  -0.1500 
 27 C        3.1330    12.3440     2.0670 C.ar  1 <1>  -0.1500 
 28 H       -0.3920     3.2390    -2.8980 H     1 <1>   0.0800 
 29 H        1.3160     3.2610    -2.5030 H     1 <1>   0.0800 
 30 H       -1.8180     5.3500     0.3080 H     1 <1>   0.0800 
 31 H       -0.4450     3.6100     2.0370 H     1 <1>   0.1000 
 32 H       -1.5550     5.5680    -2.5230 H     1 <1>   0.0800 
 33 H       -1.6600     1.0290     0.8650 H     1 <1>   0.1000 
 34 H       -1.1050     1.2450     2.5530 H     1 <1>   0.1000 
 35 H       -2.7760     3.0930     2.8840 H     1 <1>   0.1000 
 36 H       -3.3690     2.8420     1.2180 H     1 <1>   0.1000 
 37 H       -3.9000     6.1830    -0.4880 H     1 <1>   0.1500 
 38 H       -2.5690     2.3190    -1.7550 H     1 <1>   0.1500 
 39 H       -4.8760     1.9160    -2.5250 H     1 <1>   0.1500 
 40 H        1.2900     6.8550    -1.4320 H     1 <1>   0.3700 
 41 H       -6.5710     3.6480    -2.2380 H     1 <1>   0.1500 
 42 H        1.4690     9.3210    -1.3020 H     1 <1>   0.0800 
 43 H        0.0270     9.3560    -0.3200 H     1 <1>   0.0800 
 44 H        2.5860     7.9600     0.5010 H     1 <1>   0.0800 
 45 H        1.1550     8.1700     1.4810 H     1 <1>   0.0800 
 46 H        4.3230     9.5120     0.7820 H     1 <1>   0.1500 
 47 H        1.0680    12.6660     2.4340 H     1 <1>   0.1500 
 48 H        5.1270    11.7120     1.5830 H     1 <1>   0.1500 
 49 H        3.4190    13.3150     2.4290 H     1 <1>   0.1500 
@<TRIPOS>BOND
  1   1   2  2   
  2   2   3  am  
  3   2   4  1   
  4   3   5  1   
  5   3   6  1   
  6   4   7  1   
  7   4  28  1   
  8   4  29  1   
  9   5   8  1   
 10   5   9  1   
 11   5  30  1   
 12   6  10  1   
 13   6  11  1   
 14   6  31  1   
 15   7   9  1   
 16   8  12  ar  
 17   8  13  ar  
 18   9  14  1   
 19   9  32  1   
 20  10  11  1   
 21  10  33  1   
 22  10  34  1   
 23  11  35  1   
 24  11  36  1   
 25  12  15  ar  
 26  12  37  1   
 27  13  16  ar  
 28  13  38  1   
 29  14  17  2   
 30  14  18  am  
 31  15  19  ar  
 32  16  19  ar  
 33  16  39  1   
 34  18  20  1   
 35  18  40  1   
 36  19  41  1   
 37  20  21  1   
 38  20  42  1   
 39  20  43  1   
 40  21  22  1   
 41  21  44  1   
 42  21  45  1   
 43  22  23  ar  
 44  22  24  ar  
 45  23  25  ar  
 46  24  26  ar  
 47  24  46  1   
 48  25  27  ar  
 49  25  47  1   
 50  26  27  ar  
 51  26  48  1   
 52  27  49  1   
@<TRIPOS>SUBSTRUCTURE
  1 ****  14 GROUP 4 **** **** 0

# MOE 2024.06 (io_trps.svl 2023.06)
