@<TRIPOS>MOLECULE
NONAME
46 49 1 0 0 
SMALL
USER_CHARGES


@<TRIPOS>ATOM
  1 S        0.0230    -0.3590     0.0970 S.3   1 <1>  -0.0800 
  2 C        1.2560    -1.5870    -0.2330 C.2   1 <1>  -0.0130 
  3 C        0.9420     0.8930    -0.7100 C.2   1 <1>  -0.1100 
  4 C        1.0630    -2.9450     0.2180 C.ar  1 <1>   0.6730 
  5 C        2.2700    -0.9960    -0.9190 C.2   1 <1>  -0.1500 
  6 C        2.0960     0.3940    -1.1870 C.2   1 <1>  -0.1500 
  7 N       -0.0410    -3.2450     0.9110 N.ar  1 <1>  -0.6200 
  8 N        2.0150    -3.8310    -0.0980 N.ar  1 <1>  -0.6200 
  9 C       -0.1880    -4.4820     1.3070 C.ar  1 <1>   0.1600 
 10 C        1.8470    -5.0640     0.3060 C.ar  1 <1>   0.1600 
 11 C        0.7360    -5.4560     1.0130 C.ar  1 <1>  -0.1430 
 12 C        0.5250    -6.8860     1.4570 C.3   1 <1>   0.4870 
 13 N        0.0780    -7.7290     0.3020 N.4   1 <1>  -0.9590 
 14 C       -1.2190    -7.2360    -0.2730 C.3   1 <1>   0.3430 
 15 C       -0.1840    -9.1310     0.7680 C.3   1 <1>   0.3430 
 16 C       -2.3130    -8.0060     0.4680 C.3   1 <1>   0.2000 
 17 C       -1.6960    -9.3920     0.6410 C.3   1 <1>  -0.0800 
 18 O       -2.4750    -7.4410     1.7300 O.3   1 <1>  -0.6800 
 19 C       -2.0160   -10.3130    -0.5530 C.3   1 <1>  -0.0170 
 20 C       -1.2190   -11.6050    -0.4740 C.ar  1 <1>  -0.1430 
 21 C       -0.2470   -11.9240    -1.4030 C.ar  1 <1>  -0.1500 
 22 C       -1.4240   -12.5270     0.5340 C.ar  1 <1>  -0.1500 
 23 C        0.4680   -13.1030    -1.2690 C.ar  1 <1>   0.1600 
 24 C       -0.6520   -13.6770     0.5780 C.ar  1 <1>   0.1600 
 25 N        0.2950   -13.9770    -0.2940 N.ar  1 <1>  -0.6200 
 26 H        0.5170     1.8810    -0.7410 H     1 <1>   0.1500 
 27 H        3.1540    -1.5130    -1.2500 H     1 <1>   0.1500 
 28 H        2.8420     0.9540    -1.7240 H     1 <1>   0.1500 
 29 H       -1.0760    -4.7170     1.8750 H     1 <1>   0.1500 
 30 H        2.6230    -5.7700     0.0580 H     1 <1>   0.1500 
 31 H       -0.2180    -6.9110     2.2380 H     1 <1>   0.0800 
 32 H        1.4460    -7.2740     1.8610 H     1 <1>   0.0800 
 33 H        0.8070    -7.7130    -0.4230 H     1 <1>   0.4500 
 34 H       -1.3490    -6.1720    -0.1670 H     1 <1>   0.0800 
 35 H       -1.2640    -7.4870    -1.3190 H     1 <1>   0.0800 
 36 H        0.3730    -9.8400     0.1770 H     1 <1>   0.0800 
 37 H        0.1120    -9.2440     1.7980 H     1 <1>   0.0800 
 38 H       -3.2600    -7.9950    -0.0470 H     1 <1>   0.0800 
 39 H       -2.0610    -9.8670     1.5360 H     1 <1>   0.0800 
 40 H       -3.3040    -7.7550     2.1540 H     1 <1>   0.4000 
 41 H       -1.7980    -9.8190    -1.4850 H     1 <1>   0.0800 
 42 H       -3.0660   -10.5540    -0.5550 H     1 <1>   0.0800 
 43 H       -0.0340   -11.2790    -2.2350 H     1 <1>   0.1500 
 44 H       -2.1750   -12.3750     1.2870 H     1 <1>   0.1500 
 45 H        1.2210   -13.3410    -2.0020 H     1 <1>   0.1500 
 46 H       -0.8230   -14.3870     1.3700 H     1 <1>   0.1500 
@<TRIPOS>BOND
  1   1   2  1   
  2   1   3  1   
  3   2   4  1   
  4   2   5  2   
  5   3   6  2   
  6   3  26  1   
  7   4   7  ar  
  8   4   8  ar  
  9   5   6  1   
 10   5  27  1   
 11   6  28  1   
 12   7   9  ar  
 13   8  10  ar  
 14   9  11  ar  
 15   9  29  1   
 16  10  11  ar  
 17  10  30  1   
 18  11  12  1   
 19  12  13  1   
 20  12  31  1   
 21  12  32  1   
 22  13  14  1   
 23  13  15  1   
 24  13  33  1   
 25  14  16  1   
 26  14  34  1   
 27  14  35  1   
 28  15  17  1   
 29  15  36  1   
 30  15  37  1   
 31  16  17  1   
 32  16  18  1   
 33  16  38  1   
 34  17  19  1   
 35  17  39  1   
 36  18  40  1   
 37  19  20  1   
 38  19  41  1   
 39  19  42  1   
 40  20  21  ar  
 41  20  22  ar  
 42  21  23  ar  
 43  21  43  1   
 44  22  24  ar  
 45  22  44  1   
 46  23  25  ar  
 47  23  45  1   
 48  24  25  ar  
 49  24  46  1   
@<TRIPOS>SUBSTRUCTURE
  1 ****  13 GROUP 4 **** **** 0

# MOE 2024.06 (io_trps.svl 2023.06)
