@<TRIPOS>MOLECULE
NONAME
49 53 1 0 0 
SMALL
USER_CHARGES


@<TRIPOS>ATOM
  1 O       -0.0980     0.5450     1.0100 O.2   1 <1>  -0.5700 
  2 C       -0.5320     1.6820     1.0490 C.2   1 <1>   0.5440 
  3 N       -1.8980     1.8760     0.9820 N.am  1 <1>  -0.6600 
  4 C        0.4020     2.7860     1.1390 C.ar  1 <1>   0.0860 
  5 C       -2.5440     3.2100     0.7740 C.3   1 <1>   0.1400 
  6 C       -2.8340     0.7080     0.9390 C.3   1 <1>   0.1400 
  7 C        1.3810     2.9630     0.1570 C.ar  1 <1>  -0.1500 
  8 C        0.3580     3.7000     2.2010 C.ar  1 <1>  -0.1500 
  9 C       -3.2400     3.2810    -0.6030 C.3   1 <1>   0.1440 
 10 C       -4.1710     1.0580     0.2600 C.3   1 <1>  -0.1600 
 11 C        2.2570     4.0270     0.2390 C.ar  1 <1>  -0.1430 
 12 C        1.2370     4.7670     2.2790 C.ar  1 <1>  -0.1500 
 13 C       -4.1950     4.4630    -0.5630 C.ar  1 <1>   0.1660 
 14 C       -3.9450     1.9480    -0.9720 C.3   1 <1>  -0.1600 
 15 C       -2.2420     3.7140    -1.7090 C.3   1 <1>  -0.1600 
 16 C        2.1810     4.9130     1.2800 C.ar  1 <1>   0.0830 
 17 C        3.3830     4.4430    -0.6600 C.3   1 <1>  -0.0170 
 18 N       -5.3610     4.4860     0.0470 N.ar  1 <1>  -0.6200 
 19 C       -3.6900     5.5380    -1.2320 C.ar  1 <1>  -0.1430 
 20 C       -2.3330     5.2450    -1.8210 C.3   1 <1>  -0.0170 
 21 O        3.1010     5.8820     1.2100 O.3   1 <1>  -0.3630 
 22 C        3.9300     5.6830     0.0730 C.3   1 <1>   0.1200 
 23 C       -6.0100     5.6370    -0.0550 C.ar  1 <1>   0.4770 
 24 C       -4.4470     6.6820    -1.2710 C.ar  1 <1>   0.1600 
 25 N       -5.6230     6.7410    -0.6790 N.ar  1 <1>  -0.6200 
 26 C       -7.3580     5.7030     0.6200 C.3   1 <1>  -0.0970 
 27 H       -1.8370     4.0130     0.8590 H     1 <1>   0.0800 
 28 H       -3.2780     3.3490     1.5500 H     1 <1>   0.0800 
 29 H       -3.0110     0.3580     1.9410 H     1 <1>   0.0800 
 30 H       -2.3680    -0.0920     0.3870 H     1 <1>   0.0800 
 31 H        1.4450     2.2600    -0.6540 H     1 <1>   0.1500 
 32 H       -0.3790     3.5600     2.9730 H     1 <1>   0.1500 
 33 H       -4.8110     1.5650     0.9610 H     1 <1>   0.0800 
 34 H       -4.6680     0.1490    -0.0290 H     1 <1>   0.0800 
 35 H        1.2040     5.4710     3.0900 H     1 <1>   0.1500 
 36 H       -3.3330     1.3930    -1.6610 H     1 <1>   0.0800 
 37 H       -4.8840     2.1490    -1.4600 H     1 <1>   0.0800 
 38 H       -2.5520     3.3000    -2.6530 H     1 <1>   0.0800 
 39 H       -1.2390     3.3810    -1.5070 H     1 <1>   0.0800 
 40 H        3.0260     4.7010    -1.6400 H     1 <1>   0.0800 
 41 H        4.1330     3.6750    -0.7310 H     1 <1>   0.0800 
 42 H       -2.2600     5.5730    -2.8430 H     1 <1>   0.0800 
 43 H       -1.5690     5.7170    -1.2270 H     1 <1>   0.0800 
 44 H        3.8790     6.5640    -0.5410 H     1 <1>   0.0800 
 45 H        4.9360     5.5250     0.4180 H     1 <1>   0.0800 
 46 H       -4.0910     7.5560    -1.7880 H     1 <1>   0.1500 
 47 H       -7.4570     4.9110     1.3390 H     1 <1>   0.0800 
 48 H       -8.1290     5.6070    -0.1200 H     1 <1>   0.0800 
 49 H       -7.4670     6.6460     1.1230 H     1 <1>   0.0800 
@<TRIPOS>BOND
  1   1   2  2   
  2   2   3  am  
  3   2   4  1   
  4   3   5  1   
  5   3   6  1   
  6   4   7  ar  
  7   4   8  ar  
  8   5   9  1   
  9   5  27  1   
 10   5  28  1   
 11   6  10  1   
 12   6  29  1   
 13   6  30  1   
 14   7  11  ar  
 15   7  31  1   
 16   8  12  ar  
 17   8  32  1   
 18   9  13  1   
 19   9  14  1   
 20   9  15  1   
 21  10  14  1   
 22  10  33  1   
 23  10  34  1   
 24  11  16  ar  
 25  11  17  1   
 26  12  16  ar  
 27  12  35  1   
 28  13  18  ar  
 29  13  19  ar  
 30  14  36  1   
 31  14  37  1   
 32  15  20  1   
 33  15  38  1   
 34  15  39  1   
 35  16  21  1   
 36  17  22  1   
 37  17  40  1   
 38  17  41  1   
 39  18  23  ar  
 40  19  20  1   
 41  19  24  ar  
 42  20  42  1   
 43  20  43  1   
 44  21  22  1   
 45  22  44  1   
 46  22  45  1   
 47  23  25  ar  
 48  23  26  1   
 49  24  25  ar  
 50  24  46  1   
 51  26  47  1   
 52  26  48  1   
 53  26  49  1   
@<TRIPOS>SUBSTRUCTURE
  1 ****   5 GROUP 4 **** **** 0

# MOE 2024.06 (io_trps.svl 2023.06)
