@<TRIPOS>MOLECULE
NONAME
51 54 1 0 0 
SMALL
USER_CHARGES


@<TRIPOS>ATOM
  1 O        0.8550    -1.9630     0.1820 O.3   1 <1>  -0.3630 
  2 C        1.1000    -0.8780    -0.5850 C.ar  1 <1>   0.0820 
  3 C        1.2640    -1.9030     1.5380 C.3   1 <1>   0.1200 
  4 C        0.0910     0.1020    -0.7630 C.ar  1 <1>   0.3100 
  5 C        2.3290    -0.7620    -1.1850 C.ar  1 <1>  -0.1500 
  6 C        0.0350    -1.8960     2.4610 C.3   1 <1>   0.2090 
  7 N       -1.1350    -0.0640    -0.1760 N.ar  1 <1>  -0.6200 
  8 C        0.4040     1.2310    -1.5540 C.ar  1 <1>   0.0000 
  9 C        2.6170     0.3500    -1.9780 C.ar  1 <1>  -0.1500 
 10 N       -0.7940    -3.1300     2.3160 N.pl3 1 <1>  -0.8690 
 11 C       -2.0050     0.8920    -0.3380 C.ar  1 <1>   0.1600 
 12 C       -0.5760     2.2250    -1.7070 C.ar  1 <1>  -0.1500 
 13 C        1.6740     1.3260    -2.1550 C.ar  1 <1>  -0.1500 
 14 C       -1.6280    -3.5230     1.3450 C.ar  1 <1>   0.7710 
 15 C       -1.7760     2.0500    -1.0910 C.ar  1 <1>  -0.1500 
 16 N       -2.2510    -4.6680     1.5440 N.ar  1 <1>  -0.6200 
 17 N       -1.8030    -2.7820     0.2410 N.ar  1 <1>  -0.1790 
 18 C       -3.0860    -5.0880     0.6090 C.ar  1 <1>   0.4100 
 19 C       -2.6220    -3.1850    -0.7530 C.ar  1 <1>   0.2110 
 20 N       -3.7490    -6.2540     0.8320 N.pl3 1 <1>  -0.8380 
 21 C       -3.2790    -4.3560    -0.5820 C.ar  1 <1>  -0.1500 
 22 C       -5.1110    -6.5760     0.2930 C.3   1 <1>   0.2090 
 23 C       -3.2090    -7.3310     1.7180 C.3   1 <1>   0.2090 
 24 C       -5.0670    -7.8880    -0.5070 C.3   1 <1>   0.2000 
 25 C       -3.1460    -8.6520     0.9380 C.3   1 <1>  -0.1600 
 26 O       -6.3440    -8.2270    -0.9180 O.3   1 <1>  -0.6800 
 27 C       -4.5060    -9.0420     0.3310 C.3   1 <1>  -0.1600 
 28 H        1.8530    -1.0150     1.6930 H     1 <1>   0.0800 
 29 H        1.8770    -2.7640     1.7390 H     1 <1>   0.0800 
 30 H        3.0770    -1.5240    -1.0530 H     1 <1>   0.1500 
 31 H       -0.5620    -1.0210     2.2660 H     1 <1>   0.0800 
 32 H        0.3720    -1.8280     3.4810 H     1 <1>   0.0800 
 33 H        3.5860     0.4280    -2.4430 H     1 <1>   0.1500 
 34 H       -0.7340    -3.7890     3.0990 H     1 <1>   0.4000 
 35 H       -2.9700     0.7980     0.1330 H     1 <1>   0.1500 
 36 H       -0.3630     3.1000    -2.2980 H     1 <1>   0.1500 
 37 H        1.8960     2.1870    -2.7620 H     1 <1>   0.1500 
 38 H       -2.5570     2.7870    -1.1710 H     1 <1>   0.1500 
 39 H       -1.2420    -1.9210     0.1730 H     1 <1>   0.4570 
 40 H       -2.7130    -2.5720    -1.6350 H     1 <1>   0.1500 
 41 H       -3.9290    -4.7430    -1.3420 H     1 <1>   0.1500 
 42 H       -5.4840    -5.7840    -0.3290 H     1 <1>   0.0800 
 43 H       -5.7850    -6.6900     1.1240 H     1 <1>   0.0800 
 44 H       -3.8500    -7.4380     2.5770 H     1 <1>   0.0800 
 45 H       -2.2220    -7.0850     2.0690 H     1 <1>   0.0800 
 46 H       -4.4720    -7.7420    -1.3920 H     1 <1>   0.0800 
 47 H       -2.8090    -9.4330     1.5950 H     1 <1>   0.0800 
 48 H       -2.4160    -8.5500     0.1540 H     1 <1>   0.0800 
 49 H       -6.8580    -8.5930    -0.1740 H     1 <1>   0.4000 
 50 H       -4.3850    -9.9130    -0.2900 H     1 <1>   0.0800 
 51 H       -5.1860    -9.2760     1.1310 H     1 <1>   0.0800 
@<TRIPOS>BOND
  1   1   2  1   
  2   1   3  1   
  3   2   4  ar  
  4   2   5  ar  
  5   3   6  1   
  6   3  28  1   
  7   3  29  1   
  8   4   7  ar  
  9   4   8  ar  
 10   5   9  ar  
 11   5  30  1   
 12   6  10  1   
 13   6  31  1   
 14   6  32  1   
 15   7  11  ar  
 16   8  12  ar  
 17   8  13  ar  
 18   9  13  ar  
 19   9  33  1   
 20  10  14  1   
 21  10  34  1   
 22  11  15  ar  
 23  11  35  1   
 24  12  15  ar  
 25  12  36  1   
 26  13  37  1   
 27  14  16  ar  
 28  14  17  ar  
 29  15  38  1   
 30  16  18  ar  
 31  17  19  ar  
 32  17  39  1   
 33  18  20  1   
 34  18  21  ar  
 35  19  21  ar  
 36  19  40  1   
 37  20  22  1   
 38  20  23  1   
 39  21  41  1   
 40  22  24  1   
 41  22  42  1   
 42  22  43  1   
 43  23  25  1   
 44  23  44  1   
 45  23  45  1   
 46  24  26  1   
 47  24  27  1   
 48  24  46  1   
 49  25  27  1   
 50  25  47  1   
 51  25  48  1   
 52  26  49  1   
 53  27  50  1   
 54  27  51  1   
@<TRIPOS>SUBSTRUCTURE
  1 ****  17 GROUP 4 **** **** 0

# MOE 2024.06 (io_trps.svl 2023.06)
