@<TRIPOS>MOLECULE
NONAME
46 48 1 0 0 
SMALL
USER_CHARGES


@<TRIPOS>ATOM
  1 O       -2.0940    -1.5560    -2.4740 O.2   1 <1>  -0.5700 
  2 C       -2.5320    -1.7500    -1.3500 C.2   1 <1>   0.5410 
  3 C       -3.2170    -0.7690    -0.5370 C.2   1 <1>   0.0910 
  4 C       -2.3840    -3.0300    -0.7480 C.2   1 <1>  -0.1360 
  5 O       -3.4650     0.5150    -0.9500 O.3   1 <1>  -0.3570 
  6 C       -3.6570    -1.1170     0.6970 C.2   1 <1>  -0.0730 
  7 C       -2.8560    -3.2890     0.4940 C.2   1 <1>  -0.0620 
  8 C       -2.5290     1.1830    -1.7710 C.3   1 <1>   0.0400 
  9 O       -3.4790    -2.3440     1.2050 O.3   1 <1>  -0.1530 
 10 C       -2.7340    -4.6370     1.1870 C.3   1 <1>   0.2480 
 11 N       -3.8490    -5.5390     0.8210 N.3   1 <1>  -0.8100 
 12 C       -3.6230    -6.8980     1.3680 C.3   1 <1>   0.2530 
 13 C       -5.1790    -5.0140     1.2240 C.3   1 <1>   0.1100 
 14 C       -2.3760    -7.5640     0.7900 C.ar  1 <1>   0.1670 
 15 C       -5.9170    -4.3660     0.0340 C.3   1 <1>   0.2200 
 16 N       -1.3340    -7.7040     1.6010 N.ar  1 <1>  -0.6200 
 17 C       -2.3900    -7.9800    -0.5330 C.ar  1 <1>  -0.1500 
 18 N       -5.9280    -5.2920    -1.0980 N.am  1 <1>  -0.7300 
 19 C       -7.4150    -4.1300     0.3020 C.3   1 <1>  -0.1600 
 20 C       -0.2700    -8.2850     1.0680 C.ar  1 <1>   0.1600 
 21 C       -1.2740    -8.5810    -1.0730 C.ar  1 <1>  -0.1500 
 22 C       -7.1190    -5.8420    -1.3490 C.2   1 <1>   0.5690 
 23 C       -8.1790    -5.2140    -0.4890 C.3   1 <1>  -0.0990 
 24 C       -0.1880    -8.7330    -0.2390 C.ar  1 <1>  -0.1500 
 25 O       -7.3150    -6.7560    -2.1090 O.2   1 <1>  -0.5700 
 26 H       -1.8850    -3.7760    -1.3380 H     1 <1>   0.1500 
 27 H       -4.1740    -0.4380     1.3500 H     1 <1>   0.1500 
 28 H       -2.7380     2.2360    -1.7310 H     1 <1>   0.0800 
 29 H       -2.6370     0.8320    -2.7820 H     1 <1>   0.0800 
 30 H       -1.5340     0.9900    -1.4070 H     1 <1>   0.0800 
 31 H       -2.6920    -4.5040     2.2550 H     1 <1>   0.0800 
 32 H       -1.8020    -5.0790     0.8770 H     1 <1>   0.0800 
 33 H       -3.5400    -6.8540     2.4410 H     1 <1>   0.0800 
 34 H       -4.4660    -7.5210     1.1260 H     1 <1>   0.0800 
 35 H       -5.7960    -5.8180     1.5870 H     1 <1>   0.0800 
 36 H       -5.0800    -4.3030     2.0260 H     1 <1>   0.0800 
 37 H       -5.4380    -3.4450    -0.2510 H     1 <1>   0.0800 
 38 H       -3.2690    -7.8270    -1.1330 H     1 <1>   0.1500 
 39 H       -5.0460    -5.7260    -1.3770 H     1 <1>   0.3700 
 40 H       -7.6490    -4.1590     1.3510 H     1 <1>   0.0800 
 41 H       -7.6810    -3.1590    -0.0760 H     1 <1>   0.0800 
 42 H        0.5860    -8.4100     1.7100 H     1 <1>   0.1500 
 43 H       -1.2530    -8.9140    -2.0960 H     1 <1>   0.1500 
 44 H       -8.9550    -4.7930    -1.1010 H     1 <1>   0.0800 
 45 H       -8.5880    -5.9610     0.1650 H     1 <1>   0.0800 
 46 H        0.7150    -9.1950    -0.5950 H     1 <1>   0.1500 
@<TRIPOS>BOND
  1   1   2  2   
  2   2   3  1   
  3   2   4  1   
  4   3   5  1   
  5   3   6  2   
  6   4   7  2   
  7   4  26  1   
  8   5   8  1   
  9   6   9  1   
 10   6  27  1   
 11   7   9  1   
 12   7  10  1   
 13   8  28  1   
 14   8  29  1   
 15   8  30  1   
 16  10  11  1   
 17  10  31  1   
 18  10  32  1   
 19  11  12  1   
 20  11  13  1   
 21  12  14  1   
 22  12  33  1   
 23  12  34  1   
 24  13  15  1   
 25  13  35  1   
 26  13  36  1   
 27  14  16  ar  
 28  14  17  ar  
 29  15  18  1   
 30  15  19  1   
 31  15  37  1   
 32  16  20  ar  
 33  17  21  ar  
 34  17  38  1   
 35  18  22  am  
 36  18  39  1   
 37  19  23  1   
 38  19  40  1   
 39  19  41  1   
 40  20  24  ar  
 41  20  42  1   
 42  21  24  ar  
 43  21  43  1   
 44  22  23  1   
 45  22  25  2   
 46  23  44  1   
 47  23  45  1   
 48  24  46  1   
@<TRIPOS>SUBSTRUCTURE
  1 ****  11 GROUP 4 **** **** 0

# MOE 2024.06 (io_trps.svl 2023.06)
