@<TRIPOS>MOLECULE
NONAME
56 58 1 0 0 
SMALL
USER_CHARGES


@<TRIPOS>ATOM
  1 F        1.3160     2.3700     3.1510 F     1 <1>  -0.1900 
  2 C        2.3800     2.5900     2.4210 C.ar  1 <1>   0.1900 
  3 C        2.3070     2.3830     1.0580 C.ar  1 <1>  -0.1500 
  4 C        3.5350     3.0200     3.0420 C.ar  1 <1>  -0.1500 
  5 C        3.4280     2.6130     0.2750 C.ar  1 <1>  -0.1440 
  6 C        4.6510     3.2470     2.2580 C.ar  1 <1>  -0.1500 
  7 C        4.6160     3.0480     0.8800 C.ar  1 <1>   0.1000 
  8 C        3.3220     2.3820    -1.2270 C.3   1 <1>  -0.0960 
  9 N        5.7860     3.2990     0.1670 N.pl3 1 <1>  -0.8380 
 10 C        5.9650     4.6130    -0.4690 C.3   1 <1>   0.2090 
 11 C        6.5330     2.1780    -0.4230 C.3   1 <1>   0.2090 
 12 C        7.4380     4.9800    -0.3270 C.3   1 <1>  -0.1600 
 13 C        8.0170     2.5020    -0.2880 C.3   1 <1>  -0.1600 
 14 C        8.3530     3.8770    -0.8980 C.3   1 <1>   0.4230 
 15 N        9.7870     4.2440    -0.6280 N.4   1 <1>  -0.9590 
 16 C       10.2000     5.4660    -1.3910 C.3   1 <1>   0.3430 
 17 C       10.7670     3.1390    -0.9020 C.3   1 <1>   0.2630 
 18 C       11.2460     6.3000    -0.6330 C.3   1 <1>  -0.0800 
 19 C       10.6330     6.9070     0.6440 C.3   1 <1>   0.1400 
 20 C       11.5730     7.5410    -1.4870 C.3   1 <1>  -0.0990 
 21 N        9.9950     8.1300     0.1390 N.am  1 <1>  -0.6600 
 22 C       10.5070     8.5100    -1.0540 C.2   1 <1>   0.5690 
 23 C        9.0070     8.9000     0.9310 C.3   1 <1>   0.1400 
 24 O       10.1450     9.4390    -1.7270 O.2   1 <1>  -0.5700 
 25 C        9.6770     9.4740     2.1760 C.3   1 <1>  -0.2400 
 26 H        1.3810     2.0470     0.6280 H     1 <1>   0.1500 
 27 H        3.5540     3.1710     4.1050 H     1 <1>   0.1500 
 28 H        5.5650     3.5810     2.7100 H     1 <1>   0.1500 
 29 H        2.2970     2.2500    -1.5230 H     1 <1>   0.0800 
 30 H        3.8700     1.5000    -1.5000 H     1 <1>   0.0800 
 31 H        3.7170     3.2250    -1.7620 H     1 <1>   0.0800 
 32 H        5.3440     5.3440     0.0240 H     1 <1>   0.0800 
 33 H        5.6790     4.5600    -1.5050 H     1 <1>   0.0800 
 34 H        6.2580     2.0620    -1.4580 H     1 <1>   0.0800 
 35 H        6.2950     1.2660     0.1020 H     1 <1>   0.0800 
 36 H        7.6390     5.1240     0.7200 H     1 <1>   0.0800 
 37 H        7.5780     5.9160    -0.8330 H     1 <1>   0.0800 
 38 H        8.5550     1.7180    -0.7870 H     1 <1>   0.0800 
 39 H        8.2640     2.4860     0.7580 H     1 <1>   0.0800 
 40 H        8.1920     3.8170    -1.9630 H     1 <1>   0.0800 
 41 H        9.8240     4.4590     0.3760 H     1 <1>   0.4500 
 42 H        9.3510     6.1000    -1.5780 H     1 <1>   0.0800 
 43 H       10.5970     5.1770    -2.3510 H     1 <1>   0.0800 
 44 H       10.6950     2.8200    -1.9290 H     1 <1>   0.0800 
 45 H       10.5720     2.2930    -0.2630 H     1 <1>   0.0800 
 46 H       11.7740     3.4750    -0.7160 H     1 <1>   0.0800 
 47 H       12.1300     5.7220    -0.4300 H     1 <1>   0.0800 
 48 H       11.4040     7.1780     1.3470 H     1 <1>   0.0800 
 49 H        9.9140     6.2690     1.1260 H     1 <1>   0.0800 
 50 H       11.5320     7.3640    -2.5460 H     1 <1>   0.0800 
 51 H       12.5310     7.9530    -1.2250 H     1 <1>   0.0800 
 52 H        8.1860     8.2620     1.2080 H     1 <1>   0.0800 
 53 H        8.6200     9.7070     0.3300 H     1 <1>   0.0800 
 54 H       10.0170     8.6910     2.8280 H     1 <1>   0.0800 
 55 H        8.9700    10.0790     2.7160 H     1 <1>   0.0800 
 56 H       10.5070    10.0980     1.8940 H     1 <1>   0.0800 
@<TRIPOS>BOND
  1   1   2  1   
  2   2   3  ar  
  3   2   4  ar  
  4   3   5  ar  
  5   3  26  1   
  6   4   6  ar  
  7   4  27  1   
  8   5   7  ar  
  9   5   8  1   
 10   6   7  ar  
 11   6  28  1   
 12   7   9  1   
 13   8  29  1   
 14   8  30  1   
 15   8  31  1   
 16   9  10  1   
 17   9  11  1   
 18  10  12  1   
 19  10  32  1   
 20  10  33  1   
 21  11  13  1   
 22  11  34  1   
 23  11  35  1   
 24  12  14  1   
 25  12  36  1   
 26  12  37  1   
 27  13  14  1   
 28  13  38  1   
 29  13  39  1   
 30  14  15  1   
 31  14  40  1   
 32  15  16  1   
 33  15  17  1   
 34  15  41  1   
 35  16  18  1   
 36  16  42  1   
 37  16  43  1   
 38  17  44  1   
 39  17  45  1   
 40  17  46  1   
 41  18  19  1   
 42  18  20  1   
 43  18  47  1   
 44  19  21  1   
 45  19  48  1   
 46  19  49  1   
 47  20  22  1   
 48  20  50  1   
 49  20  51  1   
 50  21  22  am  
 51  21  23  1   
 52  22  24  2   
 53  23  25  1   
 54  23  52  1   
 55  23  53  1   
 56  25  54  1   
 57  25  55  1   
 58  25  56  1   
@<TRIPOS>SUBSTRUCTURE
  1 ****  12 GROUP 4 **** **** 0

# MOE 2024.06 (io_trps.svl 2023.06)
