@<TRIPOS>MOLECULE
NONAME
51 53 1 0 0 
SMALL
USER_CHARGES


@<TRIPOS>ATOM
  1 F       -2.0920    -1.1170    -1.3160 F     1 <1>  -0.1900 
  2 C       -2.1150     0.0110    -0.6580 C.ar  1 <1>   0.1900 
  3 C       -2.8380     0.0990     0.5310 C.ar  1 <1>   0.0860 
  4 C       -1.4030     1.0650    -1.1960 C.ar  1 <1>  -0.1500 
  5 C       -2.7990     1.3340     1.1990 C.ar  1 <1>  -0.1440 
  6 C       -3.5820    -1.0410     1.0320 C.2   1 <1>   0.5440 
  7 C       -1.3920     2.2720    -0.5250 C.ar  1 <1>  -0.1500 
  8 C       -2.0860     2.3990     0.6670 C.ar  1 <1>  -0.1500 
  9 C       -3.5280     1.5290     2.5230 C.3   1 <1>  -0.0960 
 10 O       -3.2880    -1.5030     2.1190 O.2   1 <1>  -0.5700 
 11 N       -4.6220    -1.6300     0.3300 N.am  1 <1>  -0.6600 
 12 C       -5.3400    -0.9560    -0.8000 C.3   1 <1>   0.2200 
 13 C       -4.8500    -3.0990     0.5140 C.3   1 <1>   0.0600 
 14 C       -5.7940     0.4590    -0.4400 C.3   1 <1>  -0.1600 
 15 C       -6.6600    -1.6350    -1.1720 C.3   1 <1>  -0.1600 
 16 C       -6.9550     0.7830    -1.3910 C.3   1 <1>  -0.0800 
 17 C       -7.4910    -0.5630    -1.8880 C.3   1 <1>  -0.0800 
 18 C       -8.1290     1.4930    -0.7030 C.3   1 <1>  -0.1600 
 19 C       -8.9770    -0.5990    -1.5170 C.3   1 <1>  -0.1600 
 20 C       -9.1140     0.3800    -0.3530 C.3   1 <1>   0.4230 
 21 N      -10.5080     0.8930    -0.2180 N.4   1 <1>  -0.9590 
 22 C      -10.6210     1.9230     0.8630 C.3   1 <1>   0.2630 
 23 C      -11.4870    -0.2110     0.0340 C.3   1 <1>   0.2630 
 24 H       -0.8660     0.9380    -2.1190 H     1 <1>   0.1500 
 25 H       -0.8430     3.1090    -0.9230 H     1 <1>   0.1500 
 26 H       -2.0590     3.3430     1.1840 H     1 <1>   0.1500 
 27 H       -3.5290     2.5620     2.8200 H     1 <1>   0.0800 
 28 H       -3.0420     0.9550     3.2920 H     1 <1>   0.0800 
 29 H       -4.5480     1.1980     2.4450 H     1 <1>   0.0800 
 30 H       -4.7030    -0.9250    -1.6690 H     1 <1>   0.0800 
 31 H       -4.8680    -3.5950    -0.4400 H     1 <1>   0.0800 
 32 H       -5.7790    -3.2650     1.0290 H     1 <1>   0.0800 
 33 H       -4.0580    -3.5380     1.0970 H     1 <1>   0.0800 
 34 H       -6.1270     0.4660     0.5830 H     1 <1>   0.0800 
 35 H       -5.0060     1.1780    -0.5680 H     1 <1>   0.0800 
 36 H       -6.4990    -2.4870    -1.8090 H     1 <1>   0.0800 
 37 H       -7.1650    -1.9430    -0.2740 H     1 <1>   0.0800 
 38 H       -6.5890     1.3670    -2.2210 H     1 <1>   0.0800 
 39 H       -7.3540    -0.6510    -2.9540 H     1 <1>   0.0800 
 40 H       -8.5740     2.1700    -1.4110 H     1 <1>   0.0800 
 41 H       -7.8080     2.0420     0.1640 H     1 <1>   0.0800 
 42 H       -9.2960    -1.5930    -1.2560 H     1 <1>   0.0800 
 43 H       -9.5450    -0.2500    -2.3610 H     1 <1>   0.0800 
 44 H       -8.7940    -0.1030     0.5570 H     1 <1>   0.0800 
 45 H      -10.7460     1.3390    -1.1160 H     1 <1>   0.4500 
 46 H      -10.3440     1.4990     1.8150 H     1 <1>   0.0800 
 47 H      -11.6340     2.2860     0.9290 H     1 <1>   0.0800 
 48 H       -9.9730     2.7600     0.6570 H     1 <1>   0.0800 
 49 H      -11.2460    -0.7240     0.9510 H     1 <1>   0.0800 
 50 H      -11.4690    -0.9240    -0.7750 H     1 <1>   0.0800 
 51 H      -12.4870     0.1860     0.1130 H     1 <1>   0.0800 
@<TRIPOS>BOND
  1   1   2  1   
  2   2   3  ar  
  3   2   4  ar  
  4   3   5  ar  
  5   3   6  1   
  6   4   7  ar  
  7   4  24  1   
  8   5   8  ar  
  9   5   9  1   
 10   6  10  2   
 11   6  11  am  
 12   7   8  ar  
 13   7  25  1   
 14   8  26  1   
 15   9  27  1   
 16   9  28  1   
 17   9  29  1   
 18  11  12  1   
 19  11  13  1   
 20  12  14  1   
 21  12  15  1   
 22  12  30  1   
 23  13  31  1   
 24  13  32  1   
 25  13  33  1   
 26  14  16  1   
 27  14  34  1   
 28  14  35  1   
 29  15  17  1   
 30  15  36  1   
 31  15  37  1   
 32  16  17  1   
 33  16  18  1   
 34  16  38  1   
 35  17  19  1   
 36  17  39  1   
 37  18  20  1   
 38  18  40  1   
 39  18  41  1   
 40  19  20  1   
 41  19  42  1   
 42  19  43  1   
 43  20  21  1   
 44  20  44  1   
 45  21  22  1   
 46  21  23  1   
 47  21  45  1   
 48  22  46  1   
 49  22  47  1   
 50  22  48  1   
 51  23  49  1   
 52  23  50  1   
 53  23  51  1   
@<TRIPOS>SUBSTRUCTURE
  1 ****  14 GROUP 4 **** **** 0

# MOE 2024.06 (io_trps.svl 2023.06)
