@<TRIPOS>MOLECULE
NONAME
56 58 1 0 0 
SMALL
USER_CHARGES


@<TRIPOS>ATOM
  1 O       -1.3630     0.3930    -1.4710 O.3   1 <1>  -0.5600 
  2 C       -1.4310    -0.3890    -0.3090 C.3   1 <1>   0.3800 
  3 C       -0.4660     1.4590    -1.4090 C.3   1 <1>   0.1200 
  4 C       -2.3530    -1.5740    -0.5630 C.2   1 <1>  -0.0400 
  5 C       -1.9430     0.4830     0.8480 C.3   1 <1>  -0.1600 
  6 C       -0.9160     2.4440    -0.3230 C.3   1 <1>  -0.1600 
  7 O       -2.5100    -2.4840     0.3810 O.3   1 <1>  -0.2800 
  8 C       -3.0910    -1.8970    -1.6450 C.2   1 <1>  -0.1500 
  9 C       -1.0790     1.7370     1.0270 C.3   1 <1>  -0.1600 
 10 C       -3.3480    -3.4010    -0.0630 C.2   1 <1>  -0.0400 
 11 C       -3.7420    -3.0920    -1.3210 C.2   1 <1>  -0.1500 
 12 C       -3.6730    -4.5420     0.8990 C.3   1 <1>   0.2900 
 13 N       -4.7840    -5.4280     0.4780 N.3   1 <1>  -0.8100 
 14 C       -4.3740    -6.3230    -0.6200 C.3   1 <1>   0.2900 
 15 C       -6.0410    -4.6870     0.2220 C.3   1 <1>   0.1100 
 16 C       -5.4980    -7.2960    -0.8930 C.2   1 <1>  -0.3320 
 17 C       -7.2220    -5.3770     0.9270 C.3   1 <1>   0.3430 
 18 N       -5.8150    -8.3220    -0.0820 N.pl3 1 <1>   0.0330 
 19 C       -6.3780    -7.3330    -1.9160 C.2   1 <1>   0.0770 
 20 N       -8.5550    -4.9190     0.4150 N.4   1 <1>  -0.9590 
 21 C       -6.9030    -8.8920    -0.6440 C.2   1 <1>   0.0060 
 22 N       -7.2830    -8.3110    -1.7350 N.2   1 <1>  -0.5650 
 23 C       -9.6250    -5.2330     1.4090 C.3   1 <1>   0.2630 
 24 C       -8.8700    -5.5830    -0.8910 C.3   1 <1>   0.2630 
 25 C       -7.5930   -10.1020    -0.0500 C.3   1 <1>  -0.0600 
 26 H       -0.4420    -0.7550    -0.0950 H     1 <1>   0.0800 
 27 H       -0.4600     1.9380    -2.3730 H     1 <1>   0.0800 
 28 H        0.5170     1.0710    -1.2040 H     1 <1>   0.0800 
 29 H       -1.9430    -0.0940     1.7560 H     1 <1>   0.0800 
 30 H       -2.9600     0.7650     0.6390 H     1 <1>   0.0800 
 31 H       -1.8540     2.8800    -0.6220 H     1 <1>   0.0800 
 32 H       -0.1970     3.2390    -0.2370 H     1 <1>   0.0800 
 33 H       -3.1700    -1.3570    -2.5730 H     1 <1>   0.1500 
 34 H       -0.1090     1.4520     1.3990 H     1 <1>   0.0800 
 35 H       -1.5320     2.4010     1.7430 H     1 <1>   0.0800 
 36 H       -4.4100    -3.6060    -1.9850 H     1 <1>   0.1500 
 37 H       -3.9300    -4.1050     1.8490 H     1 <1>   0.0800 
 38 H       -2.7820    -5.1270     1.0550 H     1 <1>   0.0800 
 39 H       -3.4850    -6.8670    -0.3420 H     1 <1>   0.0800 
 40 H       -4.1550    -5.7600    -1.5100 H     1 <1>   0.0800 
 41 H       -6.2170    -4.6300    -0.8370 H     1 <1>   0.0800 
 42 H       -5.9640    -3.6830     0.6050 H     1 <1>   0.0800 
 43 H       -7.1440    -5.1720     1.9820 H     1 <1>   0.0800 
 44 H       -7.1420    -6.4410     0.7870 H     1 <1>   0.0800 
 45 H       -5.3290    -8.6120     0.7730 H     1 <1>   0.2700 
 46 H       -6.4180    -6.6900    -2.7800 H     1 <1>   0.1500 
 47 H       -8.5210    -3.8980     0.2770 H     1 <1>   0.4500 
 48 H       -9.6820    -6.2970     1.5710 H     1 <1>   0.0800 
 49 H      -10.5810    -4.8880     1.0490 H     1 <1>   0.0800 
 50 H       -9.4170    -4.7500     2.3500 H     1 <1>   0.0800 
 51 H       -8.8840    -6.6560    -0.7730 H     1 <1>   0.0800 
 52 H       -8.1250    -5.3370    -1.6300 H     1 <1>   0.0800 
 53 H       -9.8330    -5.2640    -1.2550 H     1 <1>   0.0800 
 54 H       -7.9370    -9.8880     0.9450 H     1 <1>   0.0800 
 55 H       -6.9140   -10.9340    -0.0200 H     1 <1>   0.0800 
 56 H       -8.4380   -10.3750    -0.6580 H     1 <1>   0.0800 
@<TRIPOS>BOND
  1   1   2  1   
  2   1   3  1   
  3   2   4  1   
  4   2   5  1   
  5   2  26  1   
  6   3   6  1   
  7   3  27  1   
  8   3  28  1   
  9   4   7  1   
 10   4   8  2   
 11   5   9  1   
 12   5  29  1   
 13   5  30  1   
 14   6   9  1   
 15   6  31  1   
 16   6  32  1   
 17   7  10  1   
 18   8  11  1   
 19   8  33  1   
 20   9  34  1   
 21   9  35  1   
 22  10  11  2   
 23  10  12  1   
 24  11  36  1   
 25  12  13  1   
 26  12  37  1   
 27  12  38  1   
 28  13  14  1   
 29  13  15  1   
 30  14  16  1   
 31  14  39  1   
 32  14  40  1   
 33  15  17  1   
 34  15  41  1   
 35  15  42  1   
 36  16  18  1   
 37  16  19  2   
 38  17  20  1   
 39  17  43  1   
 40  17  44  1   
 41  18  21  1   
 42  18  45  1   
 43  19  22  1   
 44  19  46  1   
 45  20  23  1   
 46  20  24  1   
 47  20  47  1   
 48  21  22  2   
 49  21  25  1   
 50  23  48  1   
 51  23  49  1   
 52  23  50  1   
 53  24  51  1   
 54  24  52  1   
 55  24  53  1   
 56  25  54  1   
 57  25  55  1   
 58  25  56  1   
@<TRIPOS>SUBSTRUCTURE
  1 ****  10 GROUP 4 **** **** 0

# MOE 2024.06 (io_trps.svl 2023.06)
