@<TRIPOS>MOLECULE
NONAME
48 51 1 0 0 
SMALL
USER_CHARGES


@<TRIPOS>ATOM
  1 O       -1.0240     0.3390     1.3880 O.2   1 <1>  -0.5700 
  2 C       -1.1740     1.2010     0.5420 C.2   1 <1>   0.5440 
  3 N       -2.0910     0.9880    -0.4680 N.am  1 <1>  -0.6600 
  4 C       -0.3890     2.4190     0.6390 C.ar  1 <1>   0.0860 
  5 C       -2.6610    -0.3800    -0.6730 C.3   1 <1>   0.1400 
  6 C       -2.6400     2.0850    -1.3200 C.3   1 <1>   0.1400 
  7 C        0.3000     2.9430    -0.4360 C.ar  1 <1>  -0.1500 
  8 C       -0.2990     3.1050     1.8650 C.ar  1 <1>  -0.1500 
  9 C       -3.8760    -0.6310     0.2330 C.3   1 <1>   0.1400 
 10 C       -4.1670     2.0510    -1.4740 C.3   1 <1>  -0.1600 
 11 C        1.0450     4.1250    -0.3500 C.ar  1 <1>   0.3100 
 12 C        0.4260     4.2600     1.9860 C.ar  1 <1>  -0.1500 
 13 N       -5.0840     0.1380    -0.2100 N.am  1 <1>  -0.6600 
 14 C       -4.9220     1.6180    -0.2130 C.3   1 <1>   0.1400 
 15 N        1.6770     4.5880    -1.4610 N.ar  1 <1>  -0.6200 
 16 C        1.1120     4.8070     0.8920 C.ar  1 <1>   0.3100 
 17 C       -6.2910    -0.4360    -0.5600 C.2   1 <1>   0.5690 
 18 C        2.3360     5.6880    -1.2690 C.ar  1 <1>   0.1600 
 19 N        1.8110     5.9600     1.0480 N.ar  1 <1>  -0.6200 
 20 O       -7.1870     0.2510    -1.0050 O.2   1 <1>  -0.5700 
 21 C       -6.5320    -1.9640    -0.4600 C.3   1 <1>   0.2610 
 22 C        2.4020     6.3640    -0.0330 C.ar  1 <1>   0.1600 
 23 O       -6.2710    -2.4880     0.8240 O.3   1 <1>  -0.5600 
 24 C       -7.9470    -2.4410    -0.7970 C.3   1 <1>  -0.1600 
 25 C       -7.1850    -3.4770     1.1870 C.3   1 <1>   0.1200 
 26 C       -8.0450    -3.7470    -0.0390 C.3   1 <1>  -0.1600 
 27 H       -2.9330    -0.5230    -1.7030 H     1 <1>   0.0800 
 28 H       -1.9040    -1.1080    -0.4340 H     1 <1>   0.0800 
 29 H       -2.3810     3.0330    -0.8820 H     1 <1>   0.0800 
 30 H       -2.1820     2.0390    -2.2930 H     1 <1>   0.0800 
 31 H        0.2810     2.4390    -1.3850 H     1 <1>   0.1500 
 32 H       -0.8170     2.6910     2.7150 H     1 <1>   0.1500 
 33 H       -3.6320    -0.3650     1.2470 H     1 <1>   0.0800 
 34 H       -4.0740    -1.6850     0.2220 H     1 <1>   0.0800 
 35 H       -4.4440     1.4160    -2.2970 H     1 <1>   0.0800 
 36 H       -4.4860     3.0440    -1.7340 H     1 <1>   0.0800 
 37 H        0.4910     4.7810     2.9250 H     1 <1>   0.1500 
 38 H       -5.8910     2.0880    -0.2030 H     1 <1>   0.0800 
 39 H       -4.4020     1.9340     0.6750 H     1 <1>   0.0800 
 40 H        2.8680     6.1190    -2.0990 H     1 <1>   0.1500 
 41 H       -5.8460    -2.4490    -1.1290 H     1 <1>   0.0800 
 42 H        2.9800     7.2710     0.0090 H     1 <1>   0.1500 
 43 H       -8.6690    -1.7390    -0.4140 H     1 <1>   0.0800 
 44 H       -8.0920    -2.5530    -1.8560 H     1 <1>   0.0800 
 45 H       -6.6490    -4.3510     1.5150 H     1 <1>   0.0800 
 46 H       -7.7800    -3.0860     1.9950 H     1 <1>   0.0800 
 47 H       -7.6130    -4.5500    -0.6100 H     1 <1>   0.0800 
 48 H       -9.0570    -4.0000     0.2250 H     1 <1>   0.0800 
@<TRIPOS>BOND
  1   1   2  2   
  2   2   3  am  
  3   2   4  1   
  4   3   5  1   
  5   3   6  1   
  6   4   7  ar  
  7   4   8  ar  
  8   5   9  1   
  9   5  27  1   
 10   5  28  1   
 11   6  10  1   
 12   6  29  1   
 13   6  30  1   
 14   7  11  ar  
 15   7  31  1   
 16   8  12  ar  
 17   8  32  1   
 18   9  13  1   
 19   9  33  1   
 20   9  34  1   
 21  10  14  1   
 22  10  35  1   
 23  10  36  1   
 24  11  15  ar  
 25  11  16  ar  
 26  12  16  ar  
 27  12  37  1   
 28  13  14  1   
 29  13  17  am  
 30  14  38  1   
 31  14  39  1   
 32  15  18  ar  
 33  16  19  ar  
 34  17  20  2   
 35  17  21  1   
 36  18  22  ar  
 37  18  40  1   
 38  19  22  ar  
 39  21  23  1   
 40  21  24  1   
 41  21  41  1   
 42  22  42  1   
 43  23  25  1   
 44  24  26  1   
 45  24  43  1   
 46  24  44  1   
 47  25  26  1   
 48  25  45  1   
 49  25  46  1   
 50  26  47  1   
 51  26  48  1   
@<TRIPOS>SUBSTRUCTURE
  1 ****   3 GROUP 4 **** **** 0

# MOE 2024.06 (io_trps.svl 2023.06)
