@<TRIPOS>MOLECULE
NONAME
50 52 1 0 0 
SMALL
USER_CHARGES


@<TRIPOS>ATOM
  1 O        3.9070     2.3610     1.5260 O.co2 1 <1>  -0.9000 
  2 C        3.3450     1.2660     1.4680 C.2   1 <1>   0.9060 
  3 O        3.5530     0.4030     2.3260 O.co2 1 <1>  -0.9000 
  4 C        2.7110     0.8280     0.1310 C.3   1 <1>  -0.1060 
  5 C        3.5780    -0.3580    -0.3370 C.3   1 <1>   0.4230 
  6 C        2.8110     1.9450    -0.9610 C.3   1 <1>  -0.1600 
  7 C        1.2200     0.4240     0.2820 C.3   1 <1>  -0.1600 
  8 N        3.3510    -1.5500     0.5610 N.4   1 <1>  -0.9590 
  9 C        5.0760     0.1070    -0.4270 C.3   1 <1>   0.3430 
 10 C        4.2160     2.1870    -1.5490 C.3   1 <1>   0.3430 
 11 C        1.0350    -0.8750     1.0790 C.3   1 <1>  -0.1600 
 12 C        1.9330    -2.0020     0.5690 C.3   1 <1>   0.3430 
 13 C        4.2890    -2.7000     0.4120 C.3   1 <1>   0.2630 
 14 N        5.2490     1.5900    -0.6620 N.4   1 <1>  -0.9590 
 15 C        6.6460     2.0250    -0.9270 C.3   1 <1>   0.4860 
 16 C        6.7060     3.5380    -1.0310 C.ar  1 <1>  -0.1440 
 17 C        6.2730     4.3360     0.0190 C.ar  1 <1>  -0.1500 
 18 C        7.1880     4.1370    -2.1850 C.ar  1 <1>  -0.1500 
 19 C        6.2990     5.7250    -0.0570 C.ar  1 <1>   0.0280 
 20 C        7.2270     5.5150    -2.2810 C.ar  1 <1>  -0.1500 
 21 C        6.7860     6.2970    -1.2290 C.ar  1 <1>  -0.1500 
 22 C        5.8220     6.5170     1.0560 C.2   1 <1>  -0.1780 
 23 C        5.9020     7.8460     1.2300 C.2   1 <1>  -0.3000 
 24 H        3.2600    -0.6260    -1.3300 H     1 <1>   0.0800 
 25 H        2.4600     2.8730    -0.5390 H     1 <1>   0.0800 
 26 H        2.1560     1.7290    -1.7860 H     1 <1>   0.0800 
 27 H        0.6810     1.2200     0.7700 H     1 <1>   0.0800 
 28 H        0.7770     0.2820    -0.6890 H     1 <1>   0.0800 
 29 H        3.4860    -1.1230     1.5210 H     1 <1>   0.4500 
 30 H        5.5610    -0.4410    -1.2160 H     1 <1>   0.0800 
 31 H        5.5560    -0.1360     0.5070 H     1 <1>   0.0800 
 32 H        4.3730     3.2510    -1.6430 H     1 <1>   0.0800 
 33 H        4.2850     1.7510    -2.5320 H     1 <1>   0.0800 
 34 H        0.0070    -1.1880     1.0160 H     1 <1>   0.0800 
 35 H        1.2440    -0.7010     2.1210 H     1 <1>   0.0800 
 36 H        1.6310    -2.2890    -0.4250 H     1 <1>   0.0800 
 37 H        1.8230    -2.8560     1.2190 H     1 <1>   0.0800 
 38 H        4.1980    -3.1370    -0.5700 H     1 <1>   0.0800 
 39 H        4.0630    -3.4560     1.1470 H     1 <1>   0.0800 
 40 H        5.3070    -2.3810     0.5650 H     1 <1>   0.0800 
 41 H        5.0130     2.0490     0.2610 H     1 <1>   0.4500 
 42 H        7.2870     1.7040    -0.1230 H     1 <1>   0.0800 
 43 H        7.0010     1.5870    -1.8450 H     1 <1>   0.0800 
 44 H        5.9000     3.8870     0.9260 H     1 <1>   0.1500 
 45 H        7.5370     3.5470    -3.0150 H     1 <1>   0.1500 
 46 H        7.6020     5.9850    -3.1740 H     1 <1>   0.1500 
 47 H        6.8200     7.3660    -1.3250 H     1 <1>   0.1500 
 48 H        5.3480     5.9300     1.8260 H     1 <1>   0.1500 
 49 H        5.5140     8.3520     2.0970 H     1 <1>   0.1500 
 50 H        6.3530     8.5320     0.5370 H     1 <1>   0.1500 
@<TRIPOS>BOND
  1   1   2  ar  
  2   2   3  ar  
  3   2   4  1   
  4   4   5  1   
  5   4   6  1   
  6   4   7  1   
  7   5   8  1   
  8   5   9  1   
  9   5  24  1   
 10   6  10  1   
 11   6  25  1   
 12   6  26  1   
 13   7  11  1   
 14   7  27  1   
 15   7  28  1   
 16   8  12  1   
 17   8  13  1   
 18   8  29  1   
 19   9  14  1   
 20   9  30  1   
 21   9  31  1   
 22  10  14  1   
 23  10  32  1   
 24  10  33  1   
 25  11  12  1   
 26  11  34  1   
 27  11  35  1   
 28  12  36  1   
 29  12  37  1   
 30  13  38  1   
 31  13  39  1   
 32  13  40  1   
 33  14  15  1   
 34  14  41  1   
 35  15  16  1   
 36  15  42  1   
 37  15  43  1   
 38  16  17  ar  
 39  16  18  ar  
 40  17  19  ar  
 41  17  44  1   
 42  18  20  ar  
 43  18  45  1   
 44  19  21  ar  
 45  19  22  1   
 46  20  21  ar  
 47  20  46  1   
 48  21  47  1   
 49  22  23  2   
 50  22  48  1   
 51  23  49  1   
 52  23  50  1   
@<TRIPOS>SUBSTRUCTURE
  1 ****  14 GROUP 4 **** **** 0

# MOE 2024.06 (io_trps.svl 2023.06)
