@<TRIPOS>MOLECULE
NONAME
45 46 1 0 0 
SMALL
USER_CHARGES


@<TRIPOS>ATOM
  1 S        0.7640    -0.9850    -0.7610 S.3   1 <1>  -0.0800 
  2 C        1.6840     0.4650    -1.0760 C.2   1 <1>   0.1980 
  3 C        0.7160    -0.5680     0.9230 C.2   1 <1>  -0.1400 
  4 N        1.9190     1.1790    -0.0400 N.2   1 <1>  -0.5650 
  5 C        2.0880     0.6730    -2.5300 C.3   1 <1>   0.0200 
  6 C        1.3730     0.5910     1.0970 C.2   1 <1>   0.0460 
  7 C       -0.0190    -1.5380     1.8310 C.3   1 <1>  -0.0600 
  8 C        3.0410     1.8590    -2.7400 C.3   1 <1>  -0.1600 
  9 C        1.5730     1.3080     2.4170 C.3   1 <1>  -0.0590 
 10 C        4.3820     1.6620    -2.0200 C.3   1 <1>   0.2090 
 11 N        4.9310     2.9810    -1.6420 N.pl3 1 <1>  -0.8690 
 12 C        4.5610     3.8250    -0.6740 C.ar  1 <1>   0.7710 
 13 N        5.2720     4.9280    -0.5630 N.ar  1 <1>  -0.6200 
 14 N        3.5080     3.5480     0.1160 N.ar  1 <1>  -0.1790 
 15 C        4.9280     5.8020     0.3670 C.ar  1 <1>   0.4100 
 16 C        3.1040     4.4260     1.0600 C.ar  1 <1>   0.2110 
 17 N        5.6830     6.9300     0.4880 N.pl3 1 <1>  -0.8380 
 18 C        3.8120     5.5710     1.2000 C.ar  1 <1>  -0.1500 
 19 C        5.7410     7.7800     1.7080 C.3   1 <1>   0.2090 
 20 C        6.6770     7.3290    -0.5590 C.3   1 <1>   0.1290 
 21 C        4.8310     8.9910     1.5250 C.3   1 <1>  -0.2400 
 22 H        1.1940     0.8340    -3.1070 H     1 <1>   0.0800 
 23 H        2.5510    -0.2280    -2.8930 H     1 <1>   0.0800 
 24 H       -1.0420    -1.6330     1.5120 H     1 <1>   0.0800 
 25 H       -0.0090    -1.2010     2.8510 H     1 <1>   0.0800 
 26 H        0.4470    -2.5060     1.7850 H     1 <1>   0.0800 
 27 H        2.5440     2.7500    -2.4010 H     1 <1>   0.0800 
 28 H        3.2300     1.9770    -3.7930 H     1 <1>   0.0800 
 29 H        1.1830     0.7250     3.2300 H     1 <1>   0.0800 
 30 H        1.0560     2.2490     2.4020 H     1 <1>   0.0800 
 31 H        2.6200     1.4700     2.5930 H     1 <1>   0.0800 
 32 H        5.0760     1.1530    -2.6700 H     1 <1>   0.0800 
 33 H        4.2750     1.0590    -1.1340 H     1 <1>   0.0800 
 34 H        5.7330     3.2990    -2.1970 H     1 <1>   0.4000 
 35 H        3.0180     2.6600    -0.0510 H     1 <1>   0.4570 
 36 H        2.2390     4.1930     1.6580 H     1 <1>   0.1500 
 37 H        3.5320     6.3100     1.9240 H     1 <1>   0.1500 
 38 H        6.7540     8.1060     1.8740 H     1 <1>   0.0800 
 39 H        5.4410     7.2150     2.5740 H     1 <1>   0.0800 
 40 H        6.3670     6.9830    -1.5300 H     1 <1>   0.0800 
 41 H        7.6380     6.9030    -0.3280 H     1 <1>   0.0800 
 42 H        6.7680     8.4000    -0.6030 H     1 <1>   0.0800 
 43 H        5.1670     9.5900     0.6990 H     1 <1>   0.0800 
 44 H        4.8530     9.5970     2.4130 H     1 <1>   0.0800 
 45 H        3.8180     8.6810     1.3460 H     1 <1>   0.0800 
@<TRIPOS>BOND
  1   1   2  1   
  2   1   3  1   
  3   2   4  2   
  4   2   5  1   
  5   3   6  2   
  6   3   7  1   
  7   4   6  1   
  8   5   8  1   
  9   5  22  1   
 10   5  23  1   
 11   6   9  1   
 12   7  24  1   
 13   7  25  1   
 14   7  26  1   
 15   8  10  1   
 16   8  27  1   
 17   8  28  1   
 18   9  29  1   
 19   9  30  1   
 20   9  31  1   
 21  10  11  1   
 22  10  32  1   
 23  10  33  1   
 24  11  12  1   
 25  11  34  1   
 26  12  13  ar  
 27  12  14  ar  
 28  13  15  ar  
 29  14  16  ar  
 30  14  35  1   
 31  15  17  1   
 32  15  18  ar  
 33  16  18  ar  
 34  16  36  1   
 35  17  19  1   
 36  17  20  1   
 37  18  37  1   
 38  19  21  1   
 39  19  38  1   
 40  19  39  1   
 41  20  40  1   
 42  20  41  1   
 43  20  42  1   
 44  21  43  1   
 45  21  44  1   
 46  21  45  1   
@<TRIPOS>SUBSTRUCTURE
  1 ****  14 GROUP 4 **** **** 0

# MOE 2024.06 (io_trps.svl 2023.06)
