@<TRIPOS>MOLECULE
NONAME
62 64 1 0 0 
SMALL
USER_CHARGES


@<TRIPOS>ATOM
  1 S       -0.0200     1.1890    -0.4650 S.o2  1 <1>   1.2040 
  2 O       -0.8900     1.8610    -1.4020 O.2   1 <1>  -0.6500 
  3 O        0.4760     1.9350     0.6770 O.2   1 <1>  -0.6500 
  4 C       -0.7330    -0.3910     0.0500 C.ar  1 <1>  -0.0090 
  5 C        1.4310     0.6900    -1.4050 C.3   1 <1>   0.0890 
  6 C       -0.2230    -1.0920     1.1370 C.ar  1 <1>  -0.1500 
  7 C       -1.7890    -0.9610    -0.6530 C.ar  1 <1>  -0.1500 
  8 C        2.4900    -0.0690    -0.5940 C.ar  1 <1>  -0.1440 
  9 C       -0.7430    -2.3200     1.5080 C.ar  1 <1>  -0.1500 
 10 C       -2.3160    -2.1880    -0.2880 C.ar  1 <1>  -0.1500 
 11 C        3.3160     0.5260     0.3650 C.ar  1 <1>  -0.1440 
 12 C        2.5960    -1.4330    -0.8250 C.ar  1 <1>  -0.1500 
 13 C       -1.7900    -2.8700     0.7940 C.ar  1 <1>  -0.1500 
 14 C        4.1950    -0.2680     1.0920 C.ar  1 <1>  -0.1500 
 15 C        3.2850     2.0210     0.6640 C.3   1 <1>   0.4860 
 16 C        3.4910    -2.2060    -0.1130 C.ar  1 <1>  -0.1500 
 17 C        4.2880    -1.6250     0.8520 C.ar  1 <1>  -0.1500 
 18 N        4.6370     2.6140     0.4110 N.4   1 <1>  -0.9590 
 19 C        4.6570     4.0440     0.8900 C.3   1 <1>   0.3430 
 20 C        4.9970     2.4080    -1.0280 C.3   1 <1>   0.3430 
 21 C        6.0530     4.5290     1.3770 C.3   1 <1>   0.3430 
 22 C        6.1990     3.2280    -1.5000 C.3   1 <1>  -0.1600 
 23 N        7.1540     4.5830     0.3440 N.4   1 <1>  -0.9590 
 24 C        7.3420     3.3580    -0.4950 C.3   1 <1>   0.3430 
 25 C        8.4390     4.9650     1.0180 C.3   1 <1>   0.3430 
 26 C        9.4680     5.5310     0.0210 C.3   1 <1>  -0.0800 
 27 C       10.6920     6.0390     0.7940 C.3   1 <1>  -0.2400 
 28 C        8.9030     6.6770    -0.8380 C.3   1 <1>  -0.2400 
 29 H        1.8810     1.5610    -1.8380 H     1 <1>   0.0800 
 30 H        1.1100     0.0770    -2.2260 H     1 <1>   0.0800 
 31 H        0.5930    -0.6780     1.7060 H     1 <1>   0.1500 
 32 H       -2.2140    -0.4390    -1.4950 H     1 <1>   0.1500 
 33 H       -0.3340    -2.8470     2.3530 H     1 <1>   0.1500 
 34 H       -3.1360    -2.6110    -0.8430 H     1 <1>   0.1500 
 35 H        1.9740    -1.9220    -1.5590 H     1 <1>   0.1500 
 36 H       -2.1980    -3.8240     1.0810 H     1 <1>   0.1500 
 37 H        4.8170     0.1440     1.8680 H     1 <1>   0.1500 
 38 H        2.9930     2.1630     1.6930 H     1 <1>   0.0800 
 39 H        2.5540     2.5130     0.0450 H     1 <1>   0.0800 
 40 H        3.5610    -3.2650    -0.3030 H     1 <1>   0.1500 
 41 H        4.9720    -2.2370     1.4160 H     1 <1>   0.1500 
 42 H        5.2660     2.0340     0.9810 H     1 <1>   0.4500 
 43 H        3.9800     4.1390     1.7240 H     1 <1>   0.0800 
 44 H        4.2940     4.6990     0.1140 H     1 <1>   0.0800 
 45 H        4.1520     2.6540    -1.6530 H     1 <1>   0.0800 
 46 H        5.2080     1.3590    -1.1830 H     1 <1>   0.0800 
 47 H        6.3620     3.8910     2.1890 H     1 <1>   0.0800 
 48 H        5.9290     5.5170     1.7920 H     1 <1>   0.0800 
 49 H        5.8790     4.1960    -1.8410 H     1 <1>   0.0800 
 50 H        6.5870     2.7240    -2.3690 H     1 <1>   0.0800 
 51 H        6.9690     5.3690    -0.2990 H     1 <1>   0.4500 
 52 H        8.2620     3.4510    -1.0510 H     1 <1>   0.0800 
 53 H        7.4210     2.4760     0.1200 H     1 <1>   0.0800 
 54 H        8.8610     4.1150     1.5300 H     1 <1>   0.0800 
 55 H        8.2430     5.7280     1.7550 H     1 <1>   0.0800 
 56 H        9.8120     4.7450    -0.6280 H     1 <1>   0.0800 
 57 H       10.4290     6.8510     1.4510 H     1 <1>   0.0800 
 58 H       11.4450     6.3930     0.1100 H     1 <1>   0.0800 
 59 H       11.1300     5.2500     1.3820 H     1 <1>   0.0800 
 60 H        8.5110     7.4670    -0.2200 H     1 <1>   0.0800 
 61 H        8.1350     6.3350    -1.5070 H     1 <1>   0.0800 
 62 H        9.6870     7.0970    -1.4470 H     1 <1>   0.0800 
@<TRIPOS>BOND
  1   1   2  2   
  2   1   3  2   
  3   1   4  1   
  4   1   5  1   
  5   4   6  ar  
  6   4   7  ar  
  7   5   8  1   
  8   5  29  1   
  9   5  30  1   
 10   6   9  ar  
 11   6  31  1   
 12   7  10  ar  
 13   7  32  1   
 14   8  11  ar  
 15   8  12  ar  
 16   9  13  ar  
 17   9  33  1   
 18  10  13  ar  
 19  10  34  1   
 20  11  14  ar  
 21  11  15  1   
 22  12  16  ar  
 23  12  35  1   
 24  13  36  1   
 25  14  17  ar  
 26  14  37  1   
 27  15  18  1   
 28  15  38  1   
 29  15  39  1   
 30  16  17  ar  
 31  16  40  1   
 32  17  41  1   
 33  18  19  1   
 34  18  20  1   
 35  18  42  1   
 36  19  21  1   
 37  19  43  1   
 38  19  44  1   
 39  20  22  1   
 40  20  45  1   
 41  20  46  1   
 42  21  23  1   
 43  21  47  1   
 44  21  48  1   
 45  22  24  1   
 46  22  49  1   
 47  22  50  1   
 48  23  24  1   
 49  23  25  1   
 50  23  51  1   
 51  24  52  1   
 52  24  53  1   
 53  25  26  1   
 54  25  54  1   
 55  25  55  1   
 56  26  27  1   
 57  26  28  1   
 58  26  56  1   
 59  27  57  1   
 60  27  58  1   
 61  27  59  1   
 62  28  60  1   
 63  28  61  1   
 64  28  62  1   
@<TRIPOS>SUBSTRUCTURE
  1 ****  15 GROUP 4 **** **** 0

# MOE 2024.06 (io_trps.svl 2023.06)
