@<TRIPOS>MOLECULE
NONAME
46 48 1 0 0 
SMALL
USER_CHARGES


@<TRIPOS>ATOM
  1 O       -1.2710     0.9270     2.0090 O.2   1 <1>  -0.5700 
  2 C       -1.7930     1.3190     0.9820 C.2   1 <1>   0.5440 
  3 N       -2.4750     0.4080     0.2100 N.am  1 <1>  -0.6600 
  4 C       -1.7040     2.7120     0.6060 C.ar  1 <1>   0.0860 
  5 C       -3.2090     0.7150    -1.0420 C.3   1 <1>   0.1400 
  6 C       -2.6030    -1.0270     0.5550 C.3   1 <1>   0.1400 
  7 C       -1.0520     3.1570    -0.5540 C.ar  1 <1>   0.0830 
  8 C       -2.3180     3.6720     1.4110 C.ar  1 <1>  -0.1500 
  9 C       -4.1570    -0.4700    -1.2170 C.3   1 <1>   0.2000 
 10 C       -3.3770    -1.6470    -0.6160 C.3   1 <1>  -0.0800 
 11 O       -0.3780     2.3310    -1.3860 O.3   1 <1>  -0.3630 
 12 C       -1.0780     4.4970    -0.9050 C.ar  1 <1>  -0.1500 
 13 C       -2.3290     5.0130     1.0710 C.ar  1 <1>  -0.1440 
 14 O       -5.2900    -0.2290    -0.4550 O.3   1 <1>  -0.6800 
 15 C       -4.2390    -2.8610    -0.2210 C.3   1 <1>   0.0200 
 16 C        0.6600     1.5290    -0.8590 C.3   1 <1>   0.0400 
 17 C       -1.7120     5.4220    -0.0990 C.ar  1 <1>  -0.1500 
 18 C       -3.0110     6.0370     1.9620 C.3   1 <1>  -0.0970 
 19 C       -3.4160    -4.0560     0.2300 C.2   1 <1>  -0.0400 
 20 O       -4.0390    -5.0990     0.7110 O.3   1 <1>  -0.0190 
 21 C       -2.1000    -4.3230     0.2510 C.2   1 <1>  -0.1500 
 22 N       -3.2140    -6.0450     1.0560 N.2   1 <1>  -0.4100 
 23 C       -2.0380    -5.6050     0.7910 C.2   1 <1>   0.1080 
 24 C       -0.7640    -6.3830     1.0360 C.3   1 <1>  -0.0590 
 25 H       -3.7410     1.6500    -0.9840 H     1 <1>   0.0800 
 26 H       -2.5090     0.7500    -1.8590 H     1 <1>   0.0800 
 27 H       -1.6310    -1.4720     0.6770 H     1 <1>   0.0800 
 28 H       -3.1520    -1.1170     1.4770 H     1 <1>   0.0800 
 29 H       -2.7960     3.3430     2.3170 H     1 <1>   0.1500 
 30 H       -4.4560    -0.6280    -2.2390 H     1 <1>   0.0800 
 31 H       -2.6590    -1.9640    -1.3520 H     1 <1>   0.0800 
 32 H       -0.5910     4.8120    -1.8100 H     1 <1>   0.1500 
 33 H       -5.0110     0.0860     0.4280 H     1 <1>   0.4000 
 34 H       -4.8400    -3.1600    -1.0610 H     1 <1>   0.0800 
 35 H       -4.9090    -2.5910     0.5770 H     1 <1>   0.0800 
 36 H        1.3540     1.3170    -1.6520 H     1 <1>   0.0800 
 37 H        0.2460     0.6110    -0.4860 H     1 <1>   0.0800 
 38 H        1.1580     2.0660    -0.0700 H     1 <1>   0.0800 
 39 H       -1.7200     6.4610    -0.3810 H     1 <1>   0.1500 
 40 H       -2.3300     6.8380     2.1880 H     1 <1>   0.0800 
 41 H       -3.3310     5.5910     2.8860 H     1 <1>   0.0800 
 42 H       -3.8710     6.4430     1.4600 H     1 <1>   0.0800 
 43 H       -1.2610    -3.7310    -0.0600 H     1 <1>   0.1500 
 44 H       -0.1140    -5.8240     1.6830 H     1 <1>   0.0800 
 45 H       -0.2660    -6.5690     0.1030 H     1 <1>   0.0800 
 46 H       -0.9940    -7.3240     1.5030 H     1 <1>   0.0800 
@<TRIPOS>BOND
  1   1   2  2   
  2   2   3  am  
  3   2   4  1   
  4   3   5  1   
  5   3   6  1   
  6   4   7  ar  
  7   4   8  ar  
  8   5   9  1   
  9   5  25  1   
 10   5  26  1   
 11   6  10  1   
 12   6  27  1   
 13   6  28  1   
 14   7  11  1   
 15   7  12  ar  
 16   8  13  ar  
 17   8  29  1   
 18   9  10  1   
 19   9  14  1   
 20   9  30  1   
 21  10  15  1   
 22  10  31  1   
 23  11  16  1   
 24  12  17  ar  
 25  12  32  1   
 26  13  17  ar  
 27  13  18  1   
 28  14  33  1   
 29  15  19  1   
 30  15  34  1   
 31  15  35  1   
 32  16  36  1   
 33  16  37  1   
 34  16  38  1   
 35  17  39  1   
 36  18  40  1   
 37  18  41  1   
 38  18  42  1   
 39  19  20  1   
 40  19  21  2   
 41  20  22  1   
 42  21  23  1   
 43  21  43  1   
 44  22  23  2   
 45  23  24  1   
 46  24  44  1   
 47  24  45  1   
 48  24  46  1   
@<TRIPOS>SUBSTRUCTURE
  1 ****   3 GROUP 4 **** **** 0

# MOE 2024.06 (io_trps.svl 2023.06)
