@<TRIPOS>MOLECULE
NONAME
54 57 1 0 0 
SMALL
USER_CHARGES


@<TRIPOS>ATOM
  1 O       -2.2970    -1.1700    -3.2320 O.2   1 <1>  -0.5700 
  2 C       -2.4070    -1.3910    -2.0570 C.2   1 <1>   0.5690 
  3 N       -2.2430    -0.4020    -1.1620 N.am  1 <1>  -0.7300 
  4 C       -2.7710    -2.7730    -1.5900 C.3   1 <1>  -0.0190 
  5 C       -2.3620    -0.5380     0.3080 C.3   1 <1>   0.2200 
  6 C       -1.6710    -3.3770    -0.6870 C.3   1 <1>   0.1200 
  7 C       -4.1940    -2.7340    -1.0160 C.3   1 <1>   0.3430 
  8 C       -1.3250    -1.5590     0.8400 C.3   1 <1>   0.1200 
  9 C       -3.8280    -0.8720     0.7060 C.3   1 <1>   0.3430 
 10 O       -1.7100    -2.8960     0.6310 O.3   1 <1>  -0.5600 
 11 N       -4.2630    -2.2870     0.4180 N.4   1 <1>  -0.9590 
 12 C       -5.5530    -2.6370     1.0670 C.3   1 <1>   0.4860 
 13 C       -5.7320    -4.1420     1.0060 C.ar  1 <1>  -0.1440 
 14 C       -6.7620    -4.6930     0.2560 C.ar  1 <1>  -0.1500 
 15 C       -4.8600    -4.9820     1.6870 C.ar  1 <1>  -0.1500 
 16 C       -6.9160    -6.0660     0.1780 C.ar  1 <1>  -0.1500 
 17 C       -5.0130    -6.3540     1.6060 C.ar  1 <1>  -0.1500 
 18 C       -6.0360    -6.9060     0.8540 C.ar  1 <1>   0.0820 
 19 O       -6.1120    -8.2580     0.8310 O.3   1 <1>  -0.3620 
 20 C       -7.1830    -8.9250     0.1980 C.3   1 <1>   0.1200 
 21 C       -7.0200   -10.4270     0.4190 C.3   1 <1>  -0.0170 
 22 C       -8.1610   -11.1770    -0.2500 C.ar  1 <1>  -0.1440 
 23 C       -8.0370   -11.6170    -1.5590 C.ar  1 <1>  -0.1500 
 24 C       -9.3370   -11.4210     0.4410 C.ar  1 <1>  -0.1500 
 25 C       -9.0790   -12.2930    -2.1700 C.ar  1 <1>  -0.1500 
 26 C      -10.3800   -12.0970    -0.1690 C.ar  1 <1>  -0.1500 
 27 C      -10.2510   -12.5340    -1.4760 C.ar  1 <1>  -0.1500 
 28 H       -1.9430     0.5030    -1.5430 H     1 <1>   0.3700 
 29 H       -2.8100    -3.3800    -2.4770 H     1 <1>   0.0800 
 30 H       -2.1180     0.4220     0.7300 H     1 <1>   0.0800 
 31 H       -0.6920    -3.1900    -1.0960 H     1 <1>   0.0800 
 32 H       -1.8060    -4.4450    -0.6290 H     1 <1>   0.0800 
 33 H       -4.5930    -3.7330    -1.0860 H     1 <1>   0.0800 
 34 H       -4.8090    -2.0960    -1.6310 H     1 <1>   0.0800 
 35 H       -1.2200    -1.4340     1.9040 H     1 <1>   0.0800 
 36 H       -0.3580    -1.3970     0.3930 H     1 <1>   0.0800 
 37 H       -4.4860    -0.1800     0.2080 H     1 <1>   0.0800 
 38 H       -3.9200    -0.7000     1.7660 H     1 <1>   0.0800 
 39 H       -3.5350    -2.8750     0.8730 H     1 <1>   0.4500 
 40 H       -5.5480    -2.3250     2.0990 H     1 <1>   0.0800 
 41 H       -6.3700    -2.1460     0.5640 H     1 <1>   0.0800 
 42 H       -7.4580    -4.0650    -0.2740 H     1 <1>   0.1500 
 43 H       -4.0560    -4.5880     2.2860 H     1 <1>   0.1500 
 44 H       -7.7210    -6.4660    -0.4110 H     1 <1>   0.1500 
 45 H       -4.3410    -7.0110     2.1300 H     1 <1>   0.1500 
 46 H       -8.1050    -8.5810     0.6330 H     1 <1>   0.0800 
 47 H       -7.1580    -8.6960    -0.8520 H     1 <1>   0.0800 
 48 H       -6.0810   -10.7510     0.0060 H     1 <1>   0.0800 
 49 H       -7.0190   -10.6370     1.4740 H     1 <1>   0.0800 
 50 H       -7.1300   -11.4360    -2.1080 H     1 <1>   0.1500 
 51 H       -9.4480   -11.0860     1.4580 H     1 <1>   0.1500 
 52 H       -8.9770   -12.6330    -3.1860 H     1 <1>   0.1500 
 53 H      -11.2900   -12.2840     0.3730 H     1 <1>   0.1500 
 54 H      -11.0610   -13.0600    -1.9510 H     1 <1>   0.1500 
@<TRIPOS>BOND
  1   1   2  2   
  2   2   3  am  
  3   2   4  1   
  4   3   5  1   
  5   3  28  1   
  6   4   6  1   
  7   4   7  1   
  8   4  29  1   
  9   5   8  1   
 10   5   9  1   
 11   5  30  1   
 12   6  10  1   
 13   6  31  1   
 14   6  32  1   
 15   7  11  1   
 16   7  33  1   
 17   7  34  1   
 18   8  10  1   
 19   8  35  1   
 20   8  36  1   
 21   9  11  1   
 22   9  37  1   
 23   9  38  1   
 24  11  12  1   
 25  11  39  1   
 26  12  13  1   
 27  12  40  1   
 28  12  41  1   
 29  13  14  ar  
 30  13  15  ar  
 31  14  16  ar  
 32  14  42  1   
 33  15  17  ar  
 34  15  43  1   
 35  16  18  ar  
 36  16  44  1   
 37  17  18  ar  
 38  17  45  1   
 39  18  19  1   
 40  19  20  1   
 41  20  21  1   
 42  20  46  1   
 43  20  47  1   
 44  21  22  1   
 45  21  48  1   
 46  21  49  1   
 47  22  23  ar  
 48  22  24  ar  
 49  23  25  ar  
 50  23  50  1   
 51  24  26  ar  
 52  24  51  1   
 53  25  27  ar  
 54  25  52  1   
 55  26  27  ar  
 56  26  53  1   
 57  27  54  1   
@<TRIPOS>SUBSTRUCTURE
  1 ****  16 GROUP 4 **** **** 0

# MOE 2024.06 (io_trps.svl 2023.06)
