@<TRIPOS>MOLECULE
NONAME
53 55 1 0 0 
SMALL
USER_CHARGES


@<TRIPOS>ATOM
  1 CL      -4.4610    -2.9570     2.9690 Cl    1 <1>  -0.1770 
  2 C       -5.0450    -1.5540     2.1150 C.ar  1 <1>   0.1770 
  3 C       -4.6140    -1.3190     0.8240 C.ar  1 <1>  -0.1500 
  4 C       -5.9430    -0.7040     2.7330 C.ar  1 <1>  -0.1500 
  5 C       -5.1080    -0.2250     0.1360 C.ar  1 <1>  -0.1500 
  6 C       -6.4330     0.3860     2.0360 C.ar  1 <1>  -0.1500 
  7 C       -6.0380     0.6320     0.7220 C.ar  1 <1>   0.0530 
  8 C       -6.5960     1.7230    -0.0290 C.2   1 <1>  -0.2050 
  9 N       -6.5610     3.0250     0.3510 N.pl3 1 <1>   0.3000 
 10 C       -7.2550     1.7120    -1.2190 C.2   1 <1>  -0.1810 
 11 N       -7.1910     3.8220    -0.5300 N.2   1 <1>  -0.7070 
 12 C       -7.5830     3.0330    -1.4790 C.2   1 <1>   0.1390 
 13 C       -7.5940     0.5140    -2.0740 C.3   1 <1>   0.5240 
 14 N       -8.4230    -0.3830    -1.2310 N.4   1 <1>  -0.9590 
 15 C       -8.4330    -1.7900    -1.7300 C.3   1 <1>   0.5240 
 16 C       -9.7730     0.2000    -0.8960 C.3   1 <1>   0.3430 
 17 C       -7.9380    -2.6670    -0.5880 C.2   1 <1>   0.0460 
 18 C      -10.4610    -0.4390     0.3450 C.3   1 <1>   0.3430 
 19 N       -8.4070    -2.4790     0.6660 N.2   1 <1>  -0.5650 
 20 C       -7.0170    -3.6590    -0.6150 C.2   1 <1>  -0.3320 
 21 N      -11.7210     0.2550     0.8060 N.4   1 <1>  -0.9590 
 22 C       -7.7740    -3.3640     1.3680 C.2   1 <1>   0.0360 
 23 N       -6.9130    -4.1130     0.6500 N.pl3 1 <1>   0.0330 
 24 C       -6.1930    -4.2500    -1.7480 C.3   1 <1>  -0.0600 
 25 C      -12.1730    -0.3550     2.1010 C.3   1 <1>   0.2630 
 26 C      -12.8450     0.1880    -0.1860 C.3   1 <1>   0.2630 
 27 H       -3.8980    -1.9840     0.3730 H     1 <1>   0.1500 
 28 H       -6.2470    -0.9010     3.7460 H     1 <1>   0.1500 
 29 H       -4.7570    -0.0300    -0.8620 H     1 <1>   0.1500 
 30 H       -7.1300     1.0480     2.5190 H     1 <1>   0.1500 
 31 H       -6.1000     3.3940     1.1940 H     1 <1>   0.2700 
 32 H       -8.1050     3.3970    -2.3510 H     1 <1>   0.1500 
 33 H       -6.6810     0.0200    -2.3650 H     1 <1>   0.0800 
 34 H       -8.1290     0.8160    -2.9600 H     1 <1>   0.0800 
 35 H       -7.8900    -0.4740    -0.3440 H     1 <1>   0.4500 
 36 H       -7.7770    -1.9070    -2.5760 H     1 <1>   0.0800 
 37 H       -9.4270    -2.0900    -2.0150 H     1 <1>   0.0800 
 38 H      -10.4220     0.1050    -1.7500 H     1 <1>   0.0800 
 39 H       -9.6470     1.2500    -0.6870 H     1 <1>   0.0800 
 40 H       -9.7510    -0.4290     1.1570 H     1 <1>   0.0800 
 41 H      -10.6860    -1.4710     0.1280 H     1 <1>   0.0800 
 42 H      -11.5190     1.2500     1.0060 H     1 <1>   0.4500 
 43 H       -7.8950    -3.5130     2.4290 H     1 <1>   0.1500 
 44 H       -6.3070    -4.8630     1.0060 H     1 <1>   0.2700 
 45 H       -6.4180    -3.7740    -2.6850 H     1 <1>   0.0800 
 46 H       -6.4000    -5.3020    -1.8460 H     1 <1>   0.0800 
 47 H       -5.1430    -4.1270    -1.5470 H     1 <1>   0.0800 
 48 H      -12.4120    -1.3980     1.9650 H     1 <1>   0.0800 
 49 H      -13.0510     0.1520     2.4690 H     1 <1>   0.0800 
 50 H      -11.3980    -0.2760     2.8470 H     1 <1>   0.0800 
 51 H      -13.0980    -0.8380    -0.4000 H     1 <1>   0.0800 
 52 H      -12.5750     0.6800    -1.1060 H     1 <1>   0.0800 
 53 H      -13.7210     0.6760     0.2120 H     1 <1>   0.0800 
@<TRIPOS>BOND
  1   1   2  1   
  2   2   3  ar  
  3   2   4  ar  
  4   3   5  ar  
  5   3  27  1   
  6   4   6  ar  
  7   4  28  1   
  8   5   7  ar  
  9   5  29  1   
 10   6   7  ar  
 11   6  30  1   
 12   7   8  1   
 13   8   9  1   
 14   8  10  2   
 15   9  11  1   
 16   9  31  1   
 17  10  12  1   
 18  10  13  1   
 19  11  12  2   
 20  12  32  1   
 21  13  14  1   
 22  13  33  1   
 23  13  34  1   
 24  14  15  1   
 25  14  16  1   
 26  14  35  1   
 27  15  17  1   
 28  15  36  1   
 29  15  37  1   
 30  16  18  1   
 31  16  38  1   
 32  16  39  1   
 33  17  19  1   
 34  17  20  2   
 35  18  21  1   
 36  18  40  1   
 37  18  41  1   
 38  19  22  2   
 39  20  23  1   
 40  20  24  1   
 41  21  25  1   
 42  21  26  1   
 43  21  42  1   
 44  22  23  1   
 45  22  43  1   
 46  23  44  1   
 47  24  45  1   
 48  24  46  1   
 49  24  47  1   
 50  25  48  1   
 51  25  49  1   
 52  25  50  1   
 53  26  51  1   
 54  26  52  1   
 55  26  53  1   
@<TRIPOS>SUBSTRUCTURE
  1 ****  14 GROUP 4 **** **** 0

# MOE 2024.06 (io_trps.svl 2023.06)
