@<TRIPOS>MOLECULE
NONAME
43 45 1 0 0 
SMALL
USER_CHARGES


@<TRIPOS>ATOM
  1 O       -0.5200     2.3510     2.0300 O.2   1 <1>  -0.5700 
  2 C       -0.2700     2.9780     1.0120 C.2   1 <1>   0.5440 
  3 N       -1.3030     3.6950     0.4260 N.am  1 <1>  -0.6600 
  4 C        1.1010     2.9520     0.4930 C.ar  1 <1>   0.3960 
  5 C       -2.7390     3.4190     0.7430 C.3   1 <1>   0.1400 
  6 C       -1.1290     4.7100    -0.6460 C.3   1 <1>   0.1400 
  7 N        1.3380     2.8140    -0.8280 N.ar  1 <1>  -0.6200 
  8 C        2.1560     3.0580     1.4050 C.ar  1 <1>  -0.1500 
  9 C       -3.4780     2.8890    -0.5130 C.3   1 <1>   0.0000 
 10 C       -1.8120     4.2180    -1.9260 C.3   1 <1>  -0.1600 
 11 C        2.6000     2.7860    -1.2140 C.ar  1 <1>   0.1600 
 12 C        3.4690     3.0320     0.9910 C.ar  1 <1>  -0.1500 
 13 C       -4.9660     2.6300    -0.2190 C.3   1 <1>   0.2000 
 14 C       -3.2940     3.8830    -1.6820 C.3   1 <1>  -0.1600 
 15 C       -2.9840     1.4750    -0.8680 C.3   1 <1>  -0.1600 
 16 C        3.6920     2.8920    -0.3600 C.ar  1 <1>   0.0820 
 17 O       -5.5150     3.6370     0.5780 O.3   1 <1>  -0.5600 
 18 C       -5.0210     1.2680     0.4810 C.3   1 <1>  -0.1600 
 19 C       -3.7390     0.5290     0.0700 C.3   1 <1>  -0.1600 
 20 O        4.9570     2.8600    -0.8120 O.3   1 <1>  -0.5320 
 21 C       -6.9050     3.6460     0.6400 C.3   1 <1>   0.0400 
 22 H       -2.8230     2.7120     1.5480 H     1 <1>   0.0800 
 23 H       -3.1950     4.3360     1.0740 H     1 <1>   0.0800 
 24 H       -1.5860     5.6310    -0.3260 H     1 <1>   0.0800 
 25 H       -0.0890     4.9090    -0.8300 H     1 <1>   0.0800 
 26 H        1.9250     3.1570     2.4510 H     1 <1>   0.1500 
 27 H       -1.7340     4.9780    -2.6820 H     1 <1>   0.0800 
 28 H       -1.2890     3.3470    -2.2840 H     1 <1>   0.0800 
 29 H        2.7810     2.6730    -2.2680 H     1 <1>   0.1500 
 30 H        4.2900     3.1130     1.6810 H     1 <1>   0.1500 
 31 H       -5.5050     2.5860    -1.1510 H     1 <1>   0.0800 
 32 H       -3.7270     3.4840    -2.5830 H     1 <1>   0.0800 
 33 H       -3.8190     4.7920    -1.4430 H     1 <1>   0.0800 
 34 H       -3.2520     1.2420    -1.8840 H     1 <1>   0.0800 
 35 H       -1.9180     1.3650    -0.7660 H     1 <1>   0.0800 
 36 H       -5.0310     1.3990     1.5490 H     1 <1>   0.0800 
 37 H       -5.8930     0.7210     0.1730 H     1 <1>   0.0800 
 38 H       -3.1400     0.3350     0.9440 H     1 <1>   0.0800 
 39 H       -3.9560    -0.4070    -0.4160 H     1 <1>   0.0800 
 40 H        5.0490     2.7420    -1.7750 H     1 <1>   0.4500 
 41 H       -7.2060     4.4710     1.2600 H     1 <1>   0.0800 
 42 H       -7.2520     2.7240     1.0730 H     1 <1>   0.0800 
 43 H       -7.3040     3.7740    -0.3520 H     1 <1>   0.0800 
@<TRIPOS>BOND
  1   1   2  2   
  2   2   3  am  
  3   2   4  1   
  4   3   5  1   
  5   3   6  1   
  6   4   7  ar  
  7   4   8  ar  
  8   5   9  1   
  9   5  22  1   
 10   5  23  1   
 11   6  10  1   
 12   6  24  1   
 13   6  25  1   
 14   7  11  ar  
 15   8  12  ar  
 16   8  26  1   
 17   9  13  1   
 18   9  14  1   
 19   9  15  1   
 20  10  14  1   
 21  10  27  1   
 22  10  28  1   
 23  11  16  ar  
 24  11  29  1   
 25  12  16  ar  
 26  12  30  1   
 27  13  17  1   
 28  13  18  1   
 29  13  31  1   
 30  14  32  1   
 31  14  33  1   
 32  15  19  1   
 33  15  34  1   
 34  15  35  1   
 35  16  20  1   
 36  17  21  1   
 37  18  19  1   
 38  18  36  1   
 39  18  37  1   
 40  19  38  1   
 41  19  39  1   
 42  20  40  1   
 43  21  41  1   
 44  21  42  1   
 45  21  43  1   
@<TRIPOS>SUBSTRUCTURE
  1 ****   3 GROUP 4 **** **** 0

# MOE 2024.06 (io_trps.svl 2023.06)
