@<TRIPOS>MOLECULE
NONAME
48 52 1 0 0 
SMALL
USER_CHARGES


@<TRIPOS>ATOM
  1 S       -3.1210     2.0830    -1.8790 S.3   1 <1>  -0.2420 
  2 C       -3.4830     1.4670    -0.2660 C.2   1 <1>   0.6510 
  3 C       -2.1510     3.4110    -1.2140 C.2   1 <1>  -0.0490 
  4 N       -4.2210     0.4230    -0.0590 N.2   1 <1>  -0.6210 
  5 N       -2.8850     2.2660     0.6700 N.am  1 <1>  -0.2290 
  6 C       -2.1460     3.3400     0.1240 C.2   1 <1>  -0.0410 
  7 C       -4.4150     0.0810     1.2560 C.2   1 <1>   0.0330 
  8 C       -3.0790     1.9510     1.9920 C.2   1 <1>   0.6160 
  9 C       -3.8750     0.8100     2.2680 C.2   1 <1>  -0.1360 
 10 C       -5.2840    -1.1540     1.5000 C.3   1 <1>   0.4810 
 11 O       -2.5920     2.6320     2.8790 O.2   1 <1>  -0.5700 
 12 N       -6.4060    -1.1280     0.5240 N.4   1 <1>  -0.9590 
 13 C       -7.4010    -0.0540     0.8490 C.3   1 <1>   0.3430 
 14 C       -7.0540    -2.4530     0.3280 C.3   1 <1>   0.3430 
 15 C       -8.4350     0.1140    -0.2750 C.3   1 <1>   0.1440 
 16 C       -8.0760    -2.3620    -0.8100 C.3   1 <1>  -0.1600 
 17 C       -9.4600     1.1250     0.1760 C.ar  1 <1>   0.1670 
 18 C       -9.1090    -1.2410    -0.5830 C.3   1 <1>  -0.1600 
 19 C       -7.8450     0.7790    -1.5480 C.3   1 <1>  -0.1600 
 20 N      -10.0420     1.1180     1.3530 N.ar  1 <1>  -0.6200 
 21 C       -9.7000     2.0660    -0.7770 C.ar  1 <1>  -0.1430 
 22 C       -8.8740     1.8280    -2.0160 C.3   1 <1>  -0.0170 
 23 C      -10.9080     2.1080     1.5330 C.ar  1 <1>   0.4770 
 24 C      -10.6120     3.0490    -0.4820 C.ar  1 <1>   0.1600 
 25 N      -11.2250     3.0760     0.6830 N.ar  1 <1>  -0.6200 
 26 C      -11.6140     2.1420     2.8670 C.3   1 <1>  -0.0970 
 27 H       -1.6960     4.0900    -1.9160 H     1 <1>   0.1500 
 28 H       -1.6430     4.0100     0.8040 H     1 <1>   0.1500 
 29 H       -4.0100     0.5750     3.3080 H     1 <1>   0.1500 
 30 H       -5.6540    -1.1710     2.5120 H     1 <1>   0.0800 
 31 H       -4.6820    -2.0320     1.3340 H     1 <1>   0.0800 
 32 H       -5.9410    -0.8420    -0.3550 H     1 <1>   0.4500 
 33 H       -6.9000     0.8880     1.0000 H     1 <1>   0.0800 
 34 H       -7.9230    -0.3030     1.7590 H     1 <1>   0.0800 
 35 H       -7.5540    -2.7530     1.2350 H     1 <1>   0.0800 
 36 H       -6.3120    -3.1980     0.0850 H     1 <1>   0.0800 
 37 H       -8.5920    -3.3030    -0.8890 H     1 <1>   0.0800 
 38 H       -7.5580    -2.2090    -1.7400 H     1 <1>   0.0800 
 39 H       -9.7510    -1.1470    -1.4430 H     1 <1>   0.0800 
 40 H       -9.7360    -1.5120     0.2510 H     1 <1>   0.0800 
 41 H       -7.6300     0.0760    -2.3330 H     1 <1>   0.0800 
 42 H       -6.9340     1.2980    -1.2990 H     1 <1>   0.0800 
 43 H       -9.5000     1.4300    -2.7960 H     1 <1>   0.0800 
 44 H       -8.3970     2.7310    -2.3570 H     1 <1>   0.0800 
 45 H      -10.8430     3.8190    -1.2000 H     1 <1>   0.1500 
 46 H      -11.7780     1.1430     3.2240 H     1 <1>   0.0800 
 47 H      -12.5630     2.6350     2.7700 H     1 <1>   0.0800 
 48 H      -11.0110     2.6780     3.5750 H     1 <1>   0.0800 
@<TRIPOS>BOND
  1   1   2  1   
  2   1   3  1   
  3   2   4  2   
  4   2   5  1   
  5   3   6  2   
  6   3  27  1   
  7   4   7  1   
  8   5   6  1   
  9   5   8  am  
 10   6  28  1   
 11   7   9  2   
 12   7  10  1   
 13   8   9  1   
 14   8  11  2   
 15   9  29  1   
 16  10  12  1   
 17  10  30  1   
 18  10  31  1   
 19  12  13  1   
 20  12  14  1   
 21  12  32  1   
 22  13  15  1   
 23  13  33  1   
 24  13  34  1   
 25  14  16  1   
 26  14  35  1   
 27  14  36  1   
 28  15  17  1   
 29  15  18  1   
 30  15  19  1   
 31  16  18  1   
 32  16  37  1   
 33  16  38  1   
 34  17  20  ar  
 35  17  21  ar  
 36  18  39  1   
 37  18  40  1   
 38  19  22  1   
 39  19  41  1   
 40  19  42  1   
 41  20  23  ar  
 42  21  22  1   
 43  21  24  ar  
 44  22  43  1   
 45  22  44  1   
 46  23  25  ar  
 47  23  26  1   
 48  24  25  ar  
 49  24  45  1   
 50  26  46  1   
 51  26  47  1   
 52  26  48  1   
@<TRIPOS>SUBSTRUCTURE
  1 ****  13 GROUP 4 **** **** 0

# MOE 2024.06 (io_trps.svl 2023.06)
