@<TRIPOS>MOLECULE
NONAME
64 68 1 0 0 
SMALL
USER_CHARGES


@<TRIPOS>ATOM
  1 O        1.0580     0.5580     1.9530 O.2   1 <1>  -0.5700 
  2 C        1.8110     0.4170     1.0110 C.2   1 <1>   0.5440 
  3 N        2.2430     1.4320     0.2110 N.am  1 <1>  -0.6600 
  4 C        2.3630    -0.8240     0.5660 C.ar  1 <1>   0.0860 
  5 C        1.8840     2.8560     0.3570 C.3   1 <1>   0.2200 
  6 C        3.1420     0.9000    -0.8540 C.3   1 <1>   0.2840 
  7 C        3.1520    -0.5920    -0.5420 C.ar  1 <1>   0.1660 
  8 C        2.2320    -2.1200     1.0350 C.ar  1 <1>  -0.1500 
  9 C        1.1450     3.3310    -0.8920 C.3   1 <1>  -0.2400 
 10 C        3.1440     3.6800     0.6120 C.3   1 <1>  -0.2400 
 11 N        3.8130    -1.5050    -1.2330 N.ar  1 <1>  -0.6200 
 12 C        2.9120    -3.0980     0.3360 C.ar  1 <1>  -0.1430 
 13 C        3.6800    -2.7480    -0.7760 C.ar  1 <1>   0.3930 
 14 C        2.8300    -4.5470     0.7660 C.3   1 <1>   0.4860 
 15 O        4.3090    -3.7440    -1.4330 O.3   1 <1>  -0.3630 
 16 N        2.0970    -5.3290    -0.2680 N.4   1 <1>  -0.9590 
 17 C        5.1780    -3.4720    -2.5210 C.3   1 <1>   0.0400 
 18 C        0.6740    -4.8740    -0.3830 C.3   1 <1>   0.3430 
 19 C        2.0600    -6.7790     0.0940 C.3   1 <1>   0.3430 
 20 C       -0.1320    -5.8360     0.4930 C.3   1 <1>   0.2000 
 21 C        0.5830    -7.1650     0.2450 C.3   1 <1>  -0.0800 
 22 O        0.0270    -5.4530     1.8230 O.3   1 <1>  -0.6800 
 23 C        0.3480    -8.2770     1.2890 C.3   1 <1>  -0.0170 
 24 C        1.2430    -9.4770     0.9980 C.ar  1 <1>  -0.1430 
 25 C        1.0010   -10.3650    -0.0780 C.ar  1 <1>   0.0000 
 26 C        2.3360    -9.7170     1.7810 C.ar  1 <1>  -0.1500 
 27 C        1.9480   -11.3940    -0.3050 C.ar  1 <1>   0.3100 
 28 C       -0.1210   -10.2990    -0.9370 C.ar  1 <1>  -0.1500 
 29 C        3.1960   -10.7810     1.4850 C.ar  1 <1>   0.1600 
 30 N        3.0370   -11.5820     0.4810 N.ar  1 <1>  -0.6200 
 31 C        1.7590   -12.2660    -1.3880 C.ar  1 <1>  -0.1500 
 32 C       -0.2780   -11.1690    -1.9810 C.ar  1 <1>  -0.1500 
 33 C        0.6750   -12.1620    -2.2160 C.ar  1 <1>  -0.1500 
 34 H        1.2260     2.9590     1.2060 H     1 <1>   0.0800 
 35 H        2.7340     1.0840    -1.8310 H     1 <1>   0.0800 
 36 H        4.1300     1.3150    -0.7670 H     1 <1>   0.0800 
 37 H        1.6230    -2.3160     1.9030 H     1 <1>   0.1500 
 38 H        1.7830     3.3020    -1.7570 H     1 <1>   0.0800 
 39 H        0.8130     4.3430    -0.7520 H     1 <1>   0.0800 
 40 H        0.2800     2.7150    -1.0610 H     1 <1>   0.0800 
 41 H        3.8040     3.6540    -0.2350 H     1 <1>   0.0800 
 42 H        3.6560     3.3060     1.4800 H     1 <1>   0.0800 
 43 H        2.8730     4.7040     0.7980 H     1 <1>   0.0800 
 44 H        2.3210    -4.6200     1.7140 H     1 <1>   0.0800 
 45 H        3.8290    -4.9360     0.8820 H     1 <1>   0.0800 
 46 H        2.6010    -5.1730    -1.1550 H     1 <1>   0.4500 
 47 H        5.5880    -4.4010    -2.8740 H     1 <1>   0.0800 
 48 H        5.9700    -2.8270    -2.1820 H     1 <1>   0.0800 
 49 H        4.6200    -2.9920    -3.3060 H     1 <1>   0.0800 
 50 H        0.5360    -3.8520    -0.0700 H     1 <1>   0.0800 
 51 H        0.3480    -4.9750    -1.4050 H     1 <1>   0.0800 
 52 H        2.5320    -7.3860    -0.6630 H     1 <1>   0.0800 
 53 H        2.5680    -6.9390     1.0320 H     1 <1>   0.0800 
 54 H       -1.1810    -5.8440     0.2470 H     1 <1>   0.0800 
 55 H        0.2630    -7.5300    -0.7150 H     1 <1>   0.0800 
 56 H       -0.6900    -5.8190     2.3860 H     1 <1>   0.4000 
 57 H       -0.6850    -8.5800     1.2930 H     1 <1>   0.0800 
 58 H        0.5710    -7.9120     2.2770 H     1 <1>   0.0800 
 59 H        2.5740    -9.1080     2.6340 H     1 <1>   0.1500 
 60 H       -0.8800    -9.5600    -0.7680 H     1 <1>   0.1500 
 61 H        4.0450   -10.9420     2.1270 H     1 <1>   0.1500 
 62 H        2.5000   -13.0290    -1.5440 H     1 <1>   0.1500 
 63 H       -1.1360   -11.1100    -2.6310 H     1 <1>   0.1500 
 64 H        0.5430   -12.8390    -3.0420 H     1 <1>   0.1500 
@<TRIPOS>BOND
  1   1   2  2   
  2   2   3  am  
  3   2   4  1   
  4   3   5  1   
  5   3   6  1   
  6   4   7  ar  
  7   4   8  ar  
  8   5   9  1   
  9   5  10  1   
 10   5  34  1   
 11   6   7  1   
 12   6  35  1   
 13   6  36  1   
 14   7  11  ar  
 15   8  12  ar  
 16   8  37  1   
 17   9  38  1   
 18   9  39  1   
 19   9  40  1   
 20  10  41  1   
 21  10  42  1   
 22  10  43  1   
 23  11  13  ar  
 24  12  13  ar  
 25  12  14  1   
 26  13  15  1   
 27  14  16  1   
 28  14  44  1   
 29  14  45  1   
 30  15  17  1   
 31  16  18  1   
 32  16  19  1   
 33  16  46  1   
 34  17  47  1   
 35  17  48  1   
 36  17  49  1   
 37  18  20  1   
 38  18  50  1   
 39  18  51  1   
 40  19  21  1   
 41  19  52  1   
 42  19  53  1   
 43  20  21  1   
 44  20  22  1   
 45  20  54  1   
 46  21  23  1   
 47  21  55  1   
 48  22  56  1   
 49  23  24  1   
 50  23  57  1   
 51  23  58  1   
 52  24  25  ar  
 53  24  26  ar  
 54  25  27  ar  
 55  25  28  ar  
 56  26  29  ar  
 57  26  59  1   
 58  27  30  ar  
 59  27  31  ar  
 60  28  32  ar  
 61  28  60  1   
 62  29  30  ar  
 63  29  61  1   
 64  31  33  ar  
 65  31  62  1   
 66  32  33  ar  
 67  32  63  1   
 68  33  64  1   
@<TRIPOS>SUBSTRUCTURE
  1 ****  16 GROUP 4 **** **** 0

# MOE 2024.06 (io_trps.svl 2023.06)
