@<TRIPOS>MOLECULE
NONAME
52 53 1 0 0 
SMALL
USER_CHARGES


@<TRIPOS>ATOM
  1 O        0.1430     1.2600    -1.0820 O.2   1 <1>  -0.5700 
  2 C        1.0200     1.9130    -0.5830 C.2   1 <1>   0.5690 
  3 N        1.8460     1.4890     0.3810 N.am  1 <1>  -0.7300 
  4 C        1.3330     3.3340    -0.9560 C.3   1 <1>  -0.0990 
  5 C        2.8050     2.5080     0.8250 C.3   1 <1>   0.1400 
  6 C        2.6940     3.5880    -0.2680 C.3   1 <1>  -0.0190 
  7 C        2.8820     5.0050     0.2560 C.2   1 <1>   0.5690 
  8 O        3.3910     5.1800     1.3370 O.2   1 <1>  -0.5700 
  9 N        2.5050     6.0550    -0.5220 N.am  1 <1>  -0.7300 
 10 C        2.4660     7.4640    -0.0630 C.3   1 <1>   0.1400 
 11 C        3.7300     8.2330    -0.4940 C.3   1 <1>  -0.0800 
 12 C        5.0140     7.6090     0.0880 C.3   1 <1>  -0.1600 
 13 C        3.6250     9.7030    -0.0500 C.3   1 <1>  -0.1600 
 14 C        6.2580     8.4460    -0.2000 C.3   1 <1>   0.3430 
 15 C        4.9020    10.4920    -0.3410 C.3   1 <1>   0.3430 
 16 N        6.0630     9.8270     0.3220 N.4   1 <1>  -0.9590 
 17 C        7.3270    10.6130     0.1780 C.3   1 <1>   0.3430 
 18 C        7.3040    11.8970     1.0100 C.3   1 <1>  -0.0220 
 19 C        8.6420    12.6000     0.8700 C.2   1 <1>  -0.2880 
 20 C        8.9370    13.6800     0.1370 C.2   1 <1>  -0.2760 
 21 C       10.3400    14.2660     0.1250 C.3   1 <1>  -0.1020 
 22 C        7.9870    14.4700    -0.7560 C.3   1 <1>  -0.1020 
 23 H        1.7500     0.5700     0.8200 H     1 <1>   0.3700 
 24 H        1.3890     3.4430    -2.0230 H     1 <1>   0.0800 
 25 H        0.5610     3.9640    -0.5550 H     1 <1>   0.0800 
 26 H        2.5010     2.8830     1.7890 H     1 <1>   0.0800 
 27 H        3.8030     2.1060     0.8860 H     1 <1>   0.0800 
 28 H        3.4760     3.3990    -0.9810 H     1 <1>   0.0800 
 29 H        2.0890     5.8750    -1.4390 H     1 <1>   0.3700 
 30 H        1.5890     7.9370    -0.4710 H     1 <1>   0.0800 
 31 H        2.3790     7.4830     1.0110 H     1 <1>   0.0800 
 32 H        3.7870     8.2090    -1.5700 H     1 <1>   0.0800 
 33 H        5.1640     6.6320    -0.3370 H     1 <1>   0.0800 
 34 H        4.9130     7.4780     1.1510 H     1 <1>   0.0800 
 35 H        3.4140     9.7570     1.0050 H     1 <1>   0.0800 
 36 H        2.8050    10.1750    -0.5640 H     1 <1>   0.0800 
 37 H        6.4340     8.4770    -1.2640 H     1 <1>   0.0800 
 38 H        7.1120     7.9880     0.2730 H     1 <1>   0.0800 
 39 H        4.7880    11.4980     0.0270 H     1 <1>   0.0800 
 40 H        5.0660    10.5360    -1.4060 H     1 <1>   0.0800 
 41 H        5.8470     9.7400     1.3240 H     1 <1>   0.4500 
 42 H        8.1610    10.0150     0.5080 H     1 <1>   0.0800 
 43 H        7.4910    10.8650    -0.8570 H     1 <1>   0.0800 
 44 H        6.5110    12.5430     0.6860 H     1 <1>   0.0800 
 45 H        7.1450    11.6670     2.0490 H     1 <1>   0.0800 
 46 H        9.4030    12.1160     1.4620 H     1 <1>   0.1500 
 47 H       10.3210    15.2840     0.4740 H     1 <1>   0.0800 
 48 H       10.7430    14.2520    -0.8730 H     1 <1>   0.0800 
 49 H       11.0000    13.7050     0.7630 H     1 <1>   0.0800 
 50 H        8.3760    14.5120    -1.7580 H     1 <1>   0.0800 
 51 H        7.8940    15.4770    -0.3880 H     1 <1>   0.0800 
 52 H        7.0070    14.0400    -0.8010 H     1 <1>   0.0800 
@<TRIPOS>BOND
  1   1   2  2   
  2   2   3  am  
  3   2   4  1   
  4   3   5  1   
  5   3  23  1   
  6   4   6  1   
  7   4  24  1   
  8   4  25  1   
  9   5   6  1   
 10   5  26  1   
 11   5  27  1   
 12   6   7  1   
 13   6  28  1   
 14   7   8  2   
 15   7   9  am  
 16   9  10  1   
 17   9  29  1   
 18  10  11  1   
 19  10  30  1   
 20  10  31  1   
 21  11  12  1   
 22  11  13  1   
 23  11  32  1   
 24  12  14  1   
 25  12  33  1   
 26  12  34  1   
 27  13  15  1   
 28  13  35  1   
 29  13  36  1   
 30  14  16  1   
 31  14  37  1   
 32  14  38  1   
 33  15  16  1   
 34  15  39  1   
 35  15  40  1   
 36  16  17  1   
 37  16  41  1   
 38  17  18  1   
 39  17  42  1   
 40  17  43  1   
 41  18  19  1   
 42  18  44  1   
 43  18  45  1   
 44  19  20  2   
 45  19  46  1   
 46  20  21  1   
 47  20  22  1   
 48  21  47  1   
 49  21  48  1   
 50  21  49  1   
 51  22  50  1   
 52  22  51  1   
 53  22  52  1   
@<TRIPOS>SUBSTRUCTURE
  1 ****  12 GROUP 4 **** **** 0

# MOE 2024.06 (io_trps.svl 2023.06)
