@<TRIPOS>MOLECULE
NONAME
42 45 1 0 0 
SMALL
USER_CHARGES


@<TRIPOS>ATOM
  1 S        0.3900    -0.2570     1.2810 S.3   1 <1>  -0.0800 
  2 C        0.2580    -1.8440     0.5220 C.ar  1 <1>   0.2970 
  3 C       -1.1700    -0.4540     2.0830 C.2   1 <1>  -0.1100 
  4 N        1.1840    -2.3490    -0.2630 N.ar  1 <1>  -0.5670 
  5 C       -0.9240    -2.4450     0.8740 C.ar  1 <1>   0.0000 
  6 C       -1.7160    -1.6430     1.7700 C.2   1 <1>  -0.1500 
  7 C        0.8700    -3.5500    -0.7070 C.ar  1 <1>   0.4770 
  8 C       -1.1360    -3.7050     0.3160 C.ar  1 <1>   0.4100 
  9 N       -0.2260    -4.2570    -0.4680 N.ar  1 <1>  -0.6200 
 10 C        1.8840    -4.2160    -1.6060 C.3   1 <1>  -0.0960 
 11 N       -2.3030    -4.4040     0.5430 N.pl3 1 <1>  -0.8380 
 12 C       -3.5860    -3.8480     0.0360 C.3   1 <1>   0.2090 
 13 C       -2.3450    -5.8940     0.4810 C.3   1 <1>   0.2090 
 14 C       -4.3280    -5.0370    -0.5730 C.3   1 <1>   0.2000 
 15 C       -3.7990    -6.2530     0.1760 C.3   1 <1>  -0.0800 
 16 O       -5.7020    -4.9320    -0.4100 O.3   1 <1>  -0.6800 
 17 C       -3.9550    -7.5630    -0.6110 C.3   1 <1>   0.0210 
 18 C       -3.3280    -8.7240     0.1350 C.2   1 <1>   0.1080 
 19 N       -3.7430    -9.1190     1.2980 N.2   1 <1>  -0.7070 
 20 C       -2.2520    -9.4780    -0.3230 C.2   1 <1>  -0.1500 
 21 N       -2.9380   -10.1510     1.6140 N.pl3 1 <1>   0.3000 
 22 C       -2.0250   -10.3850     0.6490 C.2   1 <1>  -0.3320 
 23 C       -0.9760   -11.4800     0.7150 C.3   1 <1>  -0.0600 
 24 H       -1.5030     0.3530     2.7120 H     1 <1>   0.1500 
 25 H       -2.6560    -2.0160     2.1340 H     1 <1>   0.1500 
 26 H        1.4100    -4.5130    -2.5230 H     1 <1>   0.0800 
 27 H        2.2780    -5.0860    -1.1150 H     1 <1>   0.0800 
 28 H        2.6920    -3.5440    -1.8310 H     1 <1>   0.0800 
 29 H       -4.1410    -3.4390     0.8600 H     1 <1>   0.0800 
 30 H       -3.4080    -3.0890    -0.7070 H     1 <1>   0.0800 
 31 H       -1.7020    -6.2530    -0.3050 H     1 <1>   0.0800 
 32 H       -2.0290    -6.3220     1.4170 H     1 <1>   0.0800 
 33 H       -4.1100    -5.0940    -1.6250 H     1 <1>   0.0800 
 34 H       -4.3030    -6.3460     1.1210 H     1 <1>   0.0800 
 35 H       -5.9410    -5.0670     0.5280 H     1 <1>   0.4000 
 36 H       -3.4960    -7.4700    -1.5790 H     1 <1>   0.0800 
 37 H       -5.0000    -7.7720    -0.7550 H     1 <1>   0.0800 
 38 H       -1.7330    -9.3430    -1.2560 H     1 <1>   0.1500 
 39 H       -3.0380   -10.6730     2.4930 H     1 <1>   0.2700 
 40 H       -0.3680   -11.4640    -0.1720 H     1 <1>   0.0800 
 41 H       -1.4480   -12.4440     0.7890 H     1 <1>   0.0800 
 42 H       -0.3390   -11.3340     1.5690 H     1 <1>   0.0800 
@<TRIPOS>BOND
  1   1   2  1   
  2   1   3  1   
  3   2   4  ar  
  4   2   5  ar  
  5   3   6  2   
  6   3  24  1   
  7   4   7  ar  
  8   5   6  1   
  9   5   8  ar  
 10   6  25  1   
 11   7   9  ar  
 12   7  10  1   
 13   8   9  ar  
 14   8  11  1   
 15  10  26  1   
 16  10  27  1   
 17  10  28  1   
 18  11  12  1   
 19  11  13  1   
 20  12  14  1   
 21  12  29  1   
 22  12  30  1   
 23  13  15  1   
 24  13  31  1   
 25  13  32  1   
 26  14  15  1   
 27  14  16  1   
 28  14  33  1   
 29  15  17  1   
 30  15  34  1   
 31  16  35  1   
 32  17  18  1   
 33  17  36  1   
 34  17  37  1   
 35  18  19  2   
 36  18  20  1   
 37  19  21  1   
 38  20  22  2   
 39  20  38  1   
 40  21  22  1   
 41  21  39  1   
 42  22  23  1   
 43  23  40  1   
 44  23  41  1   
 45  23  42  1   
@<TRIPOS>SUBSTRUCTURE
  1 ****  13 GROUP 4 **** **** 0

# MOE 2024.06 (io_trps.svl 2023.06)
