@<TRIPOS>MOLECULE
NONAME
23 24 1 0 0 
SMALL
USER_CHARGES


@<TRIPOS>ATOM
  1 I        0.4830    -0.0750    -2.3300 I     1 <1>  -0.0270 
  2 C        0.8940    -1.8750    -1.2500 C.2   1 <1>   0.3160 
  3 N        0.0670    -2.8560    -1.3350 N.2   1 <1>  -0.7070 
  4 C        2.0160    -2.0890    -0.4340 C.ar  1 <1>   0.0000 
  5 N        0.6160    -3.8110    -0.5490 N.pl3 1 <1>   0.3140 
  6 C        3.1760    -1.4290     0.0100 C.ar  1 <1>   0.4870 
  7 C        1.7950    -3.3780     0.0100 C.ar  1 <1>  -0.1520 
  8 C       -0.0650    -5.1280    -0.3870 C.3   1 <1>   0.1760 
  9 CL       3.4970     0.1970    -0.5230 Cl    1 <1>  -0.1770 
 10 N        4.0700    -1.9450     0.8160 N.ar  1 <1>  -0.6200 
 11 C        2.7400    -3.9440     0.8720 C.ar  1 <1>  -0.1500 
 12 C       -0.4790    -5.3690     1.0720 C.3   1 <1>  -0.2400 
 13 C        0.8010    -6.2760    -0.9260 C.3   1 <1>  -0.2400 
 14 C        3.8340    -3.1990     1.2350 C.ar  1 <1>   0.1600 
 15 H       -0.9620    -5.0860    -0.9810 H     1 <1>   0.0800 
 16 H        2.6140    -4.9440     1.2450 H     1 <1>   0.1500 
 17 H        0.3780    -5.4570     1.7130 H     1 <1>   0.0800 
 18 H       -1.0490    -6.2780     1.1440 H     1 <1>   0.0800 
 19 H       -1.0970    -4.5580     1.4150 H     1 <1>   0.0800 
 20 H        1.7000    -6.3930    -0.3500 H     1 <1>   0.0800 
 21 H        1.0600    -6.0870    -1.9530 H     1 <1>   0.0800 
 22 H        0.2500    -7.1990    -0.8850 H     1 <1>   0.0800 
 23 H        4.5700    -3.6220     1.8980 H     1 <1>   0.1500 
@<TRIPOS>BOND
  1   1   2  1   
  2   2   3  2   
  3   2   4  1   
  4   3   5  1   
  5   4   6  ar  
  6   4   7  ar  
  7   5   7  1   
  8   5   8  1   
  9   6   9  1   
 10   6  10  ar  
 11   7  11  ar  
 12   8  12  1   
 13   8  13  1   
 14   8  15  1   
 15  10  14  ar  
 16  11  14  ar  
 17  11  16  1   
 18  12  17  1   
 19  12  18  1   
 20  12  19  1   
 21  13  20  1   
 22  13  21  1   
 23  13  22  1   
 24  14  23  1   
@<TRIPOS>SUBSTRUCTURE
  1 ****   7 GROUP 4 **** **** 0

# MOE 2024.06 (io_trps.svl 2023.06)
