@<TRIPOS>MOLECULE
Untitled Document
56 59 1 0 0 
SMALL
USER_CHARGES


@<TRIPOS>ATOM
  1 F       -0.3430    -0.2950    -0.4540 F     1 <1>  -0.3400 
  2 C        0.1540    -1.1770     0.4040 C.3   1 <1>   1.2000 
  3 F       -0.6120    -1.1120     1.4880 F     1 <1>  -0.3400 
  4 F        1.3460    -0.7200     0.7630 F     1 <1>  -0.3400 
  5 C        0.1840    -2.5740    -0.1750 C.2   1 <1>   0.0060 
  6 N        1.1940    -3.3280    -0.4190 N.2   1 <1>  -0.3380 
  7 N       -0.9380    -3.1940    -0.4930 N.pl3 1 <1>   0.5930 
  8 N        0.6860    -4.4530    -0.8990 N.2   1 <1>   0.0000 
  9 N       -0.5930    -4.3860    -0.9420 N.2   1 <1>  -0.4180 
 10 C       -2.3050    -2.8030    -0.3720 C.ar  1 <1>  -0.0230 
 11 C       -3.1010    -3.3410     0.6360 C.ar  1 <1>  -0.1500 
 12 C       -2.8690    -1.8930    -1.2590 C.ar  1 <1>  -0.1500 
 13 C       -4.4330    -2.9730     0.7620 C.ar  1 <1>  -0.1440 
 14 C       -4.1930    -1.5180    -1.1380 C.ar  1 <1>  -0.1500 
 15 C       -4.9810    -2.0560    -0.1260 C.ar  1 <1>   0.0820 
 16 C       -5.2980    -3.5520     1.8660 C.3   1 <1>   0.4870 
 17 O       -6.2910    -1.7380     0.0370 O.3   1 <1>  -0.3630 
 18 N       -5.7700    -4.9000     1.4410 N.4   1 <1>  -0.9060 
 19 C       -6.8070    -0.5320    -0.4990 C.3   1 <1>   0.0400 
 20 C       -6.7120    -4.8490     0.2590 C.3   1 <1>   0.4230 
 21 C       -6.6010    -6.0490    -0.7560 C.3   1 <1>   0.5660 
 22 C       -8.1510    -4.6880     0.7780 C.3   1 <1>  -0.1600 
 23 N       -7.6660    -7.0890    -0.6100 N.4   1 <1>  -0.9060 
 24 C       -5.2300    -6.6960    -0.6380 C.ar  1 <1>  -0.1430 
 25 C       -9.1840    -5.1050    -0.2880 C.3   1 <1>  -0.1600 
 26 C       -9.0640    -6.5710    -0.7460 C.3   1 <1>   0.3430 
 27 C       -4.9500    -7.7030     0.2830 C.ar  1 <1>  -0.1500 
 28 C       -4.2120    -6.2300    -1.4590 C.ar  1 <1>  -0.1500 
 29 C       -3.6710    -8.2210     0.3830 C.ar  1 <1>  -0.1500 
 30 C       -2.9360    -6.7520    -1.3560 C.ar  1 <1>  -0.1500 
 31 C       -2.6640    -7.7430    -0.4340 C.ar  1 <1>  -0.1500 
 32 H       -2.6570    -4.0480     1.3200 H     1 <1>   0.1500 
 33 H       -2.2740    -1.4710    -2.0550 H     1 <1>   0.1500 
 34 H       -4.5910    -0.8090    -1.8420 H     1 <1>   0.1500 
 35 H       -6.1350    -2.9000     2.0630 H     1 <1>   0.0800 
 36 H       -4.7130    -3.6300     2.7690 H     1 <1>   0.0800 
 37 H       -6.1870    -5.3730     2.2500 H     1 <1>   0.4500 
 38 H       -4.9210    -5.4270     1.1730 H     1 <1>   0.4500 
 39 H       -7.8020    -0.3870    -0.1170 H     1 <1>   0.0800 
 40 H       -6.8390    -0.6040    -1.5720 H     1 <1>   0.0800 
 41 H       -6.1800     0.2880    -0.1920 H     1 <1>   0.0800 
 42 H       -6.4680    -3.9770    -0.3240 H     1 <1>   0.0800 
 43 H       -6.6920    -5.6330    -1.7470 H     1 <1>   0.0800 
 44 H       -8.3090    -5.2920     1.6550 H     1 <1>   0.0800 
 45 H       -8.3200    -3.6570     1.0470 H     1 <1>   0.0800 
 46 H       -7.4970    -7.8130    -1.3260 H     1 <1>   0.4500 
 47 H       -7.5640    -7.5740     0.2860 H     1 <1>   0.4500 
 48 H       -9.0900    -4.4640    -1.1500 H     1 <1>   0.0800 
 49 H      -10.1800    -4.9480     0.0930 H     1 <1>   0.0800 
 50 H       -9.3890    -6.6430    -1.7730 H     1 <1>   0.0800 
 51 H       -9.7280    -7.1850    -0.1550 H     1 <1>   0.0800 
 52 H       -5.6950    -8.1130     0.9430 H     1 <1>   0.1500 
 53 H       -4.3800    -5.4560    -2.1920 H     1 <1>   0.1500 
 54 H       -3.4470    -9.0040     1.0910 H     1 <1>   0.1500 
 55 H       -2.1450    -6.3930    -1.9960 H     1 <1>   0.1500 
 56 H       -1.6660    -8.1460    -0.3600 H     1 <1>   0.1500 
@<TRIPOS>BOND
  1   1   2  1   
  2   2   3  1   
  3   2   4  1   
  4   2   5  1   
  5   5   6  2   
  6   5   7  1   
  7   6   8  1   
  8   7   9  1   
  9   7  10  1   
 10   8   9  2   
 11  10  11  ar  
 12  10  12  ar  
 13  11  13  ar  
 14  11  32  1   
 15  12  14  ar  
 16  12  33  1   
 17  13  15  ar  
 18  13  16  1   
 19  14  15  ar  
 20  14  34  1   
 21  15  17  1   
 22  16  18  1   
 23  16  35  1   
 24  16  36  1   
 25  17  19  1   
 26  18  20  1   
 27  18  37  1   
 28  18  38  1   
 29  19  39  1   
 30  19  40  1   
 31  19  41  1   
 32  20  21  1   
 33  20  22  1   
 34  20  42  1   
 35  21  23  1   
 36  21  24  1   
 37  21  43  1   
 38  22  25  1   
 39  22  44  1   
 40  22  45  1   
 41  23  26  1   
 42  23  46  1   
 43  23  47  1   
 44  24  27  ar  
 45  24  28  ar  
 46  25  26  1   
 47  25  48  1   
 48  25  49  1   
 49  26  50  1   
 50  26  51  1   
 51  27  29  ar  
 52  27  52  1   
 53  28  30  ar  
 54  28  53  1   
 55  29  31  ar  
 56  29  54  1   
 57  30  31  ar  
 58  30  55  1   
 59  31  56  1   
@<TRIPOS>SUBSTRUCTURE
  1 ****  11 GROUP 4 **** **** 0

# MOE 2024.06 (io_trps.svl 2023.06)
