@<TRIPOS>MOLECULE
NONAME
40 41 1 0 0 
SMALL
USER_CHARGES


@<TRIPOS>ATOM
  1 O        1.2770     0.0430     2.9270 O.2   1 <1>  -0.5700 
  2 C        1.2660    -0.7510     2.0130 C.2   1 <1>   0.5690 
  3 N        2.2070    -0.7070     1.0130 N.am  1 <1>  -0.6600 
  4 C        0.1520    -1.8090     2.0070 C.3   1 <1>   0.1710 
  5 C        2.1970    -1.5740    -0.2030 C.3   1 <1>   0.1400 
  6 C        3.2040     0.3980     0.9120 C.3   1 <1>   0.1400 
  7 N       -0.8980    -1.6110     0.9560 N.3   1 <1>  -0.8100 
  8 C        2.0560    -0.7080    -1.4690 C.3   1 <1>   0.2000 
  9 C        3.0280     1.1580    -0.4190 C.3   1 <1>   0.2000 
 10 C       -1.7820    -2.7900     0.8730 C.3   1 <1>   0.2910 
 11 C       -1.6680    -0.3890     1.2290 C.3   1 <1>   0.0300 
 12 O        3.0560     0.2690    -1.4990 O.3   1 <1>  -0.5600 
 13 C        2.1990    -1.5310    -2.7460 C.3   1 <1>  -0.2400 
 14 C        4.1430     2.1740    -0.6510 C.3   1 <1>  -0.2400 
 15 C       -1.0580    -3.9740     0.2470 C.2   1 <1>   0.1080 
 16 N       -0.7090    -5.0410     0.8780 N.2   1 <1>  -0.4100 
 17 C       -0.6750    -4.0470    -1.0910 C.2   1 <1>  -0.1500 
 18 O       -0.1150    -5.8010     0.0040 O.3   1 <1>  -0.0190 
 19 C       -0.0760    -5.2440    -1.1760 C.2   1 <1>  -0.0100 
 20 H       -0.3110    -1.8140     2.9780 H     1 <1>   0.0800 
 21 H        0.6230    -2.7670     1.8780 H     1 <1>   0.0800 
 22 H        3.1200    -2.1240    -0.2500 H     1 <1>   0.0800 
 23 H        1.3930    -2.2840    -0.1730 H     1 <1>   0.0800 
 24 H        3.0920     1.0860     1.7320 H     1 <1>   0.0800 
 25 H        4.1960    -0.0160     0.9610 H     1 <1>   0.0800 
 26 H        1.0980    -0.2140    -1.4640 H     1 <1>   0.0800 
 27 H        2.0760     1.6620    -0.4230 H     1 <1>   0.0800 
 28 H       -2.1380    -3.0580     1.8530 H     1 <1>   0.0800 
 29 H       -2.6340    -2.5580     0.2580 H     1 <1>   0.0800 
 30 H       -2.4050    -0.2370     0.4590 H     1 <1>   0.0800 
 31 H       -1.0130     0.4660     1.2390 H     1 <1>   0.0800 
 32 H       -2.1630    -0.4570     2.1830 H     1 <1>   0.0800 
 33 H        3.1660    -2.0010    -2.7790 H     1 <1>   0.0800 
 34 H        2.0850    -0.8930    -3.6040 H     1 <1>   0.0800 
 35 H        1.4420    -2.2920    -2.7820 H     1 <1>   0.0800 
 36 H        5.0970     1.6800    -0.6840 H     1 <1>   0.0800 
 37 H        4.1530     2.8980     0.1430 H     1 <1>   0.0800 
 38 H        3.9780     2.6890    -1.5810 H     1 <1>   0.0800 
 39 H       -0.8400    -3.2940    -1.8390 H     1 <1>   0.1500 
 40 H        0.3870    -5.7630    -1.9950 H     1 <1>   0.1500 
@<TRIPOS>BOND
  1   1   2  2   
  2   2   3  am  
  3   2   4  1   
  4   3   5  1   
  5   3   6  1   
  6   4   7  1   
  7   4  20  1   
  8   4  21  1   
  9   5   8  1   
 10   5  22  1   
 11   5  23  1   
 12   6   9  1   
 13   6  24  1   
 14   6  25  1   
 15   7  10  1   
 16   7  11  1   
 17   8  12  1   
 18   8  13  1   
 19   8  26  1   
 20   9  12  1   
 21   9  14  1   
 22   9  27  1   
 23  10  15  1   
 24  10  28  1   
 25  10  29  1   
 26  11  30  1   
 27  11  31  1   
 28  11  32  1   
 29  13  33  1   
 30  13  34  1   
 31  13  35  1   
 32  14  36  1   
 33  14  37  1   
 34  14  38  1   
 35  15  16  2   
 36  15  17  1   
 37  16  18  1   
 38  17  19  2   
 39  17  39  1   
 40  18  19  1   
 41  19  40  1   
@<TRIPOS>SUBSTRUCTURE
  1 ****   5 GROUP 4 **** **** 0

# MOE 2024.06 (io_trps.svl 2023.06)
