@<TRIPOS>MOLECULE
NONAME
50 52 1 0 0 
SMALL
USER_CHARGES


@<TRIPOS>ATOM
  1 O       -0.9690     0.4010    -1.2560 O.2   1 <1>  -0.5700 
  2 C       -1.6970     1.0090    -0.4940 C.2   1 <1>   0.5440 
  3 N       -2.6840     0.3100     0.1650 N.am  1 <1>  -0.6600 
  4 C       -1.5210     2.4330    -0.3250 C.ar  1 <1>   0.0860 
  5 C       -2.6570    -1.1850     0.2410 C.3   1 <1>   0.1400 
  6 C       -4.0590     0.8610     0.3670 C.3   1 <1>   0.1400 
  7 C       -1.1320     3.2300    -1.4010 C.ar  1 <1>   0.1600 
  8 C       -1.7190     3.0800     0.8930 C.ar  1 <1>  -0.1500 
  9 C       -3.7280    -1.7960    -0.6770 C.3   1 <1>   0.3440 
 10 C       -5.0780     0.1450    -0.5540 C.3   1 <1>   0.2000 
 11 N       -0.9570     4.5410    -1.3770 N.ar  1 <1>  -0.6200 
 12 C       -1.5360     4.4410     0.9400 C.ar  1 <1>  -0.1500 
 13 O       -4.9830    -1.2460    -0.3720 O.3   1 <1>  -0.5600 
 14 C       -3.7770    -3.3120    -0.5110 C.ar  1 <1>  -0.1430 
 15 C       -6.5590     0.5880    -0.3550 C.3   1 <1>   0.0000 
 16 C       -1.1620     5.1250    -0.2120 C.ar  1 <1>   0.4100 
 17 C       -2.9730    -4.1120    -1.3100 C.ar  1 <1>  -0.1500 
 18 C       -4.5980    -3.9140     0.4330 C.ar  1 <1>  -0.1500 
 19 C       -6.7160     2.1040    -0.5750 C.3   1 <1>  -0.2400 
 20 C       -7.0860     0.2420     1.0510 C.3   1 <1>  -0.2400 
 21 C       -7.4490    -0.1260    -1.3900 C.3   1 <1>  -0.2400 
 22 N       -0.9660     6.4620    -0.2130 N.pl3 1 <1>  -0.9000 
 23 C       -2.9880    -5.4890    -1.1690 C.ar  1 <1>  -0.1500 
 24 C       -4.6150    -5.2910     0.5760 C.ar  1 <1>  -0.1500 
 25 C       -3.8090    -6.0800    -0.2250 C.ar  1 <1>  -0.1500 
 26 H       -1.6900    -1.5620    -0.0410 H     1 <1>   0.0800 
 27 H       -2.8440    -1.4940     1.2530 H     1 <1>   0.0800 
 28 H       -4.3400     0.7270     1.3960 H     1 <1>   0.0800 
 29 H       -4.0690     1.9140     0.1520 H     1 <1>   0.0800 
 30 H       -0.9560     2.7380    -2.3440 H     1 <1>   0.1500 
 31 H       -2.0010     2.5210     1.7680 H     1 <1>   0.1500 
 32 H       -3.5010    -1.5590    -1.7020 H     1 <1>   0.0800 
 33 H       -4.8070     0.3530    -1.5760 H     1 <1>   0.0800 
 34 H       -1.6790     4.9890     1.8510 H     1 <1>   0.1500 
 35 H       -2.3280    -3.6660    -2.0480 H     1 <1>   0.1500 
 36 H       -5.2320    -3.3100     1.0600 H     1 <1>   0.1500 
 37 H       -7.7550     2.3820    -0.5390 H     1 <1>   0.0800 
 38 H       -6.3270     2.3890    -1.5370 H     1 <1>   0.0800 
 39 H       -6.2030     2.6660     0.1850 H     1 <1>   0.0800 
 40 H       -8.1260     0.5020     1.1380 H     1 <1>   0.0800 
 41 H       -6.5460     0.7720     1.8130 H     1 <1>   0.0800 
 42 H       -6.9900    -0.8140     1.2380 H     1 <1>   0.0800 
 43 H       -8.4740     0.1840    -1.2940 H     1 <1>   0.0800 
 44 H       -7.4090    -1.1920    -1.2520 H     1 <1>   0.0800 
 45 H       -7.1200     0.0950    -2.3900 H     1 <1>   0.0800 
 46 H       -0.5750     6.8230    -1.0850 H     1 <1>   0.4000 
 47 H       -0.6120     6.9210     0.6250 H     1 <1>   0.4000 
 48 H       -2.3610    -6.1010    -1.7940 H     1 <1>   0.1500 
 49 H       -5.2560    -5.7470     1.3090 H     1 <1>   0.1500 
 50 H       -3.8210    -7.1500    -0.1150 H     1 <1>   0.1500 
@<TRIPOS>BOND
  1   1   2  2   
  2   2   3  am  
  3   2   4  1   
  4   3   5  1   
  5   3   6  1   
  6   4   7  ar  
  7   4   8  ar  
  8   5   9  1   
  9   5  26  1   
 10   5  27  1   
 11   6  10  1   
 12   6  28  1   
 13   6  29  1   
 14   7  11  ar  
 15   7  30  1   
 16   8  12  ar  
 17   8  31  1   
 18   9  13  1   
 19   9  14  1   
 20   9  32  1   
 21  10  13  1   
 22  10  15  1   
 23  10  33  1   
 24  11  16  ar  
 25  12  16  ar  
 26  12  34  1   
 27  14  17  ar  
 28  14  18  ar  
 29  15  19  1   
 30  15  20  1   
 31  15  21  1   
 32  16  22  1   
 33  17  23  ar  
 34  17  35  1   
 35  18  24  ar  
 36  18  36  1   
 37  19  37  1   
 38  19  38  1   
 39  19  39  1   
 40  20  40  1   
 41  20  41  1   
 42  20  42  1   
 43  21  43  1   
 44  21  44  1   
 45  21  45  1   
 46  22  46  1   
 47  22  47  1   
 48  23  25  ar  
 49  23  48  1   
 50  24  25  ar  
 51  24  49  1   
 52  25  50  1   
@<TRIPOS>SUBSTRUCTURE
  1 ****   3 GROUP 4 **** **** 0

# MOE 2024.06 (io_trps.svl 2023.06)
