@<TRIPOS>MOLECULE
NONAME
50 52 1 0 0 
SMALL
USER_CHARGES


@<TRIPOS>ATOM
  1 S        0.2960    -0.1000     0.4390 S.o2  1 <1>   1.0900 
  2 O       -0.6770    -0.1630     1.5040 O.2   1 <1>  -0.6500 
  3 O        0.7820    -1.2740    -0.2460 O.2   1 <1>  -0.6500 
  4 C        1.7000     0.8520     0.9950 C.3   1 <1>  -0.0550 
  5 C       -0.2410     1.1160    -0.7560 C.3   1 <1>  -0.0550 
  6 C        1.5130     2.2990     0.5120 C.3   1 <1>  -0.0800 
  7 C        0.8490     2.1950    -0.8720 C.3   1 <1>  -0.1600 
  8 C        2.8420     3.0760     0.5010 C.3   1 <1>  -0.1600 
  9 C        2.6460     4.5380     0.0890 C.3   1 <1>   0.3430 
 10 N        3.9050     5.3210     0.2450 N.4   1 <1>  -0.9590 
 11 C        3.6010     6.7850     0.3030 C.3   1 <1>   0.4230 
 12 C        4.9470     4.9400    -0.7510 C.3   1 <1>   0.4380 
 13 C        3.0630     7.3380    -1.0300 C.3   1 <1>  -0.1600 
 14 C        4.8190     7.5900     0.7730 C.3   1 <1>  -0.1600 
 15 C        6.2350     4.6170     0.0070 C.3   1 <1>  -0.1950 
 16 C        2.7030     8.8250    -0.8900 C.3   1 <1>  -0.1600 
 17 C        4.4590     9.0750     0.9270 C.3   1 <1>  -0.1600 
 18 C        7.1550     3.5560    -0.5080 C.3   1 <1>  -0.2000 
 19 C        6.4340     3.3570     0.7940 C.3   1 <1>  -0.2000 
 20 C        3.8970     9.6440    -0.3830 C.3   1 <1>  -0.1600 
 21 H        2.5890     0.4390     0.5550 H     1 <1>   0.0800 
 22 H        1.7960     0.8040     2.0640 H     1 <1>   0.0800 
 23 H       -1.1490     1.5690    -0.4050 H     1 <1>   0.0800 
 24 H       -0.4380     0.6610    -1.7090 H     1 <1>   0.0800 
 25 H        0.8210     2.7810     1.1860 H     1 <1>   0.0800 
 26 H        0.4210     3.1280    -1.1950 H     1 <1>   0.0800 
 27 H        1.5730     1.8710    -1.6020 H     1 <1>   0.0800 
 28 H        3.5210     2.5900    -0.1780 H     1 <1>   0.0800 
 29 H        3.2610     3.0430     1.4920 H     1 <1>   0.0800 
 30 H        1.8810     4.9680     0.7150 H     1 <1>   0.0800 
 31 H        2.3050     4.5890    -0.9330 H     1 <1>   0.0800 
 32 H        4.3120     5.0740     1.1560 H     1 <1>   0.4500 
 33 H        2.8290     6.9350     1.0420 H     1 <1>   0.0800 
 34 H        5.1250     5.7350    -1.4560 H     1 <1>   0.0800 
 35 H        4.6340     4.0670    -1.3000 H     1 <1>   0.0800 
 36 H        2.1780     6.8080    -1.3340 H     1 <1>   0.0800 
 37 H        3.8020     7.2480    -1.8060 H     1 <1>   0.0800 
 38 H        5.6170     7.5190     0.0560 H     1 <1>   0.0800 
 39 H        5.1660     7.2190     1.7210 H     1 <1>   0.0800 
 40 H        6.7290     5.5040     0.3640 H     1 <1>   0.1000 
 41 H        1.8790     8.9380    -0.2040 H     1 <1>   0.0800 
 42 H        2.3850     9.2130    -1.8440 H     1 <1>   0.0800 
 43 H        5.3360     9.6330     1.2110 H     1 <1>   0.0800 
 44 H        3.7300     9.1950     1.7110 H     1 <1>   0.0800 
 45 H        8.2190     3.7270    -0.4800 H     1 <1>   0.1000 
 46 H        6.8660     2.9440    -1.3460 H     1 <1>   0.1000 
 47 H        5.6960     2.5750     0.8200 H     1 <1>   0.1000 
 48 H        7.0170     3.3900     1.7000 H     1 <1>   0.1000 
 49 H        3.5910    10.6660    -0.2270 H     1 <1>   0.0800 
 50 H        4.6710     9.6510    -1.1320 H     1 <1>   0.0800 
@<TRIPOS>BOND
  1   1   2  2   
  2   1   3  2   
  3   1   4  1   
  4   1   5  1   
  5   4   6  1   
  6   4  21  1   
  7   4  22  1   
  8   5   7  1   
  9   5  23  1   
 10   5  24  1   
 11   6   7  1   
 12   6   8  1   
 13   6  25  1   
 14   7  26  1   
 15   7  27  1   
 16   8   9  1   
 17   8  28  1   
 18   8  29  1   
 19   9  10  1   
 20   9  30  1   
 21   9  31  1   
 22  10  11  1   
 23  10  12  1   
 24  10  32  1   
 25  11  13  1   
 26  11  14  1   
 27  11  33  1   
 28  12  15  1   
 29  12  34  1   
 30  12  35  1   
 31  13  16  1   
 32  13  36  1   
 33  13  37  1   
 34  14  17  1   
 35  14  38  1   
 36  14  39  1   
 37  15  18  1   
 38  15  19  1   
 39  15  40  1   
 40  16  20  1   
 41  16  41  1   
 42  16  42  1   
 43  17  20  1   
 44  17  43  1   
 45  17  44  1   
 46  18  19  1   
 47  18  45  1   
 48  18  46  1   
 49  19  47  1   
 50  19  48  1   
 51  20  49  1   
 52  20  50  1   
@<TRIPOS>SUBSTRUCTURE
  1 ****   9 GROUP 4 **** **** 0

# MOE 2024.06 (io_trps.svl 2023.06)
