@<TRIPOS>MOLECULE
NONAME
50 52 1 0 0 
SMALL
USER_CHARGES


@<TRIPOS>ATOM
  1 O       -1.2440     0.3550     2.4410 O.2   1 <1>  -0.5700 
  2 C       -1.9030     0.9490     1.6080 C.2   1 <1>   0.5440 
  3 N       -3.0080     0.3310     1.0740 N.am  1 <1>  -0.6600 
  4 C       -1.5200     2.2820     1.2050 C.ar  1 <1>   0.0860 
  5 C       -3.8410     0.8910    -0.0240 C.3   1 <1>   0.1400 
  6 C       -3.2910    -1.1150     1.2490 C.3   1 <1>   0.1400 
  7 C       -0.9320     2.5470    -0.0380 C.ar  1 <1>   0.0830 
  8 C       -1.7480     3.3620     2.0580 C.ar  1 <1>  -0.1500 
  9 C       -4.8180    -0.2300    -0.3850 C.3   1 <1>   0.2000 
 10 C       -4.0750    -1.5140    -0.0070 C.3   1 <1>  -0.0800 
 11 O       -0.6520     1.5620    -0.9150 O.3   1 <1>  -0.3630 
 12 C       -0.6280     3.8450    -0.4180 C.ar  1 <1>  -0.1500 
 13 C       -1.4330     4.6550     1.6840 C.ar  1 <1>  -0.1500 
 14 O       -5.9330    -0.1170     0.4300 O.3   1 <1>  -0.6800 
 15 C       -3.1290    -1.9480    -1.1440 C.3   1 <1>   0.0210 
 16 C        0.4340     0.7130    -0.6090 C.3   1 <1>   0.1200 
 17 C       -0.8770     4.9000     0.4400 C.ar  1 <1>  -0.1500 
 18 C       -2.3910    -3.2260    -0.8020 C.2   1 <1>   0.1080 
 19 C        0.7650    -0.1110    -1.8530 C.3   1 <1>  -0.1600 
 20 N       -2.9330    -4.3990    -0.9040 N.2   1 <1>  -0.7070 
 21 C       -1.0790    -3.2910    -0.3460 C.2   1 <1>  -0.1500 
 22 C        1.9760    -1.0200    -1.6150 C.3   1 <1>  -0.2400 
 23 N       -1.9690    -5.2540    -0.5140 N.pl3 1 <1>   0.3000 
 24 C       -0.8360    -4.6060    -0.1700 C.2   1 <1>  -0.3320 
 25 C        0.4280    -5.2910     0.3160 C.3   1 <1>  -0.0600 
 26 H       -4.3530     1.7860     0.2840 H     1 <1>   0.0800 
 27 H       -3.2140     1.1090    -0.8700 H     1 <1>   0.0800 
 28 H       -2.3830    -1.6790     1.3740 H     1 <1>   0.0800 
 29 H       -3.9000    -1.2470     2.1270 H     1 <1>   0.0800 
 30 H       -2.1800     3.1730     3.0250 H     1 <1>   0.1500 
 31 H       -5.1430    -0.1980    -1.4100 H     1 <1>   0.0800 
 32 H       -4.7570    -2.3210     0.1960 H     1 <1>   0.0800 
 33 H       -0.1940     4.0220    -1.3860 H     1 <1>   0.1500 
 34 H       -1.6200     5.4740     2.3590 H     1 <1>   0.1500 
 35 H       -5.6390    -0.0500     1.3600 H     1 <1>   0.4000 
 36 H       -2.4120    -1.1760    -1.3550 H     1 <1>   0.0800 
 37 H       -3.7000    -2.1230    -2.0380 H     1 <1>   0.0800 
 38 H        1.2720     1.3250    -0.3220 H     1 <1>   0.0800 
 39 H        0.1580     0.0730     0.2100 H     1 <1>   0.0800 
 40 H       -0.6360     5.9070     0.1450 H     1 <1>   0.1500 
 41 H       -0.0850    -0.7160    -2.1170 H     1 <1>   0.0800 
 42 H        0.9800     0.5540    -2.6710 H     1 <1>   0.0800 
 43 H       -0.4280    -2.4540    -0.1730 H     1 <1>   0.1500 
 44 H        1.7910    -1.6940    -0.7970 H     1 <1>   0.0800 
 45 H        2.8480    -0.4320    -1.3880 H     1 <1>   0.0800 
 46 H        2.1770    -1.6020    -2.4970 H     1 <1>   0.0800 
 47 H       -2.1170    -6.2700    -0.4940 H     1 <1>   0.2700 
 48 H        1.1860    -4.5590     0.5290 H     1 <1>   0.0800 
 49 H        0.8010    -5.9620    -0.4370 H     1 <1>   0.0800 
 50 H        0.2270    -5.8470     1.2150 H     1 <1>   0.0800 
@<TRIPOS>BOND
  1   1   2  2   
  2   2   3  am  
  3   2   4  1   
  4   3   5  1   
  5   3   6  1   
  6   4   7  ar  
  7   4   8  ar  
  8   5   9  1   
  9   5  26  1   
 10   5  27  1   
 11   6  10  1   
 12   6  28  1   
 13   6  29  1   
 14   7  11  1   
 15   7  12  ar  
 16   8  13  ar  
 17   8  30  1   
 18   9  10  1   
 19   9  14  1   
 20   9  31  1   
 21  10  15  1   
 22  10  32  1   
 23  11  16  1   
 24  12  17  ar  
 25  12  33  1   
 26  13  17  ar  
 27  13  34  1   
 28  14  35  1   
 29  15  18  1   
 30  15  36  1   
 31  15  37  1   
 32  16  19  1   
 33  16  38  1   
 34  16  39  1   
 35  17  40  1   
 36  18  20  2   
 37  18  21  1   
 38  19  22  1   
 39  19  41  1   
 40  19  42  1   
 41  20  23  1   
 42  21  24  2   
 43  21  43  1   
 44  22  44  1   
 45  22  45  1   
 46  22  46  1   
 47  23  24  1   
 48  23  47  1   
 49  24  25  1   
 50  25  48  1   
 51  25  49  1   
 52  25  50  1   
@<TRIPOS>SUBSTRUCTURE
  1 ****   3 GROUP 4 **** **** 0

# MOE 2024.06 (io_trps.svl 2023.06)
