@<TRIPOS>MOLECULE
NONAME
40 42 1 0 0 
SMALL
USER_CHARGES


@<TRIPOS>ATOM
  1 F       -0.8400     3.1840    -0.3770 F     1 <1>  -0.3400 
  2 C        0.2960     2.5290    -0.1740 C.3   1 <1>   1.1640 
  3 F        0.0530     1.6610     0.8010 F     1 <1>  -0.3400 
  4 F        0.5090     1.8060    -1.2680 F     1 <1>  -0.3400 
  5 C        1.4530     3.4760     0.1740 C.ar  1 <1>  -0.1440 
  6 C        2.5980     3.5460    -0.6010 C.ar  1 <1>  -0.1500 
  7 C        1.3500     4.2980     1.3120 C.ar  1 <1>  -0.1500 
  8 C        3.6250     4.4180    -0.2480 C.ar  1 <1>   0.2270 
  9 C        2.3600     5.1630     1.6670 C.ar  1 <1>  -0.1500 
 10 N        4.8150     4.6340    -0.8690 N.2   1 <1>  -0.5650 
 11 C        3.5070     5.2160     0.8730 C.ar  1 <1>  -0.1520 
 12 C        5.3940     5.5330    -0.1460 C.2   1 <1>   0.0060 
 13 N        4.6610     5.9340     0.9330 N.pl3 1 <1>   0.0480 
 14 C        6.7750     6.0970    -0.4510 C.3   1 <1>   0.3890 
 15 C        5.0150     6.9470     1.9480 C.3   1 <1>   0.0160 
 16 N        6.7060     7.5640    -0.6380 N.pl3 1 <1>  -0.8690 
 17 C        7.5560     8.4530    -0.0860 C.ar  1 <1>   0.7200 
 18 N        8.1770     8.1120     1.0370 N.ar  1 <1>  -0.6200 
 19 N        7.6580     9.5930    -0.7490 N.ar  1 <1>  -0.6200 
 20 C        8.9860     9.0130     1.5340 C.ar  1 <1>   0.1670 
 21 C        8.4710    10.4800    -0.2340 C.ar  1 <1>   0.1670 
 22 C        9.1700    10.2330     0.9250 C.ar  1 <1>  -0.1500 
 23 C        9.7150     8.6550     2.8110 C.3   1 <1>  -0.0970 
 24 C        8.6090    11.7950    -0.9720 C.3   1 <1>  -0.0970 
 25 H        2.7420     2.9470    -1.4830 H     1 <1>   0.1500 
 26 H        0.4600     4.2490     1.9190 H     1 <1>   0.1500 
 27 H        2.2740     5.7900     2.5370 H     1 <1>   0.1500 
 28 H        7.1480     5.6460    -1.3530 H     1 <1>   0.0800 
 29 H        7.4450     5.8390     0.3500 H     1 <1>   0.0800 
 30 H        4.3790     6.8450     2.8060 H     1 <1>   0.0800 
 31 H        4.8960     7.9270     1.5230 H     1 <1>   0.0800 
 32 H        6.0380     6.8130     2.2470 H     1 <1>   0.0800 
 33 H        6.3110     7.8730    -1.5240 H     1 <1>   0.4000 
 34 H        9.8350    10.9660     1.3380 H     1 <1>   0.1500 
 35 H       10.3160     7.7800     2.6480 H     1 <1>   0.0800 
 36 H        9.0000     8.4450     3.5860 H     1 <1>   0.0800 
 37 H       10.3500     9.4590     3.1330 H     1 <1>   0.0800 
 38 H        8.9660    11.6100    -1.9690 H     1 <1>   0.0800 
 39 H        9.2970    12.4500    -0.4710 H     1 <1>   0.0800 
 40 H        7.6500    12.2750    -1.0320 H     1 <1>   0.0800 
@<TRIPOS>BOND
  1   1   2  1   
  2   2   3  1   
  3   2   4  1   
  4   2   5  1   
  5   5   6  ar  
  6   5   7  ar  
  7   6   8  ar  
  8   6  25  1   
  9   7   9  ar  
 10   7  26  1   
 11   8  10  1   
 12   8  11  ar  
 13   9  11  ar  
 14   9  27  1   
 15  10  12  2   
 16  11  13  1   
 17  12  13  1   
 18  12  14  1   
 19  13  15  1   
 20  14  16  1   
 21  14  28  1   
 22  14  29  1   
 23  15  30  1   
 24  15  31  1   
 25  15  32  1   
 26  16  17  1   
 27  16  33  1   
 28  17  18  ar  
 29  17  19  ar  
 30  18  20  ar  
 31  19  21  ar  
 32  20  22  ar  
 33  20  23  1   
 34  21  22  ar  
 35  21  24  1   
 36  22  34  1   
 37  23  35  1   
 38  23  36  1   
 39  23  37  1   
 40  24  38  1   
 41  24  39  1   
 42  24  40  1   
@<TRIPOS>SUBSTRUCTURE
  1 ****  13 GROUP 4 **** **** 0

# MOE 2024.06 (io_trps.svl 2023.06)
