@<TRIPOS>MOLECULE
NONAME
39 41 1 0 0 
SMALL
USER_CHARGES


@<TRIPOS>ATOM
  1 O       -0.7510     0.6280     0.6780 O.2   1 <1>  -0.5700 
  2 C       -1.6770     1.0220     0.0100 C.2   1 <1>   0.5770 
  3 N       -2.6990     0.1780    -0.3300 N.am  1 <1>  -0.6600 
  4 C       -1.7040     2.4750    -0.4650 C.3   1 <1>   0.0530 
  5 C       -3.8950     0.5020    -1.1490 C.3   1 <1>   0.1400 
  6 C       -2.7330    -1.2430     0.0950 C.3   1 <1>   0.1400 
  7 C       -0.5070     3.3790    -0.0530 C.3   1 <1>   0.0000 
  8 C       -2.5960     3.4090     0.3960 C.3   1 <1>   0.0000 
  9 C       -4.8760    -0.6280    -0.8440 C.3   1 <1>   0.2000 
 10 C       -3.9690    -1.8380    -0.5920 C.3   1 <1>  -0.0800 
 11 C       -1.5410     4.5170     0.1440 C.3   1 <1>   0.0000 
 12 O       -5.5550    -0.3040     0.3210 O.3   1 <1>  -0.6800 
 13 C       -4.6260    -2.9890     0.1940 C.3   1 <1>   0.0200 
 14 C       -3.7440    -4.2230     0.2970 C.2   1 <1>  -0.0400 
 15 O       -4.1420    -5.2150     1.0470 O.3   1 <1>  -0.0190 
 16 C       -2.5630    -4.5680    -0.2410 C.2   1 <1>  -0.1500 
 17 N       -3.2930    -6.2010     1.0440 N.2   1 <1>  -0.4100 
 18 C       -2.3300    -5.8390     0.2760 C.2   1 <1>   0.1080 
 19 C       -1.1130    -6.6870    -0.0190 C.3   1 <1>  -0.0590 
 20 H       -1.9230     2.5690    -1.5160 H     1 <1>   0.0000 
 21 H       -4.3120     1.4640    -0.9040 H     1 <1>   0.0800 
 22 H       -3.6210     0.4800    -2.1900 H     1 <1>   0.0800 
 23 H       -1.8270    -1.7450    -0.2010 H     1 <1>   0.0800 
 24 H       -2.8250    -1.2860     1.1670 H     1 <1>   0.0800 
 25 H       -0.0400     3.0970     0.8750 H     1 <1>   0.0000 
 26 H        0.1940     3.5630    -0.8480 H     1 <1>   0.0000 
 27 H       -3.5570     3.6200    -0.0380 H     1 <1>   0.0000 
 28 H       -2.6450     3.1110     1.4300 H     1 <1>   0.0000 
 29 H       -5.5970    -0.7870    -1.6280 H     1 <1>   0.0800 
 30 H       -3.6610    -2.2140    -1.5510 H     1 <1>   0.0800 
 31 H       -1.7270     5.0720    -0.7600 H     1 <1>   0.0000 
 32 H       -1.3480     5.1380     1.0010 H     1 <1>   0.0000 
 33 H       -4.9060    -0.0240     0.9980 H     1 <1>   0.4000 
 34 H       -5.5460    -3.2700    -0.2880 H     1 <1>   0.0800 
 35 H       -4.8690    -2.6640     1.1900 H     1 <1>   0.0800 
 36 H       -1.9160    -4.0350    -0.9120 H     1 <1>   0.1500 
 37 H       -0.2240    -6.1710     0.2950 H     1 <1>   0.0800 
 38 H       -1.0550    -6.8880    -1.0720 H     1 <1>   0.0800 
 39 H       -1.1790    -7.6200     0.5110 H     1 <1>   0.0800 
@<TRIPOS>BOND
  1   1   2  2   
  2   2   3  am  
  3   2   4  1   
  4   3   5  1   
  5   3   6  1   
  6   4   7  1   
  7   4   8  1   
  8   4  20  1   
  9   5   9  1   
 10   5  21  1   
 11   5  22  1   
 12   6  10  1   
 13   6  23  1   
 14   6  24  1   
 15   7  11  1   
 16   7  25  1   
 17   7  26  1   
 18   8  11  1   
 19   8  27  1   
 20   8  28  1   
 21   9  10  1   
 22   9  12  1   
 23   9  29  1   
 24  10  13  1   
 25  10  30  1   
 26  11  31  1   
 27  11  32  1   
 28  12  33  1   
 29  13  14  1   
 30  13  34  1   
 31  13  35  1   
 32  14  15  1   
 33  14  16  2   
 34  15  17  1   
 35  16  18  1   
 36  16  36  1   
 37  17  18  2   
 38  18  19  1   
 39  19  37  1   
 40  19  38  1   
 41  19  39  1   
@<TRIPOS>SUBSTRUCTURE
  1 ****   6 GROUP 4 **** **** 0

# MOE 2024.06 (io_trps.svl 2023.06)
