@<TRIPOS>MOLECULE
NONAME
49 51 1 0 0 
SMALL
USER_CHARGES


@<TRIPOS>ATOM
  1 S        1.4950    -0.4320    -0.6840 S.3   1 <1>  -0.0800 
  2 C        1.6740     1.3020    -0.9860 C.2   1 <1>  -0.0450 
  3 C        0.7510    -0.7050    -2.2430 C.2   1 <1>  -0.1100 
  4 C        2.2750     2.1340     0.0250 C.2   1 <1>   0.7150 
  5 C        1.1730     1.5760    -2.2200 C.2   1 <1>  -0.1500 
  6 C        0.6550     0.4500    -2.9260 C.2   1 <1>  -0.1500 
  7 O        2.6650     1.6770     1.0830 O.2   1 <1>  -0.5700 
  8 N        2.4060     3.4690    -0.2200 N.am  1 <1>  -0.7300 
  9 C        2.9730     4.5680     0.6000 C.3   1 <1>   0.3610 
 10 C        2.8590     5.9030    -0.1990 C.2   1 <1>   0.5690 
 11 C        4.4490     4.2540     0.8890 C.3   1 <1>  -0.2400 
 12 C        2.1750     4.6670     1.9080 C.3   1 <1>  -0.2400 
 13 O        2.3600     5.8980    -1.3060 O.2   1 <1>  -0.5700 
 14 N        3.3160     7.0620     0.3370 N.am  1 <1>  -0.7300 
 15 C        3.3780     8.3660    -0.3430 C.3   1 <1>   0.3210 
 16 C        4.3740     9.2590     0.3930 C.2   1 <1>   0.1080 
 17 N        4.8340     8.9880     1.5840 N.2   1 <1>  -0.7070 
 18 C        4.9010    10.4480    -0.1120 C.2   1 <1>  -0.1810 
 19 N        5.6690    10.0060     1.8640 N.pl3 1 <1>   0.3000 
 20 C        5.7340    10.8960     0.8540 C.2   1 <1>  -0.3320 
 21 C        4.5830    11.0940    -1.4530 C.3   1 <1>   0.0210 
 22 C        6.6180    12.1330     0.8890 C.3   1 <1>   0.0200 
 23 C        4.6180    12.6260    -1.3570 C.3   1 <1>  -0.1600 
 24 C        7.0900    12.5220    -0.5180 C.3   1 <1>  -0.1600 
 25 C        6.0310    13.2370    -1.3770 C.3   1 <1>  -0.1600 
 26 H        0.4600    -1.7120    -2.4860 H     1 <1>   0.1500 
 27 H        1.1490     2.5530    -2.6710 H     1 <1>   0.1500 
 28 H        0.2350     0.5570    -3.9110 H     1 <1>   0.1500 
 29 H        2.0700     3.8330    -1.1150 H     1 <1>   0.3700 
 30 H        4.9910     4.1490    -0.0340 H     1 <1>   0.0800 
 31 H        4.5470     3.3490     1.4600 H     1 <1>   0.0800 
 32 H        4.8970     5.0500     1.4540 H     1 <1>   0.0800 
 33 H        1.1370     4.8480     1.6940 H     1 <1>   0.0800 
 34 H        2.5430     5.4790     2.5090 H     1 <1>   0.0800 
 35 H        2.2640     3.7640     2.4840 H     1 <1>   0.0800 
 36 H        3.8120     7.1090     1.2360 H     1 <1>   0.3700 
 37 H        2.4040     8.8220    -0.3260 H     1 <1>   0.0800 
 38 H        3.6870     8.2280    -1.3640 H     1 <1>   0.0800 
 39 H        6.1860    10.0620     2.7490 H     1 <1>   0.2700 
 40 H        3.5940    10.8020    -1.7530 H     1 <1>   0.0800 
 41 H        5.2730    10.7470    -2.2020 H     1 <1>   0.0800 
 42 H        7.4870    11.9190     1.4850 H     1 <1>   0.0800 
 43 H        6.0930    12.9520     1.3500 H     1 <1>   0.0800 
 44 H        4.1100    12.9250    -0.4560 H     1 <1>   0.0800 
 45 H        4.0630    13.0380    -2.1820 H     1 <1>   0.0800 
 46 H        7.4250    11.6340    -1.0260 H     1 <1>   0.0800 
 47 H        7.9420    13.1730    -0.4280 H     1 <1>   0.0800 
 48 H        5.9550    14.2610    -1.0530 H     1 <1>   0.0800 
 49 H        6.3850    13.2540    -2.3930 H     1 <1>   0.0800 
@<TRIPOS>BOND
  1   1   2  1   
  2   1   3  1   
  3   2   4  1   
  4   2   5  2   
  5   3   6  2   
  6   3  26  1   
  7   4   7  2   
  8   4   8  am  
  9   5   6  1   
 10   5  27  1   
 11   6  28  1   
 12   8   9  1   
 13   8  29  1   
 14   9  10  1   
 15   9  11  1   
 16   9  12  1   
 17  10  13  2   
 18  10  14  am  
 19  11  30  1   
 20  11  31  1   
 21  11  32  1   
 22  12  33  1   
 23  12  34  1   
 24  12  35  1   
 25  14  15  1   
 26  14  36  1   
 27  15  16  1   
 28  15  37  1   
 29  15  38  1   
 30  16  17  2   
 31  16  18  1   
 32  17  19  1   
 33  18  20  2   
 34  18  21  1   
 35  19  20  1   
 36  19  39  1   
 37  20  22  1   
 38  21  23  1   
 39  21  40  1   
 40  21  41  1   
 41  22  24  1   
 42  22  42  1   
 43  22  43  1   
 44  23  25  1   
 45  23  44  1   
 46  23  45  1   
 47  24  25  1   
 48  24  46  1   
 49  24  47  1   
 50  25  48  1   
 51  25  49  1   
@<TRIPOS>SUBSTRUCTURE
  1 ****  14 GROUP 4 **** **** 0

# MOE 2024.06 (io_trps.svl 2023.06)
