@<TRIPOS>MOLECULE
NONAME
47 48 1 0 0 
SMALL
USER_CHARGES


@<TRIPOS>ATOM
  1 O        1.0340     0.7320     0.5770 O.3   1 <1>  -0.5600 
  2 C        0.5150    -0.5500     0.7700 C.3   1 <1>   0.2000 
  3 C        1.6030     1.3200     1.6960 C.3   1 <1>   0.1200 
  4 C        1.6180    -1.5900     0.5870 C.3   1 <1>  -0.1600 
  5 C       -0.4310    -0.8360    -0.3880 C.3   1 <1>  -0.1600 
  6 C        1.9560     2.7530     1.3030 C.3   1 <1>  -0.1600 
  7 C        1.7770    -1.7590    -0.9280 C.3   1 <1>  -0.1600 
  8 C        0.4620    -1.2760    -1.5530 C.3   1 <1>  -0.1600 
  9 C        2.9330     3.3740     2.2980 C.3   1 <1>   0.2090 
 10 N        3.2200     4.7770     1.9130 N.pl3 1 <1>  -0.8690 
 11 C        3.9430     5.3140     0.9250 C.ar  1 <1>   0.7710 
 12 N        4.0740     6.6210     0.9440 N.ar  1 <1>  -0.6200 
 13 N        4.4880     4.5360    -0.0210 N.ar  1 <1>  -0.1790 
 14 C        4.8010     7.1830    -0.0050 C.ar  1 <1>   0.4100 
 15 C        5.2050     5.0750    -1.0350 C.ar  1 <1>   0.2110 
 16 N        4.9620     8.5280     0.0810 N.pl3 1 <1>  -0.8380 
 17 C        5.3770     6.4210    -1.0560 C.ar  1 <1>  -0.1440 
 18 C        3.8390     9.4190     0.4920 C.3   1 <1>   0.1290 
 19 C        6.3010     9.1760     0.1590 C.3   1 <1>   0.1290 
 20 C        6.1330     7.0790    -2.2090 C.3   1 <1>  -0.0970 
 21 H        0.0160    -0.6070     1.7240 H     1 <1>   0.0800 
 22 H        2.4820     0.7580     1.9650 H     1 <1>   0.0800 
 23 H        0.8930     1.3070     2.5060 H     1 <1>   0.0800 
 24 H        1.2750    -2.5220     1.0020 H     1 <1>   0.0800 
 25 H        2.5400    -1.3210     1.0690 H     1 <1>   0.0800 
 26 H       -1.0380     0.0180    -0.6330 H     1 <1>   0.0800 
 27 H       -1.0750    -1.6530    -0.1140 H     1 <1>   0.0800 
 28 H        1.0490     3.3310     1.2750 H     1 <1>   0.0800 
 29 H        2.3880     2.7350     0.3200 H     1 <1>   0.0800 
 30 H        1.9830    -2.7850    -1.1830 H     1 <1>   0.0800 
 31 H        2.5860    -1.1420    -1.2790 H     1 <1>   0.0800 
 32 H        0.6590    -0.4330    -2.1930 H     1 <1>   0.0800 
 33 H       -0.0110    -2.0510    -2.1310 H     1 <1>   0.0800 
 34 H        3.8490     2.8080     2.3340 H     1 <1>   0.0800 
 35 H        2.4990     3.3650     3.2850 H     1 <1>   0.0800 
 36 H        2.8260     5.4780     2.5530 H     1 <1>   0.4000 
 37 H        4.2950     3.5440     0.0570 H     1 <1>   0.4570 
 38 H        5.6050     4.4220    -1.7940 H     1 <1>   0.1500 
 39 H        2.8940     8.9240     0.3410 H     1 <1>   0.0800 
 40 H        3.8510    10.3210    -0.0950 H     1 <1>   0.0800 
 41 H        3.9340     9.6720     1.5340 H     1 <1>   0.0800 
 42 H        7.0790     8.4330     0.1910 H     1 <1>   0.0800 
 43 H        6.3690     9.7720     1.0540 H     1 <1>   0.0800 
 44 H        6.4500     9.8110    -0.6970 H     1 <1>   0.0800 
 45 H        5.5980     7.9490    -2.5520 H     1 <1>   0.0800 
 46 H        6.2410     6.4070    -3.0420 H     1 <1>   0.0800 
 47 H        7.1140     7.3830    -1.8920 H     1 <1>   0.0800 
@<TRIPOS>BOND
  1   1   2  1   
  2   1   3  1   
  3   2   4  1   
  4   2   5  1   
  5   2  21  1   
  6   3   6  1   
  7   3  22  1   
  8   3  23  1   
  9   4   7  1   
 10   4  24  1   
 11   4  25  1   
 12   5   8  1   
 13   5  26  1   
 14   5  27  1   
 15   6   9  1   
 16   6  28  1   
 17   6  29  1   
 18   7   8  1   
 19   7  30  1   
 20   7  31  1   
 21   8  32  1   
 22   8  33  1   
 23   9  10  1   
 24   9  34  1   
 25   9  35  1   
 26  10  11  1   
 27  10  36  1   
 28  11  12  ar  
 29  11  13  ar  
 30  12  14  ar  
 31  13  15  ar  
 32  13  37  1   
 33  14  16  1   
 34  14  17  ar  
 35  15  17  ar  
 36  15  38  1   
 37  16  18  1   
 38  16  19  1   
 39  17  20  1   
 40  18  39  1   
 41  18  40  1   
 42  18  41  1   
 43  19  42  1   
 44  19  43  1   
 45  19  44  1   
 46  20  45  1   
 47  20  46  1   
 48  20  47  1   
@<TRIPOS>SUBSTRUCTURE
  1 ****  13 GROUP 4 **** **** 0

# MOE 2024.06 (io_trps.svl 2023.06)
