@<TRIPOS>MOLECULE
NONAME
46 47 1 0 0 
SMALL
USER_CHARGES


@<TRIPOS>ATOM
  1 F        2.5350     0.1210    -1.7490 F     1 <1>  -0.1900 
  2 C        2.6130    -0.8610    -0.8930 C.ar  1 <1>   0.1900 
  3 C        2.5280    -2.1550    -1.3580 C.ar  1 <1>  -0.1500 
  4 C        2.7740    -0.5730     0.4440 C.ar  1 <1>  -0.1500 
  5 C        2.6000    -3.2140    -0.4610 C.ar  1 <1>  -0.1440 
  6 C        2.8620    -1.6270     1.3350 C.ar  1 <1>  -0.1500 
  7 C        2.7850    -2.9560     0.9110 C.ar  1 <1>  -0.1430 
  8 C        2.4510    -4.6150    -1.0450 C.3   1 <1>   0.4870 
  9 C        2.9580    -4.0400     2.0090 C.3   1 <1>   1.1640 
 10 N        1.0390    -5.0030    -0.8970 N.4   1 <1>  -0.9590 
 11 F        4.2480    -4.1920     2.2810 F     1 <1>  -0.3400 
 12 F        2.5360    -5.2500     1.6690 F     1 <1>  -0.3400 
 13 F        2.3810    -3.7330     3.1620 F     1 <1>  -0.3400 
 14 C        0.8000    -6.4840    -0.7530 C.3   1 <1>   0.3430 
 15 C        0.0730    -4.3530    -1.8160 C.3   1 <1>   0.3430 
 16 C       -0.7080    -6.8470    -0.7950 C.3   1 <1>   0.2000 
 17 C       -1.3470    -4.4500    -1.2290 C.3   1 <1>  -0.1600 
 18 O       -1.0600    -7.1390    -2.1140 O.3   1 <1>  -0.6800 
 19 C       -1.5660    -5.6700    -0.2740 C.3   1 <1>  -0.1060 
 20 C       -1.0000    -5.4080     1.1350 C.2   1 <1>   0.9060 
 21 C       -3.0710    -6.0520    -0.2060 C.3   1 <1>  -0.1600 
 22 O       -0.3290    -4.3830     1.3330 O.co2 1 <1>  -0.9000 
 23 O       -1.0210    -6.3280     1.9500 O.co2 1 <1>  -0.9000 
 24 C       -3.9580    -4.9500     0.3980 C.3   1 <1>  -0.1600 
 25 C       -5.4210    -5.3980     0.4580 C.3   1 <1>  -0.2400 
 26 H        2.4010    -2.3130    -2.4150 H     1 <1>   0.1500 
 27 H        2.8300     0.4480     0.7760 H     1 <1>   0.1500 
 28 H        2.9950    -1.3990     2.3810 H     1 <1>   0.1500 
 29 H        3.0860    -5.3040    -0.5150 H     1 <1>   0.0800 
 30 H        2.7310    -4.6260    -2.0850 H     1 <1>   0.0800 
 31 H        0.7450    -4.6210     0.0410 H     1 <1>   0.4500 
 32 H        1.3110    -7.0340    -1.5240 H     1 <1>   0.0800 
 33 H        1.1870    -6.7970     0.2040 H     1 <1>   0.0800 
 34 H        0.3240    -3.3160    -1.9600 H     1 <1>   0.0800 
 35 H        0.1000    -4.8550    -2.7690 H     1 <1>   0.0800 
 36 H       -0.8770    -7.7350    -0.2080 H     1 <1>   0.0800 
 37 H       -1.5690    -3.5370    -0.7030 H     1 <1>   0.0800 
 38 H       -2.0320    -4.5020    -2.0550 H     1 <1>   0.0800 
 39 H       -2.0010    -7.4060    -2.1400 H     1 <1>   0.4000 
 40 H       -3.4370    -6.2880    -1.1890 H     1 <1>   0.0800 
 41 H       -3.1720    -6.9360     0.4030 H     1 <1>   0.0800 
 42 H       -3.6240    -4.7210     1.3970 H     1 <1>   0.0800 
 43 H       -3.8920    -4.0510    -0.1880 H     1 <1>   0.0800 
 44 H       -5.5160    -6.2790     1.0680 H     1 <1>   0.0800 
 45 H       -5.7920    -5.6130    -0.5280 H     1 <1>   0.0800 
 46 H       -6.0240    -4.6190     0.8890 H     1 <1>   0.0800 
@<TRIPOS>BOND
  1   1   2  1   
  2   2   3  ar  
  3   2   4  ar  
  4   3   5  ar  
  5   3  26  1   
  6   4   6  ar  
  7   4  27  1   
  8   5   7  ar  
  9   5   8  1   
 10   6   7  ar  
 11   6  28  1   
 12   7   9  1   
 13   8  10  1   
 14   8  29  1   
 15   8  30  1   
 16   9  11  1   
 17   9  12  1   
 18   9  13  1   
 19  10  14  1   
 20  10  15  1   
 21  10  31  1   
 22  14  16  1   
 23  14  32  1   
 24  14  33  1   
 25  15  17  1   
 26  15  34  1   
 27  15  35  1   
 28  16  18  1   
 29  16  19  1   
 30  16  36  1   
 31  17  19  1   
 32  17  37  1   
 33  17  38  1   
 34  18  39  1   
 35  19  20  1   
 36  19  21  1   
 37  20  22  ar  
 38  20  23  ar  
 39  21  24  1   
 40  21  40  1   
 41  21  41  1   
 42  24  25  1   
 43  24  42  1   
 44  24  43  1   
 45  25  44  1   
 46  25  45  1   
 47  25  46  1   
@<TRIPOS>SUBSTRUCTURE
  1 ****  10 GROUP 4 **** **** 0

# MOE 2024.06 (io_trps.svl 2023.06)
