@<TRIPOS>MOLECULE
NONAME
49 52 1 0 0 
SMALL
USER_CHARGES


@<TRIPOS>ATOM
  1 O        0.4980     0.9110    -0.3630 O.2   1 <1>  -0.5700 
  2 C        0.2850     2.0860    -0.1760 C.2   1 <1>   0.5690 
  3 N       -0.9180     2.5510     0.2840 N.am  1 <1>  -0.6600 
  4 C        1.4040     3.0730    -0.5020 C.3   1 <1>   0.1810 
  5 C       -1.1620     4.0170     0.5050 C.3   1 <1>   0.3640 
  6 C       -2.0230     1.6310     0.6810 C.3   1 <1>   0.0600 
  7 O        1.2660     4.3070     0.1600 O.3   1 <1>  -0.5600 
  8 C       -2.4800     4.4020    -0.1910 C.ar  1 <1>  -0.1430 
  9 C       -0.0010     4.9200    -0.0070 C.3   1 <1>   0.2610 
 10 C       -3.5870     4.9000     0.4990 C.ar  1 <1>  -0.1430 
 11 C       -2.5710     4.2320    -1.5690 C.ar  1 <1>  -0.1500 
 12 C        0.0070     6.3150     0.6460 C.2   1 <1>   0.5690 
 13 C       -4.7320     5.2470    -0.2040 C.ar  1 <1>  -0.1500 
 14 C       -3.6120     5.0770     2.0130 C.3   1 <1>  -0.0960 
 15 C       -3.7180     4.5760    -2.2600 C.ar  1 <1>  -0.1500 
 16 O       -0.6690     6.5040     1.6320 O.2   1 <1>  -0.5700 
 17 N        0.7770     7.3350     0.1300 N.am  1 <1>  -0.6600 
 18 C       -4.8000     5.0910    -1.5750 C.ar  1 <1>  -0.1500 
 19 C        0.8180     8.6690     0.8010 C.3   1 <1>   0.3200 
 20 C        1.7470     7.1890    -1.0000 C.3   1 <1>   0.1400 
 21 C        2.2610     9.1130     0.9870 C.2   1 <1>  -0.3320 
 22 C        3.1790     7.2990    -0.4700 C.3   1 <1>   0.0960 
 23 N        3.2920     8.4850     0.3930 N.pl3 1 <1>   0.3140 
 24 C        2.7890    10.1250     1.7070 C.2   1 <1>  -0.1500 
 25 N        4.4650     9.0630     0.6920 N.2   1 <1>  -0.7070 
 26 C        4.1680    10.0580     1.4940 C.2   1 <1>   0.3080 
 27 C        5.1130    10.9710     2.0860 C.1   1 <1>   0.5380 
 28 N        5.8270    11.7200     2.5730 N.1   1 <1>  -0.5570 
 29 H        1.4250     3.2520    -1.5610 H     1 <1>   0.0800 
 30 H        2.3450     2.6480    -0.2040 H     1 <1>   0.0800 
 31 H       -1.2440     4.1600     1.5650 H     1 <1>   0.0800 
 32 H       -2.3560     1.8660     1.6770 H     1 <1>   0.0800 
 33 H       -1.6930     0.6060     0.6640 H     1 <1>   0.0800 
 34 H       -2.8500     1.7350     0.0000 H     1 <1>   0.0800 
 35 H       -0.1370     5.0700    -1.0600 H     1 <1>   0.0800 
 36 H       -1.7470     3.8170    -2.1210 H     1 <1>   0.1500 
 37 H       -5.5870     5.6430     0.3150 H     1 <1>   0.1500 
 38 H       -4.6160     5.2400     2.3620 H     1 <1>   0.0800 
 39 H       -3.0220     5.9270     2.3000 H     1 <1>   0.0800 
 40 H       -3.2370     4.2010     2.5070 H     1 <1>   0.0800 
 41 H       -3.7700     4.4410    -3.3260 H     1 <1>   0.1500 
 42 H       -5.6950     5.3650    -2.1060 H     1 <1>   0.1500 
 43 H        0.2990     9.3830     0.1850 H     1 <1>   0.0800 
 44 H        0.3300     8.6400     1.7600 H     1 <1>   0.0800 
 45 H        1.6300     6.2510    -1.5080 H     1 <1>   0.0800 
 46 H        1.5710     7.9720    -1.7170 H     1 <1>   0.0800 
 47 H        3.8790     7.3870    -1.2800 H     1 <1>   0.0800 
 48 H        3.4230     6.4300     0.1120 H     1 <1>   0.0800 
 49 H        2.2870    10.8490     2.3230 H     1 <1>   0.1500 
@<TRIPOS>BOND
  1   1   2  2   
  2   2   3  am  
  3   2   4  1   
  4   3   5  1   
  5   3   6  1   
  6   4   7  1   
  7   4  29  1   
  8   4  30  1   
  9   5   8  1   
 10   5   9  1   
 11   5  31  1   
 12   6  32  1   
 13   6  33  1   
 14   6  34  1   
 15   7   9  1   
 16   8  10  ar  
 17   8  11  ar  
 18   9  12  1   
 19   9  35  1   
 20  10  13  ar  
 21  10  14  1   
 22  11  15  ar  
 23  11  36  1   
 24  12  16  2   
 25  12  17  am  
 26  13  18  ar  
 27  13  37  1   
 28  14  38  1   
 29  14  39  1   
 30  14  40  1   
 31  15  18  ar  
 32  15  41  1   
 33  17  19  1   
 34  17  20  1   
 35  18  42  1   
 36  19  21  1   
 37  19  43  1   
 38  19  44  1   
 39  20  22  1   
 40  20  45  1   
 41  20  46  1   
 42  21  23  1   
 43  21  24  2   
 44  22  23  1   
 45  22  47  1   
 46  22  48  1   
 47  23  25  1   
 48  24  26  1   
 49  24  49  1   
 50  25  26  2   
 51  26  27  1   
 52  27  28  3   
@<TRIPOS>SUBSTRUCTURE
  1 ****  12 GROUP 4 **** **** 0

# MOE 2024.06 (io_trps.svl 2023.06)
