@<TRIPOS>MOLECULE
NONAME
50 52 1 0 0 
SMALL
USER_CHARGES


@<TRIPOS>ATOM
  1 O        0.1120    -0.2510    -0.1600 O.3   1 <1>  -0.5600 
  2 C        1.2570     0.4610    -0.5160 C.3   1 <1>   0.2640 
  3 C        0.1970    -1.6190    -0.3400 C.3   1 <1>   0.1200 
  4 C        1.0320     1.9340    -0.2130 C.ar  1 <1>  -0.1440 
  5 C       -1.1300    -2.1980     0.1430 C.3   1 <1>  -0.1600 
  6 C        1.8420     2.5990     0.6960 C.ar  1 <1>  -0.1500 
  7 C        0.0150     2.6290    -0.8490 C.ar  1 <1>  -0.1500 
  8 C       -1.1610    -3.7160    -0.0120 C.3   1 <1>   0.3430 
  9 C        1.6400     3.9430     0.9610 C.ar  1 <1>  -0.1500 
 10 C       -0.1890     3.9730    -0.5860 C.ar  1 <1>  -0.1500 
 11 N       -2.4150    -4.2590     0.5720 N.4   1 <1>  -0.9590 
 12 C        0.6250     4.6300     0.3190 C.ar  1 <1>  -0.1500 
 13 C       -3.6750    -3.8630    -0.1100 C.3   1 <1>   0.3430 
 14 C       -2.4590    -5.7480     0.6460 C.3   1 <1>   0.3430 
 15 C       -4.7050    -4.8300     0.4720 C.3   1 <1>   0.2000 
 16 C       -3.9430    -6.1550     0.5640 C.3   1 <1>  -0.0800 
 17 O       -4.9890    -4.4090     1.7660 O.3   1 <1>  -0.6800 
 18 C       -4.2280    -7.0590    -0.6550 C.3   1 <1>  -0.0170 
 19 C       -3.5320    -8.4100    -0.5480 C.ar  1 <1>   0.1670 
 20 N       -2.2160    -8.4060    -0.6990 N.ar  1 <1>  -0.6200 
 21 C       -4.2760    -9.5650    -0.3070 C.ar  1 <1>   0.1600 
 22 C       -1.7020    -9.6240    -0.6060 C.ar  1 <1>   0.1600 
 23 N       -3.7610   -10.7770    -0.2020 N.ar  1 <1>  -0.6200 
 24 C       -2.4490   -10.7700    -0.3640 C.ar  1 <1>   0.1600 
 25 H        2.0910     0.0820     0.0490 H     1 <1>   0.0800 
 26 H        1.4370     0.3250    -1.5690 H     1 <1>   0.0800 
 27 H        0.3570    -1.8200    -1.3870 H     1 <1>   0.0800 
 28 H        1.0220    -1.9940     0.2440 H     1 <1>   0.0800 
 29 H       -1.2530    -1.9380     1.1800 H     1 <1>   0.0800 
 30 H       -1.9190    -1.7500    -0.4340 H     1 <1>   0.0800 
 31 H        2.6330     2.0760     1.2030 H     1 <1>   0.1500 
 32 H       -0.6250     2.1200    -1.5490 H     1 <1>   0.1500 
 33 H       -0.3130    -4.1400     0.5030 H     1 <1>   0.0800 
 34 H       -1.0920    -3.9820    -1.0550 H     1 <1>   0.0800 
 35 H        2.2710     4.4520     1.6670 H     1 <1>   0.1500 
 36 H       -0.9800     4.5050    -1.0830 H     1 <1>   0.1500 
 37 H       -2.5260    -3.9150     1.5400 H     1 <1>   0.4500 
 38 H        0.4670     5.6740     0.5260 H     1 <1>   0.1500 
 39 H       -3.9430    -2.8390     0.0930 H     1 <1>   0.0800 
 40 H       -3.5860    -4.0160    -1.1720 H     1 <1>   0.0800 
 41 H       -1.9160    -6.1670    -0.1850 H     1 <1>   0.0800 
 42 H       -2.0150    -6.1000     1.5630 H     1 <1>   0.0800 
 43 H       -5.6210    -4.8670    -0.0950 H     1 <1>   0.0800 
 44 H       -4.2220    -6.6970     1.4520 H     1 <1>   0.0800 
 45 H       -5.7540    -4.8940     2.1440 H     1 <1>   0.4000 
 46 H       -3.9030    -6.5800    -1.5630 H     1 <1>   0.0800 
 47 H       -5.2890    -7.2190    -0.7390 H     1 <1>   0.0800 
 48 H       -5.3430    -9.4900    -0.1960 H     1 <1>   0.1500 
 49 H       -0.6380    -9.7250    -0.7270 H     1 <1>   0.1500 
 50 H       -1.9420   -11.7170    -0.3030 H     1 <1>   0.1500 
@<TRIPOS>BOND
  1   1   2  1   
  2   1   3  1   
  3   2   4  1   
  4   2  25  1   
  5   2  26  1   
  6   3   5  1   
  7   3  27  1   
  8   3  28  1   
  9   4   6  ar  
 10   4   7  ar  
 11   5   8  1   
 12   5  29  1   
 13   5  30  1   
 14   6   9  ar  
 15   6  31  1   
 16   7  10  ar  
 17   7  32  1   
 18   8  11  1   
 19   8  33  1   
 20   8  34  1   
 21   9  12  ar  
 22   9  35  1   
 23  10  12  ar  
 24  10  36  1   
 25  11  13  1   
 26  11  14  1   
 27  11  37  1   
 28  12  38  1   
 29  13  15  1   
 30  13  39  1   
 31  13  40  1   
 32  14  16  1   
 33  14  41  1   
 34  14  42  1   
 35  15  16  1   
 36  15  17  1   
 37  15  43  1   
 38  16  18  1   
 39  16  44  1   
 40  17  45  1   
 41  18  19  1   
 42  18  46  1   
 43  18  47  1   
 44  19  20  ar  
 45  19  21  ar  
 46  20  22  ar  
 47  21  23  ar  
 48  21  48  1   
 49  22  24  ar  
 50  22  49  1   
 51  23  24  ar  
 52  24  50  1   
@<TRIPOS>SUBSTRUCTURE
  1 ****   8 GROUP 4 **** **** 0

# MOE 2024.06 (io_trps.svl 2023.06)
