@<TRIPOS>MOLECULE
NONAME
47 50 1 0 0 
SMALL
USER_CHARGES


@<TRIPOS>ATOM
  1 O       -0.2100     0.1900     0.4070 O.2   1 <1>  -0.5700 
  2 C        0.0800     1.1000    -0.3370 C.2   1 <1>   0.5690 
  3 N       -0.5570     2.3170    -0.2610 N.am  1 <1>  -0.6600 
  4 C        1.1530     0.8050    -1.3740 C.3   1 <1>   0.1570 
  5 C       -1.5600     2.5960     0.8120 C.3   1 <1>   0.1400 
  6 C       -0.3170     3.4840    -1.1550 C.3   1 <1>   0.1400 
  7 N        2.3560     1.6490    -1.2060 N.pl3 1 <1>   0.0480 
  8 C       -2.9270     2.9980     0.2050 C.3   1 <1>   0.0000 
  9 C       -1.6370     3.9350    -1.7900 C.3   1 <1>  -0.1600 
 10 C        3.1240     1.7900    -0.0710 C.ar  1 <1>  -0.1520 
 11 C        2.9290     2.4090    -2.1900 C.2   1 <1>  -0.3020 
 12 C       -3.9810     3.2980     1.2900 C.3   1 <1>   0.2000 
 13 C       -2.7250     4.2050    -0.7360 C.3   1 <1>  -0.1600 
 14 C       -3.5650     1.7970    -0.5160 C.3   1 <1>  -0.1600 
 15 C        4.1730     2.6590    -0.3570 C.ar  1 <1>   0.0000 
 16 C        3.0020     1.2270     1.2040 C.ar  1 <1>  -0.1500 
 17 C        4.0260     3.0350    -1.7070 C.2   1 <1>  -0.1500 
 18 O       -3.4570     3.9440     2.3970 O.3   1 <1>  -0.6800 
 19 C       -4.5880     1.9550     1.7020 C.3   1 <1>  -0.1600 
 20 C       -4.2270     0.9660     0.5860 C.3   1 <1>  -0.1600 
 21 C        5.1070     2.9780     0.6330 C.ar  1 <1>  -0.1500 
 22 C        3.9270     1.5480     2.1710 C.ar  1 <1>  -0.1500 
 23 C        4.9800     2.4250     1.8860 C.ar  1 <1>  -0.1500 
 24 H        0.7450     0.9580    -2.3540 H     1 <1>   0.0800 
 25 H        1.4500    -0.2230    -1.2870 H     1 <1>   0.0800 
 26 H       -1.6780     1.7400     1.4530 H     1 <1>   0.0800 
 27 H       -1.1800     3.4020     1.4150 H     1 <1>   0.0800 
 28 H        0.1010     4.2870    -0.5710 H     1 <1>   0.0800 
 29 H        0.3810     3.2460    -1.9350 H     1 <1>   0.0800 
 30 H       -1.4650     4.8300    -2.3610 H     1 <1>   0.0800 
 31 H       -1.9720     3.1750    -2.4740 H     1 <1>   0.0800 
 32 H        2.5230     2.4590    -3.1850 H     1 <1>   0.1500 
 33 H       -4.7540     3.9270     0.8800 H     1 <1>   0.0800 
 34 H       -3.6490     4.4550    -1.2270 H     1 <1>   0.0800 
 35 H       -2.4320     5.0570    -0.1450 H     1 <1>   0.0800 
 36 H       -4.3290     2.1440    -1.1910 H     1 <1>   0.0800 
 37 H       -2.8550     1.2140    -1.0760 H     1 <1>   0.0800 
 38 H        2.1950     0.5510     1.4260 H     1 <1>   0.1500 
 39 H        4.6960     3.7020    -2.2210 H     1 <1>   0.1500 
 40 H       -2.8970     3.3300     2.9060 H     1 <1>   0.4000 
 41 H       -4.1880     1.6070     2.6390 H     1 <1>   0.0800 
 42 H       -5.6560     2.0520     1.7860 H     1 <1>   0.0800 
 43 H       -3.5210     0.2420     0.9600 H     1 <1>   0.0800 
 44 H       -5.0930     0.4440     0.2170 H     1 <1>   0.0800 
 45 H        5.9110     3.6510     0.3980 H     1 <1>   0.1500 
 46 H        3.8470     1.1260     3.1570 H     1 <1>   0.1500 
 47 H        5.6900     2.6600     2.6590 H     1 <1>   0.1500 
@<TRIPOS>BOND
  1   1   2  2   
  2   2   3  am  
  3   2   4  1   
  4   3   5  1   
  5   3   6  1   
  6   4   7  1   
  7   4  24  1   
  8   4  25  1   
  9   5   8  1   
 10   5  26  1   
 11   5  27  1   
 12   6   9  1   
 13   6  28  1   
 14   6  29  1   
 15   7  10  1   
 16   7  11  1   
 17   8  12  1   
 18   8  13  1   
 19   8  14  1   
 20   9  13  1   
 21   9  30  1   
 22   9  31  1   
 23  10  15  ar  
 24  10  16  ar  
 25  11  17  2   
 26  11  32  1   
 27  12  18  1   
 28  12  19  1   
 29  12  33  1   
 30  13  34  1   
 31  13  35  1   
 32  14  20  1   
 33  14  36  1   
 34  14  37  1   
 35  15  17  1   
 36  15  21  ar  
 37  16  22  ar  
 38  16  38  1   
 39  17  39  1   
 40  18  40  1   
 41  19  20  1   
 42  19  41  1   
 43  19  42  1   
 44  20  43  1   
 45  20  44  1   
 46  21  23  ar  
 47  21  45  1   
 48  22  23  ar  
 49  22  46  1   
 50  23  47  1   
@<TRIPOS>SUBSTRUCTURE
  1 ****   3 GROUP 4 **** **** 0

# MOE 2024.06 (io_trps.svl 2023.06)
