@<TRIPOS>MOLECULE
NONAME
45 48 1 0 0 
SMALL
USER_CHARGES


@<TRIPOS>ATOM
  1 O       -2.1540     1.2230     2.2390 O.2   1 <1>  -0.5700 
  2 C       -1.8360     1.1790     1.0640 C.2   1 <1>   0.7160 
  3 N       -1.7690    -0.0480     0.4460 N.am  1 <1>  -0.6600 
  4 C       -1.5070     2.3680     0.3490 C.2   1 <1>  -0.0860 
  5 C       -1.3260    -0.2840    -0.9460 C.3   1 <1>   0.1400 
  6 C       -2.1140    -1.3140     1.1240 C.3   1 <1>   0.1400 
  7 C       -2.4050     3.3320    -0.1170 C.2   1 <1>   0.3720 
  8 C       -0.2990     2.8270    -0.0690 C.2   1 <1>   0.0870 
  9 C       -1.2290    -1.8010    -1.0690 C.3   1 <1>  -0.1600 
 10 C       -2.1710    -2.3440     0.0030 C.3   1 <1>  -0.1600 
 11 N       -1.7870     4.2640    -0.7560 N.2   1 <1>  -0.4100 
 12 N       -3.7930     3.3040     0.0640 N.pl3 1 <1>  -0.8210 
 13 O       -0.5210     3.9420    -0.7160 O.3   1 <1>  -0.0190 
 14 C        1.0380     2.3050     0.0720 C.ar  1 <1>   0.0530 
 15 C       -4.5240     2.2070    -0.6370 C.3   1 <1>   0.2090 
 16 C       -4.5010     4.6100    -0.1050 C.3   1 <1>   0.2090 
 17 C        2.0130     2.5710    -0.8890 C.ar  1 <1>  -0.1500 
 18 C        1.4070     1.5130     1.1600 C.ar  1 <1>  -0.1500 
 19 C       -6.0090     2.1950    -0.2340 C.3   1 <1>   0.1200 
 20 C       -5.9900     4.4820     0.2650 C.3   1 <1>   0.1200 
 21 C        3.2930     2.0600    -0.7790 C.ar  1 <1>  -0.1500 
 22 C        2.6840     0.9980     1.2750 C.ar  1 <1>  -0.1500 
 23 O       -6.5990     3.4460    -0.4560 O.3   1 <1>  -0.5600 
 24 C        3.6310     1.2690     0.3040 C.ar  1 <1>  -0.1500 
 25 H       -0.3740     0.1810    -1.1390 H     1 <1>   0.0800 
 26 H       -2.0660     0.1040    -1.6260 H     1 <1>   0.0800 
 27 H       -3.0540    -1.2300     1.6430 H     1 <1>   0.0800 
 28 H       -1.3350    -1.5580     1.8260 H     1 <1>   0.0800 
 29 H       -0.2180    -2.1020    -0.8520 H     1 <1>   0.0800 
 30 H       -1.4880    -2.1400    -2.0560 H     1 <1>   0.0800 
 31 H       -3.1760    -2.3880    -0.3800 H     1 <1>   0.0800 
 32 H       -1.8840    -3.3220     0.3450 H     1 <1>   0.0800 
 33 H       -4.0900     1.2570    -0.3850 H     1 <1>   0.0800 
 34 H       -4.4440     2.3440    -1.7010 H     1 <1>   0.0800 
 35 H       -4.4160     4.9400    -1.1270 H     1 <1>   0.0800 
 36 H       -4.0380     5.3500     0.5250 H     1 <1>   0.0800 
 37 H        1.7640     3.1860    -1.7370 H     1 <1>   0.1500 
 38 H        0.6900     1.2990     1.9330 H     1 <1>   0.1500 
 39 H       -6.1100     1.9450     0.8080 H     1 <1>   0.0800 
 40 H       -6.5460     1.4700    -0.8190 H     1 <1>   0.0800 
 41 H       -6.5090     5.3940     0.0330 H     1 <1>   0.0800 
 42 H       -6.0950     4.2790     1.3160 H     1 <1>   0.0800 
 43 H        4.0290     2.2780    -1.5340 H     1 <1>   0.1500 
 44 H        2.9440     0.3870     2.1230 H     1 <1>   0.1500 
 45 H        4.6270     0.8690     0.3930 H     1 <1>   0.1500 
@<TRIPOS>BOND
  1   1   2  2   
  2   2   3  am  
  3   2   4  1   
  4   3   5  1   
  5   3   6  1   
  6   4   7  1   
  7   4   8  2   
  8   5   9  1   
  9   5  25  1   
 10   5  26  1   
 11   6  10  1   
 12   6  27  1   
 13   6  28  1   
 14   7  11  2   
 15   7  12  1   
 16   8  13  1   
 17   8  14  1   
 18   9  10  1   
 19   9  29  1   
 20   9  30  1   
 21  10  31  1   
 22  10  32  1   
 23  11  13  1   
 24  12  15  1   
 25  12  16  1   
 26  14  17  ar  
 27  14  18  ar  
 28  15  19  1   
 29  15  33  1   
 30  15  34  1   
 31  16  20  1   
 32  16  35  1   
 33  16  36  1   
 34  17  21  ar  
 35  17  37  1   
 36  18  22  ar  
 37  18  38  1   
 38  19  23  1   
 39  19  39  1   
 40  19  40  1   
 41  20  23  1   
 42  20  41  1   
 43  20  42  1   
 44  21  24  ar  
 45  21  43  1   
 46  22  24  ar  
 47  22  44  1   
 48  24  45  1   
@<TRIPOS>SUBSTRUCTURE
  1 ****   4 GROUP 4 **** **** 0

# MOE 2024.06 (io_trps.svl 2023.06)
