@<TRIPOS>MOLECULE
NONAME
53 55 1 0 0 
SMALL
USER_CHARGES


@<TRIPOS>ATOM
  1 O       -0.9350     0.3500    -1.1500 O.2   1 <1>  -0.5700 
  2 C       -1.8530     1.1260    -0.9510 C.2   1 <1>   0.5440 
  3 N       -3.1430     0.6510    -1.0830 N.am  1 <1>  -0.6600 
  4 C       -1.5760     2.4860    -0.5550 C.ar  1 <1>   0.0860 
  5 C       -3.3770    -0.7570    -1.4870 C.3   1 <1>   0.1400 
  6 C       -4.2840     1.2470    -0.3360 C.3   1 <1>   0.1400 
  7 C       -1.3480     2.8170     0.7840 C.ar  1 <1>   0.0830 
  8 C       -1.5370     3.5160    -1.4940 C.ar  1 <1>  -0.1500 
  9 C       -3.5170    -1.5990    -0.2020 C.3   1 <1>   0.4230 
 10 C       -4.4960     0.4290     0.9470 C.3   1 <1>  -0.1600 
 11 O       -1.3860     1.8620     1.7320 O.3   1 <1>  -0.3630 
 12 C       -1.1060     4.1260     1.1670 C.ar  1 <1>  -0.1500 
 13 C       -1.2880     4.8230    -1.1150 C.ar  1 <1>  -0.1500 
 14 N       -3.5120    -3.1020    -0.4440 N.4   1 <1>  -0.9590 
 15 C       -4.6860    -1.0990     0.7010 C.3   1 <1>   0.0000 
 16 C       -0.1640     1.2380     2.0450 C.3   1 <1>   0.1200 
 17 C       -1.0730     5.1310     0.2180 C.ar  1 <1>  -0.1500 
 18 C       -4.0430    -3.9060     0.7040 C.3   1 <1>   0.3430 
 19 C       -4.1470    -3.5510    -1.7260 C.3   1 <1>   0.2630 
 20 C       -4.6230    -1.8370     2.0720 C.3   1 <1>  -0.1600 
 21 C       -6.0510    -1.3630     0.0030 C.3   1 <1>   0.1200 
 22 C       -0.4640     0.0470     2.9500 C.3   1 <1>  -0.2400 
 23 C       -3.8470    -3.1680     2.0280 C.3   1 <1>  -0.1600 
 24 O       -7.1030    -0.7760     0.6860 O.3   1 <1>  -0.6800 
 25 H       -4.2610    -0.8020    -2.0960 H     1 <1>   0.0800 
 26 H       -2.5470    -1.1110    -2.0730 H     1 <1>   0.0800 
 27 H       -4.0830     2.2750    -0.0830 H     1 <1>   0.0800 
 28 H       -5.1700     1.2290    -0.9480 H     1 <1>   0.0800 
 29 H       -1.7020     3.2820    -2.5310 H     1 <1>   0.1500 
 30 H       -2.6210    -1.3850     0.3580 H     1 <1>   0.0800 
 31 H       -3.6340     0.5890     1.5690 H     1 <1>   0.0800 
 32 H       -5.3340     0.8390     1.4830 H     1 <1>   0.0800 
 33 H       -0.9450     4.3530     2.2060 H     1 <1>   0.1500 
 34 H       -1.2610     5.6040    -1.8560 H     1 <1>   0.1500 
 35 H       -2.5100    -3.3350    -0.5140 H     1 <1>   0.4500 
 36 H        0.3060     0.9160     1.1310 H     1 <1>   0.0800 
 37 H        0.4660     1.9560     2.5420 H     1 <1>   0.0800 
 38 H       -0.8820     6.1490     0.5130 H     1 <1>   0.1500 
 39 H       -5.0970    -4.0850     0.5680 H     1 <1>   0.0800 
 40 H       -3.5470    -4.8630     0.7420 H     1 <1>   0.0800 
 41 H       -5.1920    -3.2920    -1.7420 H     1 <1>   0.0800 
 42 H       -4.0560    -4.6200    -1.8330 H     1 <1>   0.0800 
 43 H       -3.6620    -3.0870    -2.5710 H     1 <1>   0.0800 
 44 H       -4.1490    -1.2170     2.8150 H     1 <1>   0.0800 
 45 H       -5.6170    -2.0260     2.4370 H     1 <1>   0.0800 
 46 H       -6.2620    -2.4150    -0.0620 H     1 <1>   0.0800 
 47 H       -6.0720    -0.9510    -0.9900 H     1 <1>   0.0800 
 48 H       -1.0970    -0.6540     2.4380 H     1 <1>   0.0800 
 49 H       -0.9430     0.3800     3.8520 H     1 <1>   0.0800 
 50 H        0.4550    -0.4460     3.2120 H     1 <1>   0.0800 
 51 H       -4.1790    -3.7960     2.8370 H     1 <1>   0.0800 
 52 H       -2.7950    -2.9900     2.1790 H     1 <1>   0.0800 
 53 H       -7.1720    -1.0950     1.6070 H     1 <1>   0.4000 
@<TRIPOS>BOND
  1   1   2  2   
  2   2   3  am  
  3   2   4  1   
  4   3   5  1   
  5   3   6  1   
  6   4   7  ar  
  7   4   8  ar  
  8   5   9  1   
  9   5  25  1   
 10   5  26  1   
 11   6  10  1   
 12   6  27  1   
 13   6  28  1   
 14   7  11  1   
 15   7  12  ar  
 16   8  13  ar  
 17   8  29  1   
 18   9  14  1   
 19   9  15  1   
 20   9  30  1   
 21  10  15  1   
 22  10  31  1   
 23  10  32  1   
 24  11  16  1   
 25  12  17  ar  
 26  12  33  1   
 27  13  17  ar  
 28  13  34  1   
 29  14  18  1   
 30  14  19  1   
 31  14  35  1   
 32  15  20  1   
 33  15  21  1   
 34  16  22  1   
 35  16  36  1   
 36  16  37  1   
 37  17  38  1   
 38  18  23  1   
 39  18  39  1   
 40  18  40  1   
 41  19  41  1   
 42  19  42  1   
 43  19  43  1   
 44  20  23  1   
 45  20  44  1   
 46  20  45  1   
 47  21  24  1   
 48  21  46  1   
 49  21  47  1   
 50  22  48  1   
 51  22  49  1   
 52  22  50  1   
 53  23  51  1   
 54  23  52  1   
 55  24  53  1   
@<TRIPOS>SUBSTRUCTURE
  1 ****   3 GROUP 4 **** **** 0

# MOE 2024.06 (io_trps.svl 2023.06)
