@<TRIPOS>MOLECULE
NONAME
46 48 1 0 0 
SMALL
USER_CHARGES


@<TRIPOS>ATOM
  1 O       -4.0870     0.1130    -0.1010 O.co2 1 <1>  -0.9000 
  2 C       -4.1650     1.0210    -0.9460 C.2   1 <1>   1.0330 
  3 O       -5.2920     1.2210    -1.4490 O.co2 1 <1>  -0.9000 
  4 C       -3.1800     2.1060    -0.9600 C.2   1 <1>   0.0560 
  5 N       -2.1940     2.3920    -1.7960 N.2   1 <1>  -0.7070 
  6 C       -3.2490     3.0760     0.0480 C.2   1 <1>  -0.1810 
  7 N       -1.6370     3.5140    -1.3210 N.pl3 1 <1>   0.3000 
  8 C       -2.2580     3.9550    -0.2090 C.2   1 <1>  -0.3020 
  9 C       -4.2970     2.9940     1.1450 C.3   1 <1>   0.5240 
 10 N       -5.6480     3.0780     0.5350 N.4   1 <1>  -0.9590 
 11 C       -5.9020     4.3530    -0.1700 C.3   1 <1>   0.3430 
 12 C       -6.7220     2.6860     1.4680 C.3   1 <1>   0.3430 
 13 C       -7.2200     4.2610    -0.9330 C.3   1 <1>  -0.1600 
 14 C       -8.0320     2.5760     0.7000 C.3   1 <1>  -0.1600 
 15 C       -8.3950     3.8970    -0.0020 C.3   1 <1>   0.2800 
 16 O       -8.4280     4.8740     1.0170 O.3   1 <1>  -0.5600 
 17 C       -9.7740     3.7650    -0.7460 C.3   1 <1>   0.2000 
 18 C       -9.2560     5.9790     0.8290 C.3   1 <1>   0.1200 
 19 O       -9.8020     4.5520    -1.9110 O.3   1 <1>  -0.6800 
 20 C      -10.9690     4.1650     0.1660 C.3   1 <1>   0.2800 
 21 C      -10.7340     5.5560     0.7900 C.3   1 <1>  -0.1600 
 22 O      -11.0700     3.2580     1.2020 O.3   1 <1>  -0.6800 
 23 C      -12.3240     4.0900    -0.5460 C.3   1 <1>  -0.2400 
 24 H       -0.8300     3.9530    -1.7830 H     1 <1>   0.2700 
 25 H       -1.9550     4.8430     0.3140 H     1 <1>   0.1500 
 26 H       -4.1560     3.7880     1.8570 H     1 <1>   0.0800 
 27 H       -4.1890     2.0460     1.6500 H     1 <1>   0.0800 
 28 H       -5.6550     2.3400    -0.2150 H     1 <1>   0.4500 
 29 H       -5.9540     5.1590     0.5430 H     1 <1>   0.0800 
 30 H       -5.1020     4.5500    -0.8660 H     1 <1>   0.0800 
 31 H       -6.4890     1.7310     1.9120 H     1 <1>   0.0800 
 32 H       -6.8230     3.4230     2.2480 H     1 <1>   0.0800 
 33 H       -7.1250     3.5170    -1.7060 H     1 <1>   0.0800 
 34 H       -7.3970     5.2020    -1.4170 H     1 <1>   0.0800 
 35 H       -8.8020     2.2910     1.3900 H     1 <1>   0.0800 
 36 H       -7.9450     1.7850    -0.0250 H     1 <1>   0.0800 
 37 H       -9.9040     2.7500    -1.0800 H     1 <1>   0.0800 
 38 H       -9.0860     6.6610     1.6450 H     1 <1>   0.0800 
 39 H       -8.9650     6.4670    -0.0850 H     1 <1>   0.0800 
 40 H       -9.8030     5.4980    -1.6810 H     1 <1>   0.4000 
 41 H      -11.2560     6.3000     0.2160 H     1 <1>   0.0800 
 42 H      -11.1430     5.5950     1.7840 H     1 <1>   0.0800 
 43 H      -11.8600     3.4590     1.7380 H     1 <1>   0.4000 
 44 H      -12.3580     4.7810    -1.3690 H     1 <1>   0.0800 
 45 H      -13.1270     4.3350     0.1250 H     1 <1>   0.0800 
 46 H      -12.4800     3.1010    -0.9420 H     1 <1>   0.0800 
@<TRIPOS>BOND
  1   1   2  ar  
  2   2   3  ar  
  3   2   4  1   
  4   4   5  2   
  5   4   6  1   
  6   5   7  1   
  7   6   8  2   
  8   6   9  1   
  9   7   8  1   
 10   7  24  1   
 11   8  25  1   
 12   9  10  1   
 13   9  26  1   
 14   9  27  1   
 15  10  11  1   
 16  10  12  1   
 17  10  28  1   
 18  11  13  1   
 19  11  29  1   
 20  11  30  1   
 21  12  14  1   
 22  12  31  1   
 23  12  32  1   
 24  13  15  1   
 25  13  33  1   
 26  13  34  1   
 27  14  15  1   
 28  14  35  1   
 29  14  36  1   
 30  15  16  1   
 31  15  17  1   
 32  16  18  1   
 33  17  19  1   
 34  17  20  1   
 35  17  37  1   
 36  18  21  1   
 37  18  38  1   
 38  18  39  1   
 39  19  40  1   
 40  20  21  1   
 41  20  22  1   
 42  20  23  1   
 43  21  41  1   
 44  21  42  1   
 45  22  43  1   
 46  23  44  1   
 47  23  45  1   
 48  23  46  1   
@<TRIPOS>SUBSTRUCTURE
  1 ****  11 GROUP 4 **** **** 0

# MOE 2024.06 (io_trps.svl 2023.06)
