@<TRIPOS>MOLECULE
NONAME
54 55 1 0 0 
SMALL
USER_CHARGES


@<TRIPOS>ATOM
  1 O        0.9570    -0.4830    -1.2700 O.2   1 <1>  -0.5700 
  2 C        1.4890    -0.6550    -0.1980 C.2   1 <1>   0.5690 
  3 N        2.1980     0.3590     0.4150 N.am  1 <1>  -0.6600 
  4 C        1.3020    -2.0570     0.4250 C.3   1 <1>   0.4040 
  5 C        3.1660     0.1740     1.5440 C.3   1 <1>   0.1400 
  6 C        1.9280     1.7790     0.0170 C.3   1 <1>   0.1400 
  7 N        0.0760    -2.7810    -0.0900 N.4   1 <1>  -0.9590 
  8 C        4.6250     0.0480     1.0430 C.3   1 <1>   0.3430 
  9 C        3.1980     2.6120    -0.1760 C.3   1 <1>  -0.1600 
 10 C       -1.1750    -2.1320     0.4020 C.3   1 <1>   0.3430 
 11 C        0.1500    -4.2510     0.1410 C.3   1 <1>   0.3430 
 12 N        5.2010     1.2810     0.4000 N.4   1 <1>  -0.9590 
 13 C        4.3790     1.8190    -0.7300 C.3   1 <1>   0.3430 
 14 C       -2.4190    -2.6430    -0.3260 C.3   1 <1>  -0.1600 
 15 C       -0.5990    -4.9870    -0.9700 C.3   1 <1>  -0.1600 
 16 C        6.6040     0.9800    -0.0520 C.3   1 <1>   0.3430 
 17 C       -2.8130    -4.0720     0.0750 C.3   1 <1>  -0.1600 
 18 C       -2.1060    -5.1730    -0.7280 C.3   1 <1>  -0.1600 
 19 C        7.4200     2.2360    -0.3820 C.3   1 <1>   0.1200 
 20 O        8.7030     1.8080    -0.6800 O.3   1 <1>  -0.5600 
 21 C        9.5960     2.8310    -1.0000 C.3   1 <1>   0.0400 
 22 H        1.2390    -1.9610     1.4940 H     1 <1>   0.0800 
 23 H        2.1770    -2.6350     0.1870 H     1 <1>   0.0800 
 24 H        2.9180    -0.7160     2.0940 H     1 <1>   0.0800 
 25 H        3.0870     0.9980     2.2340 H     1 <1>   0.0800 
 26 H        1.3050     2.2450     0.7630 H     1 <1>   0.0800 
 27 H        1.3730     1.8020    -0.9070 H     1 <1>   0.0800 
 28 H        0.0770    -2.6180    -1.1110 H     1 <1>   0.4500 
 29 H        4.6730    -0.7700     0.3440 H     1 <1>   0.0800 
 30 H        5.2440    -0.2180     1.8860 H     1 <1>   0.0800 
 31 H        3.4630     3.1090     0.7400 H     1 <1>   0.0800 
 32 H        2.9580     3.3890    -0.8810 H     1 <1>   0.0800 
 33 H       -1.1080    -1.0680     0.2350 H     1 <1>   0.0800 
 34 H       -1.2870    -2.2970     1.4610 H     1 <1>   0.0800 
 35 H       -0.2540    -4.5130     1.1070 H     1 <1>   0.0800 
 36 H        1.1800    -4.5650     0.1100 H     1 <1>   0.0800 
 37 H        5.2640     2.0180     1.1150 H     1 <1>   0.4500 
 38 H        4.9800     2.4860    -1.3260 H     1 <1>   0.0800 
 39 H        4.0320     1.0220    -1.3700 H     1 <1>   0.0800 
 40 H       -2.3080    -2.5520    -1.3920 H     1 <1>   0.0800 
 41 H       -3.2310    -1.9960    -0.0430 H     1 <1>   0.0800 
 42 H       -0.1670    -5.9680    -1.0700 H     1 <1>   0.0800 
 43 H       -0.4380    -4.4870    -1.9090 H     1 <1>   0.0800 
 44 H        6.5800     0.3450    -0.9220 H     1 <1>   0.0800 
 45 H        7.1260     0.4550     0.7310 H     1 <1>   0.0800 
 46 H       -3.8730    -4.1910    -0.0790 H     1 <1>   0.0800 
 47 H       -2.6390    -4.2170     1.1280 H     1 <1>   0.0800 
 48 H       -2.2640    -6.1060    -0.2120 H     1 <1>   0.0800 
 49 H       -2.5890    -5.2700    -1.6870 H     1 <1>   0.0800 
 50 H        7.4730     2.8960     0.4660 H     1 <1>   0.0800 
 51 H        7.0280     2.7480    -1.2430 H     1 <1>   0.0800 
 52 H       10.5530     2.3860    -1.2120 H     1 <1>   0.0800 
 53 H        9.6900     3.5010    -0.1630 H     1 <1>   0.0800 
 54 H        9.2440     3.3570    -1.8710 H     1 <1>   0.0800 
@<TRIPOS>BOND
  1   1   2  2   
  2   2   3  am  
  3   2   4  1   
  4   3   5  1   
  5   3   6  1   
  6   4   7  1   
  7   4  22  1   
  8   4  23  1   
  9   5   8  1   
 10   5  24  1   
 11   5  25  1   
 12   6   9  1   
 13   6  26  1   
 14   6  27  1   
 15   7  10  1   
 16   7  11  1   
 17   7  28  1   
 18   8  12  1   
 19   8  29  1   
 20   8  30  1   
 21   9  13  1   
 22   9  31  1   
 23   9  32  1   
 24  10  14  1   
 25  10  33  1   
 26  10  34  1   
 27  11  15  1   
 28  11  35  1   
 29  11  36  1   
 30  12  13  1   
 31  12  16  1   
 32  12  37  1   
 33  13  38  1   
 34  13  39  1   
 35  14  17  1   
 36  14  40  1   
 37  14  41  1   
 38  15  18  1   
 39  15  42  1   
 40  15  43  1   
 41  16  19  1   
 42  16  44  1   
 43  16  45  1   
 44  17  18  1   
 45  17  46  1   
 46  17  47  1   
 47  18  48  1   
 48  18  49  1   
 49  19  20  1   
 50  19  50  1   
 51  19  51  1   
 52  20  21  1   
 53  21  52  1   
 54  21  53  1   
 55  21  54  1   
@<TRIPOS>SUBSTRUCTURE
  1 ****   2 GROUP 4 **** **** 0

# MOE 2024.06 (io_trps.svl 2023.06)
