@<TRIPOS>MOLECULE
NONAME
50 53 1 0 0 
SMALL
USER_CHARGES


@<TRIPOS>ATOM
  1 O       -2.2370     0.6740     2.7390 O.2   1 <1>  -0.5700 
  2 C       -2.3520     1.0370     1.5850 C.2   1 <1>   0.5440 
  3 N       -3.0030     0.2190     0.6940 N.am  1 <1>  -0.6600 
  4 C       -1.8400     2.3170     1.1680 C.ar  1 <1>   0.0860 
  5 C       -3.6000     0.6620    -0.5900 C.3   1 <1>   0.1400 
  6 C       -3.4220    -1.1680     1.0130 C.3   1 <1>   0.1400 
  7 C       -0.8140     2.4390     0.2190 C.ar  1 <1>   0.0000 
  8 C       -2.3410     3.5090     1.6480 C.ar  1 <1>  -0.1500 
  9 C       -4.7460    -0.3210    -0.8260 C.3   1 <1>   0.2000 
 10 C       -4.2660    -1.6280    -0.1890 C.3   1 <1>  -0.0800 
 11 C       -0.4460     3.7000    -0.2010 C.ar  1 <1>   0.1050 
 12 C        0.0390     1.5790    -0.5020 C.2   1 <1>   0.1080 
 13 C       -1.8760     4.7370     1.1660 C.ar  1 <1>   0.1660 
 14 O       -5.8500     0.1190    -0.1160 O.3   1 <1>  -0.6800 
 15 C       -3.4460    -2.4550    -1.2000 C.3   1 <1>  -0.0160 
 16 N       -0.9550     4.8630     0.2460 N.ar  1 <1>  -0.5670 
 17 N        0.5300     3.5180    -1.1330 N.pl3 1 <1>   0.3140 
 18 N        0.8210     2.2100    -1.3130 N.2   1 <1>  -0.7070 
 19 C        0.0980     0.0710    -0.3600 C.3   1 <1>  -0.0590 
 20 C       -2.4580     6.0230     1.7160 C.3   1 <1>  -0.0970 
 21 C       -2.9710    -3.7750    -0.6160 C.ar  1 <1>   0.1670 
 22 C        1.2360     4.5820    -1.8560 C.3   1 <1>   0.0160 
 23 N       -1.7140    -3.8180    -0.2020 N.ar  1 <1>  -0.6200 
 24 C       -3.8490    -4.8470    -0.5450 C.ar  1 <1>  -0.1500 
 25 C       -1.3170    -4.9740     0.3070 C.ar  1 <1>   0.1600 
 26 C       -3.4210    -6.0450    -0.0130 C.ar  1 <1>  -0.1500 
 27 C       -2.1160    -6.0990     0.4230 C.ar  1 <1>  -0.1500 
 28 H       -3.9510     1.6790    -0.5450 H     1 <1>   0.0800 
 29 H       -2.8650     0.5700    -1.3710 H     1 <1>   0.0800 
 30 H       -2.5600    -1.7890     1.1830 H     1 <1>   0.0800 
 31 H       -4.0200    -1.1560     1.9080 H     1 <1>   0.0800 
 32 H       -3.1070     3.4870     2.4010 H     1 <1>   0.1500 
 33 H       -5.0240    -0.4120    -1.8620 H     1 <1>   0.0800 
 34 H       -5.0990    -2.2240     0.1400 H     1 <1>   0.0800 
 35 H       -5.5760     0.3020     0.8060 H     1 <1>   0.4000 
 36 H       -2.5920    -1.8950    -1.5370 H     1 <1>   0.0800 
 37 H       -4.0520    -2.6650    -2.0630 H     1 <1>   0.0800 
 38 H        0.0050    -0.2130     0.6720 H     1 <1>   0.0800 
 39 H        1.0390    -0.2920    -0.7290 H     1 <1>   0.0800 
 40 H       -0.6900    -0.3870    -0.9250 H     1 <1>   0.0800 
 41 H       -3.1960     5.8280     2.4710 H     1 <1>   0.0800 
 42 H       -2.9140     6.5810     0.9180 H     1 <1>   0.0800 
 43 H       -1.6710     6.6170     2.1450 H     1 <1>   0.0800 
 44 H        0.5170     5.2040    -2.3540 H     1 <1>   0.0800 
 45 H        1.9010     4.1410    -2.5750 H     1 <1>   0.0800 
 46 H        1.7970     5.1690    -1.1530 H     1 <1>   0.0800 
 47 H       -4.8580    -4.7480    -0.9010 H     1 <1>   0.1500 
 48 H       -0.2980    -5.0280     0.6500 H     1 <1>   0.1500 
 49 H       -4.0760    -6.8970     0.0580 H     1 <1>   0.1500 
 50 H       -1.7170    -7.0020     0.8480 H     1 <1>   0.1500 
@<TRIPOS>BOND
  1   1   2  2   
  2   2   3  am  
  3   2   4  1   
  4   3   5  1   
  5   3   6  1   
  6   4   7  ar  
  7   4   8  ar  
  8   5   9  1   
  9   5  28  1   
 10   5  29  1   
 11   6  10  1   
 12   6  30  1   
 13   6  31  1   
 14   7  11  ar  
 15   7  12  1   
 16   8  13  ar  
 17   8  32  1   
 18   9  10  1   
 19   9  14  1   
 20   9  33  1   
 21  10  15  1   
 22  10  34  1   
 23  11  16  ar  
 24  11  17  1   
 25  12  18  2   
 26  12  19  1   
 27  13  16  ar  
 28  13  20  1   
 29  14  35  1   
 30  15  21  1   
 31  15  36  1   
 32  15  37  1   
 33  17  18  1   
 34  17  22  1   
 35  19  38  1   
 36  19  39  1   
 37  19  40  1   
 38  20  41  1   
 39  20  42  1   
 40  20  43  1   
 41  21  23  ar  
 42  21  24  ar  
 43  22  44  1   
 44  22  45  1   
 45  22  46  1   
 46  23  25  ar  
 47  24  26  ar  
 48  24  47  1   
 49  25  27  ar  
 50  25  48  1   
 51  26  27  ar  
 52  26  49  1   
 53  27  50  1   
@<TRIPOS>SUBSTRUCTURE
  1 ****   3 GROUP 4 **** **** 0

# MOE 2024.06 (io_trps.svl 2023.06)
