@<TRIPOS>MOLECULE
NONAME
43 45 1 0 0 
SMALL
USER_CHARGES


@<TRIPOS>ATOM
  1 O       -3.1330    -1.9650    -2.3430 O.2   1 <1>  -0.5700 
  2 C       -2.7880    -1.8430    -1.1890 C.2   1 <1>   0.5690 
  3 N       -3.0510    -0.7070    -0.4680 N.am  1 <1>  -0.6600 
  4 C       -1.9920    -2.9780    -0.5700 C.3   1 <1>  -0.0190 
  5 C       -2.5710    -0.5450     0.9440 C.3   1 <1>   0.2200 
  6 C       -4.0470     0.2950    -0.9320 C.3   1 <1>   0.0600 
  7 C       -0.5630    -2.5190    -0.2470 C.3   1 <1>   0.1200 
  8 C       -2.7020    -3.6670     0.6130 C.3   1 <1>   0.2090 
  9 C       -1.0300    -0.5480     0.9900 C.3   1 <1>   0.1200 
 10 C       -3.1800    -1.5720     1.9360 C.3   1 <1>   0.2090 
 11 O       -0.4850    -1.8370     0.9680 O.3   1 <1>  -0.5600 
 12 N       -3.7300    -2.8090     1.2860 N.pl3 1 <1>  -0.8380 
 13 C       -5.0820    -2.9440     1.0200 C.ar  1 <1>   0.7200 
 14 N       -5.4800    -4.0850     0.4600 N.ar  1 <1>  -0.6200 
 15 N       -5.8780    -1.9240     1.3450 N.ar  1 <1>  -0.6200 
 16 C       -6.7570    -4.1920     0.1910 C.ar  1 <1>   0.1600 
 17 C       -7.1500    -2.0640     1.0660 C.ar  1 <1>   0.1600 
 18 C       -7.6620    -3.1960     0.4750 C.ar  1 <1>  -0.1440 
 19 C       -9.1480    -3.3230     0.1580 C.3   1 <1>   0.0630 
 20 C       -9.7710    -4.4930     0.9250 C.3   1 <1>  -0.2400 
 21 C       -9.3700    -3.4840    -1.3500 C.3   1 <1>  -0.2400 
 22 H       -1.8870    -3.7240    -1.3360 H     1 <1>   0.0800 
 23 H       -2.8730     0.4310     1.2800 H     1 <1>   0.0800 
 24 H       -3.6140     1.2790    -0.9150 H     1 <1>   0.0800 
 25 H       -4.9080     0.2680    -0.2870 H     1 <1>   0.0800 
 26 H       -4.3680     0.0770    -1.9360 H     1 <1>   0.0800 
 27 H       -0.1710    -1.8910    -1.0290 H     1 <1>   0.0800 
 28 H        0.0740    -3.3810    -0.1560 H     1 <1>   0.0800 
 29 H       -1.9740    -3.9690     1.3460 H     1 <1>   0.0800 
 30 H       -3.1540    -4.5730     0.2500 H     1 <1>   0.0800 
 31 H       -0.7100    -0.1010     1.9140 H     1 <1>   0.0800 
 32 H       -0.6190     0.0280     0.1790 H     1 <1>   0.0800 
 33 H       -3.9470    -1.0780     2.5040 H     1 <1>   0.0800 
 34 H       -2.4340    -1.8650     2.6530 H     1 <1>   0.0800 
 35 H       -7.0900    -5.1050    -0.2700 H     1 <1>   0.1500 
 36 H       -7.8040    -1.2480     1.3180 H     1 <1>   0.1500 
 37 H       -9.6470    -2.4210     0.4700 H     1 <1>   0.0800 
 38 H       -9.3410    -5.4290     0.6160 H     1 <1>   0.0800 
 39 H      -10.8320    -4.5300     0.7520 H     1 <1>   0.0800 
 40 H       -9.6030    -4.3710     1.9810 H     1 <1>   0.0800 
 41 H       -8.9320    -4.3980    -1.7090 H     1 <1>   0.0800 
 42 H       -8.9220    -2.6600    -1.8770 H     1 <1>   0.0800 
 43 H      -10.4230    -3.4980    -1.5720 H     1 <1>   0.0800 
@<TRIPOS>BOND
  1   1   2  2   
  2   2   3  am  
  3   2   4  1   
  4   3   5  1   
  5   3   6  1   
  6   4   7  1   
  7   4   8  1   
  8   4  22  1   
  9   5   9  1   
 10   5  10  1   
 11   5  23  1   
 12   6  24  1   
 13   6  25  1   
 14   6  26  1   
 15   7  11  1   
 16   7  27  1   
 17   7  28  1   
 18   8  12  1   
 19   8  29  1   
 20   8  30  1   
 21   9  11  1   
 22   9  31  1   
 23   9  32  1   
 24  10  12  1   
 25  10  33  1   
 26  10  34  1   
 27  12  13  1   
 28  13  14  ar  
 29  13  15  ar  
 30  14  16  ar  
 31  15  17  ar  
 32  16  18  ar  
 33  16  35  1   
 34  17  18  ar  
 35  17  36  1   
 36  18  19  1   
 37  19  20  1   
 38  19  21  1   
 39  19  37  1   
 40  20  38  1   
 41  20  39  1   
 42  20  40  1   
 43  21  41  1   
 44  21  42  1   
 45  21  43  1   
@<TRIPOS>SUBSTRUCTURE
  1 ****  13 GROUP 4 **** **** 0

# MOE 2024.06 (io_trps.svl 2023.06)
