@<TRIPOS>MOLECULE
NONAME
40 41 1 0 0 
SMALL
USER_CHARGES


@<TRIPOS>ATOM
  1 S        0.3840     0.9170    -0.7830 S.o2  1 <1>   1.3330 
  2 O        0.6380    -0.4310    -1.2270 O.2   1 <1>  -0.6500 
  3 O       -0.0750     1.9240    -1.7100 O.2   1 <1>  -0.6500 
  4 N        1.8160     1.5090    -0.0820 N.am  1 <1>  -0.8490 
  5 C       -0.7920     0.8740     0.5830 C.3   1 <1>  -0.0550 
  6 C        2.5380     0.4790     0.6850 C.3   1 <1>   0.1160 
  7 C        2.7340     2.0140    -1.1190 C.3   1 <1>   0.1160 
  8 C       -1.1660     2.2060     1.2890 C.3   1 <1>  -0.0800 
  9 C       -1.7600     3.2680     0.3540 C.3   1 <1>   0.2000 
 10 C        0.0130     2.9200     1.9530 C.3   1 <1>   0.3430 
 11 O       -2.7480     3.9560     1.0490 O.3   1 <1>  -0.6800 
 12 C       -0.6110     4.2320     0.0170 C.3   1 <1>   0.3430 
 13 N        0.5040     3.8980     0.9570 N.4   1 <1>  -0.9590 
 14 C        1.2150     5.0850     1.5020 C.3   1 <1>   0.5240 
 15 C        1.8830     5.8290     0.3530 C.2   1 <1>   0.0460 
 16 N        2.6860     5.1710    -0.5070 N.2   1 <1>  -0.5650 
 17 C        1.7890     7.1360     0.0180 C.2   1 <1>  -0.3020 
 18 C        3.0680     6.0870    -1.3390 C.2   1 <1>   0.0360 
 19 N        2.5570     7.3070    -1.0740 N.pl3 1 <1>   0.0330 
 20 H       -1.7020     0.4440     0.2070 H     1 <1>   0.0800 
 21 H       -0.4250     0.1900     1.3230 H     1 <1>   0.0800 
 22 H        3.4120     0.9060     1.1480 H     1 <1>   0.0800 
 23 H        2.8510    -0.3270     0.0390 H     1 <1>   0.0800 
 24 H        1.9100     0.0710     1.4580 H     1 <1>   0.0800 
 25 H        3.6240     2.4220    -0.6680 H     1 <1>   0.0800 
 26 H        2.2650     2.7950    -1.6940 H     1 <1>   0.0800 
 27 H        3.0140     1.2220    -1.7940 H     1 <1>   0.0800 
 28 H       -1.8850     1.9460     2.0480 H     1 <1>   0.0800 
 29 H       -2.2140     2.8580    -0.5330 H     1 <1>   0.0800 
 30 H        0.7910     2.2290     2.2390 H     1 <1>   0.0800 
 31 H       -0.3370     3.4410     2.8290 H     1 <1>   0.0800 
 32 H       -2.4370     4.3410     1.8900 H     1 <1>   0.4000 
 33 H       -0.9370     5.2530     0.1290 H     1 <1>   0.0800 
 34 H       -0.2820     4.0820    -0.9990 H     1 <1>   0.0800 
 35 H        1.2230     3.4110     0.3760 H     1 <1>   0.4500 
 36 H        0.5290     5.7390     2.0130 H     1 <1>   0.0800 
 37 H        1.9790     4.7680     2.1920 H     1 <1>   0.0800 
 38 H        1.2400     7.9410     0.4770 H     1 <1>   0.1500 
 39 H        3.7310     5.9160    -2.1710 H     1 <1>   0.1500 
 40 H        2.7270     8.1730    -1.5980 H     1 <1>   0.2700 
@<TRIPOS>BOND
  1   1   2  2   
  2   1   3  2   
  3   1   4  am  
  4   1   5  1   
  5   4   6  1   
  6   4   7  1   
  7   5   8  1   
  8   5  20  1   
  9   5  21  1   
 10   6  22  1   
 11   6  23  1   
 12   6  24  1   
 13   7  25  1   
 14   7  26  1   
 15   7  27  1   
 16   8   9  1   
 17   8  10  1   
 18   8  28  1   
 19   9  11  1   
 20   9  12  1   
 21   9  29  1   
 22  10  13  1   
 23  10  30  1   
 24  10  31  1   
 25  11  32  1   
 26  12  13  1   
 27  12  33  1   
 28  12  34  1   
 29  13  14  1   
 30  13  35  1   
 31  14  15  1   
 32  14  36  1   
 33  14  37  1   
 34  15  16  1   
 35  15  17  2   
 36  16  18  2   
 37  17  19  1   
 38  17  38  1   
 39  18  19  1   
 40  18  39  1   
 41  19  40  1   
@<TRIPOS>SUBSTRUCTURE
  1 ****  13 GROUP 4 **** **** 0

# MOE 2024.06 (io_trps.svl 2023.06)
