@<TRIPOS>MOLECULE
NONAME
51 54 1 0 0 
SMALL
USER_CHARGES


@<TRIPOS>ATOM
  1 O       -0.5410     0.5030    -1.2840 O.2   1 <1>  -0.5700 
  2 C       -1.5770     1.0700    -0.9400 C.2   1 <1>   0.5440 
  3 N       -2.7600     0.3710    -1.1500 N.am  1 <1>  -0.6600 
  4 C       -1.4990     2.4310    -0.4640 C.ar  1 <1>   0.0860 
  5 C       -4.1130     0.9740    -0.9460 C.3   1 <1>   0.1400 
  6 C       -2.7880    -1.1180    -1.2120 C.3   1 <1>   0.1400 
  7 C       -2.1460     2.9320     0.7010 C.ar  1 <1>  -0.1710 
  8 C       -0.7210     3.3470    -1.1810 C.ar  1 <1>  -0.1500 
  9 C       -4.8830     0.2630     0.1850 C.3   1 <1>   0.2950 
 10 C       -3.6330    -1.7010    -0.0590 C.3   1 <1>   0.2000 
 11 O       -2.8420     2.2200     1.4580 O.3   1 <1>  -0.8290 
 12 C       -2.0150     4.2770     1.0560 C.ar  1 <1>  -0.1500 
 13 C       -0.5910     4.6680    -0.8130 C.ar  1 <1>  -0.1500 
 14 O       -4.9060    -1.1230    -0.0600 O.3   1 <1>  -0.5600 
 15 C       -6.3260     0.7930     0.2810 C.3   1 <1>  -0.1950 
 16 C       -3.8370    -3.2180    -0.1620 C.3   1 <1>  -0.1600 
 17 C       -1.2460     5.1550     0.3260 C.ar  1 <1>  -0.0230 
 18 C       -7.4480    -0.0120     0.8610 C.3   1 <1>  -0.2000 
 19 C       -7.4290     0.3070    -0.6080 C.3   1 <1>  -0.2000 
 20 C       -2.5290    -4.0130    -0.0230 C.3   1 <1>  -0.1600 
 21 N       -1.1110     6.5150     0.7240 N.pl3 1 <1>   0.5930 
 22 C       -2.7970    -5.5230    -0.0360 C.3   1 <1>  -0.1600 
 23 N       -0.7610     7.5240    -0.0680 N.2   1 <1>  -0.4180 
 24 C       -1.2800     7.0450     1.9280 C.2   1 <1>   0.0360 
 25 C       -1.4940    -6.3150     0.0990 C.3   1 <1>  -0.2400 
 26 N       -0.7370     8.5840     0.6560 N.2   1 <1>   0.0000 
 27 N       -1.0600     8.3030     1.9130 N.2   1 <1>  -0.3380 
 28 H       -4.0400     2.0210    -0.7190 H     1 <1>   0.0800 
 29 H       -4.6740     0.8820    -1.8560 H     1 <1>   0.0800 
 30 H       -3.2060    -1.4220    -2.1540 H     1 <1>   0.0800 
 31 H       -1.7890    -1.5090    -1.1500 H     1 <1>   0.0800 
 32 H       -0.2070     2.9880    -2.0540 H     1 <1>   0.1500 
 33 H       -4.3880     0.4300     1.1260 H     1 <1>   0.0800 
 34 H       -3.1610    -1.4660     0.8820 H     1 <1>   0.0800 
 35 H       -2.5530     4.5740     1.9370 H     1 <1>   0.1500 
 36 H        0.0200     5.3300    -1.4020 H     1 <1>   0.1500 
 37 H       -6.3220     1.8410     0.5290 H     1 <1>   0.1000 
 38 H       -4.5090    -3.5150     0.6240 H     1 <1>   0.0800 
 39 H       -4.3010    -3.4460    -1.1060 H     1 <1>   0.0800 
 40 H       -7.2460    -1.0220     1.1740 H     1 <1>   0.1000 
 41 H       -8.1550     0.4860     1.5000 H     1 <1>   0.1000 
 42 H       -8.1300     1.0240    -0.9980 H     1 <1>   0.1000 
 43 H       -7.2190    -0.4890    -1.3020 H     1 <1>   0.1000 
 44 H       -1.8630    -3.7680    -0.8320 H     1 <1>   0.0800 
 45 H       -2.0450    -3.7430     0.9010 H     1 <1>   0.0800 
 46 H       -3.4540    -5.7800     0.7780 H     1 <1>   0.0800 
 47 H       -3.2840    -5.7950    -0.9570 H     1 <1>   0.0800 
 48 H       -1.5620     6.4630     2.7840 H     1 <1>   0.1500 
 49 H       -1.0010    -6.0720     1.0230 H     1 <1>   0.0800 
 50 H       -0.8300    -6.0900    -0.7180 H     1 <1>   0.0800 
 51 H       -1.7020    -7.3710     0.0890 H     1 <1>   0.0800 
@<TRIPOS>BOND
  1   1   2  2   
  2   2   3  am  
  3   2   4  1   
  4   3   5  1   
  5   3   6  1   
  6   4   7  ar  
  7   4   8  ar  
  8   5   9  1   
  9   5  28  1   
 10   5  29  1   
 11   6  10  1   
 12   6  30  1   
 13   6  31  1   
 14   7  11  1   
 15   7  12  ar  
 16   8  13  ar  
 17   8  32  1   
 18   9  14  1   
 19   9  15  1   
 20   9  33  1   
 21  10  14  1   
 22  10  16  1   
 23  10  34  1   
 24  12  17  ar  
 25  12  35  1   
 26  13  17  ar  
 27  13  36  1   
 28  15  18  1   
 29  15  19  1   
 30  15  37  1   
 31  16  20  1   
 32  16  38  1   
 33  16  39  1   
 34  17  21  1   
 35  18  19  1   
 36  18  40  1   
 37  18  41  1   
 38  19  42  1   
 39  19  43  1   
 40  20  22  1   
 41  20  44  1   
 42  20  45  1   
 43  21  23  1   
 44  21  24  1   
 45  22  25  1   
 46  22  46  1   
 47  22  47  1   
 48  23  26  2   
 49  24  27  2   
 50  24  48  1   
 51  25  49  1   
 52  25  50  1   
 53  25  51  1   
 54  26  27  1   
@<TRIPOS>SUBSTRUCTURE
  1 ****   4 GROUP 4 **** **** 0

# MOE 2024.06 (io_trps.svl 2023.06)
