@<TRIPOS>MOLECULE
NONAME
45 47 1 0 0 
SMALL
USER_CHARGES


@<TRIPOS>ATOM
  1 S       -0.0540    -0.1720    -0.7260 S.o2  1 <1>   1.0900 
  2 O        1.2380     0.4480    -0.5470 O.2   1 <1>  -0.6500 
  3 O       -0.6510    -0.2050    -2.0410 O.2   1 <1>  -0.6500 
  4 C        0.0540    -1.8520    -0.1020 C.3   1 <1>   0.0890 
  5 C       -1.2000     0.6360     0.3770 C.3   1 <1>  -0.1350 
  6 C       -1.2980    -2.4940     0.1810 C.ar  1 <1>  -0.1440 
  7 C       -2.2060    -2.7300    -0.8430 C.ar  1 <1>   0.1600 
  8 C       -1.6470    -2.8500     1.4710 C.ar  1 <1>  -0.1500 
  9 N       -3.4010    -3.2710    -0.6850 N.ar  1 <1>  -0.6200 
 10 C       -2.8860    -3.4170     1.6450 C.ar  1 <1>  -0.1500 
 11 C       -3.7270    -3.6100     0.5560 C.ar  1 <1>   0.4100 
 12 N       -4.9560    -4.2020     0.7540 N.pl3 1 <1>  -0.8380 
 13 C       -6.1470    -3.5460     0.1400 C.3   1 <1>   0.2090 
 14 C       -5.0030    -5.6590     0.4520 C.3   1 <1>   0.2090 
 15 C       -6.8590    -4.6330    -0.6660 C.3   1 <1>   0.2000 
 16 C       -6.4230    -5.9470    -0.0310 C.3   1 <1>  -0.0800 
 17 O       -8.2430    -4.5140    -0.5980 O.3   1 <1>  -0.6800 
 18 C       -6.5250    -7.1380    -0.9980 C.3   1 <1>  -0.0170 
 19 C       -6.1700    -8.4500    -0.3170 C.ar  1 <1>   0.1670 
 20 N       -4.8800    -8.7130    -0.1760 N.ar  1 <1>  -0.6200 
 21 C       -7.1840    -9.2920     0.1160 C.ar  1 <1>  -0.1500 
 22 C       -4.5890    -9.8600     0.4180 C.ar  1 <1>   0.1600 
 23 C       -6.8670   -10.4830     0.7340 C.ar  1 <1>  -0.1500 
 24 C       -5.5270   -10.7650     0.8840 C.ar  1 <1>  -0.1500 
 25 H        0.5820    -2.4580    -0.8130 H     1 <1>   0.0800 
 26 H        0.6330    -1.8520     0.8010 H     1 <1>   0.0800 
 27 H       -0.8440     0.5980     1.3880 H     1 <1>   0.0800 
 28 H       -2.1650     0.1690     0.3300 H     1 <1>   0.0800 
 29 H       -1.3110     1.6660     0.0960 H     1 <1>   0.0800 
 30 H       -1.9400    -2.4570    -1.8520 H     1 <1>   0.1500 
 31 H       -0.9880    -2.6990     2.3090 H     1 <1>   0.1500 
 32 H       -3.2300    -3.7230     2.6150 H     1 <1>   0.1500 
 33 H       -6.7810    -3.1800     0.9280 H     1 <1>   0.0800 
 34 H       -5.8650    -2.7270    -0.5000 H     1 <1>   0.0800 
 35 H       -4.2890    -5.8910    -0.3230 H     1 <1>   0.0800 
 36 H       -4.7660    -6.2380     1.3280 H     1 <1>   0.0800 
 37 H       -6.5560    -4.5750    -1.6970 H     1 <1>   0.0800 
 38 H       -7.0210    -6.1400     0.8420 H     1 <1>   0.0800 
 39 H       -8.5340    -4.5450     0.3330 H     1 <1>   0.4000 
 40 H       -5.8670    -6.9880    -1.8360 H     1 <1>   0.0800 
 41 H       -7.5280    -7.1940    -1.3830 H     1 <1>   0.0800 
 42 H       -8.2140    -9.0210    -0.0280 H     1 <1>   0.1500 
 43 H       -3.5450   -10.0910     0.5390 H     1 <1>   0.1500 
 44 H       -7.6290   -11.1600     1.0810 H     1 <1>   0.1500 
 45 H       -5.2090   -11.6770     1.3560 H     1 <1>   0.1500 
@<TRIPOS>BOND
  1   1   2  2   
  2   1   3  2   
  3   1   4  1   
  4   1   5  1   
  5   4   6  1   
  6   4  25  1   
  7   4  26  1   
  8   5  27  1   
  9   5  28  1   
 10   5  29  1   
 11   6   7  ar  
 12   6   8  ar  
 13   7   9  ar  
 14   7  30  1   
 15   8  10  ar  
 16   8  31  1   
 17   9  11  ar  
 18  10  11  ar  
 19  10  32  1   
 20  11  12  1   
 21  12  13  1   
 22  12  14  1   
 23  13  15  1   
 24  13  33  1   
 25  13  34  1   
 26  14  16  1   
 27  14  35  1   
 28  14  36  1   
 29  15  16  1   
 30  15  17  1   
 31  15  37  1   
 32  16  18  1   
 33  16  38  1   
 34  17  39  1   
 35  18  19  1   
 36  18  40  1   
 37  18  41  1   
 38  19  20  ar  
 39  19  21  ar  
 40  20  22  ar  
 41  21  23  ar  
 42  21  42  1   
 43  22  24  ar  
 44  22  43  1   
 45  23  24  ar  
 46  23  44  1   
 47  24  45  1   
@<TRIPOS>SUBSTRUCTURE
  1 ****  11 GROUP 4 **** **** 0

# MOE 2024.06 (io_trps.svl 2023.06)
