@<TRIPOS>MOLECULE
NONAME
46 47 1 0 0 
SMALL
USER_CHARGES


@<TRIPOS>ATOM
  1 O       -1.4540     0.6880     1.8450 O.3   1 <1>  -0.6800 
  2 C       -1.9460    -0.2280     0.9260 C.3   1 <1>   0.1200 
  3 C       -3.4890    -0.0990     0.8260 C.3   1 <1>   0.4230 
  4 N       -4.0970    -1.1040    -0.1180 N.4   1 <1>  -0.9590 
  5 C       -3.8860     1.3170     0.3670 C.3   1 <1>  -0.1600 
  6 C       -5.5900    -0.9860    -0.1210 C.3   1 <1>   0.3430 
  7 C       -3.7370    -2.5250     0.2370 C.3   1 <1>   0.3430 
  8 C       -5.4040     1.5000     0.2590 C.3   1 <1>  -0.1600 
  9 C       -6.0100     0.3980    -0.6120 C.3   1 <1>  -0.1600 
 10 C       -4.1040    -3.5610    -0.8430 C.3   1 <1>   0.2090 
 11 N       -4.5930    -4.7880    -0.1820 N.pl3 1 <1>  -0.8690 
 12 C       -5.9310    -4.9130     0.1730 C.ar  1 <1>   0.4100 
 13 N       -6.5330    -3.8260     0.6280 N.ar  1 <1>  -0.6200 
 14 C       -6.5730    -6.1840     0.0300 C.ar  1 <1>   0.4100 
 15 C       -7.7990    -4.0740     0.9600 C.ar  1 <1>   0.1600 
 16 N       -7.8340    -6.3950     0.3590 N.ar  1 <1>  -0.6200 
 17 N       -5.8650    -7.2830    -0.4740 N.pl3 1 <1>  -0.8380 
 18 C       -8.4210    -5.3030     0.8320 C.ar  1 <1>   0.1600 
 19 C       -6.5550    -8.0820    -1.5250 C.3   1 <1>   0.1290 
 20 C       -5.2460    -8.1400     0.5710 C.3   1 <1>   0.1290 
 21 H       -0.4760     0.6450     1.9190 H     1 <1>   0.4000 
 22 H       -1.6560    -1.2010     1.2760 H     1 <1>   0.0800 
 23 H       -1.4840    -0.0230    -0.0240 H     1 <1>   0.0800 
 24 H       -3.8940    -0.2670     1.8110 H     1 <1>   0.0800 
 25 H       -3.7640    -0.8810    -1.0610 H     1 <1>   0.4500 
 26 H       -3.4240     1.5340    -0.5800 H     1 <1>   0.0800 
 27 H       -3.5120     2.0390     1.0730 H     1 <1>   0.0800 
 28 H       -5.9690    -1.1480     0.8760 H     1 <1>   0.0800 
 29 H       -6.0270    -1.7350    -0.7610 H     1 <1>   0.0800 
 30 H       -4.2530    -2.7970     1.1440 H     1 <1>   0.0800 
 31 H       -2.6820    -2.6120     0.4230 H     1 <1>   0.0800 
 32 H       -5.6290     2.4670    -0.1600 H     1 <1>   0.0800 
 33 H       -5.8400     1.4610     1.2440 H     1 <1>   0.0800 
 34 H       -7.0840     0.4700    -0.5810 H     1 <1>   0.0800 
 35 H       -5.7080     0.5240    -1.6370 H     1 <1>   0.0800 
 36 H       -3.2340    -3.7990    -1.4300 H     1 <1>   0.0800 
 37 H       -4.8710    -3.1930    -1.5010 H     1 <1>   0.0800 
 38 H       -4.3200    -5.6670    -0.6520 H     1 <1>   0.4000 
 39 H       -8.3700    -3.2530     1.3570 H     1 <1>   0.1500 
 40 H       -9.4510    -5.4010     1.1290 H     1 <1>   0.1500 
 41 H       -7.0610    -7.4250    -2.2110 H     1 <1>   0.0800 
 42 H       -7.2830    -8.7340    -1.0740 H     1 <1>   0.0800 
 43 H       -5.8380    -8.6700    -2.0700 H     1 <1>   0.0800 
 44 H       -4.7560    -7.5270     1.3080 H     1 <1>   0.0800 
 45 H       -4.5200    -8.7970     0.1270 H     1 <1>   0.0800 
 46 H       -6.0060    -8.7270     1.0600 H     1 <1>   0.0800 
@<TRIPOS>BOND
  1   1   2  1   
  2   1  21  1   
  3   2   3  1   
  4   2  22  1   
  5   2  23  1   
  6   3   4  1   
  7   3   5  1   
  8   3  24  1   
  9   4   6  1   
 10   4   7  1   
 11   4  25  1   
 12   5   8  1   
 13   5  26  1   
 14   5  27  1   
 15   6   9  1   
 16   6  28  1   
 17   6  29  1   
 18   7  10  1   
 19   7  30  1   
 20   7  31  1   
 21   8   9  1   
 22   8  32  1   
 23   8  33  1   
 24   9  34  1   
 25   9  35  1   
 26  10  11  1   
 27  10  36  1   
 28  10  37  1   
 29  11  12  1   
 30  11  38  1   
 31  12  13  ar  
 32  12  14  ar  
 33  13  15  ar  
 34  14  16  ar  
 35  14  17  1   
 36  15  18  ar  
 37  15  39  1   
 38  16  18  ar  
 39  17  19  1   
 40  17  20  1   
 41  18  40  1   
 42  19  41  1   
 43  19  42  1   
 44  19  43  1   
 45  20  44  1   
 46  20  45  1   
 47  20  46  1   
@<TRIPOS>SUBSTRUCTURE
  1 ****  13 GROUP 4 **** **** 0

# MOE 2024.06 (io_trps.svl 2023.06)
