@<TRIPOS>MOLECULE
NONAME
51 52 1 0 0 
SMALL
USER_CHARGES


@<TRIPOS>ATOM
  1 S       -0.6490     0.7510    -1.2550 S.o2  1 <1>   1.3330 
  2 O       -0.4310    -0.2700    -2.2470 O.2   1 <1>  -0.6500 
  3 O       -1.8570     1.5370    -1.2560 O.2   1 <1>  -0.6500 
  4 N        0.6950     1.8010    -1.4750 N.am  1 <1>  -0.7570 
  5 C       -0.3650     0.0190     0.3660 C.3   1 <1>  -0.0550 
  6 C        0.9380     3.0920    -1.0370 C.ar  1 <1>   0.1990 
  7 C       -0.3940     0.9920     1.5600 C.3   1 <1>  -0.2400 
  8 C        2.1820     3.6560    -1.2970 C.ar  1 <1>  -0.1500 
  9 C        0.0090     3.8680    -0.3470 C.ar  1 <1>  -0.1500 
 10 C        2.4920     4.9340    -0.8740 C.ar  1 <1>  -0.1500 
 11 C        0.3220     5.1450     0.0750 C.ar  1 <1>  -0.1500 
 12 C        1.5740     5.7110    -0.1650 C.ar  1 <1>   0.0860 
 13 C        1.8920     7.0490     0.2900 C.2   1 <1>   0.5440 
 14 O        1.0700     7.9360     0.1470 O.2   1 <1>  -0.5700 
 15 N        3.1070     7.3540     0.8790 N.am  1 <1>  -0.6600 
 16 C        3.5260     8.7790     1.0990 C.3   1 <1>   0.1400 
 17 C        3.8820     6.3370     1.6520 C.3   1 <1>   0.0600 
 18 C        4.3920     9.3710    -0.0490 C.3   1 <1>   0.0000 
 19 C        4.8420    10.7950     0.3640 C.3   1 <1>  -0.1600 
 20 C        3.5810     9.5010    -1.3620 C.3   1 <1>  -0.1600 
 21 C        5.6170     8.4470    -0.2600 C.3   1 <1>   0.1200 
 22 C        3.6820    11.8000     0.3500 C.3   1 <1>   0.1200 
 23 C        2.4890    10.5740    -1.2610 C.3   1 <1>   0.1200 
 24 O        6.5270     8.9820    -1.1600 O.3   1 <1>  -0.6800 
 25 O        3.0770    11.7880    -0.9050 O.3   1 <1>  -0.5600 
 26 H        1.3030     1.4100    -2.1890 H     1 <1>   0.4200 
 27 H        0.5840    -0.4820     0.3570 H     1 <1>   0.0800 
 28 H       -1.1150    -0.7310     0.5290 H     1 <1>   0.0800 
 29 H        0.4080     1.7040     1.4860 H     1 <1>   0.0800 
 30 H       -0.2820     0.4480     2.4810 H     1 <1>   0.0800 
 31 H       -1.3310     1.5210     1.5850 H     1 <1>   0.0800 
 32 H        2.9150     3.0860    -1.8390 H     1 <1>   0.1500 
 33 H       -0.9720     3.4850    -0.1400 H     1 <1>   0.1500 
 34 H        3.4600     5.3490    -1.0980 H     1 <1>   0.1500 
 35 H       -0.4150     5.7300     0.6000 H     1 <1>   0.1500 
 36 H        4.0820     8.8380     2.0180 H     1 <1>   0.0800 
 37 H        2.6470     9.3820     1.2440 H     1 <1>   0.0800 
 38 H        3.3110     5.4320     1.7720 H     1 <1>   0.0800 
 39 H        4.1130     6.7140     2.6330 H     1 <1>   0.0800 
 40 H        4.7990     6.1030     1.1410 H     1 <1>   0.0800 
 41 H        5.5870    11.1670    -0.3180 H     1 <1>   0.0800 
 42 H        5.2910    10.7780     1.3400 H     1 <1>   0.0800 
 43 H        3.1320     8.5620    -1.6260 H     1 <1>   0.0800 
 44 H        4.2250     9.7830    -2.1740 H     1 <1>   0.0800 
 45 H        5.3030     7.4940    -0.6480 H     1 <1>   0.0800 
 46 H        6.1380     8.2910     0.6690 H     1 <1>   0.0800 
 47 H        4.0490    12.7970     0.5230 H     1 <1>   0.0800 
 48 H        2.9380    11.5720     1.0930 H     1 <1>   0.0800 
 49 H        1.7380    10.3220    -0.5320 H     1 <1>   0.0800 
 50 H        2.0090    10.7100    -2.2140 H     1 <1>   0.0800 
 51 H        6.0630     9.3030    -1.9570 H     1 <1>   0.4000 
@<TRIPOS>BOND
  1   1   2  2   
  2   1   3  2   
  3   1   4  am  
  4   1   5  1   
  5   4   6  1   
  6   4  26  1   
  7   5   7  1   
  8   5  27  1   
  9   5  28  1   
 10   6   8  ar  
 11   6   9  ar  
 12   7  29  1   
 13   7  30  1   
 14   7  31  1   
 15   8  10  ar  
 16   8  32  1   
 17   9  11  ar  
 18   9  33  1   
 19  10  12  ar  
 20  10  34  1   
 21  11  12  ar  
 22  11  35  1   
 23  12  13  1   
 24  13  14  2   
 25  13  15  am  
 26  15  16  1   
 27  15  17  1   
 28  16  18  1   
 29  16  36  1   
 30  16  37  1   
 31  17  38  1   
 32  17  39  1   
 33  17  40  1   
 34  18  19  1   
 35  18  20  1   
 36  18  21  1   
 37  19  22  1   
 38  19  41  1   
 39  19  42  1   
 40  20  23  1   
 41  20  43  1   
 42  20  44  1   
 43  21  24  1   
 44  21  45  1   
 45  21  46  1   
 46  22  25  1   
 47  22  47  1   
 48  22  48  1   
 49  23  25  1   
 50  23  49  1   
 51  23  50  1   
 52  24  51  1   
@<TRIPOS>SUBSTRUCTURE
  1 ****  12 GROUP 4 **** **** 0

# MOE 2024.06 (io_trps.svl 2023.06)
