@<TRIPOS>MOLECULE
NONAME
50 53 1 0 0 
SMALL
USER_CHARGES


@<TRIPOS>ATOM
  1 O       -2.3810     2.4200    -2.0560 O.2   1 <1>  -0.5700 
  2 C       -2.2310     2.5140    -0.8510 C.2   1 <1>   0.5440 
  3 N       -3.1530     1.9120    -0.0150 N.am  1 <1>  -0.6600 
  4 C       -1.0870     3.2420    -0.3330 C.ar  1 <1>   0.0860 
  5 C       -4.4990     1.5400    -0.5510 C.3   1 <1>   0.2200 
  6 C       -2.6850     1.2130     1.2210 C.3   1 <1>   0.0600 
  7 C        0.1510     3.1630    -0.9510 C.ar  1 <1>  -0.1500 
  8 C       -1.2050     4.0610     0.8140 C.ar  1 <1>  -0.1500 
  9 C       -5.2430     2.7640    -1.0920 C.3   1 <1>  -0.1600 
 10 C       -5.4740     0.9830     0.4910 C.3   1 <1>  -0.1600 
 11 C        1.2410     3.8610    -0.4370 C.ar  1 <1>   0.2270 
 12 C       -0.1360     4.7550     1.3280 C.ar  1 <1>  -0.1500 
 13 C       -6.7200     2.3540    -1.1120 C.3   1 <1>  -0.0800 
 14 C       -6.8640     1.1960    -0.1220 C.3   1 <1>  -0.0800 
 15 N        2.5300     3.9270    -0.8580 N.2   1 <1>  -0.2270 
 16 C        1.0970     4.6390     0.6810 C.ar  1 <1>  -0.1520 
 17 C       -7.7070     3.4320    -0.6430 C.3   1 <1>  -0.1600 
 18 C       -7.9640     1.6200     0.8640 C.3   1 <1>  -0.1600 
 19 N        3.1750     4.6990    -0.0660 N.2   1 <1>  -0.4180 
 20 N        2.3310     5.1460     0.8750 N.pl3 1 <1>   0.3000 
 21 C       -8.7950     2.6720     0.1210 C.3   1 <1>   0.4230 
 22 N       -9.7520     2.0170    -0.8290 N.4   1 <1>  -0.9590 
 23 C      -10.4820     3.0030    -1.6890 C.3   1 <1>   0.2630 
 24 C      -10.7620     1.1560    -0.1320 C.3   1 <1>   0.2630 
 25 H       -4.3760     0.8210    -1.3450 H     1 <1>   0.0800 
 26 H       -3.1530     1.6440     2.0880 H     1 <1>   0.0800 
 27 H       -1.6170     1.2970     1.3290 H     1 <1>   0.0800 
 28 H       -2.9280     0.1660     1.1660 H     1 <1>   0.0800 
 29 H        0.2860     2.5660    -1.8350 H     1 <1>   0.1500 
 30 H       -2.1700     4.1360     1.2850 H     1 <1>   0.1500 
 31 H       -5.0810     3.5920    -0.4260 H     1 <1>   0.0800 
 32 H       -4.9010     3.0280    -2.0770 H     1 <1>   0.0800 
 33 H       -5.2910    -0.0580     0.6900 H     1 <1>   0.0800 
 34 H       -5.3830     1.5510     1.4000 H     1 <1>   0.0800 
 35 H       -0.2380     5.3760     2.2020 H     1 <1>   0.1500 
 36 H       -6.9810     2.0070    -2.0990 H     1 <1>   0.0800 
 37 H       -7.1590     0.3110    -0.6610 H     1 <1>   0.0800 
 38 H       -8.0580     4.0460    -1.4510 H     1 <1>   0.0800 
 39 H       -7.2170     4.0820     0.0610 H     1 <1>   0.0800 
 40 H       -7.5170     2.1110     1.7110 H     1 <1>   0.0800 
 41 H       -8.5200     0.7830     1.2410 H     1 <1>   0.0800 
 42 H        2.6190     5.7850     1.6210 H     1 <1>   0.2700 
 43 H       -9.3230     3.3170     0.8060 H     1 <1>   0.0800 
 44 H       -9.1770     1.4180    -1.4390 H     1 <1>   0.4500 
 45 H      -11.0170     3.7110    -1.0770 H     1 <1>   0.0800 
 46 H      -11.1890     2.4930    -2.3240 H     1 <1>   0.0800 
 47 H       -9.7950     3.5420    -2.3210 H     1 <1>   0.0800 
 48 H      -11.3190     1.7380     0.5840 H     1 <1>   0.0800 
 49 H      -10.2810     0.3410     0.3820 H     1 <1>   0.0800 
 50 H      -11.4520     0.7390    -0.8470 H     1 <1>   0.0800 
@<TRIPOS>BOND
  1   1   2  2   
  2   2   3  am  
  3   2   4  1   
  4   3   5  1   
  5   3   6  1   
  6   4   7  ar  
  7   4   8  ar  
  8   5   9  1   
  9   5  10  1   
 10   5  25  1   
 11   6  26  1   
 12   6  27  1   
 13   6  28  1   
 14   7  11  ar  
 15   7  29  1   
 16   8  12  ar  
 17   8  30  1   
 18   9  13  1   
 19   9  31  1   
 20   9  32  1   
 21  10  14  1   
 22  10  33  1   
 23  10  34  1   
 24  11  15  1   
 25  11  16  ar  
 26  12  16  ar  
 27  12  35  1   
 28  13  14  1   
 29  13  17  1   
 30  13  36  1   
 31  14  18  1   
 32  14  37  1   
 33  15  19  2   
 34  16  20  1   
 35  17  21  1   
 36  17  38  1   
 37  17  39  1   
 38  18  21  1   
 39  18  40  1   
 40  18  41  1   
 41  19  20  1   
 42  20  42  1   
 43  21  22  1   
 44  21  43  1   
 45  22  23  1   
 46  22  24  1   
 47  22  44  1   
 48  23  45  1   
 49  23  46  1   
 50  23  47  1   
 51  24  48  1   
 52  24  49  1   
 53  24  50  1   
@<TRIPOS>SUBSTRUCTURE
  1 ****   3 GROUP 4 **** **** 0

# MOE 2024.06 (io_trps.svl 2023.06)
