@<TRIPOS>MOLECULE
NONAME
61 63 1 0 0 
SMALL
USER_CHARGES


@<TRIPOS>ATOM
  1 O       -1.5490     0.9940     2.0150 O.2   1 <1>  -0.5700 
  2 C       -2.3790     1.2570     1.1720 C.2   1 <1>   0.5690 
  3 N       -3.6460     0.7040     1.2400 N.am  1 <1>  -0.6600 
  4 C       -1.9360     2.2230     0.0470 C.3   1 <1>   0.2810 
  5 C       -4.0030    -0.2460     2.3340 C.3   1 <1>   0.1400 
  6 C       -4.7290     0.8110     0.2240 C.3   1 <1>   0.1400 
  7 N       -2.8360     3.4190    -0.0410 N.am  1 <1>  -0.7300 
  8 C       -1.7680     1.5300    -1.3360 C.3   1 <1>  -0.0800 
  9 C       -4.1970    -1.6400     1.7330 C.3   1 <1>  -0.1600 
 10 C       -4.9280    -0.5590    -0.4270 C.3   1 <1>  -0.1600 
 11 C       -2.4060     4.6980    -0.1220 C.2   1 <1>   0.5690 
 12 C       -0.8550     0.2960    -1.2430 C.3   1 <1>  -0.2400 
 13 C       -1.1950     2.4820    -2.4000 C.3   1 <1>  -0.2400 
 14 C       -5.2530    -1.6430     0.6170 C.3   1 <1>   0.4240 
 15 O       -1.2480     4.9890    -0.2750 O.2   1 <1>  -0.5700 
 16 C       -3.4310     5.7950    -0.0110 C.3   1 <1>  -0.1790 
 17 O       -6.4600    -1.2830     1.2500 O.3   1 <1>  -0.5600 
 18 C       -5.3380    -3.0380    -0.0370 C.ar  1 <1>  -0.1430 
 19 C       -7.6520    -1.6590     0.6330 C.3   1 <1>   0.1200 
 20 C       -6.5180    -3.7690    -0.0310 C.ar  1 <1>  -0.1430 
 21 C       -4.2240    -3.5920    -0.6550 C.ar  1 <1>  -0.1500 
 22 C       -7.7490    -3.1820     0.6300 C.3   1 <1>  -0.0170 
 23 C       -6.5770    -5.0190    -0.6260 C.ar  1 <1>  -0.1500 
 24 C       -4.2630    -4.8420    -1.2490 C.ar  1 <1>   0.0820 
 25 C       -5.4610    -5.5720    -1.2490 C.ar  1 <1>   0.0820 
 26 O       -3.0840    -5.2480    -1.8020 O.3   1 <1>  -0.3630 
 27 O       -5.5200    -6.7880    -1.8670 O.3   1 <1>  -0.3620 
 28 C       -2.7140    -6.6090    -1.8070 C.3   1 <1>   0.0400 
 29 C       -6.7350    -7.4850    -2.0410 C.3   1 <1>   0.0400 
 30 H       -0.9600     2.5770     0.3340 H     1 <1>   0.0800 
 31 H       -4.9110     0.0820     2.8090 H     1 <1>   0.0800 
 32 H       -3.2330    -0.2810     3.0860 H     1 <1>   0.0800 
 33 H       -4.5020     1.5400    -0.5290 H     1 <1>   0.0800 
 34 H       -5.6390     1.1170     0.7130 H     1 <1>   0.0800 
 35 H       -3.8030     3.2350     0.2220 H     1 <1>   0.3700 
 36 H       -2.7250     1.1930    -1.6850 H     1 <1>   0.0800 
 37 H       -4.4940    -2.3300     2.5010 H     1 <1>   0.0800 
 38 H       -3.2490    -1.9710     1.3520 H     1 <1>   0.0800 
 39 H       -4.0260    -0.8220    -0.9460 H     1 <1>   0.0800 
 40 H       -5.7100    -0.5110    -1.1610 H     1 <1>   0.0800 
 41 H        0.1170     0.5730    -0.8720 H     1 <1>   0.0800 
 42 H       -0.7330    -0.1570    -2.2120 H     1 <1>   0.0800 
 43 H       -1.2720    -0.4460    -0.5850 H     1 <1>   0.0800 
 44 H       -0.2500     2.8840    -2.0760 H     1 <1>   0.0800 
 45 H       -1.8660     3.3030    -2.5790 H     1 <1>   0.0800 
 46 H       -1.0470     1.9660    -3.3320 H     1 <1>   0.0800 
 47 H       -4.1910     5.6610    -0.7570 H     1 <1>   0.0800 
 48 H       -2.9580     6.7480    -0.1640 H     1 <1>   0.0800 
 49 H       -3.8740     5.7800     0.9660 H     1 <1>   0.0800 
 50 H       -7.6730    -1.2680    -0.3690 H     1 <1>   0.0800 
 51 H       -8.4640    -1.2330     1.1960 H     1 <1>   0.0800 
 52 H       -3.2920    -3.0590    -0.6840 H     1 <1>   0.1500 
 53 H       -8.6350    -3.4790     0.0990 H     1 <1>   0.0800 
 54 H       -7.8230    -3.5380     1.6410 H     1 <1>   0.0800 
 55 H       -7.5080    -5.5500    -0.5940 H     1 <1>   0.1500 
 56 H       -1.6480    -6.6650    -1.9280 H     1 <1>   0.0800 
 57 H       -3.2000    -7.0970    -2.6320 H     1 <1>   0.0800 
 58 H       -3.0050    -7.0560    -0.8730 H     1 <1>   0.0800 
 59 H       -6.5310    -8.3720    -2.6120 H     1 <1>   0.0800 
 60 H       -7.4240    -6.8570    -2.5770 H     1 <1>   0.0800 
 61 H       -7.1240    -7.7550    -1.0760 H     1 <1>   0.0800 
@<TRIPOS>BOND
  1   1   2  2   
  2   2   3  am  
  3   2   4  1   
  4   3   5  1   
  5   3   6  1   
  6   4   7  1   
  7   4   8  1   
  8   4  30  1   
  9   5   9  1   
 10   5  31  1   
 11   5  32  1   
 12   6  10  1   
 13   6  33  1   
 14   6  34  1   
 15   7  11  am  
 16   7  35  1   
 17   8  12  1   
 18   8  13  1   
 19   8  36  1   
 20   9  14  1   
 21   9  37  1   
 22   9  38  1   
 23  10  14  1   
 24  10  39  1   
 25  10  40  1   
 26  11  15  2   
 27  11  16  1   
 28  12  41  1   
 29  12  42  1   
 30  12  43  1   
 31  13  44  1   
 32  13  45  1   
 33  13  46  1   
 34  14  17  1   
 35  14  18  1   
 36  16  47  1   
 37  16  48  1   
 38  16  49  1   
 39  17  19  1   
 40  18  20  ar  
 41  18  21  ar  
 42  19  22  1   
 43  19  50  1   
 44  19  51  1   
 45  20  22  1   
 46  20  23  ar  
 47  21  24  ar  
 48  21  52  1   
 49  22  53  1   
 50  22  54  1   
 51  23  25  ar  
 52  23  55  1   
 53  24  25  ar  
 54  24  26  1   
 55  25  27  1   
 56  26  28  1   
 57  27  29  1   
 58  28  56  1   
 59  28  57  1   
 60  28  58  1   
 61  29  59  1   
 62  29  60  1   
 63  29  61  1   
@<TRIPOS>SUBSTRUCTURE
  1 ****  10 GROUP 4 **** **** 0

# MOE 2024.06 (io_trps.svl 2023.06)
