@<TRIPOS>MOLECULE
NONAME
44 47 1 0 0 
SMALL
USER_CHARGES


@<TRIPOS>ATOM
  1 S        1.8450    -1.5990     0.3630 S.o2  1 <1>   1.5000 
  2 O        2.3870    -2.6310    -0.4930 O.2   1 <1>  -0.6500 
  3 O        2.1700    -1.6160     1.7700 O.2   1 <1>  -0.6500 
  4 N        0.1760    -1.7530     0.2940 N.am  1 <1>  -0.9140 
  5 C        2.1660     0.0430    -0.3600 C.2   1 <1>   0.0780 
  6 C       -0.3110    -3.0930     0.5910 C.3   1 <1>   0.2760 
  7 O        1.3570     1.0640    -0.1020 O.3   1 <1>  -0.2800 
  8 C        3.1630     0.4710    -1.1680 C.2   1 <1>  -0.1500 
  9 C       -1.7570    -3.2250     0.1300 C.3   1 <1>  -0.0800 
 10 C       -0.5000    -3.2810     2.0960 C.3   1 <1>   0.1200 
 11 C        1.7940     2.1500    -0.7270 C.2   1 <1>   0.1410 
 12 C        2.9260     1.8270    -1.4070 C.2   1 <1>  -0.1500 
 13 C       -2.5470    -2.6280     1.2990 C.3   1 <1>   0.1200 
 14 C       -2.0920    -2.6020    -1.2390 C.3   1 <1>  -0.0160 
 15 O       -1.6840    -2.6090     2.3990 O.3   1 <1>  -0.5600 
 16 C        1.0830     3.4060    -0.6160 C.2   1 <1>   0.2880 
 17 C       -3.5480    -2.8430    -1.6020 C.ar  1 <1>  -0.1440 
 18 N       -0.0620     3.5730     0.0040 N.2   1 <1>  -0.7070 
 19 C        1.5240     4.6180    -1.1590 C.2   1 <1>  -0.1500 
 20 C       -3.9820    -4.0500    -2.1110 C.ar  1 <1>  -0.1500 
 21 C       -4.5120    -1.8690    -1.4370 C.ar  1 <1>  -0.1500 
 22 N       -0.3560     4.8760    -0.1320 N.pl3 1 <1>   0.3000 
 23 C        0.5880     5.5300    -0.8330 C.2   1 <1>  -0.3020 
 24 C       -5.3220    -4.2220    -2.4160 C.ar  1 <1>   0.1600 
 25 C       -5.8270    -2.1430    -1.7730 C.ar  1 <1>   0.1600 
 26 N       -6.2550    -3.2980    -2.2560 N.ar  1 <1>  -0.6200 
 27 H       -0.1720    -1.1630     1.0530 H     1 <1>   0.4200 
 28 H        0.3170    -3.8500     0.1500 H     1 <1>   0.0800 
 29 H        3.9850    -0.1020    -1.5620 H     1 <1>   0.1500 
 30 H       -1.9950    -4.2730     0.0870 H     1 <1>   0.0800 
 31 H        0.3020    -2.8880     2.6940 H     1 <1>   0.0800 
 32 H       -0.6440    -4.3210     2.3320 H     1 <1>   0.0800 
 33 H        3.5370     2.4670    -2.0170 H     1 <1>   0.1500 
 34 H       -3.4150    -3.2180     1.5410 H     1 <1>   0.0800 
 35 H       -2.8420    -1.6110     1.1020 H     1 <1>   0.0800 
 36 H       -1.4590    -3.0340    -1.9940 H     1 <1>   0.0800 
 37 H       -1.9020    -1.5420    -1.2290 H     1 <1>   0.0800 
 38 H        2.4320     4.7610    -1.7160 H     1 <1>   0.1500 
 39 H       -3.2920    -4.8580    -2.2740 H     1 <1>   0.1500 
 40 H       -4.2540    -0.9000    -1.0500 H     1 <1>   0.1500 
 41 H       -1.2090     5.2890     0.2670 H     1 <1>   0.2700 
 42 H        0.5380     6.5820    -1.0520 H     1 <1>   0.1500 
 43 H       -5.6440    -5.1700    -2.8130 H     1 <1>   0.1500 
 44 H       -6.5660    -1.3720    -1.6380 H     1 <1>   0.1500 
@<TRIPOS>BOND
  1   1   2  2   
  2   1   3  2   
  3   1   4  am  
  4   1   5  1   
  5   4   6  1   
  6   4  27  1   
  7   5   7  1   
  8   5   8  2   
  9   6   9  1   
 10   6  10  1   
 11   6  28  1   
 12   7  11  1   
 13   8  12  1   
 14   8  29  1   
 15   9  13  1   
 16   9  14  1   
 17   9  30  1   
 18  10  15  1   
 19  10  31  1   
 20  10  32  1   
 21  11  12  2   
 22  11  16  1   
 23  12  33  1   
 24  13  15  1   
 25  13  34  1   
 26  13  35  1   
 27  14  17  1   
 28  14  36  1   
 29  14  37  1   
 30  16  18  2   
 31  16  19  1   
 32  17  20  ar  
 33  17  21  ar  
 34  18  22  1   
 35  19  23  2   
 36  19  38  1   
 37  20  24  ar  
 38  20  39  1   
 39  21  25  ar  
 40  21  40  1   
 41  22  23  1   
 42  22  41  1   
 43  23  42  1   
 44  24  26  ar  
 45  24  43  1   
 46  25  26  ar  
 47  25  44  1   
@<TRIPOS>SUBSTRUCTURE
  1 ****   4 GROUP 4 **** **** 0

# MOE 2024.06 (io_trps.svl 2023.06)
