@<TRIPOS>MOLECULE
NONAME
49 52 1 0 0 
SMALL
USER_CHARGES


@<TRIPOS>ATOM
  1 S        0.3340     0.0180    -1.0050 S.3   1 <1>  -0.0800 
  2 C        1.8520    -0.6830    -0.4520 C.2   1 <1>   0.1980 
  3 C       -0.4940    -1.3710    -0.3770 C.2   1 <1>  -0.1400 
  4 N        1.7260    -1.8190     0.1230 N.2   1 <1>  -0.5650 
  5 C        3.1350     0.1120    -0.7110 C.3   1 <1>   0.4690 
  6 C        0.3970    -2.2010     0.1720 C.2   1 <1>   0.0460 
  7 C       -1.9930    -1.5350    -0.4690 C.3   1 <1>   0.0200 
  8 N        2.9650     1.5380    -0.3490 N.pl3 1 <1>  -0.8690 
  9 C        3.5340     0.0500    -2.1830 C.3   1 <1>  -0.2400 
 10 C       -0.0120    -3.5050     0.8270 C.3   1 <1>   0.0210 
 11 C       -2.3510    -2.9940    -0.1190 C.3   1 <1>  -0.1600 
 12 C        3.8940     2.2740     0.3440 C.ar  1 <1>   0.4100 
 13 C       -1.5360    -3.5310     1.0810 C.3   1 <1>  -0.1600 
 14 N        5.1410     1.8050     0.3300 N.ar  1 <1>  -0.6200 
 15 C        3.5120     3.4550     1.0060 C.ar  1 <1>   0.0860 
 16 C        6.0390     2.4910     1.0070 C.ar  1 <1>   0.1600 
 17 C        2.1530     3.9360     0.9400 C.2   1 <1>   0.5440 
 18 C        4.4850     4.1460     1.7150 C.ar  1 <1>  -0.1500 
 19 C        5.7690     3.6510     1.7120 C.ar  1 <1>  -0.1500 
 20 O        1.2250     3.2040     1.2410 O.2   1 <1>  -0.5700 
 21 N        1.8670     5.2220     0.5360 N.am  1 <1>  -0.6600 
 22 C        2.7850     6.0750    -0.2520 C.3   1 <1>   0.1400 
 23 C        0.4800     5.7320     0.4620 C.3   1 <1>   0.1400 
 24 C        1.8700     6.9850    -1.0620 C.3   1 <1>  -0.1600 
 25 C        0.5950     7.0850    -0.2300 C.3   1 <1>  -0.1600 
 26 H        3.9160    -0.3290    -0.1150 H     1 <1>   0.0800 
 27 H       -2.3320    -1.2990    -1.4620 H     1 <1>   0.0800 
 28 H       -2.4590    -0.8590     0.2260 H     1 <1>   0.0800 
 29 H        1.9900     1.7470    -0.0890 H     1 <1>   0.4000 
 30 H        2.7760     0.5000    -2.7960 H     1 <1>   0.0800 
 31 H        3.6610    -0.9740    -2.4790 H     1 <1>   0.0800 
 32 H        4.4650     0.5690    -2.3260 H     1 <1>   0.0800 
 33 H        0.5140    -3.6170     1.7580 H     1 <1>   0.0800 
 34 H        0.2720    -4.3140     0.1780 H     1 <1>   0.0800 
 35 H       -2.1480    -3.6140    -0.9750 H     1 <1>   0.0800 
 36 H       -3.4040    -3.0620     0.0930 H     1 <1>   0.0800 
 37 H       -1.7500    -2.9190     1.9410 H     1 <1>   0.0800 
 38 H       -1.8410    -4.5370     1.3100 H     1 <1>   0.0800 
 39 H        7.0460     2.1110     1.0040 H     1 <1>   0.1500 
 40 H        4.2320     5.0430     2.2530 H     1 <1>   0.1500 
 41 H        6.5550     4.1520     2.2470 H     1 <1>   0.1500 
 42 H        3.4180     5.4830    -0.8930 H     1 <1>   0.0800 
 43 H        3.3890     6.6580     0.4220 H     1 <1>   0.0800 
 44 H        0.0540     5.8190     1.4480 H     1 <1>   0.0800 
 45 H       -0.1140     5.0530    -0.1270 H     1 <1>   0.0800 
 46 H        1.6540     6.5120    -2.0040 H     1 <1>   0.0800 
 47 H        2.3190     7.9450    -1.2460 H     1 <1>   0.0800 
 48 H        0.7030     7.8520     0.5170 H     1 <1>   0.0800 
 49 H       -0.2720     7.3010    -0.8300 H     1 <1>   0.0800 
@<TRIPOS>BOND
  1   1   2  1   
  2   1   3  1   
  3   2   4  2   
  4   2   5  1   
  5   3   6  2   
  6   3   7  1   
  7   4   6  1   
  8   5   8  1   
  9   5   9  1   
 10   5  26  1   
 11   6  10  1   
 12   7  11  1   
 13   7  27  1   
 14   7  28  1   
 15   8  12  1   
 16   8  29  1   
 17   9  30  1   
 18   9  31  1   
 19   9  32  1   
 20  10  13  1   
 21  10  33  1   
 22  10  34  1   
 23  11  13  1   
 24  11  35  1   
 25  11  36  1   
 26  12  14  ar  
 27  12  15  ar  
 28  13  37  1   
 29  13  38  1   
 30  14  16  ar  
 31  15  17  1   
 32  15  18  ar  
 33  16  19  ar  
 34  16  39  1   
 35  17  20  2   
 36  17  21  am  
 37  18  19  ar  
 38  18  40  1   
 39  19  41  1   
 40  21  22  1   
 41  21  23  1   
 42  22  24  1   
 43  22  42  1   
 44  22  43  1   
 45  23  25  1   
 46  23  44  1   
 47  23  45  1   
 48  24  25  1   
 49  24  46  1   
 50  24  47  1   
 51  25  48  1   
 52  25  49  1   
@<TRIPOS>SUBSTRUCTURE
  1 ****   8 GROUP 4 **** **** 0

# MOE 2024.06 (io_trps.svl 2023.06)
