@<TRIPOS>MOLECULE
NONAME
54 58 1 0 0 
SMALL
USER_CHARGES


@<TRIPOS>ATOM
  1 N        0.0700     0.3140     0.1690 N.ar  1 <1>  -0.6200 
  2 C       -1.2240     0.6630     0.2530 C.ar  1 <1>   0.6200 
  3 C        0.8230     1.1120    -0.5450 C.ar  1 <1>   0.1660 
  4 N       -1.7660     1.7470    -0.3180 N.ar  1 <1>  -0.6200 
  5 C       -2.1010    -0.1970     1.0320 C.ar  1 <1>   0.0000 
  6 C        0.3580     2.2310    -1.1610 C.ar  1 <1>  -0.1430 
  7 C        2.3040     0.9160    -0.7730 C.3   1 <1>   0.1440 
  8 C       -0.9750     2.5230    -1.0230 C.ar  1 <1>   0.1600 
  9 C       -1.9330    -1.5840     1.0550 C.ar  1 <1>  -0.1500 
 10 C       -3.1500     0.3270     1.7910 C.ar  1 <1>  -0.1500 
 11 C        1.4540     2.9580    -1.8980 C.3   1 <1>  -0.0160 
 12 C        2.9720     0.5980     0.5780 C.3   1 <1>   0.3430 
 13 C        2.5410    -0.2370    -1.7700 C.3   1 <1>  -0.1600 
 14 C        2.7340     2.2900    -1.3590 C.3   1 <1>  -0.1600 
 15 C       -2.7620    -2.4030     1.8010 C.ar  1 <1>  -0.1500 
 16 C       -3.9830    -0.4860     2.5390 C.ar  1 <1>  -0.1500 
 17 N        4.4330     0.2600     0.4280 N.4   1 <1>  -0.9590 
 18 C        4.0260    -0.6340    -1.8500 C.3   1 <1>  -0.1600 
 19 C       -3.7890    -1.8550     2.5460 C.ar  1 <1>  -0.1500 
 20 C        4.6210    -0.9240    -0.4700 C.3   1 <1>   0.3430 
 21 C        5.0690     0.0570     1.7640 C.3   1 <1>   0.4860 
 22 C        6.5610    -0.1160     1.5950 C.ar  1 <1>  -0.1430 
 23 C        7.3880     0.9520     1.3300 C.ar  1 <1>   0.1600 
 24 C        7.1570    -1.3530     1.6980 C.ar  1 <1>   0.1600 
 25 N        8.6780     0.8060     1.1510 N.ar  1 <1>  -0.6200 
 26 N        8.4450    -1.5210     1.5220 N.ar  1 <1>  -0.6200 
 27 C        9.1410    -0.4280     1.2580 C.ar  1 <1>   0.4770 
 28 C       10.6280    -0.6060     1.0630 C.3   1 <1>  -0.0970 
 29 H       -1.3980     3.3960    -1.4920 H     1 <1>   0.1500 
 30 H       -1.1430    -2.0280     0.4770 H     1 <1>   0.1500 
 31 H       -3.3170     1.3900     1.7940 H     1 <1>   0.1500 
 32 H        1.4380     4.0160    -1.6960 H     1 <1>   0.0800 
 33 H        1.3480     2.7900    -2.9570 H     1 <1>   0.0800 
 34 H        2.4530    -0.2380     1.0190 H     1 <1>   0.0800 
 35 H        2.8480     1.4440     1.2340 H     1 <1>   0.0800 
 36 H        2.1780     0.0370    -2.7470 H     1 <1>   0.0800 
 37 H        1.9710    -1.0940    -1.4510 H     1 <1>   0.0800 
 38 H        3.4780     2.2080    -2.1310 H     1 <1>   0.0800 
 39 H        3.1240     2.9140    -0.5740 H     1 <1>   0.0800 
 40 H       -2.6100    -3.4690     1.8000 H     1 <1>   0.1500 
 41 H       -4.7820    -0.0530     3.1140 H     1 <1>   0.1500 
 42 H        4.9010     1.0530    -0.0270 H     1 <1>   0.4500 
 43 H        4.5990     0.1390    -2.3320 H     1 <1>   0.0800 
 44 H        4.1190    -1.5180    -2.4580 H     1 <1>   0.0800 
 45 H       -4.4360    -2.4900     3.1270 H     1 <1>   0.1500 
 46 H        4.1330    -1.7870    -0.0450 H     1 <1>   0.0800 
 47 H        5.6720    -1.1480    -0.5780 H     1 <1>   0.0800 
 48 H        4.6510    -0.8130     2.2440 H     1 <1>   0.0800 
 49 H        4.8810     0.9110     2.3950 H     1 <1>   0.0800 
 50 H        6.9980     1.9540     1.2580 H     1 <1>   0.1500 
 51 H        6.5770    -2.2330     1.9250 H     1 <1>   0.1500 
 52 H       10.9920     0.0950     0.3350 H     1 <1>   0.0800 
 53 H       10.8430    -1.6030     0.7240 H     1 <1>   0.0800 
 54 H       11.1310    -0.4370     1.9960 H     1 <1>   0.0800 
@<TRIPOS>BOND
  1   1   2  ar  
  2   1   3  ar  
  3   2   4  ar  
  4   2   5  1   
  5   3   6  ar  
  6   3   7  1   
  7   4   8  ar  
  8   5   9  ar  
  9   5  10  ar  
 10   6   8  ar  
 11   6  11  1   
 12   7  12  1   
 13   7  13  1   
 14   7  14  1   
 15   8  29  1   
 16   9  15  ar  
 17   9  30  1   
 18  10  16  ar  
 19  10  31  1   
 20  11  14  1   
 21  11  32  1   
 22  11  33  1   
 23  12  17  1   
 24  12  34  1   
 25  12  35  1   
 26  13  18  1   
 27  13  36  1   
 28  13  37  1   
 29  14  38  1   
 30  14  39  1   
 31  15  19  ar  
 32  15  40  1   
 33  16  19  ar  
 34  16  41  1   
 35  17  20  1   
 36  17  21  1   
 37  17  42  1   
 38  18  20  1   
 39  18  43  1   
 40  18  44  1   
 41  19  45  1   
 42  20  46  1   
 43  20  47  1   
 44  21  22  1   
 45  21  48  1   
 46  21  49  1   
 47  22  23  ar  
 48  22  24  ar  
 49  23  25  ar  
 50  23  50  1   
 51  24  26  ar  
 52  24  51  1   
 53  25  27  ar  
 54  26  27  ar  
 55  27  28  1   
 56  28  52  1   
 57  28  53  1   
 58  28  54  1   
@<TRIPOS>SUBSTRUCTURE
  1 ****  12 GROUP 4 **** **** 0

# MOE 2024.06 (io_trps.svl 2023.06)
