@<TRIPOS>MOLECULE
NONAME
44 46 1 0 0 
SMALL
USER_CHARGES


@<TRIPOS>ATOM
  1 S       -0.4510     0.6170    -2.0540 S.o2  1 <1>   1.4470 
  2 O        0.1820    -0.1410    -3.1160 O.2   1 <1>  -0.6500 
  3 O       -1.1760     1.8090    -2.4470 O.2   1 <1>  -0.6500 
  4 N       -1.5620    -0.4240    -1.3030 N.am  1 <1>  -0.8490 
  5 C        0.7970     0.9770    -0.7800 C.ar  1 <1>  -0.0090 
  6 C       -1.0780    -1.8150    -1.1910 C.3   1 <1>   0.1960 
  7 C       -2.1360     0.1420    -0.0800 C.3   1 <1>   0.1960 
  8 C        0.6740     2.0490     0.1030 C.ar  1 <1>   0.0820 
  9 C        1.9130     0.1590    -0.6360 C.ar  1 <1>  -0.1500 
 10 C       -1.4760    -2.5290     0.1060 C.3   1 <1>  -0.1860 
 11 C       -3.2960    -0.7290     0.4010 C.3   1 <1>  -0.1600 
 12 O       -0.4020     2.8600     0.0650 O.3   1 <1>  -0.3620 
 13 C        1.6340     2.2980     1.0720 C.ar  1 <1>  -0.1500 
 14 C        2.8880     0.3890     0.3300 C.ar  1 <1>  -0.0230 
 15 C       -0.4580    -2.2070     1.1850 C.2   1 <1>   0.9060 
 16 C       -2.9420    -2.2230     0.4500 C.3   1 <1>   0.2000 
 17 C       -0.2180     4.1220    -0.5350 C.3   1 <1>   0.0400 
 18 C        2.7380     1.4770     1.1800 C.ar  1 <1>  -0.1500 
 19 N        4.0170    -0.4690     0.4540 N.pl3 1 <1>   0.5930 
 20 O        0.7380    -2.3630     0.9190 O.co2 1 <1>  -0.9000 
 21 O       -0.8310    -1.8040     2.2950 O.co2 1 <1>  -0.9000 
 22 O       -3.2070    -2.6950     1.7140 O.3   1 <1>  -0.6800 
 23 N        5.2950    -0.0030     0.5250 N.2   1 <1>  -0.7070 
 24 C        4.0260    -1.8230     0.4870 C.2   1 <1>  -0.3020 
 25 C        6.0460    -1.0570     0.5970 C.2   1 <1>   0.1390 
 26 C        5.3080    -2.2320     0.5770 C.2   1 <1>  -0.1500 
 27 H       -1.4890    -2.3620    -2.0220 H     1 <1>   0.0800 
 28 H       -0.0080    -1.8590    -1.3020 H     1 <1>   0.0800 
 29 H       -1.3860     0.2090     0.6920 H     1 <1>   0.0800 
 30 H       -2.5000     1.1370    -0.2740 H     1 <1>   0.0800 
 31 H        2.0240    -0.6930    -1.2870 H     1 <1>   0.1500 
 32 H       -1.3870    -3.5840    -0.0630 H     1 <1>   0.0800 
 33 H       -4.1180    -0.5920    -0.2760 H     1 <1>   0.0800 
 34 H       -3.6050    -0.3790     1.3700 H     1 <1>   0.0800 
 35 H        1.5080     3.1250     1.7460 H     1 <1>   0.1500 
 36 H       -3.5860    -2.7540    -0.2300 H     1 <1>   0.0800 
 37 H       -1.1660     4.6290    -0.5450 H     1 <1>   0.0800 
 38 H        0.1290     3.9800    -1.5440 H     1 <1>   0.0800 
 39 H        0.4990     4.6830     0.0360 H     1 <1>   0.0800 
 40 H        3.4860     1.6680     1.9310 H     1 <1>   0.1500 
 41 H       -2.4280    -2.3970     2.2730 H     1 <1>   0.4000 
 42 H        3.1150    -2.3950     0.4560 H     1 <1>   0.1500 
 43 H        7.1200    -1.0160     0.6660 H     1 <1>   0.1500 
 44 H        5.6940    -3.2340     0.6290 H     1 <1>   0.1500 
@<TRIPOS>BOND
  1   1   2  2   
  2   1   3  2   
  3   1   4  am  
  4   1   5  1   
  5   4   6  1   
  6   4   7  1   
  7   5   8  ar  
  8   5   9  ar  
  9   6  10  1   
 10   6  27  1   
 11   6  28  1   
 12   7  11  1   
 13   7  29  1   
 14   7  30  1   
 15   8  12  1   
 16   8  13  ar  
 17   9  14  ar  
 18   9  31  1   
 19  10  15  1   
 20  10  16  1   
 21  10  32  1   
 22  11  16  1   
 23  11  33  1   
 24  11  34  1   
 25  12  17  1   
 26  13  18  ar  
 27  13  35  1   
 28  14  18  ar  
 29  14  19  1   
 30  15  20  ar  
 31  15  21  ar  
 32  16  22  1   
 33  16  36  1   
 34  17  37  1   
 35  17  38  1   
 36  17  39  1   
 37  18  40  1   
 38  19  23  1   
 39  19  24  1   
 40  22  41  1   
 41  23  25  2   
 42  24  26  2   
 43  24  42  1   
 44  25  26  1   
 45  25  43  1   
 46  26  44  1   
@<TRIPOS>SUBSTRUCTURE
  1 ****   5 GROUP 4 **** **** 0

# MOE 2024.06 (io_trps.svl 2023.06)
