@<TRIPOS>MOLECULE
NONAME
40 42 1 0 0 
SMALL
USER_CHARGES


@<TRIPOS>ATOM
  1 F        1.5570     0.0830     2.7940 F     1 <1>  -0.1900 
  2 C        1.8700     0.8120     1.7580 C.ar  1 <1>   0.1900 
  3 C        2.1100     0.1900     0.5370 C.ar  1 <1>   0.0860 
  4 C        1.9290     2.1840     1.9370 C.ar  1 <1>  -0.1500 
  5 C        2.4090     1.0480    -0.5170 C.ar  1 <1>   0.1900 
  6 C        2.0470    -1.2390     0.3730 C.2   1 <1>   0.5440 
  7 C        2.2350     2.9980     0.8570 C.ar  1 <1>  -0.1500 
  8 F        2.6300     0.5480    -1.7010 F     1 <1>  -0.1900 
  9 C        2.4760     2.4240    -0.3810 C.ar  1 <1>  -0.1500 
 10 O        3.0450    -1.8950     0.6020 O.2   1 <1>  -0.5700 
 11 N        0.8920    -1.8790    -0.0380 N.am  1 <1>  -0.6600 
 12 C       -0.4000    -1.1470    -0.1980 C.3   1 <1>   0.2200 
 13 C        0.9150    -3.3440    -0.3380 C.3   1 <1>   0.0600 
 14 C       -1.6220    -1.8660     0.3710 C.3   1 <1>  -0.1600 
 15 C       -0.7520    -0.8960    -1.6590 C.3   1 <1>  -0.1600 
 16 C       -2.8110    -1.2120    -0.3430 C.3   1 <1>  -0.0800 
 17 C       -2.2580    -0.6010    -1.6440 C.3   1 <1>  -0.0800 
 18 C       -3.4390    -0.0540     0.4470 C.3   1 <1>  -0.1600 
 19 C       -2.5830     0.8990    -1.5920 C.3   1 <1>  -0.1600 
 20 C       -3.7300     1.0090    -0.6000 C.3   1 <1>   0.2000 
 21 O       -3.7390     2.2580    -0.0200 O.3   1 <1>  -0.6800 
 22 H        1.7370     2.6060     2.9080 H     1 <1>   0.1500 
 23 H        2.2870     4.0670     0.9800 H     1 <1>   0.1500 
 24 H        2.7160     3.0350    -1.2340 H     1 <1>   0.1500 
 25 H       -0.3460    -0.1920     0.2960 H     1 <1>   0.0800 
 26 H        0.2810    -3.5710    -1.1750 H     1 <1>   0.0800 
 27 H        0.5780    -3.8920     0.5240 H     1 <1>   0.0800 
 28 H        1.9140    -3.6650    -0.5790 H     1 <1>   0.0800 
 29 H       -1.6130    -2.9070     0.1100 H     1 <1>   0.0800 
 30 H       -1.6770    -1.7710     1.4410 H     1 <1>   0.0800 
 31 H       -0.1770    -0.0900    -2.0780 H     1 <1>   0.0800 
 32 H       -0.5800    -1.7860    -2.2370 H     1 <1>   0.0800 
 33 H       -3.5680    -1.9450    -0.5710 H     1 <1>   0.0800 
 34 H       -2.7400    -1.0470    -2.4990 H     1 <1>   0.0800 
 35 H       -2.7380     0.3270     1.1680 H     1 <1>   0.0800 
 36 H       -4.3390    -0.3640     0.9480 H     1 <1>   0.0800 
 37 H       -2.8700     1.2720    -2.5600 H     1 <1>   0.0800 
 38 H       -1.7350     1.4530    -1.2300 H     1 <1>   0.0800 
 39 H       -4.6790     0.8350    -1.0800 H     1 <1>   0.0800 
 40 H       -2.8930     2.4200     0.4360 H     1 <1>   0.4000 
@<TRIPOS>BOND
  1   1   2  1   
  2   2   3  ar  
  3   2   4  ar  
  4   3   5  ar  
  5   3   6  1   
  6   4   7  ar  
  7   4  22  1   
  8   5   8  1   
  9   5   9  ar  
 10   6  10  2   
 11   6  11  am  
 12   7   9  ar  
 13   7  23  1   
 14   9  24  1   
 15  11  12  1   
 16  11  13  1   
 17  12  14  1   
 18  12  15  1   
 19  12  25  1   
 20  13  26  1   
 21  13  27  1   
 22  13  28  1   
 23  14  16  1   
 24  14  29  1   
 25  14  30  1   
 26  15  17  1   
 27  15  31  1   
 28  15  32  1   
 29  16  17  1   
 30  16  18  1   
 31  16  33  1   
 32  17  19  1   
 33  17  34  1   
 34  18  20  1   
 35  18  35  1   
 36  18  36  1   
 37  19  20  1   
 38  19  37  1   
 39  19  38  1   
 40  20  21  1   
 41  20  39  1   
 42  21  40  1   
@<TRIPOS>SUBSTRUCTURE
  1 ****  12 GROUP 4 **** **** 0

# MOE 2024.06 (io_trps.svl 2023.06)
