@<TRIPOS>MOLECULE
NONAME
49 51 1 0 0 
SMALL
USER_CHARGES


@<TRIPOS>ATOM
  1 O       -1.4110     0.8330    -1.8730 O.2   1 <1>  -0.5700 
  2 C       -1.6440     1.3560    -0.7950 C.2   1 <1>   0.5440 
  3 N       -2.5530     0.7190     0.0390 N.am  1 <1>  -0.6600 
  4 C       -0.9190     2.5840    -0.4530 C.ar  1 <1>   0.3960 
  5 C       -3.1860    -0.5870    -0.3430 C.3   1 <1>   0.1400 
  6 C       -2.9430     1.2030     1.3950 C.3   1 <1>   0.1400 
  7 N       -1.5220     3.6220     0.1220 N.ar  1 <1>  -0.6200 
  8 C        0.4300     2.6620    -0.7560 C.ar  1 <1>  -0.1500 
  9 C       -4.6420    -0.4190    -0.8010 C.3   1 <1>   0.1400 
 10 C       -4.1980     2.0910     1.3630 C.3   1 <1>  -0.1600 
 11 C       -0.7570     4.6570     0.3850 C.ar  1 <1>   0.7200 
 12 C        1.1170     3.8070    -0.4400 C.ar  1 <1>   0.1660 
 13 N       -5.4820     0.2860     0.2240 N.am  1 <1>  -0.6600 
 14 C       -5.2290     1.7520     0.2820 C.3   1 <1>   0.1400 
 15 N        0.5270     4.8190     0.1370 N.ar  1 <1>  -0.6200 
 16 N       -1.3630     5.6950     0.9630 N.pl3 1 <1>  -0.9000 
 17 C        2.5930     3.9520    -0.7470 C.3   1 <1>  -0.0970 
 18 C       -6.4430    -0.2960     1.0190 C.2   1 <1>   0.5690 
 19 O       -7.1190     0.3790     1.7650 O.2   1 <1>  -0.5700 
 20 C       -6.6720    -1.8090     1.0130 C.3   1 <1>   0.2370 
 21 N       -7.4690    -2.1660    -0.1800 N.pl3 1 <1>   0.3140 
 22 C       -7.3390    -2.3660     2.2880 C.3   1 <1>  -0.2400 
 23 N       -7.0460    -3.1020    -1.0570 N.2   1 <1>  -0.7070 
 24 C       -8.6610    -1.6570    -0.5560 C.2   1 <1>  -0.3020 
 25 C       -7.9780    -3.1610    -1.9590 C.2   1 <1>   0.1390 
 26 C       -9.0170    -2.2770    -1.7000 C.2   1 <1>  -0.1500 
 27 H       -3.1530    -1.2610     0.4940 H     1 <1>   0.0800 
 28 H       -2.6310    -1.0520    -1.1390 H     1 <1>   0.0800 
 29 H       -2.1290     1.7410     1.8500 H     1 <1>   0.0800 
 30 H       -3.1430     0.3510     2.0220 H     1 <1>   0.0800 
 31 H        0.9180     1.8330    -1.2330 H     1 <1>   0.1500 
 32 H       -5.0460    -1.3860    -1.0310 H     1 <1>   0.0800 
 33 H       -4.6520     0.1440    -1.7180 H     1 <1>   0.0800 
 34 H       -3.9000     3.1130     1.2290 H     1 <1>   0.0800 
 35 H       -4.6770     2.0390     2.3240 H     1 <1>   0.0800 
 36 H       -4.8690     2.0940    -0.6730 H     1 <1>   0.0800 
 37 H       -6.1490     2.2750     0.4850 H     1 <1>   0.0800 
 38 H       -0.8450     6.5690     0.9170 H     1 <1>   0.4000 
 39 H       -2.3670     5.7560     0.8250 H     1 <1>   0.4000 
 40 H        2.9790     3.0680    -1.2200 H     1 <1>   0.0800 
 41 H        3.1350     4.1240     0.1640 H     1 <1>   0.0800 
 42 H        2.7430     4.7910    -1.4020 H     1 <1>   0.0800 
 43 H       -5.7160    -2.2860     0.9150 H     1 <1>   0.0800 
 44 H       -8.3150    -1.9330     2.4220 H     1 <1>   0.0800 
 45 H       -6.7410    -2.1220     3.1470 H     1 <1>   0.0800 
 46 H       -7.4290    -3.4350     2.2220 H     1 <1>   0.0800 
 47 H       -9.1740    -0.8940     0.0030 H     1 <1>   0.1500 
 48 H       -7.9410    -3.8240    -2.8080 H     1 <1>   0.1500 
 49 H       -9.9000    -2.1400    -2.2980 H     1 <1>   0.1500 
@<TRIPOS>BOND
  1   1   2  2   
  2   2   3  am  
  3   2   4  1   
  4   3   5  1   
  5   3   6  1   
  6   4   7  ar  
  7   4   8  ar  
  8   5   9  1   
  9   5  27  1   
 10   5  28  1   
 11   6  10  1   
 12   6  29  1   
 13   6  30  1   
 14   7  11  ar  
 15   8  12  ar  
 16   8  31  1   
 17   9  13  1   
 18   9  32  1   
 19   9  33  1   
 20  10  14  1   
 21  10  34  1   
 22  10  35  1   
 23  11  15  ar  
 24  11  16  1   
 25  12  15  ar  
 26  12  17  1   
 27  13  14  1   
 28  13  18  am  
 29  14  36  1   
 30  14  37  1   
 31  16  38  1   
 32  16  39  1   
 33  17  40  1   
 34  17  41  1   
 35  17  42  1   
 36  18  19  2   
 37  18  20  1   
 38  20  21  1   
 39  20  22  1   
 40  20  43  1   
 41  21  23  1   
 42  21  24  1   
 43  22  44  1   
 44  22  45  1   
 45  22  46  1   
 46  23  25  2   
 47  24  26  2   
 48  24  47  1   
 49  25  26  1   
 50  25  48  1   
 51  26  49  1   
@<TRIPOS>SUBSTRUCTURE
  1 ****   3 GROUP 4 **** **** 0

# MOE 2024.06 (io_trps.svl 2023.06)
