@<TRIPOS>MOLECULE
NONAME
39 40 1 0 0 
SMALL
USER_CHARGES


@<TRIPOS>ATOM
  1 S        1.0700     0.4420    -1.0680 S.o2  1 <1>   1.3330 
  2 O        2.0410    -0.6270    -1.1540 O.2   1 <1>  -0.6500 
  3 O        0.5230     1.0050    -2.2810 O.2   1 <1>  -0.6500 
  4 N       -0.2460    -0.1200    -0.1490 N.am  1 <1>  -0.8490 
  5 C        1.7420     1.7750    -0.0630 C.3   1 <1>  -0.0550 
  6 C       -1.4710     0.6650    -0.3410 C.3   1 <1>   0.1160 
  7 C       -0.5250    -1.5390    -0.3890 C.3   1 <1>   0.1160 
  8 C        2.6670     1.3930     1.1150 C.3   1 <1>  -0.0800 
  9 C        3.9960     0.7700     0.6790 C.3   1 <1>   0.2890 
 10 C        2.1050     0.3970     2.1360 C.3   1 <1>   0.1200 
 11 N        5.1150     1.6420     1.1140 N.pl3 1 <1>  -0.8690 
 12 C        4.0260    -0.5490     1.4480 C.3   1 <1>   0.1200 
 13 O        3.1990    -0.3490     2.5510 O.3   1 <1>  -0.5600 
 14 C        5.5520     2.7330     0.4090 C.ar  1 <1>   0.4100 
 15 N        4.9590     2.9950    -0.7490 N.ar  1 <1>  -0.6200 
 16 C        6.5810     3.5150     0.9250 C.ar  1 <1>  -0.1500 
 17 C        5.4100     4.0480    -1.4090 C.ar  1 <1>   0.1600 
 18 C        7.0350     4.6100     0.2290 C.ar  1 <1>  -0.1500 
 19 C        6.4300     4.8900    -0.9880 C.ar  1 <1>   0.0730 
 20 C        6.8320     6.0030    -1.7910 C.1   1 <1>   0.4840 
 21 N        7.1450     6.8900    -2.4350 N.1   1 <1>  -0.5570 
 22 H        2.3080     2.4190    -0.7100 H     1 <1>   0.0800 
 23 H        0.9300     2.3620     0.3170 H     1 <1>   0.0800 
 24 H       -2.2370     0.3260     0.3340 H     1 <1>   0.0800 
 25 H       -1.8270     0.5650    -1.3540 H     1 <1>   0.0800 
 26 H       -1.2820     1.7060    -0.1450 H     1 <1>   0.0800 
 27 H       -1.3560    -1.8640     0.2130 H     1 <1>   0.0800 
 28 H        0.3330    -2.1350    -0.1240 H     1 <1>   0.0800 
 29 H       -0.7530    -1.7050    -1.4290 H     1 <1>   0.0800 
 30 H        2.8720     2.3030     1.6510 H     1 <1>   0.0800 
 31 H        4.0660     0.5890    -0.3810 H     1 <1>   0.0800 
 32 H        1.3990    -0.2910     1.7090 H     1 <1>   0.0800 
 33 H        1.6680     0.8840     2.9900 H     1 <1>   0.0800 
 34 H        5.2790     1.6160     2.1230 H     1 <1>   0.4000 
 35 H        5.0140    -0.8200     1.7740 H     1 <1>   0.0800 
 36 H        3.6020    -1.3420     0.8560 H     1 <1>   0.0800 
 37 H        7.0150     3.2460     1.8700 H     1 <1>   0.1500 
 38 H        4.9360     4.2580    -2.3540 H     1 <1>   0.1500 
 39 H        7.8320     5.2260     0.6100 H     1 <1>   0.1500 
@<TRIPOS>BOND
  1   1   2  2   
  2   1   3  2   
  3   1   4  am  
  4   1   5  1   
  5   4   6  1   
  6   4   7  1   
  7   5   8  1   
  8   5  22  1   
  9   5  23  1   
 10   6  24  1   
 11   6  25  1   
 12   6  26  1   
 13   7  27  1   
 14   7  28  1   
 15   7  29  1   
 16   8   9  1   
 17   8  10  1   
 18   8  30  1   
 19   9  11  1   
 20   9  12  1   
 21   9  31  1   
 22  10  13  1   
 23  10  32  1   
 24  10  33  1   
 25  11  14  1   
 26  11  34  1   
 27  12  13  1   
 28  12  35  1   
 29  12  36  1   
 30  14  15  ar  
 31  14  16  ar  
 32  15  17  ar  
 33  16  18  ar  
 34  16  37  1   
 35  17  19  ar  
 36  17  38  1   
 37  18  19  ar  
 38  18  39  1   
 39  19  20  1   
 40  20  21  3   
@<TRIPOS>SUBSTRUCTURE
  1 ****   9 GROUP 4 **** **** 0

# MOE 2024.06 (io_trps.svl 2023.06)
