@<TRIPOS>MOLECULE
NONAME
33 34 1 0 0 
SMALL
USER_CHARGES


@<TRIPOS>ATOM
  1 S       -0.4060    -0.3960    -0.1570 S.3   1 <1>  -0.4600 
  2 C       -2.0370    -0.8350    -0.8500 C.3   1 <1>   0.2510 
  3 C        0.3670     0.5740    -1.4780 C.3   1 <1>  -0.0100 
  4 C       -2.8070    -1.7220     0.1170 C.2   1 <1>   0.3350 
  5 N       -3.7480    -1.3230     0.8790 N.2   1 <1>  -0.4100 
  6 N       -2.5580    -3.0210     0.2220 N.2   1 <1>  -0.5650 
  7 O       -4.1640    -2.3560     1.5440 O.3   1 <1>  -0.0190 
  8 C       -3.4200    -3.3410     1.1050 C.2   1 <1>   0.2980 
  9 C       -3.6150    -4.7350     1.6980 C.3   1 <1>   0.2900 
 10 N       -4.7890    -5.4790     1.1690 N.3   1 <1>  -0.8100 
 11 C       -4.7260    -6.9080     1.5690 C.3   1 <1>   0.2900 
 12 C       -6.0700    -4.8630     1.5630 C.3   1 <1>   0.0300 
 13 C       -5.8090    -7.7770     0.9380 C.2   1 <1>   0.2980 
 14 O       -5.8540    -7.9520    -0.3440 O.3   1 <1>  -0.2800 
 15 N       -6.7440    -8.4070     1.5450 N.2   1 <1>  -0.3380 
 16 C       -6.8780    -8.7220    -0.5100 C.2   1 <1>   0.2980 
 17 N       -7.4450    -9.0260     0.5940 N.2   1 <1>  -0.3380 
 18 C       -7.2750    -9.1560    -1.9010 C.3   1 <1>  -0.0600 
 19 H       -1.8670    -1.3500    -1.7770 H     1 <1>   0.0800 
 20 H       -2.5670     0.0830    -1.0240 H     1 <1>   0.0800 
 21 H        1.3420     0.8720    -1.1350 H     1 <1>   0.0800 
 22 H       -0.2510     1.4330    -1.6680 H     1 <1>   0.0800 
 23 H        0.4450    -0.0520    -2.3500 H     1 <1>   0.0800 
 24 H       -3.6880    -4.6490     2.7680 H     1 <1>   0.0800 
 25 H       -2.7230    -5.2930     1.4740 H     1 <1>   0.0800 
 26 H       -4.8060    -6.9860     2.6390 H     1 <1>   0.0800 
 27 H       -3.7750    -7.3160     1.2740 H     1 <1>   0.0800 
 28 H       -6.1400    -3.8640     1.1710 H     1 <1>   0.0800 
 29 H       -6.1640    -4.8300     2.6350 H     1 <1>   0.0800 
 30 H       -6.8960    -5.4240     1.1590 H     1 <1>   0.0800 
 31 H       -6.4670    -9.7000    -2.3540 H     1 <1>   0.0800 
 32 H       -7.5000    -8.2920    -2.4970 H     1 <1>   0.0800 
 33 H       -8.1430    -9.7880    -1.8530 H     1 <1>   0.0800 
@<TRIPOS>BOND
  1   1   2  1   
  2   1   3  1   
  3   2   4  1   
  4   2  19  1   
  5   2  20  1   
  6   3  21  1   
  7   3  22  1   
  8   3  23  1   
  9   4   5  2   
 10   4   6  1   
 11   5   7  1   
 12   6   8  2   
 13   7   8  1   
 14   8   9  1   
 15   9  10  1   
 16   9  24  1   
 17   9  25  1   
 18  10  11  1   
 19  10  12  1   
 20  11  13  1   
 21  11  26  1   
 22  11  27  1   
 23  12  28  1   
 24  12  29  1   
 25  12  30  1   
 26  13  14  1   
 27  13  15  2   
 28  14  16  1   
 29  15  17  1   
 30  16  17  2   
 31  16  18  1   
 32  18  31  1   
 33  18  32  1   
 34  18  33  1   
@<TRIPOS>SUBSTRUCTURE
  1 ****  10 GROUP 4 **** **** 0

# MOE 2024.06 (io_trps.svl 2023.06)
