@<TRIPOS>MOLECULE
NONAME
50 52 1 0 0 
SMALL
USER_CHARGES


@<TRIPOS>ATOM
  1 O       -0.8260     0.9590    -1.0380 O.2   1 <1>  -0.5700 
  2 C       -0.8870     2.1580    -0.8950 C.2   1 <1>   0.5690 
  3 N       -1.7150     2.7730     0.0050 N.am  1 <1>  -0.5090 
  4 C       -0.0110     3.0310    -1.7880 C.3   1 <1>   0.1810 
  5 C       -1.9090     4.2570    -0.0100 C.3   1 <1>   0.3640 
  6 C       -2.5890     2.0260     0.9400 C.3   1 <1>   0.0490 
  7 O        0.2920     4.2580    -1.1730 O.3   1 <1>  -0.5600 
  8 C       -3.3130     4.5900    -0.5270 C.ar  1 <1>  -0.1440 
  9 C       -0.8480     5.0370    -0.8350 C.3   1 <1>   0.2610 
 10 C       -2.4300     2.2650     2.4100 C.3   1 <1>  -0.2000 
 11 C       -2.0040     0.9620     1.8140 C.3   1 <1>  -0.2000 
 12 C       -4.0540     5.5850     0.0970 C.ar  1 <1>  -0.1500 
 13 C       -3.8670     3.9270    -1.6160 C.ar  1 <1>  -0.1500 
 14 C       -0.4160     6.2850    -0.0560 C.2   1 <1>   0.5690 
 15 C       -5.3200     5.9150    -0.3540 C.ar  1 <1>  -0.1500 
 16 C       -5.1320     4.2540    -2.0670 C.ar  1 <1>  -0.1500 
 17 O       -1.2420     7.1010     0.2770 O.2   1 <1>  -0.5700 
 18 N        0.8960     6.4520     0.2540 N.am  1 <1>  -0.7300 
 19 C       -5.8680     5.2470    -1.4440 C.ar  1 <1>   0.0820 
 20 C        1.4570     7.5820     1.0330 C.3   1 <1>   0.2200 
 21 O       -7.0990     5.5070    -1.9510 O.3   1 <1>  -0.3630 
 22 C        1.7830     8.7350     0.0610 C.3   1 <1>   0.1200 
 23 C        2.6830     7.0890     1.8240 C.3   1 <1>   0.1200 
 24 C       -7.9170     6.5170    -1.4030 C.3   1 <1>   0.0400 
 25 O        2.2070     9.8730     0.7450 O.3   1 <1>  -0.6800 
 26 O        3.1740     8.0990     2.6380 O.3   1 <1>  -0.6800 
 27 H       -0.5100     3.2210    -2.7210 H     1 <1>   0.0800 
 28 H        0.9150     2.5230    -1.9830 H     1 <1>   0.0800 
 29 H       -1.8440     4.5940     1.0100 H     1 <1>   0.0800 
 30 H       -3.5810     1.8710     0.5470 H     1 <1>   0.1000 
 31 H       -1.2900     5.3690    -1.7580 H     1 <1>   0.0800 
 32 H       -1.6600     2.9250     2.7680 H     1 <1>   0.1000 
 33 H       -3.3080     2.2740     3.0320 H     1 <1>   0.1000 
 34 H       -2.5940     0.0850     2.0140 H     1 <1>   0.1000 
 35 H       -0.9560     0.7410     1.7180 H     1 <1>   0.1000 
 36 H       -3.6460     6.1200     0.9390 H     1 <1>   0.1500 
 37 H       -3.3250     3.1460    -2.1210 H     1 <1>   0.1500 
 38 H       -5.8600     6.6910     0.1540 H     1 <1>   0.1500 
 39 H       -5.5610     3.7390    -2.9080 H     1 <1>   0.1500 
 40 H        1.5500     5.7410    -0.0930 H     1 <1>   0.3700 
 41 H        0.7040     7.9110     1.7290 H     1 <1>   0.0800 
 42 H        0.9100     9.0000    -0.5110 H     1 <1>   0.0800 
 43 H        2.5730     8.4440    -0.6080 H     1 <1>   0.0800 
 44 H        3.4730     6.7950     1.1560 H     1 <1>   0.0800 
 45 H        2.4180     6.2620     2.4600 H     1 <1>   0.0800 
 46 H       -8.8320     6.5480    -1.9660 H     1 <1>   0.0800 
 47 H       -7.4060     7.4610    -1.4830 H     1 <1>   0.0800 
 48 H       -8.1270     6.2770    -0.3760 H     1 <1>   0.0800 
 49 H        1.4430    10.3250     1.1620 H     1 <1>   0.4000 
 50 H        3.2060     8.9390     2.1180 H     1 <1>   0.4000 
@<TRIPOS>BOND
  1   1   2  2   
  2   2   3  am  
  3   2   4  1   
  4   3   5  1   
  5   3   6  1   
  6   4   7  1   
  7   4  27  1   
  8   4  28  1   
  9   5   8  1   
 10   5   9  1   
 11   5  29  1   
 12   6  10  1   
 13   6  11  1   
 14   6  30  1   
 15   7   9  1   
 16   8  12  ar  
 17   8  13  ar  
 18   9  14  1   
 19   9  31  1   
 20  10  11  1   
 21  10  32  1   
 22  10  33  1   
 23  11  34  1   
 24  11  35  1   
 25  12  15  ar  
 26  12  36  1   
 27  13  16  ar  
 28  13  37  1   
 29  14  17  2   
 30  14  18  am  
 31  15  19  ar  
 32  15  38  1   
 33  16  19  ar  
 34  16  39  1   
 35  18  20  1   
 36  18  40  1   
 37  19  21  1   
 38  20  22  1   
 39  20  23  1   
 40  20  41  1   
 41  21  24  1   
 42  22  25  1   
 43  22  42  1   
 44  22  43  1   
 45  23  26  1   
 46  23  44  1   
 47  23  45  1   
 48  24  46  1   
 49  24  47  1   
 50  24  48  1   
 51  25  49  1   
 52  26  50  1   
@<TRIPOS>SUBSTRUCTURE
  1 ****   5 GROUP 4 **** **** 0

# MOE 2024.06 (io_trps.svl 2023.06)
