@<TRIPOS>MOLECULE
NONAME
45 46 1 0 0 
SMALL
USER_CHARGES


@<TRIPOS>ATOM
  1 S        0.9850     1.6580    -1.3810 S.o2  1 <1>   1.3330 
  2 O        0.7990     2.7880    -2.2640 O.2   1 <1>  -0.6500 
  3 O        1.1710     0.3450    -1.9540 O.2   1 <1>  -0.6500 
  4 N        2.3210     1.9650    -0.3830 N.am  1 <1>  -0.8490 
  5 C       -0.4200     1.5780    -0.2570 C.3   1 <1>  -0.0550 
  6 C        2.8750     0.7660     0.2520 C.3   1 <1>   0.1160 
  7 C        3.3860     2.6990    -1.0720 C.3   1 <1>   0.1160 
  8 C       -0.7800     2.8090     0.6140 C.3   1 <1>  -0.0800 
  9 C       -0.9180     4.1280    -0.1590 C.3   1 <1>   0.2000 
 10 C        0.2240     3.1050     1.7390 C.3   1 <1>   0.1400 
 11 O       -1.9440     4.8480     0.4340 O.3   1 <1>  -0.6800 
 12 C        0.3860     4.8850     0.0890 C.3   1 <1>   0.1400 
 13 N        0.8470     4.4100     1.4160 N.am  1 <1>  -0.6600 
 14 C        1.8520     4.9380     2.1800 C.2   1 <1>   0.5690 
 15 O        2.1990     4.4060     3.2090 O.2   1 <1>  -0.5700 
 16 C        2.5460     6.2340     1.7830 C.3   1 <1>   0.0440 
 17 C        3.6100     6.0210     0.7060 C.ar  1 <1>  -0.1440 
 18 C        3.5050     6.5130    -0.5930 C.ar  1 <1>   0.0820 
 19 C        4.7410     5.2930     1.0480 C.ar  1 <1>  -0.1500 
 20 O        2.4580     7.2550    -0.9870 O.3   1 <1>  -0.5330 
 21 C        4.4970     6.2630    -1.5260 C.ar  1 <1>  -0.1500 
 22 C        5.7430     5.0570     0.1210 C.ar  1 <1>  -0.1500 
 23 C        5.6190     5.5380    -1.1710 C.ar  1 <1>  -0.1500 
 24 H       -1.2840     1.3510    -0.8510 H     1 <1>   0.0800 
 25 H       -0.2790     0.7410     0.3980 H     1 <1>   0.0800 
 26 H        3.6450     1.0440     0.9530 H     1 <1>   0.0800 
 27 H        3.2960     0.1080    -0.4910 H     1 <1>   0.0800 
 28 H        2.1050     0.2370     0.7860 H     1 <1>   0.0800 
 29 H        4.2080     2.8740    -0.4020 H     1 <1>   0.0800 
 30 H        3.0230     3.6540    -1.4110 H     1 <1>   0.0800 
 31 H        3.7350     2.1400    -1.9250 H     1 <1>   0.0800 
 32 H       -1.7240     2.5670     1.0720 H     1 <1>   0.0800 
 33 H       -1.1520     4.0110    -1.2040 H     1 <1>   0.0800 
 34 H        0.9820     2.3460     1.8240 H     1 <1>   0.0800 
 35 H       -0.2830     3.1890     2.6850 H     1 <1>   0.0800 
 36 H       -1.6940     5.0500     1.3570 H     1 <1>   0.4000 
 37 H        0.2240     5.9480     0.0710 H     1 <1>   0.0800 
 38 H        1.1210     4.6290    -0.6520 H     1 <1>   0.0800 
 39 H        1.8060     6.9480     1.4840 H     1 <1>   0.0800 
 40 H        3.0250     6.6360     2.6570 H     1 <1>   0.0800 
 41 H        4.8470     4.9020     2.0470 H     1 <1>   0.1500 
 42 H        1.9130     7.5770    -0.2500 H     1 <1>   0.4500 
 43 H        4.3890     6.6460    -2.5260 H     1 <1>   0.1500 
 44 H        6.6160     4.4960     0.4060 H     1 <1>   0.1500 
 45 H        6.3930     5.3520    -1.8950 H     1 <1>   0.1500 
@<TRIPOS>BOND
  1   1   2  2   
  2   1   3  2   
  3   1   4  am  
  4   1   5  1   
  5   4   6  1   
  6   4   7  1   
  7   5   8  1   
  8   5  24  1   
  9   5  25  1   
 10   6  26  1   
 11   6  27  1   
 12   6  28  1   
 13   7  29  1   
 14   7  30  1   
 15   7  31  1   
 16   8   9  1   
 17   8  10  1   
 18   8  32  1   
 19   9  11  1   
 20   9  12  1   
 21   9  33  1   
 22  10  13  1   
 23  10  34  1   
 24  10  35  1   
 25  11  36  1   
 26  12  13  1   
 27  12  37  1   
 28  12  38  1   
 29  13  14  am  
 30  14  15  2   
 31  14  16  1   
 32  16  17  1   
 33  16  39  1   
 34  16  40  1   
 35  17  18  ar  
 36  17  19  ar  
 37  18  20  1   
 38  18  21  ar  
 39  19  22  ar  
 40  19  41  1   
 41  20  42  1   
 42  21  23  ar  
 43  21  43  1   
 44  22  23  ar  
 45  22  44  1   
 46  23  45  1   
@<TRIPOS>SUBSTRUCTURE
  1 ****  13 GROUP 4 **** **** 0

# MOE 2024.06 (io_trps.svl 2023.06)
