@<TRIPOS>MOLECULE
NONAME
45 46 1 0 0 
SMALL
USER_CHARGES


@<TRIPOS>ATOM
  1 F        0.8910     0.9050     1.3370 F     1 <1>  -0.1900 
  2 C        2.0180     1.3110     0.7900 C.ar  1 <1>   0.1900 
  3 C        2.8630     0.4380     0.1040 C.ar  1 <1>   0.4100 
  4 C        2.3700     2.6260     0.9090 C.ar  1 <1>   0.1600 
  5 N        3.9920     0.9000    -0.4030 N.ar  1 <1>  -0.6200 
  6 N        2.5990    -0.9150    -0.0900 N.pl3 1 <1>  -0.8380 
  7 N        3.4930     3.0980     0.3930 N.ar  1 <1>  -0.6200 
  8 C        4.2360     2.1820    -0.2260 C.ar  1 <1>   0.7200 
  9 C        1.2460    -1.3970    -0.4810 C.3   1 <1>   0.1290 
 10 C        3.7050    -1.8910    -0.3010 C.3   1 <1>   0.1290 
 11 N        5.4110     2.5840    -0.7650 N.pl3 1 <1>  -0.8690 
 12 C        5.6590     3.9690    -1.2310 C.3   1 <1>   0.2090 
 13 C        6.0300     4.8780    -0.0260 C.3   1 <1>   0.4230 
 14 N        5.3950     6.2490    -0.0600 N.4   1 <1>  -0.9590 
 15 C        7.5610     4.9960     0.0680 C.3   1 <1>  -0.1600 
 16 C        5.8120     7.0750     1.1160 C.3   1 <1>   0.3430 
 17 C        3.9050     6.1550    -0.0820 C.3   1 <1>   0.3430 
 18 C        8.0220     5.8740     1.2340 C.3   1 <1>  -0.1600 
 19 C        7.3300     7.2360     1.1600 C.3   1 <1>  -0.1600 
 20 C        3.3110     7.4680    -0.5790 C.3   1 <1>  -0.2400 
 21 H        1.7180     3.2980     1.4390 H     1 <1>   0.1500 
 22 H        0.6100    -0.5690    -0.7410 H     1 <1>   0.0800 
 23 H        0.8040    -1.9350     0.3400 H     1 <1>   0.0800 
 24 H        1.3180    -2.0500    -1.3330 H     1 <1>   0.0800 
 25 H        4.5930    -1.5630     0.2110 H     1 <1>   0.0800 
 26 H        3.9190    -1.9760    -1.3520 H     1 <1>   0.0800 
 27 H        3.4240    -2.8550     0.0870 H     1 <1>   0.0800 
 28 H        5.7960     1.8330    -1.3450 H     1 <1>   0.4000 
 29 H        4.7820     4.3180    -1.7440 H     1 <1>   0.0800 
 30 H        6.4630     3.9530    -1.9470 H     1 <1>   0.0800 
 31 H        5.6790     4.3780     0.8630 H     1 <1>   0.0800 
 32 H        5.7120     6.7230    -0.9120 H     1 <1>   0.4500 
 33 H        7.9500     5.3950    -0.8530 H     1 <1>   0.0800 
 34 H        7.9770     4.0100     0.1920 H     1 <1>   0.0800 
 35 H        5.4810     6.6000     2.0260 H     1 <1>   0.0800 
 36 H        5.3590     8.0520     1.0640 H     1 <1>   0.0800 
 37 H        3.5340     5.9220     0.9040 H     1 <1>   0.0800 
 38 H        3.5830     5.3660    -0.7410 H     1 <1>   0.0800 
 39 H        9.0910     6.0020     1.1990 H     1 <1>   0.0800 
 40 H        7.7780     5.3920     2.1670 H     1 <1>   0.0800 
 41 H        7.5960     7.8160     2.0270 H     1 <1>   0.0800 
 42 H        7.6640     7.7800     0.2930 H     1 <1>   0.0800 
 43 H        3.5080     8.2770     0.1000 H     1 <1>   0.0800 
 44 H        2.2440     7.3600    -0.6550 H     1 <1>   0.0800 
 45 H        3.6870     7.7120    -1.5570 H     1 <1>   0.0800 
@<TRIPOS>BOND
  1   1   2  1   
  2   2   3  ar  
  3   2   4  ar  
  4   3   5  ar  
  5   3   6  1   
  6   4   7  ar  
  7   4  21  1   
  8   5   8  ar  
  9   6   9  1   
 10   6  10  1   
 11   7   8  ar  
 12   8  11  1   
 13   9  22  1   
 14   9  23  1   
 15   9  24  1   
 16  10  25  1   
 17  10  26  1   
 18  10  27  1   
 19  11  12  1   
 20  11  28  1   
 21  12  13  1   
 22  12  29  1   
 23  12  30  1   
 24  13  14  1   
 25  13  15  1   
 26  13  31  1   
 27  14  16  1   
 28  14  17  1   
 29  14  32  1   
 30  15  18  1   
 31  15  33  1   
 32  15  34  1   
 33  16  19  1   
 34  16  35  1   
 35  16  36  1   
 36  17  20  1   
 37  17  37  1   
 38  17  38  1   
 39  18  19  1   
 40  18  39  1   
 41  18  40  1   
 42  19  41  1   
 43  19  42  1   
 44  20  43  1   
 45  20  44  1   
 46  20  45  1   
@<TRIPOS>SUBSTRUCTURE
  1 ****   7 GROUP 4 **** **** 0

# MOE 2024.06 (io_trps.svl 2023.06)
