@<TRIPOS>MOLECULE
NONAME
47 48 1 0 0 
SMALL
USER_CHARGES


@<TRIPOS>ATOM
  1 O        1.2860    -0.7370     1.5930 O.co2 1 <1>  -0.9000 
  2 C        2.2940    -0.0320     1.5430 C.2   1 <1>   0.9060 
  3 O        3.2050    -0.1310     2.3770 O.co2 1 <1>  -0.9000 
  4 C        2.5290     0.9140     0.3520 C.3   1 <1>  -0.1060 
  5 C        3.6300     0.2300    -0.4980 C.3   1 <1>   0.2000 
  6 C        3.0610     2.2970     0.8380 C.3   1 <1>  -0.1600 
  7 C        1.2450     1.0980    -0.5270 C.3   1 <1>  -0.1600 
  8 O        4.7540     0.0000     0.2950 O.3   1 <1>  -0.6800 
  9 C        4.0970     1.1400    -1.6440 C.3   1 <1>   0.3430 
 10 C        3.5930     3.1670    -0.3000 C.3   1 <1>   0.3430 
 11 C        0.0690     1.8170     0.1590 C.3   1 <1>  -0.1600 
 12 N        4.6260     2.4000    -1.0490 N.4   1 <1>  -0.9590 
 13 C       -1.1730     1.8100    -0.7380 C.3   1 <1>  -0.2400 
 14 C        5.4890     3.2080    -1.9350 C.3   1 <1>   0.4860 
 15 C        6.2320     4.2250    -1.0880 C.ar  1 <1>  -0.1440 
 16 C        7.0570     3.7960    -0.0510 C.ar  1 <1>   0.0820 
 17 C        6.0810     5.5830    -1.3300 C.ar  1 <1>  -0.1500 
 18 O        7.1680     2.4580     0.1500 O.3   1 <1>  -0.3620 
 19 C        7.7200     4.7300     0.7370 C.ar  1 <1>  -0.1500 
 20 C        6.7440     6.5070    -0.5420 C.ar  1 <1>  -0.1500 
 21 C        7.5660     1.9330     1.4000 C.3   1 <1>   0.0400 
 22 C        7.5610     6.0820     0.4900 C.ar  1 <1>  -0.1500 
 23 H        3.2850    -0.7220    -0.8660 H     1 <1>   0.0800 
 24 H        3.8630     2.1520     1.5420 H     1 <1>   0.0800 
 25 H        2.2980     2.8250     1.3790 H     1 <1>   0.0800 
 26 H        1.4650     1.6340    -1.4300 H     1 <1>   0.0800 
 27 H        0.9030     0.1170    -0.8180 H     1 <1>   0.0800 
 28 H        4.4110    -0.2220     1.2200 H     1 <1>   0.4000 
 29 H        3.2820     1.3500    -2.3140 H     1 <1>   0.0800 
 30 H        4.8710     0.6290    -2.1900 H     1 <1>   0.0800 
 31 H        4.0250     4.0640     0.1150 H     1 <1>   0.0800 
 32 H        2.7870     3.4450    -0.9580 H     1 <1>   0.0800 
 33 H       -0.1720     1.3210     1.0850 H     1 <1>   0.0800 
 34 H        0.3200     2.8370     0.3830 H     1 <1>   0.0800 
 35 H        5.2760     2.0430    -0.3160 H     1 <1>   0.4500 
 36 H       -1.4760     0.7970    -0.9410 H     1 <1>   0.0800 
 37 H       -0.9760     2.3100    -1.6690 H     1 <1>   0.0800 
 38 H       -1.9850     2.3110    -0.2410 H     1 <1>   0.0800 
 39 H        6.2090     2.5700    -2.4220 H     1 <1>   0.0800 
 40 H        4.8970     3.7030    -2.6860 H     1 <1>   0.0800 
 41 H        5.4510     5.9360    -2.1290 H     1 <1>   0.1500 
 42 H        8.3670     4.4220     1.5380 H     1 <1>   0.1500 
 43 H        6.6270     7.5620    -0.7310 H     1 <1>   0.1500 
 44 H        7.4020     0.8690     1.3840 H     1 <1>   0.0800 
 45 H        6.9680     2.3770     2.1770 H     1 <1>   0.0800 
 46 H        8.6100     2.1380     1.5520 H     1 <1>   0.0800 
 47 H        8.0770     6.8040     1.1000 H     1 <1>   0.1500 
@<TRIPOS>BOND
  1   1   2  ar  
  2   2   3  ar  
  3   2   4  1   
  4   4   5  1   
  5   4   6  1   
  6   4   7  1   
  7   5   8  1   
  8   5   9  1   
  9   5  23  1   
 10   6  10  1   
 11   6  24  1   
 12   6  25  1   
 13   7  11  1   
 14   7  26  1   
 15   7  27  1   
 16   8  28  1   
 17   9  12  1   
 18   9  29  1   
 19   9  30  1   
 20  10  12  1   
 21  10  31  1   
 22  10  32  1   
 23  11  13  1   
 24  11  33  1   
 25  11  34  1   
 26  12  14  1   
 27  12  35  1   
 28  13  36  1   
 29  13  37  1   
 30  13  38  1   
 31  14  15  1   
 32  14  39  1   
 33  14  40  1   
 34  15  16  ar  
 35  15  17  ar  
 36  16  18  1   
 37  16  19  ar  
 38  17  20  ar  
 39  17  41  1   
 40  18  21  1   
 41  19  22  ar  
 42  19  42  1   
 43  20  22  ar  
 44  20  43  1   
 45  21  44  1   
 46  21  45  1   
 47  21  46  1   
 48  22  47  1   
@<TRIPOS>SUBSTRUCTURE
  1 ****  10 GROUP 4 **** **** 0

# MOE 2024.06 (io_trps.svl 2023.06)
