@<TRIPOS>MOLECULE
NONAME
35 37 1 0 0 
SMALL
USER_CHARGES


@<TRIPOS>ATOM
  1 CL      -0.1490    -0.4020     0.7970 Cl    1 <1>  -0.1230 
  2 C       -0.7590    -1.9990     0.4030 C.2   1 <1>   0.1230 
  3 C       -0.0870    -3.1960     0.5940 C.2   1 <1>   0.1390 
  4 C       -1.9510    -2.3130    -0.1350 C.2   1 <1>  -0.3020 
  5 N       -0.8080    -4.2060     0.2020 N.2   1 <1>  -0.7070 
  6 N       -1.9620    -3.6590    -0.2500 N.pl3 1 <1>   0.3140 
  7 C       -3.0650    -4.4760    -0.7890 C.3   1 <1>   0.0960 
  8 C       -3.4520    -5.5720     0.2060 C.3   1 <1>   0.1100 
  9 N       -4.6910    -6.2420    -0.2290 N.3   1 <1>  -0.8100 
 10 C       -4.8670    -7.5640     0.3980 C.3   1 <1>   0.3700 
 11 C       -5.9080    -5.4920     0.0810 C.3   1 <1>   0.1100 
 12 C       -3.9210    -8.6430    -0.1370 C.2   1 <1>   0.2980 
 13 C       -6.3410    -7.8830     0.1610 C.3   1 <1>  -0.1600 
 14 C       -7.0320    -6.5230     0.0520 C.3   1 <1>  -0.1600 
 15 O       -3.8670    -8.8590    -1.4290 O.3   1 <1>  -0.0190 
 16 N       -3.1550    -9.3770     0.5720 N.2   1 <1>  -0.5650 
 17 N       -2.9920    -9.8110    -1.5520 N.2   1 <1>  -0.4100 
 18 C       -2.5860   -10.0970    -0.3820 C.2   1 <1>   0.3350 
 19 C       -1.5540   -11.1470    -0.0510 C.3   1 <1>  -0.0590 
 20 H        0.9020    -3.2820     1.0110 H     1 <1>   0.1500 
 21 H       -2.7600    -1.6740    -0.4320 H     1 <1>   0.1500 
 22 H       -2.7410    -4.9230    -1.7100 H     1 <1>   0.0800 
 23 H       -3.9020    -3.8330    -0.9800 H     1 <1>   0.0800 
 24 H       -3.5800    -5.1570     1.1920 H     1 <1>   0.0800 
 25 H       -2.6460    -6.2860     0.2410 H     1 <1>   0.0800 
 26 H       -4.7070    -7.4670     1.4590 H     1 <1>   0.0800 
 27 H       -6.0730    -4.7090    -0.6410 H     1 <1>   0.0800 
 28 H       -5.8390    -5.0630     1.0680 H     1 <1>   0.0800 
 29 H       -6.7370    -8.4800     0.9630 H     1 <1>   0.0800 
 30 H       -6.4540    -8.4220    -0.7630 H     1 <1>   0.0800 
 31 H       -7.5710    -6.4510    -0.8770 H     1 <1>   0.0800 
 32 H       -7.7160    -6.3550     0.8650 H     1 <1>   0.0800 
 33 H       -1.9870   -11.8850     0.5980 H     1 <1>   0.0800 
 34 H       -0.7200   -10.6860     0.4440 H     1 <1>   0.0800 
 35 H       -1.2120   -11.6240    -0.9500 H     1 <1>   0.0800 
@<TRIPOS>BOND
  1   1   2  1   
  2   2   3  1   
  3   2   4  2   
  4   3   5  2   
  5   3  20  1   
  6   4   6  1   
  7   4  21  1   
  8   5   6  1   
  9   6   7  1   
 10   7   8  1   
 11   7  22  1   
 12   7  23  1   
 13   8   9  1   
 14   8  24  1   
 15   8  25  1   
 16   9  10  1   
 17   9  11  1   
 18  10  12  1   
 19  10  13  1   
 20  10  26  1   
 21  11  14  1   
 22  11  27  1   
 23  11  28  1   
 24  12  15  1   
 25  12  16  2   
 26  13  14  1   
 27  13  29  1   
 28  13  30  1   
 29  14  31  1   
 30  14  32  1   
 31  15  17  1   
 32  16  18  1   
 33  17  18  2   
 34  18  19  1   
 35  19  33  1   
 36  19  34  1   
 37  19  35  1   
@<TRIPOS>SUBSTRUCTURE
  1 ****   8 GROUP 4 **** **** 0

# MOE 2024.06 (io_trps.svl 2023.06)
