@<TRIPOS>MOLECULE
NONAME
49 52 1 0 0 
SMALL
USER_CHARGES


@<TRIPOS>ATOM
  1 O       -0.4070    -0.4120     0.2610 O.2   1 <1>  -0.5700 
  2 C       -1.3450     0.3310     0.0450 C.2   1 <1>   0.7160 
  3 N       -2.4930    -0.2150    -0.4340 N.am  1 <1>  -0.7300 
  4 C       -1.2770     1.7400     0.3010 C.2   1 <1>  -0.0860 
  5 C       -2.8160    -1.6460    -0.5360 C.3   1 <1>   0.2350 
  6 C       -2.3740     2.6090     0.3810 C.2   1 <1>   0.3720 
  7 C       -0.2140     2.5720     0.4910 C.2   1 <1>   0.0870 
  8 C       -4.1770    -1.8760     0.1330 C.3   1 <1>  -0.1900 
  9 N       -1.9990     3.8230     0.5780 N.2   1 <1>  -0.4100 
 10 N       -3.7210     2.2360     0.2830 N.pl3 1 <1>  -0.8210 
 11 O       -0.6970     3.7800     0.6400 O.3   1 <1>  -0.0190 
 12 C        1.2130     2.3820     0.5390 C.ar  1 <1>   0.0530 
 13 C       -5.4060    -1.5170    -0.6520 C.3   1 <1>  -0.2000 
 14 C       -5.0560    -2.9630    -0.4100 C.3   1 <1>  -0.2000 
 15 C       -4.0850    -1.6490     1.6570 C.3   1 <1>   0.2150 
 16 C       -4.4130     2.2230     1.6100 C.3   1 <1>   0.2090 
 17 C       -4.5120     3.0620    -0.6810 C.3   1 <1>   0.2090 
 18 C        2.0600     3.2360    -0.1670 C.ar  1 <1>  -0.1500 
 19 C        1.8050     1.3690     1.2930 C.ar  1 <1>  -0.1500 
 20 O       -5.3460    -1.6210     2.2230 O.3   1 <1>  -0.6800 
 21 C       -5.8830     1.7870     1.4660 C.3   1 <1>   0.1200 
 22 C       -5.9720     2.5790    -0.7440 C.3   1 <1>   0.1200 
 23 C        3.4340     3.0830    -0.1310 C.ar  1 <1>  -0.1500 
 24 C        3.1770     1.2080     1.3320 C.ar  1 <1>  -0.1500 
 25 O       -6.5540     2.5860     0.5290 O.3   1 <1>  -0.5600 
 26 C        3.9960     2.0650     0.6200 C.ar  1 <1>  -0.1500 
 27 H       -3.3000     0.4250    -0.4480 H     1 <1>   0.3700 
 28 H       -2.0550    -2.2420    -0.0600 H     1 <1>   0.0800 
 29 H       -2.8580    -1.9180    -1.5770 H     1 <1>   0.0800 
 30 H       -5.2940    -1.1250    -1.6480 H     1 <1>   0.1000 
 31 H       -6.2740    -1.1170    -0.1580 H     1 <1>   0.1000 
 32 H       -5.6800    -3.5350     0.2540 H     1 <1>   0.1000 
 33 H       -4.7150    -3.5500    -1.2450 H     1 <1>   0.1000 
 34 H       -3.6120    -0.7100     1.8840 H     1 <1>   0.0800 
 35 H       -3.5230    -2.4400     2.1220 H     1 <1>   0.0800 
 36 H       -4.3790     3.2070     2.0470 H     1 <1>   0.0800 
 37 H       -3.9060     1.5470     2.2750 H     1 <1>   0.0800 
 38 H       -4.0670     2.9940    -1.6590 H     1 <1>   0.0800 
 39 H       -4.4960     4.0960    -0.3790 H     1 <1>   0.0800 
 40 H        1.6330     4.0310    -0.7520 H     1 <1>   0.1500 
 41 H        1.1820     0.6990     1.8570 H     1 <1>   0.1500 
 42 H       -5.8700    -2.3620     1.8630 H     1 <1>   0.4000 
 43 H       -6.3930     1.8830     2.4070 H     1 <1>   0.0800 
 44 H       -5.9410     0.7620     1.1490 H     1 <1>   0.0800 
 45 H       -6.0210     1.5790    -1.1390 H     1 <1>   0.0800 
 46 H       -6.5520     3.2310    -1.3730 H     1 <1>   0.0800 
 47 H        4.0670     3.7530    -0.6850 H     1 <1>   0.1500 
 48 H        3.6080     0.4150     1.9180 H     1 <1>   0.1500 
 49 H        5.0650     1.9410     0.6490 H     1 <1>   0.1500 
@<TRIPOS>BOND
  1   1   2  2   
  2   2   3  am  
  3   2   4  1   
  4   3   5  1   
  5   3  27  1   
  6   4   6  1   
  7   4   7  2   
  8   5   8  1   
  9   5  28  1   
 10   5  29  1   
 11   6   9  2   
 12   6  10  1   
 13   7  11  1   
 14   7  12  1   
 15   8  13  1   
 16   8  14  1   
 17   8  15  1   
 18   9  11  1   
 19  10  16  1   
 20  10  17  1   
 21  12  18  ar  
 22  12  19  ar  
 23  13  14  1   
 24  13  30  1   
 25  13  31  1   
 26  14  32  1   
 27  14  33  1   
 28  15  20  1   
 29  15  34  1   
 30  15  35  1   
 31  16  21  1   
 32  16  36  1   
 33  16  37  1   
 34  17  22  1   
 35  17  38  1   
 36  17  39  1   
 37  18  23  ar  
 38  18  40  1   
 39  19  24  ar  
 40  19  41  1   
 41  20  42  1   
 42  21  25  1   
 43  21  43  1   
 44  21  44  1   
 45  22  25  1   
 46  22  45  1   
 47  22  46  1   
 48  23  26  ar  
 49  23  47  1   
 50  24  26  ar  
 51  24  48  1   
 52  26  49  1   
@<TRIPOS>SUBSTRUCTURE
  1 ****   4 GROUP 4 **** **** 0

# MOE 2024.06 (io_trps.svl 2023.06)
