@<TRIPOS>MOLECULE
NONAME
45 47 1 0 0 
SMALL
USER_CHARGES


@<TRIPOS>ATOM
  1 F        0.7620     0.9290     2.3130 F     1 <1>  -0.1900 
  2 C        1.6490     1.2020     1.3900 C.ar  1 <1>   0.1900 
  3 C        1.9460     2.5190     1.0810 C.ar  1 <1>   0.1900 
  4 C        2.2660     0.1550     0.7300 C.ar  1 <1>  -0.1440 
  5 F        1.3490     3.4970     1.7140 F     1 <1>  -0.1900 
  6 C        2.8710     2.8230     0.1010 C.ar  1 <1>  -0.1500 
  7 C        3.1950     0.4520    -0.2650 C.ar  1 <1>   0.0830 
  8 C        1.9390    -1.2770     1.0990 C.3   1 <1>   0.4860 
  9 C        3.4950     1.7830    -0.5730 C.ar  1 <1>  -0.1500 
 10 O        3.7690    -0.6020    -0.9060 O.3   1 <1>  -0.3630 
 11 N        1.3730    -1.9560    -0.0940 N.4   1 <1>  -0.9590 
 12 C        4.8810    -0.4210    -1.7630 C.3   1 <1>   0.0400 
 13 C        0.0510    -1.4020    -0.5470 C.3   1 <1>   0.3430 
 14 C        1.2340    -3.4320     0.0570 C.3   1 <1>   0.3430 
 15 C       -0.9230    -2.5860    -0.5830 C.3   1 <1>   0.2000 
 16 C       -0.0130    -3.8030    -0.7430 C.3   1 <1>  -0.0800 
 17 O       -1.6110    -2.6540     0.6240 O.3   1 <1>  -0.6800 
 18 C       -0.6150    -5.1720    -0.3650 C.3   1 <1>   0.0200 
 19 C        0.4730    -6.2280    -0.3220 C.2   1 <1>  -0.0400 
 20 O        1.3450    -6.3020    -1.2910 O.3   1 <1>  -0.0190 
 21 C        0.7780    -7.1720     0.5810 C.2   1 <1>  -0.1500 
 22 N        2.2290    -7.2290    -1.0770 N.2   1 <1>  -0.4100 
 23 C        1.9070    -7.7810     0.0390 C.2   1 <1>   0.1080 
 24 C        2.6600    -8.9330     0.6660 C.3   1 <1>  -0.0590 
 25 H        3.0940     3.8510    -0.1280 H     1 <1>   0.1500 
 26 H        1.2380    -1.3080     1.9170 H     1 <1>   0.0800 
 27 H        2.8460    -1.7730     1.4060 H     1 <1>   0.0800 
 28 H        4.2090     2.0340    -1.3370 H     1 <1>   0.1500 
 29 H        2.0690    -1.7650    -0.8370 H     1 <1>   0.4500 
 30 H        5.2270    -1.3890    -2.0800 H     1 <1>   0.0800 
 31 H        5.6640     0.0830    -1.2220 H     1 <1>   0.0800 
 32 H        4.5780     0.1540    -2.6210 H     1 <1>   0.0800 
 33 H       -0.3160    -0.6290     0.1100 H     1 <1>   0.0800 
 34 H        0.1570    -0.9970    -1.5400 H     1 <1>   0.0800 
 35 H        2.1050    -3.9550    -0.3080 H     1 <1>   0.0800 
 36 H        1.0800    -3.6870     1.0930 H     1 <1>   0.0800 
 37 H       -1.6490    -2.4960    -1.3750 H     1 <1>   0.0800 
 38 H        0.2860    -3.8560    -1.7760 H     1 <1>   0.0800 
 39 H       -1.0240    -2.6890     1.4030 H     1 <1>   0.4000 
 40 H       -1.3530    -5.4530    -1.0950 H     1 <1>   0.0800 
 41 H       -1.0970    -5.1410     0.5960 H     1 <1>   0.0800 
 42 H        0.2990    -7.4310     1.5070 H     1 <1>   0.1500 
 43 H        2.9860    -8.6660     1.6550 H     1 <1>   0.0800 
 44 H        3.5210    -9.1770     0.0700 H     1 <1>   0.0800 
 45 H        2.0230    -9.7970     0.7240 H     1 <1>   0.0800 
@<TRIPOS>BOND
  1   1   2  1   
  2   2   3  ar  
  3   2   4  ar  
  4   3   5  1   
  5   3   6  ar  
  6   4   7  ar  
  7   4   8  1   
  8   6   9  ar  
  9   6  25  1   
 10   7   9  ar  
 11   7  10  1   
 12   8  11  1   
 13   8  26  1   
 14   8  27  1   
 15   9  28  1   
 16  10  12  1   
 17  11  13  1   
 18  11  14  1   
 19  11  29  1   
 20  12  30  1   
 21  12  31  1   
 22  12  32  1   
 23  13  15  1   
 24  13  33  1   
 25  13  34  1   
 26  14  16  1   
 27  14  35  1   
 28  14  36  1   
 29  15  16  1   
 30  15  17  1   
 31  15  37  1   
 32  16  18  1   
 33  16  38  1   
 34  17  39  1   
 35  18  19  1   
 36  18  40  1   
 37  18  41  1   
 38  19  20  1   
 39  19  21  2   
 40  20  22  1   
 41  21  23  1   
 42  21  42  1   
 43  22  23  2   
 44  23  24  1   
 45  24  43  1   
 46  24  44  1   
 47  24  45  1   
@<TRIPOS>SUBSTRUCTURE
  1 ****  11 GROUP 4 **** **** 0

# MOE 2024.06 (io_trps.svl 2023.06)
