@<TRIPOS>MOLECULE
NONAME
51 54 1 0 0 
SMALL
USER_CHARGES


@<TRIPOS>ATOM
  1 O        5.4180    -0.6810    -1.3750 O.2   1 <1>  -0.5700 
  2 C        4.2230    -0.8750    -1.2660 C.2   1 <1>   0.5440 
  3 N        3.3870     0.0730    -1.8080 N.am  1 <1>  -0.6600 
  4 C        3.7300    -2.0090    -0.5210 C.ar  1 <1>   0.0860 
  5 C        3.7930     0.8480    -3.0330 C.3   1 <1>   0.1400 
  6 C        2.2970     0.6890    -1.0060 C.3   1 <1>   0.1400 
  7 C        4.4100    -2.5260     0.5660 C.ar  1 <1>   0.1600 
  8 C        2.5500    -2.6540    -0.8370 C.ar  1 <1>   0.1600 
  9 C        4.8250     1.9630    -2.7440 C.3   1 <1>   0.3430 
 10 C        2.8800     1.7140    -0.0220 C.3   1 <1>  -0.1600 
 11 N        3.9630    -3.5370     1.2770 N.ar  1 <1>  -0.6200 
 12 N        2.0740    -3.6660    -0.1470 N.ar  1 <1>  -0.6200 
 13 N        4.9470     2.2490    -1.2830 N.4   1 <1>  -0.9590 
 14 C        3.7230     2.8220    -0.6630 C.3   1 <1>   0.3430 
 15 C        2.8090    -4.0550     0.8840 C.ar  1 <1>   0.5880 
 16 C        6.1960     2.9750    -0.9370 C.3   1 <1>   0.4860 
 17 C        2.2760    -5.2250     1.6980 C.3   1 <1>  -0.0680 
 18 C        6.5930     2.5610     0.4590 C.ar  1 <1>  -0.1440 
 19 C        0.8940    -5.1970     2.2870 C.3   1 <1>  -0.2000 
 20 C        2.0880    -5.1170     3.1850 C.3   1 <1>  -0.2000 
 21 C        7.3510     1.4020     0.6140 C.ar  1 <1>   0.4100 
 22 C        6.2420     3.2880     1.5770 C.ar  1 <1>  -0.1500 
 23 N        7.7450     0.9190     1.7710 N.ar  1 <1>  -0.6200 
 24 N        7.7580     0.6640    -0.4480 N.pl3 1 <1>  -0.9000 
 25 C        6.6620     2.7940     2.7960 C.ar  1 <1>  -0.1500 
 26 C        7.3970     1.6220     2.8350 C.ar  1 <1>   0.1600 
 27 H        2.9200     1.2810    -3.4900 H     1 <1>   0.0800 
 28 H        4.2170     0.1690    -3.7530 H     1 <1>   0.0800 
 29 H        1.7680    -0.0710    -0.4540 H     1 <1>   0.0800 
 30 H        1.5860     1.1640    -1.6610 H     1 <1>   0.0800 
 31 H        5.3500    -2.0870     0.8590 H     1 <1>   0.1500 
 32 H        1.9800    -2.3230    -1.6880 H     1 <1>   0.1500 
 33 H        4.5640     2.8560    -3.2880 H     1 <1>   0.0800 
 34 H        5.7800     1.6240    -3.1120 H     1 <1>   0.0800 
 35 H        3.4610     1.2090     0.7300 H     1 <1>   0.0800 
 36 H        2.0570     2.1790     0.4900 H     1 <1>   0.0800 
 37 H        5.0770     1.3030    -0.8790 H     1 <1>   0.4500 
 38 H        4.0020     3.5230     0.1060 H     1 <1>   0.0800 
 39 H        3.1430     3.3510    -1.4020 H     1 <1>   0.0800 
 40 H        6.0500     4.0400    -0.9930 H     1 <1>   0.0800 
 41 H        6.9880     2.6980    -1.6160 H     1 <1>   0.0800 
 42 H        2.6310    -6.1630     1.3130 H     1 <1>   0.1000 
 43 H        0.3120    -6.1010     2.2670 H     1 <1>   0.1000 
 44 H        0.2920    -4.3160     2.1410 H     1 <1>   0.1000 
 45 H        2.3210    -4.1800     3.6610 H     1 <1>   0.1000 
 46 H        2.3430    -5.9650     3.7950 H     1 <1>   0.1000 
 47 H        5.6760     4.2030     1.5260 H     1 <1>   0.1500 
 48 H        8.5780     0.1120    -0.1760 H     1 <1>   0.4000 
 49 H        7.0560    -0.0140    -0.7830 H     1 <1>   0.4000 
 50 H        6.4270     3.3110     3.7100 H     1 <1>   0.1500 
 51 H        7.7190     1.2440     3.7920 H     1 <1>   0.1500 
@<TRIPOS>BOND
  1   1   2  2   
  2   2   3  am  
  3   2   4  1   
  4   3   5  1   
  5   3   6  1   
  6   4   7  ar  
  7   4   8  ar  
  8   5   9  1   
  9   5  27  1   
 10   5  28  1   
 11   6  10  1   
 12   6  29  1   
 13   6  30  1   
 14   7  11  ar  
 15   7  31  1   
 16   8  12  ar  
 17   8  32  1   
 18   9  13  1   
 19   9  33  1   
 20   9  34  1   
 21  10  14  1   
 22  10  35  1   
 23  10  36  1   
 24  11  15  ar  
 25  12  15  ar  
 26  13  14  1   
 27  13  16  1   
 28  13  37  1   
 29  14  38  1   
 30  14  39  1   
 31  15  17  1   
 32  16  18  1   
 33  16  40  1   
 34  16  41  1   
 35  17  19  1   
 36  17  20  1   
 37  17  42  1   
 38  18  21  ar  
 39  18  22  ar  
 40  19  20  1   
 41  19  43  1   
 42  19  44  1   
 43  20  45  1   
 44  20  46  1   
 45  21  23  ar  
 46  21  24  1   
 47  22  25  ar  
 48  22  47  1   
 49  23  26  ar  
 50  24  48  1   
 51  24  49  1   
 52  25  26  ar  
 53  25  50  1   
 54  26  51  1   
@<TRIPOS>SUBSTRUCTURE
  1 ****   2 GROUP 4 **** **** 0

# MOE 2024.06 (io_trps.svl 2023.06)
