@<TRIPOS>MOLECULE
NONAME
42 43 1 0 0 
SMALL
USER_CHARGES


@<TRIPOS>ATOM
  1 O        3.3370    -0.4330     1.9620 O.2   1 <1>  -0.5700 
  2 C        2.9240    -0.3300     0.8290 C.2   1 <1>   0.5690 
  3 N        2.3160     0.7960     0.3490 N.am  1 <1>  -0.4940 
  4 C        3.0720    -1.5180    -0.1370 C.3   1 <1>   0.2610 
  5 C        2.1350     2.0800     0.9110 C.2   1 <1>  -0.0880 
  6 O        2.9640    -1.1150    -1.4820 O.3   1 <1>  -0.5600 
  7 C        1.9860    -2.5720     0.0840 C.3   1 <1>  -0.2400 
  8 N        3.0260     2.7830     1.6710 N.pl3 1 <1>   0.3140 
  9 C        1.0500     2.8760     0.7570 C.2   1 <1>  -0.1810 
 10 C        4.1100    -0.5130    -2.0060 C.3   1 <1>   0.0400 
 11 N        2.5260     4.0030     1.9980 N.2   1 <1>  -0.7070 
 12 C        4.4040     2.4170     2.0800 C.3   1 <1>   0.2390 
 13 C        1.3520     4.0400     1.4520 C.2   1 <1>   0.1390 
 14 C       -0.2400     2.6040     0.0060 C.3   1 <1>  -0.0590 
 15 C        5.3060     2.0680     0.8950 C.ar  1 <1>  -0.1430 
 16 C        5.3700     2.8970    -0.2150 C.ar  1 <1>  -0.1500 
 17 C        6.0820     0.9200     0.9270 C.ar  1 <1>  -0.1500 
 18 C        6.1960     2.5880    -1.2840 C.ar  1 <1>  -0.1430 
 19 C        6.9140     0.6070    -0.1340 C.ar  1 <1>  -0.1500 
 20 C        6.9710     1.4400    -1.2370 C.ar  1 <1>  -0.1500 
 21 C        6.2530     3.5070    -2.4900 C.3   1 <1>  -0.0970 
 22 H        1.9790     0.6780    -0.6100 H     1 <1>   0.3700 
 23 H        4.0380    -1.9700     0.0100 H     1 <1>   0.0800 
 24 H        1.0130    -2.1430    -0.0740 H     1 <1>   0.0800 
 25 H        2.0380    -2.9400     1.0930 H     1 <1>   0.0800 
 26 H        2.1300    -3.3960    -0.5910 H     1 <1>   0.0800 
 27 H        3.9230    -0.2720    -3.0370 H     1 <1>   0.0800 
 28 H        4.9380    -1.1980    -1.9400 H     1 <1>   0.0800 
 29 H        4.3280     0.3900    -1.4610 H     1 <1>   0.0800 
 30 H        4.3450     1.6020     2.7740 H     1 <1>   0.0800 
 31 H        4.8270     3.2560     2.5990 H     1 <1>   0.0800 
 32 H        0.6920     4.8870     1.5340 H     1 <1>   0.1500 
 33 H       -0.2610     1.5930    -0.3580 H     1 <1>   0.0800 
 34 H       -0.3260     3.2760    -0.8290 H     1 <1>   0.0800 
 35 H       -1.0800     2.7490     0.6610 H     1 <1>   0.0800 
 36 H        4.7730     3.7940    -0.2450 H     1 <1>   0.1500 
 37 H        6.0420     0.2640     1.7810 H     1 <1>   0.1500 
 38 H        7.5180    -0.2820    -0.0980 H     1 <1>   0.1500 
 39 H        7.6240     1.1940    -2.0560 H     1 <1>   0.1500 
 40 H        5.2860     3.9400    -2.6760 H     1 <1>   0.0800 
 41 H        6.5570     2.9650    -3.3670 H     1 <1>   0.0800 
 42 H        6.9580     4.2990    -2.3090 H     1 <1>   0.0800 
@<TRIPOS>BOND
  1   1   2  2   
  2   2   3  am  
  3   2   4  1   
  4   3   5  1   
  5   3  22  1   
  6   4   6  1   
  7   4   7  1   
  8   4  23  1   
  9   5   8  1   
 10   5   9  2   
 11   6  10  1   
 12   7  24  1   
 13   7  25  1   
 14   7  26  1   
 15   8  11  1   
 16   8  12  1   
 17   9  13  1   
 18   9  14  1   
 19  10  27  1   
 20  10  28  1   
 21  10  29  1   
 22  11  13  2   
 23  12  15  1   
 24  12  30  1   
 25  12  31  1   
 26  13  32  1   
 27  14  33  1   
 28  14  34  1   
 29  14  35  1   
 30  15  16  ar  
 31  15  17  ar  
 32  16  18  ar  
 33  16  36  1   
 34  17  19  ar  
 35  17  37  1   
 36  18  20  ar  
 37  18  21  1   
 38  19  20  ar  
 39  19  38  1   
 40  20  39  1   
 41  21  40  1   
 42  21  41  1   
 43  21  42  1   
@<TRIPOS>SUBSTRUCTURE
  1 ****   3 GROUP 4 **** **** 0

# MOE 2024.06 (io_trps.svl 2023.06)
