@<TRIPOS>MOLECULE
NONAME
56 58 1 0 0 
SMALL
USER_CHARGES


@<TRIPOS>ATOM
  1 F       -1.5440    -1.9730    -2.5440 F     1 <1>  -0.1900 
  2 C       -2.7080    -2.0730    -1.9610 C.ar  1 <1>   0.1900 
  3 C       -2.8160    -1.7400    -0.6250 C.ar  1 <1>  -0.1500 
  4 C       -3.7890    -2.5080    -2.7030 C.ar  1 <1>  -0.1500 
  5 C       -4.0540    -1.8490    -0.0140 C.ar  1 <1>  -0.1500 
  6 C       -5.0220    -2.6120    -2.0800 C.ar  1 <1>  -0.1500 
  7 C       -5.1580    -2.2840    -0.7370 C.ar  1 <1>  -0.1440 
  8 C       -6.5120    -2.3950    -0.0530 C.3   1 <1>  -0.0160 
  9 C       -7.2080    -1.0350    -0.0290 C.3   1 <1>   0.1400 
 10 N       -8.5290    -1.1610     0.6240 N.am  1 <1>  -0.7300 
 11 C       -8.8470    -0.7600     1.8820 C.2   1 <1>   0.5690 
 12 O       -8.0330    -0.2670     2.6260 O.2   1 <1>  -0.5700 
 13 C      -10.2890    -0.9620     2.3600 C.3   1 <1>   0.1710 
 14 N      -11.2910    -1.1160     1.2620 N.3   1 <1>  -0.8100 
 15 C      -11.5440     0.1780     0.6100 C.3   1 <1>   0.1100 
 16 C      -12.5490    -1.6550     1.7930 C.3   1 <1>   0.1100 
 17 C      -12.4790    -0.0210    -0.5840 C.3   1 <1>  -0.1600 
 18 C      -13.5230    -1.9200     0.6450 C.3   1 <1>  -0.1600 
 19 C      -13.8300    -0.6550    -0.1800 C.3   1 <1>   0.2800 
 20 O      -14.4680     0.2410     0.7060 O.3   1 <1>  -0.5600 
 21 C      -14.7440    -1.0110    -1.4100 C.3   1 <1>   0.2000 
 22 C      -15.3390     1.1810     0.1680 C.3   1 <1>   0.1200 
 23 O      -14.4470    -0.1980    -2.5200 O.3   1 <1>  -0.6800 
 24 C      -16.2580    -0.8850    -1.0750 C.3   1 <1>   0.2800 
 25 C      -16.5670     0.4900    -0.4490 C.3   1 <1>  -0.1600 
 26 O      -16.5960    -1.8540    -0.1510 O.3   1 <1>  -0.6800 
 27 C      -17.1680    -1.1670    -2.2770 C.3   1 <1>  -0.2400 
 28 H       -1.9520    -1.4050    -0.0810 H     1 <1>   0.1500 
 29 H       -3.6650    -2.7580    -3.7410 H     1 <1>   0.1500 
 30 H       -4.1560    -1.5920     1.0280 H     1 <1>   0.1500 
 31 H       -5.8730    -2.9500    -2.6460 H     1 <1>   0.1500 
 32 H       -6.3760    -2.7410     0.9570 H     1 <1>   0.0800 
 33 H       -7.1260    -3.1070    -0.5740 H     1 <1>   0.0800 
 34 H       -7.3380    -0.6670    -1.0310 H     1 <1>   0.0800 
 35 H       -6.6020    -0.3300     0.5150 H     1 <1>   0.0800 
 36 H       -9.3120    -1.5330     0.0740 H     1 <1>   0.3700 
 37 H      -10.5630    -0.1360     2.9930 H     1 <1>   0.0800 
 38 H      -10.2900    -1.8510     2.9650 H     1 <1>   0.0800 
 39 H      -11.9900     0.8640     1.3120 H     1 <1>   0.0800 
 40 H      -10.6180     0.6040     0.2630 H     1 <1>   0.0800 
 41 H      -12.3580    -2.5810     2.3080 H     1 <1>   0.0800 
 42 H      -12.9870    -0.9600     2.4920 H     1 <1>   0.0800 
 43 H      -11.9870    -0.6590    -1.2970 H     1 <1>   0.0800 
 44 H      -12.6370     0.9280    -1.0580 H     1 <1>   0.0800 
 45 H      -14.4310    -2.3220     1.0510 H     1 <1>   0.0800 
 46 H      -13.0950    -2.6720     0.0070 H     1 <1>   0.0800 
 47 H      -14.5390    -2.0180    -1.7300 H     1 <1>   0.0800 
 48 H      -15.6420     1.8400     0.9640 H     1 <1>   0.0800 
 49 H      -14.8030     1.7580    -0.5640 H     1 <1>   0.0800 
 50 H      -14.5490     0.7390    -2.2740 H     1 <1>   0.4000 
 51 H      -16.9470     1.1530    -1.2050 H     1 <1>   0.0800 
 52 H      -17.3360     0.4000     0.2970 H     1 <1>   0.0800 
 53 H      -17.5360    -1.7660     0.0880 H     1 <1>   0.4000 
 54 H      -16.9960    -0.4480    -3.0570 H     1 <1>   0.0800 
 55 H      -18.2040    -1.1130    -1.9950 H     1 <1>   0.0800 
 56 H      -16.9580    -2.1430    -2.6770 H     1 <1>   0.0800 
@<TRIPOS>BOND
  1   1   2  1   
  2   2   3  ar  
  3   2   4  ar  
  4   3   5  ar  
  5   3  28  1   
  6   4   6  ar  
  7   4  29  1   
  8   5   7  ar  
  9   5  30  1   
 10   6   7  ar  
 11   6  31  1   
 12   7   8  1   
 13   8   9  1   
 14   8  32  1   
 15   8  33  1   
 16   9  10  1   
 17   9  34  1   
 18   9  35  1   
 19  10  11  am  
 20  10  36  1   
 21  11  12  2   
 22  11  13  1   
 23  13  14  1   
 24  13  37  1   
 25  13  38  1   
 26  14  15  1   
 27  14  16  1   
 28  15  17  1   
 29  15  39  1   
 30  15  40  1   
 31  16  18  1   
 32  16  41  1   
 33  16  42  1   
 34  17  19  1   
 35  17  43  1   
 36  17  44  1   
 37  18  19  1   
 38  18  45  1   
 39  18  46  1   
 40  19  20  1   
 41  19  21  1   
 42  20  22  1   
 43  21  23  1   
 44  21  24  1   
 45  21  47  1   
 46  22  25  1   
 47  22  48  1   
 48  22  49  1   
 49  23  50  1   
 50  24  25  1   
 51  24  26  1   
 52  24  27  1   
 53  25  51  1   
 54  25  52  1   
 55  26  53  1   
 56  27  54  1   
 57  27  55  1   
 58  27  56  1   
@<TRIPOS>SUBSTRUCTURE
  1 ****  14 GROUP 4 **** **** 0

# MOE 2024.06 (io_trps.svl 2023.06)
