@<TRIPOS>MOLECULE
NONAME
47 48 1 0 0 
SMALL
USER_CHARGES


@<TRIPOS>ATOM
  1 S        0.8360     1.0130    -0.7150 S.o2  1 <1>   1.3330 
  2 O        0.8460     1.8450    -1.8970 O.2   1 <1>  -0.6500 
  3 O        0.4990    -0.3880    -0.8390 O.2   1 <1>  -0.6500 
  4 N       -0.2500     1.7020     0.3920 N.am  1 <1>  -0.8490 
  5 C        2.4240     1.2090     0.0890 C.3   1 <1>  -0.0550 
  6 C       -0.5160     0.8450     1.5520 C.3   1 <1>   0.1160 
  7 C       -1.5140     2.0770    -0.2480 C.3   1 <1>   0.1160 
  8 C        3.6220     0.7490    -0.7730 C.3   1 <1>  -0.0800 
  9 C        4.9820     1.1130    -0.1920 C.3   1 <1>   0.2200 
 10 C        3.7360    -0.7760    -0.7730 C.3   1 <1>   0.1200 
 11 N        5.0840     2.5050     0.3280 N.am  1 <1>  -0.7300 
 12 C        5.2420    -0.0200     0.8040 C.3   1 <1>   0.1200 
 13 O        4.4850    -1.1090     0.3550 O.3   1 <1>  -0.5600 
 14 C        4.7180     3.0390     1.5260 C.2   1 <1>   0.5690 
 15 O        4.1820     2.3930     2.3920 O.2   1 <1>  -0.5700 
 16 C        4.9630     4.5190     1.7740 C.3   1 <1>   0.0440 
 17 C        5.5230     5.2430     0.5460 C.ar  1 <1>  -0.1440 
 18 C        4.7080     5.6780    -0.4960 C.ar  1 <1>  -0.1440 
 19 C        6.8940     5.4460     0.4700 C.ar  1 <1>  -0.1500 
 20 C        5.2810     6.3060    -1.5930 C.ar  1 <1>  -0.1500 
 21 C        3.1960     5.4870    -0.4770 C.3   1 <1>  -0.0970 
 22 C        7.4560     6.0720    -0.6260 C.ar  1 <1>  -0.1500 
 23 C        6.6480     6.5030    -1.6600 C.ar  1 <1>  -0.1500 
 24 H        2.5290     2.2500     0.3080 H     1 <1>   0.0800 
 25 H        2.4340     0.6820     1.0230 H     1 <1>   0.0800 
 26 H       -1.1600     1.3550     2.2480 H     1 <1>   0.0800 
 27 H        0.4030     0.6070     2.0590 H     1 <1>   0.0800 
 28 H       -0.9900    -0.0730     1.2440 H     1 <1>   0.0800 
 29 H       -2.1750     2.5320     0.4700 H     1 <1>   0.0800 
 30 H       -1.9910     1.2090    -0.6720 H     1 <1>   0.0800 
 31 H       -1.3310     2.7900    -1.0350 H     1 <1>   0.0800 
 32 H        3.5230     1.1250    -1.7760 H     1 <1>   0.0800 
 33 H        5.7180     1.0080    -0.9720 H     1 <1>   0.0800 
 34 H        4.2810    -1.1170    -1.6370 H     1 <1>   0.0800 
 35 H        2.7910    -1.2870    -0.7270 H     1 <1>   0.0800 
 36 H        5.4680     3.1780    -0.3470 H     1 <1>   0.3700 
 37 H        4.9030     0.2120     1.7960 H     1 <1>   0.0800 
 38 H        6.2790    -0.3030     0.8240 H     1 <1>   0.0800 
 39 H        4.0410     4.9720     2.0850 H     1 <1>   0.0800 
 40 H        5.6470     4.6080     2.5960 H     1 <1>   0.0800 
 41 H        7.5380     5.1150     1.2670 H     1 <1>   0.1500 
 42 H        4.6640     6.6490    -2.4050 H     1 <1>   0.1500 
 43 H        2.7490     5.8440    -1.3870 H     1 <1>   0.0800 
 44 H        2.7640     6.0330     0.3420 H     1 <1>   0.0800 
 45 H        2.9480     4.4470    -0.3750 H     1 <1>   0.0800 
 46 H        8.5200     6.2250    -0.6750 H     1 <1>   0.1500 
 47 H        7.0800     6.9930    -2.5150 H     1 <1>   0.1500 
@<TRIPOS>BOND
  1   1   2  2   
  2   1   3  2   
  3   1   4  am  
  4   1   5  1   
  5   4   6  1   
  6   4   7  1   
  7   5   8  1   
  8   5  24  1   
  9   5  25  1   
 10   6  26  1   
 11   6  27  1   
 12   6  28  1   
 13   7  29  1   
 14   7  30  1   
 15   7  31  1   
 16   8   9  1   
 17   8  10  1   
 18   8  32  1   
 19   9  11  1   
 20   9  12  1   
 21   9  33  1   
 22  10  13  1   
 23  10  34  1   
 24  10  35  1   
 25  11  14  am  
 26  11  36  1   
 27  12  13  1   
 28  12  37  1   
 29  12  38  1   
 30  14  15  2   
 31  14  16  1   
 32  16  17  1   
 33  16  39  1   
 34  16  40  1   
 35  17  18  ar  
 36  17  19  ar  
 37  18  20  ar  
 38  18  21  1   
 39  19  22  ar  
 40  19  41  1   
 41  20  23  ar  
 42  20  42  1   
 43  21  43  1   
 44  21  44  1   
 45  21  45  1   
 46  22  23  ar  
 47  22  46  1   
 48  23  47  1   
@<TRIPOS>SUBSTRUCTURE
  1 ****  11 GROUP 4 **** **** 0

# MOE 2024.06 (io_trps.svl 2023.06)
