@<TRIPOS>MOLECULE
NONAME
46 49 1 0 0 
SMALL
USER_CHARGES


@<TRIPOS>ATOM
  1 N        0.4410     0.0130     1.5920 N.ar  1 <1>  -0.6200 
  2 C       -0.7210     0.3930     2.1090 C.ar  1 <1>   0.7200 
  3 C        0.9120     0.8420     0.6940 C.ar  1 <1>   0.1660 
  4 N       -1.4380     1.4700     1.8240 N.ar  1 <1>  -0.6200 
  5 N       -1.2480    -0.4210     3.0230 N.pl3 1 <1>  -0.9000 
  6 C        0.2790     1.9890     0.3210 C.ar  1 <1>  -0.1430 
  7 C        2.2230     0.6610    -0.0340 C.3   1 <1>   0.1430 
  8 C       -0.9250     2.2750     0.9200 C.ar  1 <1>   0.1600 
  9 C        1.0660     2.7490    -0.7170 C.3   1 <1>  -0.0170 
 10 C        3.3060     0.2860     0.9940 C.3   1 <1>   0.3430 
 11 C        2.0930    -0.4470    -1.1010 C.3   1 <1>  -0.1600 
 12 C        2.4450     2.0600    -0.6720 C.3   1 <1>  -0.1600 
 13 N        4.6210    -0.0290     0.3410 N.4   1 <1>  -0.9590 
 14 C        3.4590    -0.8290    -1.7000 C.3   1 <1>  -0.1600 
 15 C        4.4910    -1.1670    -0.6210 C.3   1 <1>   0.3430 
 16 C        5.6660    -0.3280     1.3590 C.3   1 <1>   0.4860 
 17 C        7.0260    -0.3070     0.6970 C.ar  1 <1>  -0.1430 
 18 C        7.6180    -1.5090     0.3120 C.ar  1 <1>   0.4100 
 19 C        7.6920     0.8750     0.4550 C.ar  1 <1>  -0.1500 
 20 N        8.7710    -1.6070    -0.3080 N.ar  1 <1>  -0.6200 
 21 N        7.0300    -2.7100     0.5330 N.pl3 1 <1>  -0.9000 
 22 C        8.9150     0.7810    -0.1800 C.ar  1 <1>  -0.1500 
 23 C        9.3990    -0.4650    -0.5370 C.ar  1 <1>   0.1600 
 24 H       -2.2310    -0.2560     3.2240 H     1 <1>   0.4000 
 25 H       -0.9540    -1.3920     2.9830 H     1 <1>   0.4000 
 26 H       -1.4700     3.1660     0.6600 H     1 <1>   0.1500 
 27 H        1.1340     3.7970    -0.4800 H     1 <1>   0.0800 
 28 H        0.6050     2.6230    -1.6820 H     1 <1>   0.0800 
 29 H        2.9620    -0.5760     1.5430 H     1 <1>   0.0800 
 30 H        3.4190     1.0970     1.6930 H     1 <1>   0.0800 
 31 H        1.4200    -0.1350    -1.8810 H     1 <1>   0.0800 
 32 H        1.6620    -1.3210    -0.6410 H     1 <1>   0.0800 
 33 H        2.8830     2.0140    -1.6530 H     1 <1>   0.0800 
 34 H        3.0860     2.6500    -0.0400 H     1 <1>   0.0800 
 35 H        4.9420     0.7860    -0.1930 H     1 <1>   0.4500 
 36 H        3.8380    -0.0340    -2.3180 H     1 <1>   0.0800 
 37 H        3.3340    -1.6880    -2.3370 H     1 <1>   0.0800 
 38 H        4.1840    -2.0560    -0.0940 H     1 <1>   0.0800 
 39 H        5.4420    -1.3700    -1.0880 H     1 <1>   0.0800 
 40 H        5.4860    -1.2920     1.8060 H     1 <1>   0.0800 
 41 H        5.6460     0.4170     2.1380 H     1 <1>   0.0800 
 42 H        7.3000     1.8380     0.7390 H     1 <1>   0.1500 
 43 H        7.3830    -3.3680    -0.1720 H     1 <1>   0.4000 
 44 H        7.3240    -3.1160     1.4260 H     1 <1>   0.4000 
 45 H        9.4920     1.6630    -0.3980 H     1 <1>   0.1500 
 46 H       10.3530    -0.5270    -1.0350 H     1 <1>   0.1500 
@<TRIPOS>BOND
  1   1   2  ar  
  2   1   3  ar  
  3   2   4  ar  
  4   2   5  1   
  5   3   6  ar  
  6   3   7  1   
  7   4   8  ar  
  8   5  24  1   
  9   5  25  1   
 10   6   8  ar  
 11   6   9  1   
 12   7  10  1   
 13   7  11  1   
 14   7  12  1   
 15   8  26  1   
 16   9  12  1   
 17   9  27  1   
 18   9  28  1   
 19  10  13  1   
 20  10  29  1   
 21  10  30  1   
 22  11  14  1   
 23  11  31  1   
 24  11  32  1   
 25  12  33  1   
 26  12  34  1   
 27  13  15  1   
 28  13  16  1   
 29  13  35  1   
 30  14  15  1   
 31  14  36  1   
 32  14  37  1   
 33  15  38  1   
 34  15  39  1   
 35  16  17  1   
 36  16  40  1   
 37  16  41  1   
 38  17  18  ar  
 39  17  19  ar  
 40  18  20  ar  
 41  18  21  1   
 42  19  22  ar  
 43  19  42  1   
 44  20  23  ar  
 45  21  43  1   
 46  21  44  1   
 47  22  23  ar  
 48  22  45  1   
 49  23  46  1   
@<TRIPOS>SUBSTRUCTURE
  1 ****  10 GROUP 4 **** **** 0

# MOE 2024.06 (io_trps.svl 2023.06)
