@<TRIPOS>MOLECULE
NONAME
38 40 1 0 0 
SMALL
USER_CHARGES


@<TRIPOS>ATOM
  1 O        1.4290    -0.0520     1.5170 O.3   1 <1>  -0.6800 
  2 C        1.6150    -0.1820     0.1420 C.3   1 <1>   0.2000 
  3 C        2.3270    -1.5020    -0.1740 C.3   1 <1>  -0.0800 
  4 C        2.5870     0.9000    -0.3490 C.3   1 <1>   0.2090 
  5 C        3.8120    -1.1660    -0.0350 C.3   1 <1>   0.2090 
  6 C        1.8970    -2.7290     0.6530 C.3   1 <1>  -0.0170 
  7 N        3.9250     0.2460    -0.4610 N.pl3 1 <1>  -0.8380 
  8 C        2.6910    -3.9630     0.2520 C.ar  1 <1>  -0.1440 
  9 C        5.0970     0.9950    -0.3500 C.ar  1 <1>   0.4100 
 10 C        2.4370    -4.6440    -0.9210 C.ar  1 <1>  -0.1500 
 11 C        3.7100    -4.4620     1.0380 C.ar  1 <1>  -0.1500 
 12 N        5.0000     2.3280    -0.4630 N.ar  1 <1>  -0.3100 
 13 C        6.3240     0.3840    -0.1470 C.ar  1 <1>  -0.1500 
 14 C        3.1960    -5.7570    -1.2450 C.ar  1 <1>   0.1600 
 15 C        4.4090    -5.5830     0.6220 C.ar  1 <1>   0.1600 
 16 N        6.0610     3.0940    -0.3680 N.ar  1 <1>  -0.3100 
 17 C        7.4380     1.1820    -0.0490 C.ar  1 <1>  -0.1500 
 18 N        4.1780    -6.2410    -0.5020 N.ar  1 <1>  -0.6200 
 19 C        7.2500     2.5420    -0.1660 C.ar  1 <1>   0.1670 
 20 C        8.4250     3.4930    -0.0680 C.3   1 <1>  -0.0970 
 21 H        0.7310    -0.6550     1.8320 H     1 <1>   0.4000 
 22 H        0.6550    -0.0960    -0.3370 H     1 <1>   0.0800 
 23 H        2.1580    -1.7180    -1.2140 H     1 <1>   0.0800 
 24 H        2.6090     1.7340     0.3330 H     1 <1>   0.0800 
 25 H        2.2950     1.2460    -1.3240 H     1 <1>   0.0800 
 26 H        4.4150    -1.8070    -0.6560 H     1 <1>   0.0800 
 27 H        4.1220    -1.2500     0.9940 H     1 <1>   0.0800 
 28 H        0.8490    -2.9180     0.5010 H     1 <1>   0.0800 
 29 H        2.0490    -2.5420     1.7020 H     1 <1>   0.0800 
 30 H        1.6580    -4.3220    -1.5880 H     1 <1>   0.1500 
 31 H        3.9700    -3.9920     1.9690 H     1 <1>   0.1500 
 32 H        6.4080    -0.6800    -0.0710 H     1 <1>   0.1500 
 33 H        2.9840    -6.2760    -2.1640 H     1 <1>   0.1500 
 34 H        5.2000    -5.9600     1.2480 H     1 <1>   0.1500 
 35 H        8.4120     0.7580     0.1100 H     1 <1>   0.1500 
 36 H        9.3430     2.9610     0.0950 H     1 <1>   0.0800 
 37 H        8.2670     4.1750     0.7480 H     1 <1>   0.0800 
 38 H        8.5060     4.0570    -0.9790 H     1 <1>   0.0800 
@<TRIPOS>BOND
  1   1   2  1   
  2   1  21  1   
  3   2   3  1   
  4   2   4  1   
  5   2  22  1   
  6   3   5  1   
  7   3   6  1   
  8   3  23  1   
  9   4   7  1   
 10   4  24  1   
 11   4  25  1   
 12   5   7  1   
 13   5  26  1   
 14   5  27  1   
 15   6   8  1   
 16   6  28  1   
 17   6  29  1   
 18   7   9  1   
 19   8  10  ar  
 20   8  11  ar  
 21   9  12  ar  
 22   9  13  ar  
 23  10  14  ar  
 24  10  30  1   
 25  11  15  ar  
 26  11  31  1   
 27  12  16  ar  
 28  13  17  ar  
 29  13  32  1   
 30  14  18  ar  
 31  14  33  1   
 32  15  18  ar  
 33  15  34  1   
 34  16  19  ar  
 35  17  19  ar  
 36  17  35  1   
 37  19  20  1   
 38  20  36  1   
 39  20  37  1   
 40  20  38  1   
@<TRIPOS>SUBSTRUCTURE
  1 ****   5 GROUP 4 **** **** 0

# MOE 2024.06 (io_trps.svl 2023.06)
