@<TRIPOS>MOLECULE
NONAME
51 52 1 0 0 
SMALL
USER_CHARGES


@<TRIPOS>ATOM
  1 O       -0.2450     2.9740    -2.0040 O.co2 1 <1>  -0.9000 
  2 C       -0.7030     1.8150    -1.8910 C.2   1 <1>   0.9790 
  3 O        0.0470     0.8430    -2.0420 O.co2 1 <1>  -0.9000 
  4 C       -2.0650     1.6870    -1.4210 C.ar  1 <1>  -0.1790 
  5 C       -2.9130     2.7670    -1.6120 C.ar  1 <1>  -0.1500 
  6 C       -2.5490     0.6170    -0.6740 C.ar  1 <1>  -0.1500 
  7 C       -4.0880     2.9150    -0.9100 C.ar  1 <1>  -0.1440 
  8 C       -3.7850     0.6890    -0.0550 C.ar  1 <1>  -0.1500 
  9 C       -4.5510     1.8530    -0.1390 C.ar  1 <1>   0.0830 
 10 C       -4.7500     4.2890    -0.9370 C.3   1 <1>   0.2540 
 11 O       -5.7280     2.0090     0.5170 O.3   1 <1>  -0.3630 
 12 N       -3.8760     5.3180    -0.2940 N.3   1 <1>  -0.8100 
 13 C       -6.3430     0.9390     1.2010 C.3   1 <1>   0.0400 
 14 C       -2.8840     5.9820    -1.1910 C.3   1 <1>   0.1100 
 15 C       -3.3240     4.8980     1.0150 C.3   1 <1>   0.1100 
 16 C       -1.4180     6.0990    -0.6620 C.3   1 <1>   0.4230 
 17 C       -1.9290     4.2250     0.9530 C.3   1 <1>   0.3430 
 18 N       -0.9270     4.8330    -0.0020 N.4   1 <1>  -0.9590 
 19 C       -1.2630     7.3440     0.2480 C.3   1 <1>  -0.1600 
 20 C        0.4600     4.8600     0.5470 C.3   1 <1>   0.4230 
 21 C       -1.1750     8.6480    -0.5600 C.3   1 <1>  -0.2400 
 22 C        1.4550     5.3530    -0.5070 C.3   1 <1>  -0.2400 
 23 C        0.8930     3.4760     1.0430 C.3   1 <1>  -0.2400 
 24 H       -2.5840     3.5290    -2.2880 H     1 <1>   0.1500 
 25 H       -1.9280    -0.2590    -0.5720 H     1 <1>   0.1500 
 26 H       -4.1200    -0.1620     0.5050 H     1 <1>   0.1500 
 27 H       -5.6850     4.2560    -0.4060 H     1 <1>   0.0800 
 28 H       -4.9690     4.5730    -1.9520 H     1 <1>   0.0800 
 29 H       -7.2850     1.2860     1.5850 H     1 <1>   0.0800 
 30 H       -5.7070     0.6310     2.0120 H     1 <1>   0.0800 
 31 H       -6.5050     0.1310     0.5090 H     1 <1>   0.0800 
 32 H       -3.2540     6.9690    -1.3970 H     1 <1>   0.0800 
 33 H       -2.8590     5.4970    -2.1460 H     1 <1>   0.0800 
 34 H       -4.0140     4.2280     1.4990 H     1 <1>   0.0800 
 35 H       -3.2570     5.7610     1.6500 H     1 <1>   0.0800 
 36 H       -0.7930     6.2690    -1.5230 H     1 <1>   0.0800 
 37 H       -2.0650     3.1890     0.6900 H     1 <1>   0.0800 
 38 H       -1.5230     4.2380     1.9490 H     1 <1>   0.0800 
 39 H       -0.8320     4.1380    -0.7910 H     1 <1>   0.4500 
 40 H       -0.3710     7.2870     0.8400 H     1 <1>   0.0800 
 41 H       -2.0960     7.4210     0.9210 H     1 <1>   0.0800 
 42 H        0.4910     5.5330     1.3870 H     1 <1>   0.0800 
 43 H       -0.3510     8.6120    -1.2520 H     1 <1>   0.0800 
 44 H       -1.0190     9.4790     0.1050 H     1 <1>   0.0800 
 45 H       -2.0810     8.8320    -1.1110 H     1 <1>   0.0800 
 46 H        1.4310     4.7250    -1.3800 H     1 <1>   0.0800 
 47 H        2.4520     5.3150    -0.1070 H     1 <1>   0.0800 
 48 H        1.2660     6.3690    -0.7930 H     1 <1>   0.0800 
 49 H        0.8710     2.7550     0.2450 H     1 <1>   0.0800 
 50 H        0.2860     3.1270     1.8550 H     1 <1>   0.0800 
 51 H        1.9040     3.5250     1.4020 H     1 <1>   0.0800 
@<TRIPOS>BOND
  1   1   2  ar  
  2   2   3  ar  
  3   2   4  1   
  4   4   5  ar  
  5   4   6  ar  
  6   5   7  ar  
  7   5  24  1   
  8   6   8  ar  
  9   6  25  1   
 10   7   9  ar  
 11   7  10  1   
 12   8   9  ar  
 13   8  26  1   
 14   9  11  1   
 15  10  12  1   
 16  10  27  1   
 17  10  28  1   
 18  11  13  1   
 19  12  14  1   
 20  12  15  1   
 21  13  29  1   
 22  13  30  1   
 23  13  31  1   
 24  14  16  1   
 25  14  32  1   
 26  14  33  1   
 27  15  17  1   
 28  15  34  1   
 29  15  35  1   
 30  16  18  1   
 31  16  19  1   
 32  16  36  1   
 33  17  18  1   
 34  17  37  1   
 35  17  38  1   
 36  18  20  1   
 37  18  39  1   
 38  19  21  1   
 39  19  40  1   
 40  19  41  1   
 41  20  22  1   
 42  20  23  1   
 43  20  42  1   
 44  21  43  1   
 45  21  44  1   
 46  21  45  1   
 47  22  46  1   
 48  22  47  1   
 49  22  48  1   
 50  23  49  1   
 51  23  50  1   
 52  23  51  1   
@<TRIPOS>SUBSTRUCTURE
  1 ****  17 GROUP 4 **** **** 0

# MOE 2024.06 (io_trps.svl 2023.06)
