@<TRIPOS>MOLECULE
NONAME
48 49 1 0 0 
SMALL
USER_CHARGES


@<TRIPOS>ATOM
  1 S        0.8210     0.6860     0.2010 S.o2  1 <1>   1.0900 
  2 O        2.2100     0.3440     0.3930 O.2   1 <1>  -0.6500 
  3 O       -0.1390    -0.2440    -0.3480 O.2   1 <1>  -0.6500 
  4 C        0.1360     1.3760     1.6730 C.3   1 <1>  -0.0550 
  5 C        0.6740     2.2160    -0.6750 C.3   1 <1>  -0.0550 
  6 C       -0.9900     2.2750     1.1820 C.3   1 <1>   0.2000 
  7 C       -0.6650     2.8270    -0.2440 C.3   1 <1>   0.1900 
  8 O       -2.1480     1.5100     1.1210 O.3   1 <1>  -0.6800 
  9 N       -0.6300     4.3140    -0.2970 N.3   1 <1>  -0.8100 
 10 C       -0.2610     4.8350    -1.6630 C.3   1 <1>   0.1710 
 11 C       -1.9580     4.8710     0.0560 C.3   1 <1>   0.0300 
 12 C        0.0880     6.3280    -1.7190 C.2   1 <1>   0.5690 
 13 O       -0.0080     6.9140    -2.7700 O.2   1 <1>  -0.5700 
 14 N        0.5130     6.9400    -0.5830 N.am  1 <1>  -0.7300 
 15 C        0.8740     8.3700    -0.4490 C.3   1 <1>   0.1400 
 16 C        2.3940     8.5200    -0.3960 C.3   1 <1>  -0.0170 
 17 C        2.7730     9.9800    -0.2050 C.ar  1 <1>  -0.1430 
 18 C        3.0730    10.4730     1.0560 C.ar  1 <1>  -0.1500 
 19 C        2.8180    10.8350    -1.2960 C.ar  1 <1>  -0.1500 
 20 C        3.4150    11.8030     1.2280 C.ar  1 <1>  -0.1500 
 21 C        3.1590    12.1650    -1.1270 C.ar  1 <1>  -0.1500 
 22 C        3.4590    12.6590     0.1310 C.ar  1 <1>   0.0830 
 23 O        3.7830    13.9740     0.2110 O.3   1 <1>  -0.3630 
 24 C        4.1150    14.5730     1.4440 C.3   1 <1>   0.0400 
 25 H       -0.2110     0.6280     2.3600 H     1 <1>   0.0800 
 26 H        0.8760     1.9830     2.1580 H     1 <1>   0.0800 
 27 H        1.4750     2.8680    -0.3810 H     1 <1>   0.0800 
 28 H        0.7080     2.0530    -1.7350 H     1 <1>   0.0800 
 29 H       -1.1590     3.0620     1.8960 H     1 <1>   0.0800 
 30 H       -1.4250     2.4740    -0.9250 H     1 <1>   0.0800 
 31 H       -2.0130     0.7030     0.5740 H     1 <1>   0.4000 
 32 H        0.6060     4.3270    -2.0380 H     1 <1>   0.0800 
 33 H       -1.0660     4.6500    -2.3530 H     1 <1>   0.0800 
 34 H       -1.9590     5.9440    -0.0360 H     1 <1>   0.0800 
 35 H       -2.2230     4.6390     1.0720 H     1 <1>   0.0800 
 36 H       -2.7200     4.4730    -0.5950 H     1 <1>   0.0800 
 37 H        0.5120     6.3680     0.2670 H     1 <1>   0.3700 
 38 H        0.4870     8.9230    -1.2900 H     1 <1>   0.0800 
 39 H        0.4320     8.7690     0.4470 H     1 <1>   0.0800 
 40 H        2.7890     7.9340     0.4130 H     1 <1>   0.0800 
 41 H        2.8180     8.1590    -1.3160 H     1 <1>   0.0800 
 42 H        3.0430     9.8220     1.9120 H     1 <1>   0.1500 
 43 H        2.5860    10.4680    -2.2820 H     1 <1>   0.1500 
 44 H        3.6420    12.1520     2.2170 H     1 <1>   0.1500 
 45 H        3.1940    12.8290    -1.9710 H     1 <1>   0.1500 
 46 H        4.3380    15.6090     1.2620 H     1 <1>   0.0800 
 47 H        4.9790    14.0780     1.8500 H     1 <1>   0.0800 
 48 H        3.2740    14.4910     2.1090 H     1 <1>   0.0800 
@<TRIPOS>BOND
  1   1   2  2   
  2   1   3  2   
  3   1   4  1   
  4   1   5  1   
  5   4   6  1   
  6   4  25  1   
  7   4  26  1   
  8   5   7  1   
  9   5  27  1   
 10   5  28  1   
 11   6   7  1   
 12   6   8  1   
 13   6  29  1   
 14   7   9  1   
 15   7  30  1   
 16   8  31  1   
 17   9  10  1   
 18   9  11  1   
 19  10  12  1   
 20  10  32  1   
 21  10  33  1   
 22  11  34  1   
 23  11  35  1   
 24  11  36  1   
 25  12  13  2   
 26  12  14  am  
 27  14  15  1   
 28  14  37  1   
 29  15  16  1   
 30  15  38  1   
 31  15  39  1   
 32  16  17  1   
 33  16  40  1   
 34  16  41  1   
 35  17  18  ar  
 36  17  19  ar  
 37  18  20  ar  
 38  18  42  1   
 39  19  21  ar  
 40  19  43  1   
 41  20  22  ar  
 42  20  44  1   
 43  21  22  ar  
 44  21  45  1   
 45  22  23  1   
 46  23  24  1   
 47  24  46  1   
 48  24  47  1   
 49  24  48  1   
@<TRIPOS>SUBSTRUCTURE
  1 ****  14 GROUP 4 **** **** 0

# MOE 2024.06 (io_trps.svl 2023.06)
