@<TRIPOS>MOLECULE
NONAME
54 56 1 0 0 
SMALL
USER_CHARGES


@<TRIPOS>ATOM
  1 F       -0.4550    -1.2650     0.9210 F     1 <1>  -0.1900 
  2 C       -1.2940    -2.2540     0.7670 C.ar  1 <1>   0.1900 
  3 C       -1.3880    -2.8620    -0.4700 C.ar  1 <1>  -0.1500 
  4 C       -2.0570    -2.6550     1.8460 C.ar  1 <1>  -0.1500 
  5 C       -2.2800    -3.9100    -0.6270 C.ar  1 <1>  -0.1500 
  6 C       -2.9460    -3.7040     1.6770 C.ar  1 <1>  -0.1500 
  7 C       -3.0590    -4.3340     0.4430 C.ar  1 <1>  -0.1430 
  8 C       -4.0370    -5.4840     0.2540 C.3   1 <1>  -0.0160 
  9 C       -5.3380    -4.9790    -0.3700 C.3   1 <1>   0.1400 
 10 N       -6.2790    -6.1060    -0.5480 N.am  1 <1>  -0.7300 
 11 C       -6.5090    -6.7820    -1.7020 C.2   1 <1>   0.5690 
 12 O       -5.9220    -6.5260    -2.7270 O.2   1 <1>  -0.5700 
 13 C       -7.5400    -7.9170    -1.6830 C.3   1 <1>   0.1710 
 14 N       -8.5120    -7.8550    -0.5450 N.3   1 <1>  -0.8100 
 15 C       -9.1530    -9.1790    -0.3810 C.3   1 <1>   0.1100 
 16 C       -9.4980    -6.7840    -0.7790 C.3   1 <1>   0.1100 
 17 C      -10.0890    -9.2730     0.8340 C.3   1 <1>   0.1400 
 18 C      -10.1650    -6.3790     0.5380 C.3   1 <1>  -0.1600 
 19 N      -11.3950    -8.6000     0.5720 N.am  1 <1>  -0.6600 
 20 C      -11.4660    -7.1350     0.8390 C.3   1 <1>   0.1400 
 21 C      -12.5360    -9.3040     0.2050 C.2   1 <1>   0.7160 
 22 O      -13.6020    -8.7080     0.2550 O.2   1 <1>  -0.5700 
 23 C      -12.5260   -10.7100    -0.2100 C.2   1 <1>   0.1410 
 24 N      -11.5340   -11.2820    -0.9680 N.2   1 <1>  -0.5650 
 25 C      -13.4690   -11.6730     0.0450 C.2   1 <1>  -0.3320 
 26 C      -11.9000   -12.5040    -1.1430 C.2   1 <1>   0.0360 
 27 N      -13.0700   -12.8030    -0.5510 N.pl3 1 <1>   0.0330 
 28 C      -14.7660   -11.5940     0.8360 C.3   1 <1>  -0.0600 
 29 H       -0.7770    -2.5220    -1.2870 H     1 <1>   0.1500 
 30 H       -1.9550    -2.1570     2.7930 H     1 <1>   0.1500 
 31 H       -2.3660    -4.3950    -1.5850 H     1 <1>   0.1500 
 32 H       -3.5460    -4.0280     2.5090 H     1 <1>   0.1500 
 33 H       -4.2450    -5.9460     1.2020 H     1 <1>   0.0800 
 34 H       -3.5970    -6.2230    -0.3930 H     1 <1>   0.0800 
 35 H       -5.1270    -4.5320    -1.3270 H     1 <1>   0.0800 
 36 H       -5.7860    -4.2310     0.2610 H     1 <1>   0.0800 
 37 H       -6.8590    -6.3900     0.2500 H     1 <1>   0.3700 
 38 H       -6.9820    -8.8330    -1.6250 H     1 <1>   0.0800 
 39 H       -8.0720    -7.9180    -2.6180 H     1 <1>   0.0800 
 40 H       -8.3800    -9.9150    -0.2440 H     1 <1>   0.0800 
 41 H       -9.6960    -9.4410    -1.2730 H     1 <1>   0.0800 
 42 H      -10.2340    -7.0930    -1.5050 H     1 <1>   0.0800 
 43 H       -8.9950    -5.9170    -1.1700 H     1 <1>   0.0800 
 44 H       -9.6120    -8.8420     1.6960 H     1 <1>   0.0800 
 45 H      -10.2610   -10.3110     1.0580 H     1 <1>   0.0800 
 46 H      -10.4160    -5.3350     0.4810 H     1 <1>   0.0800 
 47 H       -9.4710    -6.4850     1.3530 H     1 <1>   0.0800 
 48 H      -12.2450    -6.7110     0.2280 H     1 <1>   0.0800 
 49 H      -11.7430    -6.9830     1.8680 H     1 <1>   0.0800 
 50 H      -11.3420   -13.2330    -1.7050 H     1 <1>   0.1500 
 51 H      -13.5510   -13.7080    -0.5640 H     1 <1>   0.2700 
 52 H      -14.8590   -10.6440     1.3320 H     1 <1>   0.0800 
 53 H      -14.7950   -12.3650     1.5850 H     1 <1>   0.0800 
 54 H      -15.6080   -11.7130     0.1780 H     1 <1>   0.0800 
@<TRIPOS>BOND
  1   1   2  1   
  2   2   3  ar  
  3   2   4  ar  
  4   3   5  ar  
  5   3  29  1   
  6   4   6  ar  
  7   4  30  1   
  8   5   7  ar  
  9   5  31  1   
 10   6   7  ar  
 11   6  32  1   
 12   7   8  1   
 13   8   9  1   
 14   8  33  1   
 15   8  34  1   
 16   9  10  1   
 17   9  35  1   
 18   9  36  1   
 19  10  11  am  
 20  10  37  1   
 21  11  12  2   
 22  11  13  1   
 23  13  14  1   
 24  13  38  1   
 25  13  39  1   
 26  14  15  1   
 27  14  16  1   
 28  15  17  1   
 29  15  40  1   
 30  15  41  1   
 31  16  18  1   
 32  16  42  1   
 33  16  43  1   
 34  17  19  1   
 35  17  44  1   
 36  17  45  1   
 37  18  20  1   
 38  18  46  1   
 39  18  47  1   
 40  19  20  1   
 41  19  21  am  
 42  20  48  1   
 43  20  49  1   
 44  21  22  2   
 45  21  23  1   
 46  23  24  1   
 47  23  25  2   
 48  24  26  2   
 49  25  27  1   
 50  25  28  1   
 51  26  27  1   
 52  26  50  1   
 53  27  51  1   
 54  28  52  1   
 55  28  53  1   
 56  28  54  1   
@<TRIPOS>SUBSTRUCTURE
  1 ****  14 GROUP 4 **** **** 0

# MOE 2024.06 (io_trps.svl 2023.06)
