@<TRIPOS>MOLECULE
NONAME
51 53 1 0 0 
SMALL
USER_CHARGES


@<TRIPOS>ATOM
  1 O        0.2700     0.0240     2.5640 O.2   1 <1>  -0.5700 
  2 C        0.7860    -0.6220     1.6850 C.2   1 <1>   0.5690 
  3 N        1.3990    -0.0790     0.5970 N.am  1 <1>  -0.4930 
  4 C        0.7660    -2.1340     1.7990 C.3   1 <1>  -0.0990 
  5 C        1.5920     1.2810     0.2450 C.2   1 <1>   0.0630 
  6 C       -0.1860    -2.7810     0.7790 C.3   1 <1>  -0.1600 
  7 C        0.7180     2.3690     0.3450 C.2   1 <1>   0.1080 
  8 C        2.7120     1.7910    -0.3140 C.2   1 <1>  -0.3320 
  9 C       -0.2090    -4.3080     0.9180 C.3   1 <1>   0.0210 
 10 N        1.2460     3.4640    -0.1090 N.2   1 <1>  -0.7070 
 11 C       -0.6930     2.3460     0.8890 C.3   1 <1>  -0.0590 
 12 N        2.4790     3.1150    -0.5100 N.pl3 1 <1>   0.3140 
 13 C        4.0180     1.0930    -0.6700 C.3   1 <1>  -0.0600 
 14 C       -1.1070    -4.9720    -0.1130 C.2   1 <1>  -0.1810 
 15 C        3.4000     4.1210    -1.0790 C.3   1 <1>   0.0960 
 16 C       -1.2190    -6.3750    -0.2440 C.ar  1 <1>   0.0000 
 17 C       -1.9190    -4.4110    -1.0430 C.2   1 <1>  -0.3020 
 18 C        4.2640     4.7580     0.0190 C.3   1 <1>  -0.1600 
 19 C       -2.1190    -6.6050    -1.2790 C.ar  1 <1>  -0.1520 
 20 C       -0.6420    -7.4630     0.4200 C.ar  1 <1>  -0.1500 
 21 N       -2.5410    -5.3940    -1.7590 N.pl3 1 <1>   0.0330 
 22 C        5.2340     5.7930    -0.5610 C.3   1 <1>  -0.2400 
 23 C       -2.4530    -7.9050    -1.6670 C.ar  1 <1>  -0.1500 
 24 C       -0.9700    -8.7440     0.0380 C.ar  1 <1>  -0.1500 
 25 C       -1.8760    -8.9650    -1.0060 C.ar  1 <1>  -0.1500 
 26 H        1.8420    -0.7320    -0.0430 H     1 <1>   0.3700 
 27 H        0.4530    -2.3930     2.7960 H     1 <1>   0.0800 
 28 H        1.7650    -2.5050     1.6630 H     1 <1>   0.0800 
 29 H        0.1200    -2.5240    -0.2200 H     1 <1>   0.0800 
 30 H       -1.1820    -2.3980     0.9330 H     1 <1>   0.0800 
 31 H       -0.5570    -4.5780     1.9000 H     1 <1>   0.0800 
 32 H        0.7880    -4.6940     0.7980 H     1 <1>   0.0800 
 33 H       -1.1650     1.4100     0.6590 H     1 <1>   0.0800 
 34 H       -1.2650     3.1440     0.4530 H     1 <1>   0.0800 
 35 H       -0.6660     2.4770     1.9550 H     1 <1>   0.0800 
 36 H        3.9890     0.0600    -0.3760 H     1 <1>   0.0800 
 37 H        4.8400     1.5640    -0.1610 H     1 <1>   0.0800 
 38 H        4.1870     1.1420    -1.7310 H     1 <1>   0.0800 
 39 H        2.8080     4.8760    -1.5620 H     1 <1>   0.0800 
 40 H        4.0180     3.6470    -1.8180 H     1 <1>   0.0800 
 41 H       -2.0990    -3.3700    -1.2450 H     1 <1>   0.1500 
 42 H        4.8240     3.9930     0.5290 H     1 <1>   0.0800 
 43 H        3.6180     5.2390     0.7360 H     1 <1>   0.0800 
 44 H        0.0510    -7.2830     1.2200 H     1 <1>   0.1500 
 45 H       -3.2120    -5.2640    -2.5230 H     1 <1>   0.2700 
 46 H        5.9010     5.3330    -1.2680 H     1 <1>   0.0800 
 47 H        5.8210     6.2290     0.2290 H     1 <1>   0.0800 
 48 H        4.6920     6.5810    -1.0550 H     1 <1>   0.0800 
 49 H       -3.1500    -8.0660    -2.4700 H     1 <1>   0.1500 
 50 H       -0.5330    -9.5890     0.5390 H     1 <1>   0.1500 
 51 H       -2.1160    -9.9760    -1.2860 H     1 <1>   0.1500 
@<TRIPOS>BOND
  1   1   2  2   
  2   2   3  am  
  3   2   4  1   
  4   3   5  1   
  5   3  26  1   
  6   4   6  1   
  7   4  27  1   
  8   4  28  1   
  9   5   7  1   
 10   5   8  2   
 11   6   9  1   
 12   6  29  1   
 13   6  30  1   
 14   7  10  2   
 15   7  11  1   
 16   8  12  1   
 17   8  13  1   
 18   9  14  1   
 19   9  31  1   
 20   9  32  1   
 21  10  12  1   
 22  11  33  1   
 23  11  34  1   
 24  11  35  1   
 25  12  15  1   
 26  13  36  1   
 27  13  37  1   
 28  13  38  1   
 29  14  16  1   
 30  14  17  2   
 31  15  18  1   
 32  15  39  1   
 33  15  40  1   
 34  16  19  ar  
 35  16  20  ar  
 36  17  21  1   
 37  17  41  1   
 38  18  22  1   
 39  18  42  1   
 40  18  43  1   
 41  19  21  1   
 42  19  23  ar  
 43  20  24  ar  
 44  20  44  1   
 45  21  45  1   
 46  22  46  1   
 47  22  47  1   
 48  22  48  1   
 49  23  25  ar  
 50  23  49  1   
 51  24  25  ar  
 52  24  50  1   
 53  25  51  1   
@<TRIPOS>SUBSTRUCTURE
  1 ****   6 GROUP 4 **** **** 0

# MOE 2024.06 (io_trps.svl 2023.06)
