@<TRIPOS>MOLECULE
NONAME
63 65 1 0 0 
SMALL
USER_CHARGES


@<TRIPOS>ATOM
  1 O       -0.8550     3.2790     2.5070 O.2   1 <1>  -0.5700 
  2 C       -1.9370     3.0440     2.0050 C.2   1 <1>   0.5440 
  3 N       -2.9930     3.8930     2.2680 N.am  1 <1>  -0.6600 
  4 C       -2.0800     1.9100     1.1120 C.ar  1 <1>   0.0860 
  5 C       -2.8910     4.9420     3.3140 C.3   1 <1>   0.1400 
  6 C       -4.0640     4.1650     1.2760 C.3   1 <1>   0.1400 
  7 C       -3.1170     0.9920     1.2660 C.ar  1 <1>  -0.1500 
  8 C       -1.1840     1.7120     0.0650 C.ar  1 <1>  -0.1500 
  9 C       -2.4900     6.2540     2.6400 C.3   1 <1>  -0.1600 
 10 C       -3.6990     5.4480     0.5280 C.3   1 <1>  -0.1600 
 11 C       -3.2670    -0.0750     0.3880 C.ar  1 <1>   0.0830 
 12 C       -1.3230     0.6580    -0.8190 C.ar  1 <1>   0.0830 
 13 C       -3.4490     6.6340     1.4870 C.3   1 <1>  -0.0190 
 14 O       -4.2600    -0.9940     0.4860 O.3   1 <1>  -0.3630 
 15 C       -2.3730    -0.2370    -0.6560 C.ar  1 <1>  -0.1500 
 16 O       -0.4030     0.5680    -1.8110 O.3   1 <1>  -0.3630 
 17 C       -2.9400     7.8500     0.7200 C.2   1 <1>   0.5690 
 18 C       -5.1370    -1.0150     1.5920 C.3   1 <1>   0.0400 
 19 C       -0.4220    -0.5020    -2.7290 C.3   1 <1>   0.0400 
 20 O       -3.6460     8.8260     0.6430 O.2   1 <1>  -0.5700 
 21 N       -1.7020     7.7550     0.1460 N.am  1 <1>  -0.4940 
 22 C       -0.9930     8.6840    -0.6530 C.2   1 <1>  -0.0880 
 23 N        0.2300     8.4560    -1.2030 N.pl3 1 <1>   0.3140 
 24 C       -1.3480     9.9310    -1.0370 C.2   1 <1>  -0.1500 
 25 N        0.6600     9.5170    -1.9200 N.2   1 <1>  -0.7070 
 26 C        1.0530     7.2360    -1.0690 C.3   1 <1>   0.0960 
 27 C       -0.2920    10.3900    -1.8130 C.2   1 <1>   0.1080 
 28 C        0.5110     6.1040    -1.9560 C.3   1 <1>  -0.1600 
 29 C       -0.2240    11.7460    -2.4740 C.3   1 <1>  -0.0590 
 30 C        1.2850     4.8000    -1.7290 C.3   1 <1>  -0.1600 
 31 C        0.7500     3.6840    -2.6300 C.3   1 <1>  -0.2400 
 32 H       -2.1570     4.6650     4.0540 H     1 <1>   0.0800 
 33 H       -3.8410     5.0490     3.8090 H     1 <1>   0.0800 
 34 H       -5.0030     4.2850     1.7880 H     1 <1>   0.0800 
 35 H       -4.1640     3.3540     0.5760 H     1 <1>   0.0800 
 36 H       -3.7960     1.1370     2.0840 H     1 <1>   0.1500 
 37 H       -0.3620     2.3940    -0.0590 H     1 <1>   0.1500 
 38 H       -1.4840     6.1380     2.2790 H     1 <1>   0.0800 
 39 H       -2.4800     7.0410     3.3740 H     1 <1>   0.0800 
 40 H       -4.4940     5.7010    -0.1510 H     1 <1>   0.0800 
 41 H       -2.8210     5.2520    -0.0630 H     1 <1>   0.0800 
 42 H       -4.3940     6.9020     1.9270 H     1 <1>   0.0800 
 43 H       -2.5190    -1.0670    -1.3190 H     1 <1>   0.1500 
 44 H       -5.7920    -1.8600     1.4800 H     1 <1>   0.0800 
 45 H       -5.7120    -0.1070     1.6010 H     1 <1>   0.0800 
 46 H       -4.5600    -1.1180     2.4940 H     1 <1>   0.0800 
 47 H        0.4060    -0.3790    -3.4040 H     1 <1>   0.0800 
 48 H       -1.3470    -0.4760    -3.2780 H     1 <1>   0.0800 
 49 H       -0.3190    -1.4270    -2.1900 H     1 <1>   0.0800 
 50 H       -1.2350     6.8650     0.3150 H     1 <1>   0.3700 
 51 H       -2.2510    10.4640    -0.8010 H     1 <1>   0.1500 
 52 H        1.0550     6.9410    -0.0370 H     1 <1>   0.0800 
 53 H        2.0600     7.4770    -1.3560 H     1 <1>   0.0800 
 54 H        0.6000     6.4010    -2.9880 H     1 <1>   0.0800 
 55 H       -0.5300     5.9380    -1.7420 H     1 <1>   0.0800 
 56 H       -1.1100    12.3130    -2.2600 H     1 <1>   0.0800 
 57 H       -0.1310    11.6210    -3.5370 H     1 <1>   0.0800 
 58 H        0.6350    12.2790    -2.1090 H     1 <1>   0.0800 
 59 H        1.1970     4.4950    -0.7000 H     1 <1>   0.0800 
 60 H        2.3290     4.9550    -1.9430 H     1 <1>   0.0800 
 61 H       -0.2910     3.4980    -2.4300 H     1 <1>   0.0800 
 62 H        1.2960     2.7740    -2.4510 H     1 <1>   0.0800 
 63 H        0.8600     3.9490    -3.6670 H     1 <1>   0.0800 
@<TRIPOS>BOND
  1   1   2  2   
  2   2   3  am  
  3   2   4  1   
  4   3   5  1   
  5   3   6  1   
  6   4   7  ar  
  7   4   8  ar  
  8   5   9  1   
  9   5  32  1   
 10   5  33  1   
 11   6  10  1   
 12   6  34  1   
 13   6  35  1   
 14   7  11  ar  
 15   7  36  1   
 16   8  12  ar  
 17   8  37  1   
 18   9  13  1   
 19   9  38  1   
 20   9  39  1   
 21  10  13  1   
 22  10  40  1   
 23  10  41  1   
 24  11  14  1   
 25  11  15  ar  
 26  12  15  ar  
 27  12  16  1   
 28  13  17  1   
 29  13  42  1   
 30  14  18  1   
 31  15  43  1   
 32  16  19  1   
 33  17  20  2   
 34  17  21  am  
 35  18  44  1   
 36  18  45  1   
 37  18  46  1   
 38  19  47  1   
 39  19  48  1   
 40  19  49  1   
 41  21  22  1   
 42  21  50  1   
 43  22  23  1   
 44  22  24  2   
 45  23  25  1   
 46  23  26  1   
 47  24  27  1   
 48  24  51  1   
 49  25  27  2   
 50  26  28  1   
 51  26  52  1   
 52  26  53  1   
 53  27  29  1   
 54  28  30  1   
 55  28  54  1   
 56  28  55  1   
 57  29  56  1   
 58  29  57  1   
 59  29  58  1   
 60  30  31  1   
 61  30  59  1   
 62  30  60  1   
 63  31  61  1   
 64  31  62  1   
 65  31  63  1   
@<TRIPOS>SUBSTRUCTURE
  1 ****  10 GROUP 4 **** **** 0

# MOE 2024.06 (io_trps.svl 2023.06)
