@<TRIPOS>MOLECULE
NONAME
57 59 1 0 0 
SMALL
USER_CHARGES


@<TRIPOS>ATOM
  1 O       -0.4290     0.5460    -1.7700 O.co2 1 <1>  -0.9000 
  2 C       -0.9340     0.6630    -0.6500 C.2   1 <1>   0.9060 
  3 O       -1.5190    -0.2590    -0.0760 O.co2 1 <1>  -0.9000 
  4 C       -0.8690     2.0130     0.0370 C.3   1 <1>  -0.1060 
  5 C       -2.2920     2.3560     0.5170 C.3   1 <1>   0.2000 
  6 C       -0.5260     3.0130    -1.0750 C.3   1 <1>   0.3430 
  7 C        0.1780     1.9250     1.1960 C.3   1 <1>  -0.0170 
  8 O       -2.6000     1.5770     1.6090 O.3   1 <1>  -0.6800 
  9 C       -2.4910     3.8330     0.8920 C.3   1 <1>  -0.1600 
 10 N       -0.7090     4.4690    -0.7180 N.4   1 <1>  -0.9590 
 11 C        1.5530     2.5060     0.8810 C.ar  1 <1>  -0.1440 
 12 C       -1.2360     4.6750     0.6660 C.3   1 <1>   0.3430 
 13 C        0.6030     5.1590    -0.9570 C.3   1 <1>   0.3430 
 14 C        2.3160     1.9860    -0.1540 C.ar  1 <1>  -0.1500 
 15 C        2.0590     3.5580     1.6320 C.ar  1 <1>  -0.1500 
 16 C        0.5470     6.6730    -0.7430 C.3   1 <1>   0.1200 
 17 C        3.5470     2.5370    -0.4620 C.ar  1 <1>  -0.1500 
 18 C        3.2910     4.1100     1.3250 C.ar  1 <1>  -0.1500 
 19 O        1.8400     7.1730    -0.9710 O.3   1 <1>  -0.3620 
 20 C        4.0320     3.6040     0.2730 C.ar  1 <1>  -0.1500 
 21 C        2.1740     8.4410    -0.6180 C.ar  1 <1>   0.0820 
 22 C        3.5260     8.7400    -0.4820 C.ar  1 <1>  -0.1440 
 23 C        1.2230     9.4320    -0.3890 C.ar  1 <1>  -0.1500 
 24 C        3.9090    10.0180    -0.1100 C.ar  1 <1>  -0.1500 
 25 C        4.5880     7.6790    -0.7370 C.3   1 <1>  -0.0970 
 26 C        1.6200    10.7040    -0.0170 C.ar  1 <1>  -0.1500 
 27 C        2.9640    11.0020     0.1270 C.ar  1 <1>  -0.1440 
 28 C        3.4010    12.3990     0.5330 C.3   1 <1>  -0.0970 
 29 H       -2.9990     2.0930    -0.2550 H     1 <1>   0.0800 
 30 H       -1.1620     2.7850    -1.9170 H     1 <1>   0.0800 
 31 H        0.4800     2.8290    -1.4110 H     1 <1>   0.0800 
 32 H       -0.2050     2.4130     2.0740 H     1 <1>   0.0800 
 33 H        0.3080     0.8940     1.4830 H     1 <1>   0.0800 
 34 H       -2.4200     0.6340     1.3330 H     1 <1>   0.4000 
 35 H       -3.2920     4.2370     0.3010 H     1 <1>   0.0800 
 36 H       -2.7800     3.9190     1.9260 H     1 <1>   0.0800 
 37 H       -1.3990     4.8380    -1.3830 H     1 <1>   0.4500 
 38 H       -0.4840     4.3870     1.3810 H     1 <1>   0.0800 
 39 H       -1.4690     5.7140     0.8280 H     1 <1>   0.0800 
 40 H        1.3480     4.7480    -0.3000 H     1 <1>   0.0800 
 41 H        0.9220     4.9710    -1.9690 H     1 <1>   0.0800 
 42 H        1.9520     1.1450    -0.7280 H     1 <1>   0.1500 
 43 H        1.5030     3.9520     2.4650 H     1 <1>   0.1500 
 44 H        0.2800     6.9120     0.2710 H     1 <1>   0.0800 
 45 H       -0.1210     7.1400    -1.4430 H     1 <1>   0.0800 
 46 H        4.1270     2.1270    -1.2710 H     1 <1>   0.1500 
 47 H        3.6770     4.9290     1.9080 H     1 <1>   0.1500 
 48 H        4.9920     4.0290     0.0330 H     1 <1>   0.1500 
 49 H        0.1740     9.2420    -0.5020 H     1 <1>   0.1500 
 50 H        4.9530    10.2550    -0.0030 H     1 <1>   0.1500 
 51 H        5.5760     8.0720    -0.5770 H     1 <1>   0.0800 
 52 H        4.5180     7.3310    -1.7520 H     1 <1>   0.0800 
 53 H        4.4390     6.8460    -0.0730 H     1 <1>   0.0800 
 54 H        0.8790    11.4650     0.1560 H     1 <1>   0.1500 
 55 H        2.6320    12.8840     1.1060 H     1 <1>   0.0800 
 56 H        3.6020    12.9850    -0.3450 H     1 <1>   0.0800 
 57 H        4.2920    12.3530     1.1330 H     1 <1>   0.0800 
@<TRIPOS>BOND
  1   1   2  ar  
  2   2   3  ar  
  3   2   4  1   
  4   4   5  1   
  5   4   6  1   
  6   4   7  1   
  7   5   8  1   
  8   5   9  1   
  9   5  29  1   
 10   6  10  1   
 11   6  30  1   
 12   6  31  1   
 13   7  11  1   
 14   7  32  1   
 15   7  33  1   
 16   8  34  1   
 17   9  12  1   
 18   9  35  1   
 19   9  36  1   
 20  10  12  1   
 21  10  13  1   
 22  10  37  1   
 23  11  14  ar  
 24  11  15  ar  
 25  12  38  1   
 26  12  39  1   
 27  13  16  1   
 28  13  40  1   
 29  13  41  1   
 30  14  17  ar  
 31  14  42  1   
 32  15  18  ar  
 33  15  43  1   
 34  16  19  1   
 35  16  44  1   
 36  16  45  1   
 37  17  20  ar  
 38  17  46  1   
 39  18  20  ar  
 40  18  47  1   
 41  19  21  1   
 42  20  48  1   
 43  21  22  ar  
 44  21  23  ar  
 45  22  24  ar  
 46  22  25  1   
 47  23  26  ar  
 48  23  49  1   
 49  24  27  ar  
 50  24  50  1   
 51  25  51  1   
 52  25  52  1   
 53  25  53  1   
 54  26  27  ar  
 55  26  54  1   
 56  27  28  1   
 57  28  55  1   
 58  28  56  1   
 59  28  57  1   
@<TRIPOS>SUBSTRUCTURE
  1 ****  13 GROUP 4 **** **** 0

# MOE 2024.06 (io_trps.svl 2023.06)
