@<TRIPOS>MOLECULE
NONAME
43 45 1 0 0 
SMALL
USER_CHARGES


@<TRIPOS>ATOM
  1 O        1.9580    -0.7710     1.5580 O.2   1 <1>  -0.5700 
  2 C        2.0750    -1.1920     0.4340 C.2   1 <1>   0.5690 
  3 N        2.1080    -0.3650    -0.6410 N.am  1 <1>  -0.7300 
  4 C        2.1870    -2.6860     0.2130 C.3   1 <1>  -0.0990 
  5 C        1.9310     1.1110    -0.5610 C.3   1 <1>   0.1400 
  6 C        0.8300    -3.3070    -0.1570 C.3   1 <1>  -0.1600 
  7 C        3.1240     1.8020     0.1260 C.3   1 <1>   0.1760 
  8 C        0.9220    -4.8310    -0.3210 C.3   1 <1>   0.0200 
  9 N        2.8510     3.2560     0.2010 N.pl3 1 <1>   0.0480 
 10 C        4.4610     1.5470    -0.5910 C.3   1 <1>  -0.2400 
 11 C       -0.4230    -5.4270    -0.6880 C.2   1 <1>   0.2980 
 12 C        2.5320     3.9640     1.3080 C.2   1 <1>   0.0360 
 13 C        2.8290     4.1610    -0.7970 C.2   1 <1>  -0.3020 
 14 O       -0.9220    -5.1740    -1.8700 O.3   1 <1>  -0.0190 
 15 N       -1.1330    -6.1650     0.0590 N.2   1 <1>  -0.5650 
 16 N        2.3170     5.2210     1.0870 N.2   1 <1>  -0.5650 
 17 C        2.5050     5.3480    -0.2390 C.2   1 <1>   0.0770 
 18 N       -2.0540    -5.8040    -1.8760 N.2   1 <1>  -0.4100 
 19 C       -2.1850    -6.3900    -0.7380 C.2   1 <1>   0.5150 
 20 C       -3.3030    -7.2030    -0.3090 C.2   1 <1>   0.1410 
 21 O       -4.3450    -7.4200    -1.1070 O.3   1 <1>  -0.2800 
 22 C       -3.5180    -7.8520     0.8680 C.2   1 <1>  -0.1500 
 23 C       -5.2100    -8.1840    -0.4730 C.2   1 <1>  -0.0100 
 24 C       -4.7570    -8.4890     0.7610 C.2   1 <1>  -0.1500 
 25 H        2.1920    -0.7580    -1.5800 H     1 <1>   0.3700 
 26 H        2.5530    -3.1320     1.1220 H     1 <1>   0.0800 
 27 H        2.9080    -2.8740    -0.5610 H     1 <1>   0.0800 
 28 H        1.0370     1.3180     0.0030 H     1 <1>   0.0800 
 29 H        1.8060     1.5030    -1.5550 H     1 <1>   0.0800 
 30 H        0.4710    -2.8670    -1.0710 H     1 <1>   0.0800 
 31 H        0.1170    -3.0810     0.6190 H     1 <1>   0.0800 
 32 H        3.1950     1.4360     1.1350 H     1 <1>   0.0800 
 33 H        1.2550    -5.2750     0.6010 H     1 <1>   0.0800 
 34 H        1.6310    -5.0820    -1.0890 H     1 <1>   0.0800 
 35 H        4.4080     1.8460    -1.6220 H     1 <1>   0.0800 
 36 H        4.7070     0.5020    -0.5500 H     1 <1>   0.0800 
 37 H        5.2490     2.0940    -0.1030 H     1 <1>   0.0800 
 38 H        2.4650     3.5040     2.2780 H     1 <1>   0.1500 
 39 H        3.0400     3.9260    -1.8240 H     1 <1>   0.1500 
 40 H        2.3940     6.3010    -0.7280 H     1 <1>   0.1500 
 41 H       -2.8690    -7.8770     1.7250 H     1 <1>   0.1500 
 42 H       -6.1210    -8.4640    -0.9730 H     1 <1>   0.1500 
 43 H       -5.2240    -9.0900     1.5210 H     1 <1>   0.1500 
@<TRIPOS>BOND
  1   1   2  2   
  2   2   3  am  
  3   2   4  1   
  4   3   5  1   
  5   3  25  1   
  6   4   6  1   
  7   4  26  1   
  8   4  27  1   
  9   5   7  1   
 10   5  28  1   
 11   5  29  1   
 12   6   8  1   
 13   6  30  1   
 14   6  31  1   
 15   7   9  1   
 16   7  10  1   
 17   7  32  1   
 18   8  11  1   
 19   8  33  1   
 20   8  34  1   
 21   9  12  1   
 22   9  13  1   
 23  10  35  1   
 24  10  36  1   
 25  10  37  1   
 26  11  14  1   
 27  11  15  2   
 28  12  16  2   
 29  12  38  1   
 30  13  17  2   
 31  13  39  1   
 32  14  18  1   
 33  15  19  1   
 34  16  17  1   
 35  17  40  1   
 36  18  19  2   
 37  19  20  1   
 38  20  21  1   
 39  20  22  2   
 40  21  23  1   
 41  22  24  1   
 42  22  41  1   
 43  23  24  2   
 44  23  42  1   
 45  24  43  1   
@<TRIPOS>SUBSTRUCTURE
  1 ****   6 GROUP 4 **** **** 0

# MOE 2024.06 (io_trps.svl 2023.06)
