@<TRIPOS>MOLECULE
NONAME
47 49 1 0 0 
SMALL
USER_CHARGES


@<TRIPOS>ATOM
  1 S       -1.4090    -1.1020    -0.2320 S.3   1 <1>  -0.3320 
  2 C       -0.8730     0.5910     0.0770 C.ar  1 <1>   0.1020 
  3 C       -1.5620    -1.2880    -2.0770 C.3   1 <1>   0.1310 
  4 C       -0.7100     0.9640     1.3970 C.ar  1 <1>  -0.1500 
  5 C       -0.6300     1.4880    -0.9520 C.ar  1 <1>  -0.1500 
  6 C       -2.0710    -2.6740    -2.4370 C.2   1 <1>   0.5690 
  7 C       -0.3010     2.2500     1.7070 C.ar  1 <1>   0.0830 
  8 C       -0.2210     2.7750    -0.6430 C.ar  1 <1>  -0.1500 
  9 O       -2.7560    -2.8070    -3.4220 O.2   1 <1>  -0.5700 
 10 N       -1.7570    -3.7280    -1.6420 N.am  1 <1>  -0.7300 
 11 O       -0.1630     2.5460     3.0240 O.3   1 <1>  -0.3630 
 12 C       -0.0560     3.1570     0.6780 C.ar  1 <1>  -0.1500 
 13 C       -2.2770    -5.1050    -1.7900 C.3   1 <1>   0.2200 
 14 C        0.2470     3.8270     3.4490 C.3   1 <1>   0.0400 
 15 C       -3.3440    -5.3980    -0.7440 C.3   1 <1>  -0.0800 
 16 C       -1.1950    -6.0900    -1.3680 C.3   1 <1>   0.1200 
 17 C       -2.5200    -5.7980     0.4840 C.3   1 <1>   0.1200 
 18 C       -4.3610    -4.2710    -0.4810 C.3   1 <1>  -0.0170 
 19 O       -1.2340    -6.1060     0.0270 O.3   1 <1>  -0.5600 
 20 C       -5.3930    -4.6980     0.5510 C.ar  1 <1>  -0.1440 
 21 C       -6.4580    -5.5130     0.2220 C.ar  1 <1>  -0.1500 
 22 C       -5.3190    -4.2950     1.8690 C.ar  1 <1>  -0.1500 
 23 C       -7.3670    -5.8790     1.2000 C.ar  1 <1>   0.1600 
 24 C       -6.2820    -4.7180     2.7690 C.ar  1 <1>   0.1600 
 25 N       -7.3040    -5.5040     2.4670 N.ar  1 <1>  -0.6200 
 26 H       -2.2550    -0.5420    -2.4190 H     1 <1>   0.0800 
 27 H       -0.5910    -1.1250    -2.5030 H     1 <1>   0.0800 
 28 H       -0.9000     0.2610     2.1870 H     1 <1>   0.1500 
 29 H       -0.7520     1.2130    -1.9800 H     1 <1>   0.1500 
 30 H       -0.0300     3.4810    -1.4330 H     1 <1>   0.1500 
 31 H       -1.2290    -3.5660    -0.7780 H     1 <1>   0.3700 
 32 H        0.2630     4.1610     0.8860 H     1 <1>   0.1500 
 33 H       -2.6190    -5.2770    -2.7970 H     1 <1>   0.0800 
 34 H        0.2840     3.8250     4.5240 H     1 <1>   0.0800 
 35 H       -0.4690     4.5540     3.1100 H     1 <1>   0.0800 
 36 H        1.2250     4.0310     3.0510 H     1 <1>   0.0800 
 37 H       -3.8860    -6.2710    -1.0630 H     1 <1>   0.0800 
 38 H       -0.2140    -5.8000    -1.7020 H     1 <1>   0.0800 
 39 H       -1.4240    -7.0810    -1.7160 H     1 <1>   0.0800 
 40 H       -2.9330    -6.6590     0.9810 H     1 <1>   0.0800 
 41 H       -2.4280    -4.9840     1.1830 H     1 <1>   0.0800 
 42 H       -4.8580    -4.0160    -1.4010 H     1 <1>   0.0800 
 43 H       -3.8620    -3.3850    -0.1290 H     1 <1>   0.0800 
 44 H       -6.5880    -5.8650    -0.7850 H     1 <1>   0.1500 
 45 H       -4.5240    -3.6540     2.2040 H     1 <1>   0.1500 
 46 H       -8.1910    -6.5150     0.9250 H     1 <1>   0.1500 
 47 H       -6.2080    -4.3940     3.7930 H     1 <1>   0.1500 
@<TRIPOS>BOND
  1   1   2  1   
  2   1   3  1   
  3   2   4  ar  
  4   2   5  ar  
  5   3   6  1   
  6   3  26  1   
  7   3  27  1   
  8   4   7  ar  
  9   4  28  1   
 10   5   8  ar  
 11   5  29  1   
 12   6   9  2   
 13   6  10  am  
 14   7  11  1   
 15   7  12  ar  
 16   8  12  ar  
 17   8  30  1   
 18  10  13  1   
 19  10  31  1   
 20  11  14  1   
 21  12  32  1   
 22  13  15  1   
 23  13  16  1   
 24  13  33  1   
 25  14  34  1   
 26  14  35  1   
 27  14  36  1   
 28  15  17  1   
 29  15  18  1   
 30  15  37  1   
 31  16  19  1   
 32  16  38  1   
 33  16  39  1   
 34  17  19  1   
 35  17  40  1   
 36  17  41  1   
 37  18  20  1   
 38  18  42  1   
 39  18  43  1   
 40  20  21  ar  
 41  20  22  ar  
 42  21  23  ar  
 43  21  44  1   
 44  22  24  ar  
 45  22  45  1   
 46  23  25  ar  
 47  23  46  1   
 48  24  25  ar  
 49  24  47  1   
@<TRIPOS>SUBSTRUCTURE
  1 ****   1 GROUP 4 **** **** 0

# MOE 2024.06 (io_trps.svl 2023.06)
