@<TRIPOS>MOLECULE
NONAME
43 45 1 0 0 
SMALL
USER_CHARGES


@<TRIPOS>ATOM
  1 O        0.8560     3.4860    -1.2750 O.3   1 <1>  -0.0190 
  2 N        1.9840     3.3680    -1.9030 N.2   1 <1>  -0.4100 
  3 C        0.7160     2.5750    -0.3520 C.2   1 <1>  -0.0400 
  4 C        2.5570     2.3230    -1.4220 C.2   1 <1>   0.1080 
  5 C        1.7860     1.7680    -0.4050 C.2   1 <1>  -0.1500 
  6 C       -0.4970     2.6020     0.5600 C.3   1 <1>   0.0200 
  7 C        3.8880     1.7850    -1.9010 C.3   1 <1>  -0.0590 
  8 C       -0.6060     3.9000     1.3970 C.3   1 <1>  -0.0800 
  9 C       -1.1070     5.1010     0.5840 C.3   1 <1>   0.2000 
 10 C        0.7460     4.3700     1.9460 C.3   1 <1>   0.3430 
 11 O       -1.9850     5.8370     1.3690 O.3   1 <1>  -0.6800 
 12 C        0.1230     5.9630     0.2580 C.3   1 <1>   0.3430 
 13 N        1.2920     5.3140     0.9340 N.4   1 <1>  -0.9590 
 14 C        2.3150     6.2640     1.4530 C.3   1 <1>   0.4860 
 15 C        2.7420     7.2210     0.3580 C.ar  1 <1>  -0.1440 
 16 C        3.6700     6.8760    -0.6240 C.ar  1 <1>   0.1670 
 17 C        2.1920     8.4910     0.3420 C.ar  1 <1>  -0.1500 
 18 N        4.0510     7.6930    -1.5880 N.ar  1 <1>  -0.6200 
 19 C        4.3550     5.5210    -0.6900 C.3   1 <1>  -0.0970 
 20 C        2.5910     9.3420    -0.6640 C.ar  1 <1>  -0.1500 
 21 C        3.5110     8.8990    -1.5940 C.ar  1 <1>   0.1600 
 22 H        2.0340     0.8980     0.1780 H     1 <1>   0.1500 
 23 H       -1.3890     2.4640    -0.0280 H     1 <1>   0.0800 
 24 H       -0.4280     1.7610     1.2280 H     1 <1>   0.0800 
 25 H        4.5960     1.7700    -1.0940 H     1 <1>   0.0800 
 26 H        4.2730     2.4030    -2.6930 H     1 <1>   0.0800 
 27 H        3.7610     0.7860    -2.2770 H     1 <1>   0.0800 
 28 H       -1.2800     3.6920     2.2100 H     1 <1>   0.0800 
 29 H       -1.6340     4.8180    -0.3120 H     1 <1>   0.0800 
 30 H        1.4150     3.5410     2.1150 H     1 <1>   0.0800 
 31 H        0.5860     4.8910     2.8760 H     1 <1>   0.0800 
 32 H       -1.6620     5.9950     2.2770 H     1 <1>   0.4000 
 33 H       -0.0320     6.9660     0.6190 H     1 <1>   0.0800 
 34 H        0.2880     5.9930    -0.8070 H     1 <1>   0.0800 
 35 H        1.7390     4.7530     0.1840 H     1 <1>   0.4500 
 36 H        1.9060     6.8290     2.2750 H     1 <1>   0.0800 
 37 H        3.1750     5.7240     1.8150 H     1 <1>   0.0800 
 38 H        1.4810     8.8260     1.0780 H     1 <1>   0.1500 
 39 H        3.9780     4.8120     0.0180 H     1 <1>   0.0800 
 40 H        5.4080     5.6520    -0.5180 H     1 <1>   0.0800 
 41 H        4.2290     5.1130    -1.6770 H     1 <1>   0.0800 
 42 H        2.2000    10.3420    -0.7320 H     1 <1>   0.1500 
 43 H        3.8210     9.5670    -2.3800 H     1 <1>   0.1500 
@<TRIPOS>BOND
  1   1   2  1   
  2   1   3  1   
  3   2   4  2   
  4   3   5  2   
  5   3   6  1   
  6   4   5  1   
  7   4   7  1   
  8   5  22  1   
  9   6   8  1   
 10   6  23  1   
 11   6  24  1   
 12   7  25  1   
 13   7  26  1   
 14   7  27  1   
 15   8   9  1   
 16   8  10  1   
 17   8  28  1   
 18   9  11  1   
 19   9  12  1   
 20   9  29  1   
 21  10  13  1   
 22  10  30  1   
 23  10  31  1   
 24  11  32  1   
 25  12  13  1   
 26  12  33  1   
 27  12  34  1   
 28  13  14  1   
 29  13  35  1   
 30  14  15  1   
 31  14  36  1   
 32  14  37  1   
 33  15  16  ar  
 34  15  17  ar  
 35  16  18  ar  
 36  16  19  1   
 37  17  20  ar  
 38  17  38  1   
 39  18  21  ar  
 40  19  39  1   
 41  19  40  1   
 42  19  41  1   
 43  20  21  ar  
 44  20  42  1   
 45  21  43  1   
@<TRIPOS>SUBSTRUCTURE
  1 ****  13 GROUP 4 **** **** 0

# MOE 2024.06 (io_trps.svl 2023.06)
