@<TRIPOS>MOLECULE
NONAME
53 56 1 0 0 
SMALL
USER_CHARGES


@<TRIPOS>ATOM
  1 O       -1.5000     0.6030    -2.8210 O.2   1 <1>  -0.5700 
  2 C       -2.1240     1.0770    -1.8910 C.2   1 <1>   0.5440 
  3 N       -3.1090     0.3280    -1.2830 N.am  1 <1>  -0.6600 
  4 C       -1.8150     2.4230    -1.4510 C.ar  1 <1>   0.0860 
  5 C       -3.1620    -1.1690    -1.3920 C.3   1 <1>   0.1400 
  6 C       -4.3010     0.9300    -0.6290 C.3   1 <1>   0.1400 
  7 C       -1.6810     3.4690    -2.3610 C.ar  1 <1>  -0.1500 
  8 C       -1.6300     2.7300    -0.1040 C.ar  1 <1>  -0.1500 
  9 C       -3.2910    -1.8150     0.0070 C.3   1 <1>  -0.1060 
 10 C       -4.4650     0.3550     0.7760 C.3   1 <1>  -0.1600 
 11 C       -1.3980     4.7570    -1.9470 C.ar  1 <1>  -0.1500 
 12 C       -1.3490     4.0180     0.3110 C.ar  1 <1>  -0.1500 
 13 C       -3.6460    -3.2930    -0.1220 C.2   1 <1>   0.9060 
 14 C       -4.5020    -1.1730     0.7200 C.3   1 <1>   0.2000 
 15 C       -1.9690    -1.6420     0.8110 C.3   1 <1>  -0.0170 
 16 C       -1.2280     5.0720    -0.5960 C.ar  1 <1>   0.0540 
 17 O       -3.8940    -3.7880    -1.2260 O.co2 1 <1>  -0.9000 
 18 O       -3.7800    -3.9500     0.9240 O.co2 1 <1>  -0.9000 
 19 O       -4.5930    -1.6440     2.0160 O.3   1 <1>  -0.6800 
 20 C       -0.7330    -2.2450     0.1480 C.ar  1 <1>  -0.1430 
 21 C       -0.9400     6.4230    -0.1490 C.2   1 <1>   0.4620 
 22 C        0.1500    -1.4480    -0.5650 C.ar  1 <1>  -0.1500 
 23 C       -0.4760    -3.6020     0.2590 C.ar  1 <1>  -0.1500 
 24 N       -0.7900     7.4520    -0.9940 N.2   1 <1>  -0.2270 
 25 N       -0.8010     6.7750     1.0890 N.2   1 <1>  -0.7070 
 26 C        1.2750    -1.9970    -1.1550 C.ar  1 <1>  -0.1500 
 27 C        0.6490    -4.1550    -0.3290 C.ar  1 <1>  -0.1500 
 28 N       -0.5510     8.4780    -0.2840 N.2   1 <1>  -0.4180 
 29 N       -0.5590     8.0570     0.9650 N.pl3 1 <1>   0.5800 
 30 C        1.5270    -3.3530    -1.0360 C.ar  1 <1>  -0.1500 
 31 C       -0.3270     8.9390     2.1110 C.3   1 <1>   0.0160 
 32 H       -4.0130    -1.4380    -1.9940 H     1 <1>   0.0800 
 33 H       -2.2880    -1.5500    -1.8940 H     1 <1>   0.0800 
 34 H       -4.2190     2.0010    -0.5830 H     1 <1>   0.0800 
 35 H       -5.1700     0.6900    -1.2180 H     1 <1>   0.0800 
 36 H       -1.8000     3.2540    -3.4100 H     1 <1>   0.1500 
 37 H       -1.7070     1.9400     0.6220 H     1 <1>   0.1500 
 38 H       -5.3850     0.7140     1.1980 H     1 <1>   0.0800 
 39 H       -3.6560     0.6870     1.4000 H     1 <1>   0.0800 
 40 H       -1.3060     5.5330    -2.6870 H     1 <1>   0.1500 
 41 H       -1.2160     4.2140     1.3620 H     1 <1>   0.1500 
 42 H       -5.4010    -1.4830     0.2120 H     1 <1>   0.0800 
 43 H       -1.7850    -0.5990     0.9850 H     1 <1>   0.0800 
 44 H       -2.0770    -2.1000     1.7780 H     1 <1>   0.0800 
 45 H       -4.4040    -2.6250     1.9570 H     1 <1>   0.4000 
 46 H       -0.0400    -0.3960    -0.6710 H     1 <1>   0.1500 
 47 H       -1.1620    -4.2350     0.7990 H     1 <1>   0.1500 
 48 H        1.9460    -1.3680    -1.7110 H     1 <1>   0.1500 
 49 H        0.8290    -5.2110    -0.2390 H     1 <1>   0.1500 
 50 H        2.3970    -3.7820    -1.4970 H     1 <1>   0.1500 
 51 H        0.2840     8.4250     2.8290 H     1 <1>   0.0800 
 52 H       -1.2720     9.1920     2.5510 H     1 <1>   0.0800 
 53 H        0.1720     9.8290     1.7770 H     1 <1>   0.0800 
@<TRIPOS>BOND
  1   1   2  2   
  2   2   3  am  
  3   2   4  1   
  4   3   5  1   
  5   3   6  1   
  6   4   7  ar  
  7   4   8  ar  
  8   5   9  1   
  9   5  32  1   
 10   5  33  1   
 11   6  10  1   
 12   6  34  1   
 13   6  35  1   
 14   7  11  ar  
 15   7  36  1   
 16   8  12  ar  
 17   8  37  1   
 18   9  13  1   
 19   9  14  1   
 20   9  15  1   
 21  10  14  1   
 22  10  38  1   
 23  10  39  1   
 24  11  16  ar  
 25  11  40  1   
 26  12  16  ar  
 27  12  41  1   
 28  13  17  ar  
 29  13  18  ar  
 30  14  19  1   
 31  14  42  1   
 32  15  20  1   
 33  15  43  1   
 34  15  44  1   
 35  16  21  1   
 36  19  45  1   
 37  20  22  ar  
 38  20  23  ar  
 39  21  24  1   
 40  21  25  2   
 41  22  26  ar  
 42  22  46  1   
 43  23  27  ar  
 44  23  47  1   
 45  24  28  2   
 46  25  29  1   
 47  26  30  ar  
 48  26  48  1   
 49  27  30  ar  
 50  27  49  1   
 51  28  29  1   
 52  29  31  1   
 53  30  50  1   
 54  31  51  1   
 55  31  52  1   
 56  31  53  1   
@<TRIPOS>SUBSTRUCTURE
  1 ****   8 GROUP 4 **** **** 0

# MOE 2024.06 (io_trps.svl 2023.06)
