@<TRIPOS>MOLECULE
NONAME
40 41 1 0 0 
SMALL
USER_CHARGES


@<TRIPOS>ATOM
  1 O       -0.0470     0.0670    -0.8520 O.2   1 <1>  -0.5700 
  2 C       -1.0190     0.6750    -0.4510 C.2   1 <1>   0.7800 
  3 O       -2.1680     0.0610    -0.1750 O.3   1 <1>  -0.4300 
  4 N       -0.9540     2.0240    -0.2270 N.am  1 <1>  -0.6600 
  5 C       -2.4630    -1.3120    -0.3250 C.3   1 <1>   0.2800 
  6 C        0.3010     2.7610    -0.6030 C.3   1 <1>   0.2200 
  7 C       -2.0850     2.7550     0.4300 C.3   1 <1>   0.1400 
  8 C       -2.3380    -1.7220    -1.7970 C.3   1 <1>  -0.2400 
  9 C       -3.9190    -1.4590     0.1180 C.3   1 <1>  -0.2400 
 10 C       -1.5670    -2.1500     0.5940 C.3   1 <1>  -0.2400 
 11 C        0.1250     4.3070    -0.6600 C.3   1 <1>   0.2000 
 12 C        1.4450     2.3710     0.3640 C.3   1 <1>   0.3430 
 13 C       -2.0530     4.2640     0.1650 C.3   1 <1>   0.1200 
 14 O       -0.7530     4.7430     0.3360 O.3   1 <1>  -0.5600 
 15 C        1.4520     5.0250    -0.3800 C.3   1 <1>  -0.1600 
 16 N        1.5390     3.3560     1.4840 N.4   1 <1>  -0.9060 
 17 C        1.9860     4.7070     1.0270 C.3   1 <1>   0.3430 
 18 H        0.5950     2.4250    -1.5840 H     1 <1>   0.0800 
 19 H       -3.0270     2.3650     0.0800 H     1 <1>   0.0800 
 20 H       -2.0420     2.5850     1.4910 H     1 <1>   0.0800 
 21 H       -2.6940    -2.7280    -1.9280 H     1 <1>   0.0800 
 22 H       -1.3150    -1.6980    -2.1240 H     1 <1>   0.0800 
 23 H       -2.9250    -1.0720    -2.4200 H     1 <1>   0.0800 
 24 H       -4.2320    -2.4840     0.0350 H     1 <1>   0.0800 
 25 H       -4.5610    -0.8590    -0.5020 H     1 <1>   0.0800 
 26 H       -4.0320    -1.1530     1.1420 H     1 <1>   0.0800 
 27 H       -1.8880    -3.1760     0.5770 H     1 <1>   0.0800 
 28 H       -1.6280    -1.7940     1.6050 H     1 <1>   0.0800 
 29 H       -0.5440    -2.1290     0.2670 H     1 <1>   0.0800 
 30 H       -0.2640     4.6070    -1.6190 H     1 <1>   0.0800 
 31 H        2.3760     2.3620    -0.1780 H     1 <1>   0.0800 
 32 H        1.2690     1.3770     0.7400 H     1 <1>   0.0800 
 33 H       -2.6940     4.7770     0.8610 H     1 <1>   0.0800 
 34 H       -2.3870     4.4880    -0.8340 H     1 <1>   0.0800 
 35 H        2.1800     4.7310    -1.1140 H     1 <1>   0.0800 
 36 H        1.3180     6.0880    -0.4820 H     1 <1>   0.0800 
 37 H        0.5730     3.4800     1.8300 H     1 <1>   0.4500 
 38 H        2.1110     3.0050     2.2610 H     1 <1>   0.4500 
 39 H        1.6160     5.4490     1.7180 H     1 <1>   0.0800 
 40 H        3.0630     4.7640     1.0210 H     1 <1>   0.0800 
@<TRIPOS>BOND
  1   1   2  2   
  2   2   3  1   
  3   2   4  am  
  4   3   5  1   
  5   4   6  1   
  6   4   7  1   
  7   5   8  1   
  8   5   9  1   
  9   5  10  1   
 10   6  11  1   
 11   6  12  1   
 12   6  18  1   
 13   7  13  1   
 14   7  19  1   
 15   7  20  1   
 16   8  21  1   
 17   8  22  1   
 18   8  23  1   
 19   9  24  1   
 20   9  25  1   
 21   9  26  1   
 22  10  27  1   
 23  10  28  1   
 24  10  29  1   
 25  11  14  1   
 26  11  15  1   
 27  11  30  1   
 28  12  16  1   
 29  12  31  1   
 30  12  32  1   
 31  13  14  1   
 32  13  33  1   
 33  13  34  1   
 34  15  17  1   
 35  15  35  1   
 36  15  36  1   
 37  16  17  1   
 38  16  37  1   
 39  16  38  1   
 40  17  39  1   
 41  17  40  1   
@<TRIPOS>SUBSTRUCTURE
  1 ****   4 GROUP 4 **** **** 0

# MOE 2024.06 (io_trps.svl 2023.06)
