@<TRIPOS>MOLECULE
NONAME
49 51 1 0 0 
SMALL
USER_CHARGES


@<TRIPOS>ATOM
  1 F       -1.2790    -0.5670    -0.8780 F     1 <1>  -0.1900 
  2 C       -2.4640    -0.0230    -0.7700 C.ar  1 <1>   0.1900 
  3 C       -2.6440     1.3640    -0.7250 C.ar  1 <1>   0.0830 
  4 C       -3.5350    -0.8930    -0.7060 C.ar  1 <1>  -0.1500 
  5 O       -1.6720     2.3200    -0.7790 O.3   1 <1>  -0.3630 
  6 C       -3.9400     1.8410    -0.6120 C.ar  1 <1>  -0.1500 
  7 C       -4.8160    -0.3830    -0.5960 C.ar  1 <1>  -0.1500 
  8 C       -0.2960     2.0160    -0.8290 C.3   1 <1>   0.0400 
  9 C       -5.0480     0.9930    -0.5410 C.ar  1 <1>   0.0530 
 10 C       -6.3800     1.5340    -0.4240 C.2   1 <1>   0.0870 
 11 O       -6.6780     2.6810    -0.9780 O.3   1 <1>  -0.0190 
 12 C       -7.5150     1.0780     0.1710 C.2   1 <1>  -0.0860 
 13 N       -7.9270     3.0230    -0.8040 N.2   1 <1>  -0.4100 
 14 C       -8.4540     2.0770    -0.1080 C.2   1 <1>   0.3720 
 15 C       -7.7300    -0.1200     0.9200 C.2   1 <1>   0.7160 
 16 N       -9.7950     2.0700     0.3070 N.pl3 1 <1>  -0.8210 
 17 O       -6.9440    -0.4240     1.8000 O.2   1 <1>  -0.5700 
 18 N       -8.7470    -1.0080     0.6410 N.am  1 <1>  -0.6600 
 19 C       -9.9770     2.2600     1.7710 C.3   1 <1>   0.1290 
 20 C      -10.7170     2.9340    -0.4830 C.3   1 <1>   0.1290 
 21 C       -8.9510    -2.2360     1.4650 C.3   1 <1>   0.1400 
 22 C       -9.3520    -1.1140    -0.7140 C.3   1 <1>   0.1400 
 23 C       -8.2250    -3.4150     0.8030 C.3   1 <1>   0.2000 
 24 C       -8.6790    -2.2730    -1.4610 C.3   1 <1>  -0.1600 
 25 O       -6.8470    -3.1690     0.8220 O.3   1 <1>  -0.6800 
 26 C       -8.7140    -3.5820    -0.6550 C.3   1 <1>   0.2000 
 27 O       -7.8930    -4.4880    -1.2940 O.3   1 <1>  -0.6800 
 28 H       -3.3680    -1.9550    -0.7430 H     1 <1>   0.1500 
 29 H       -4.0890     2.9050    -0.5750 H     1 <1>   0.1500 
 30 H       -5.6420    -1.0680    -0.5550 H     1 <1>   0.1500 
 31 H        0.2510     2.9420    -0.8300 H     1 <1>   0.0800 
 32 H       -0.0890     1.4710    -1.7330 H     1 <1>   0.0800 
 33 H       -0.0330     1.4390     0.0400 H     1 <1>   0.0800 
 34 H      -10.9970     2.0490     2.0440 H     1 <1>   0.0800 
 35 H       -9.7410     3.2750     2.0420 H     1 <1>   0.0800 
 36 H       -9.3330     1.5970     2.3210 H     1 <1>   0.0800 
 37 H      -11.7390     2.7030    -0.2390 H     1 <1>   0.0800 
 38 H      -10.5660     2.7630    -1.5350 H     1 <1>   0.0800 
 39 H      -10.5250     3.9720    -0.2700 H     1 <1>   0.0800 
 40 H       -8.5910    -2.0940     2.4700 H     1 <1>   0.0800 
 41 H      -10.0050    -2.4470     1.5250 H     1 <1>   0.0800 
 42 H      -10.4090    -1.2960    -0.6150 H     1 <1>   0.0800 
 43 H       -9.2280    -0.2020    -1.2700 H     1 <1>   0.0800 
 44 H       -8.4060    -4.3190     1.3590 H     1 <1>   0.0800 
 45 H       -7.6590    -1.9990    -1.6640 H     1 <1>   0.0800 
 46 H       -9.1770    -2.4220    -2.4020 H     1 <1>   0.0800 
 47 H       -6.6880    -2.2940     1.2540 H     1 <1>   0.4000 
 48 H       -9.7140    -3.9820    -0.6610 H     1 <1>   0.0800 
 49 H       -6.9870    -4.3430    -0.9420 H     1 <1>   0.4000 
@<TRIPOS>BOND
  1   1   2  1   
  2   2   3  ar  
  3   2   4  ar  
  4   3   5  1   
  5   3   6  ar  
  6   4   7  ar  
  7   4  28  1   
  8   5   8  1   
  9   6   9  ar  
 10   6  29  1   
 11   7   9  ar  
 12   7  30  1   
 13   8  31  1   
 14   8  32  1   
 15   8  33  1   
 16   9  10  1   
 17  10  11  1   
 18  10  12  2   
 19  11  13  1   
 20  12  14  1   
 21  12  15  1   
 22  13  14  2   
 23  14  16  1   
 24  15  17  2   
 25  15  18  am  
 26  16  19  1   
 27  16  20  1   
 28  18  21  1   
 29  18  22  1   
 30  19  34  1   
 31  19  35  1   
 32  19  36  1   
 33  20  37  1   
 34  20  38  1   
 35  20  39  1   
 36  21  23  1   
 37  21  40  1   
 38  21  41  1   
 39  22  24  1   
 40  22  42  1   
 41  22  43  1   
 42  23  25  1   
 43  23  26  1   
 44  23  44  1   
 45  24  26  1   
 46  24  45  1   
 47  24  46  1   
 48  25  47  1   
 49  26  27  1   
 50  26  48  1   
 51  27  49  1   
@<TRIPOS>SUBSTRUCTURE
  1 ****  12 GROUP 4 **** **** 0

# MOE 2024.06 (io_trps.svl 2023.06)
