@<TRIPOS>MOLECULE
NONAME
58 60 1 0 0 
SMALL
USER_CHARGES


@<TRIPOS>ATOM
  1 O       -0.6120     0.7430    -0.4710 O.2   1 <1>  -0.5700 
  2 C       -1.7610     0.9620    -0.1400 C.2   1 <1>   0.5440 
  3 N       -2.6930    -0.0600    -0.2540 N.am  1 <1>  -0.6600 
  4 C       -2.0830     2.2840     0.3540 C.ar  1 <1>   0.0860 
  5 C       -4.1350     0.0840    -0.6310 C.3   1 <1>   0.2200 
  6 C       -2.2130    -1.4720    -0.3060 C.3   1 <1>   0.0600 
  7 C       -2.1880     3.3690    -0.5120 C.ar  1 <1>  -0.1500 
  8 C       -2.2840     2.5220     1.7130 C.ar  1 <1>  -0.1500 
  9 C       -4.3520     0.9480    -1.8760 C.3   1 <1>  -0.1600 
 10 C       -5.0080     0.6490     0.4900 C.3   1 <1>  -0.1600 
 11 C       -2.5620     4.6250    -0.0640 C.ar  1 <1>   0.0820 
 12 C       -2.6350     3.7760     2.1790 C.ar  1 <1>  -0.1500 
 13 C       -5.6340     1.7610    -1.6380 C.3   1 <1>  -0.0800 
 14 C       -5.9810     1.6480    -0.1540 C.3   1 <1>  -0.0800 
 15 O       -2.7670     5.6080    -0.9730 O.3   1 <1>  -0.3630 
 16 C       -2.7940     4.8370     1.3020 C.ar  1 <1>   0.0820 
 17 C       -5.5030     3.2640    -1.9460 C.3   1 <1>  -0.1600 
 18 C       -5.8790     3.0710     0.4020 C.3   1 <1>  -0.1600 
 19 C       -1.6630     5.9970    -1.7630 C.3   1 <1>   0.3200 
 20 O       -3.1980     6.0100     1.8500 O.3   1 <1>  -0.3630 
 21 C       -6.1420     4.0170    -0.7720 C.3   1 <1>   0.4230 
 22 C       -2.0220     7.2670    -2.4560 C.1   1 <1>  -0.2000 
 23 C       -2.6850     7.2430     1.3910 C.3   1 <1>   0.0400 
 24 N       -7.6110     4.2050    -0.9990 N.4   1 <1>  -0.9590 
 25 C       -2.3030     8.2830    -3.0070 C.1   1 <1>  -0.1770 
 26 C       -7.8880     5.0880    -2.1770 C.3   1 <1>   0.2630 
 27 C       -8.3040     4.7880     0.1940 C.3   1 <1>   0.2630 
 28 H       -4.5280    -0.8920    -0.8660 H     1 <1>   0.0800 
 29 H       -2.8690    -2.1060     0.2650 H     1 <1>   0.0800 
 30 H       -1.2220    -1.5500     0.1080 H     1 <1>   0.0800 
 31 H       -2.1870    -1.8080    -1.3280 H     1 <1>   0.0800 
 32 H       -1.9890     3.2030    -1.5550 H     1 <1>   0.1500 
 33 H       -2.1650     1.7060     2.4050 H     1 <1>   0.1500 
 34 H       -3.5080     1.5800    -2.0570 H     1 <1>   0.0800 
 35 H       -4.4710     0.3160    -2.7380 H     1 <1>   0.0800 
 36 H       -5.5610    -0.1560     0.9430 H     1 <1>   0.0800 
 37 H       -4.4180     1.1040     1.2590 H     1 <1>   0.0800 
 38 H       -2.7920     3.9400     3.2310 H     1 <1>   0.1500 
 39 H       -6.4380     1.3340    -2.2150 H     1 <1>   0.0800 
 40 H       -6.9930     1.2910    -0.0510 H     1 <1>   0.0800 
 41 H       -5.9040     3.5070    -2.9100 H     1 <1>   0.0800 
 42 H       -4.4670     3.5450    -1.9650 H     1 <1>   0.0800 
 43 H       -4.8700     3.2440     0.7130 H     1 <1>   0.0800 
 44 H       -6.4980     3.2220     1.2660 H     1 <1>   0.0800 
 45 H       -0.8130     6.1460    -1.1190 H     1 <1>   0.0800 
 46 H       -1.4530     5.2240    -2.4790 H     1 <1>   0.0800 
 47 H       -5.6610     4.9710    -0.6140 H     1 <1>   0.0800 
 48 H       -2.8390     7.9770     2.1620 H     1 <1>   0.0800 
 49 H       -3.2140     7.5370     0.5030 H     1 <1>   0.0800 
 50 H       -1.6330     7.1370     1.1930 H     1 <1>   0.0800 
 51 H       -7.9970     3.2690    -1.1830 H     1 <1>   0.4500 
 52 H       -2.5490     9.2050    -3.5060 H     1 <1>   0.1770 
 53 H       -7.4080     6.0450    -2.0480 H     1 <1>   0.0800 
 54 H       -8.9490     5.2470    -2.2820 H     1 <1>   0.0800 
 55 H       -7.5260     4.6410    -3.0870 H     1 <1>   0.0800 
 56 H       -7.8350     5.7150     0.4830 H     1 <1>   0.0800 
 57 H       -8.2680     4.1080     1.0280 H     1 <1>   0.0800 
 58 H       -9.3400     4.9820    -0.0340 H     1 <1>   0.0800 
@<TRIPOS>BOND
  1   1   2  2   
  2   2   3  am  
  3   2   4  1   
  4   3   5  1   
  5   3   6  1   
  6   4   7  ar  
  7   4   8  ar  
  8   5   9  1   
  9   5  10  1   
 10   5  28  1   
 11   6  29  1   
 12   6  30  1   
 13   6  31  1   
 14   7  11  ar  
 15   7  32  1   
 16   8  12  ar  
 17   8  33  1   
 18   9  13  1   
 19   9  34  1   
 20   9  35  1   
 21  10  14  1   
 22  10  36  1   
 23  10  37  1   
 24  11  15  1   
 25  11  16  ar  
 26  12  16  ar  
 27  12  38  1   
 28  13  14  1   
 29  13  17  1   
 30  13  39  1   
 31  14  18  1   
 32  14  40  1   
 33  15  19  1   
 34  16  20  1   
 35  17  21  1   
 36  17  41  1   
 37  17  42  1   
 38  18  21  1   
 39  18  43  1   
 40  18  44  1   
 41  19  22  1   
 42  19  45  1   
 43  19  46  1   
 44  20  23  1   
 45  21  24  1   
 46  21  47  1   
 47  22  25  3   
 48  23  48  1   
 49  23  49  1   
 50  23  50  1   
 51  24  26  1   
 52  24  27  1   
 53  24  51  1   
 54  25  52  1   
 55  26  53  1   
 56  26  54  1   
 57  26  55  1   
 58  27  56  1   
 59  27  57  1   
 60  27  58  1   
@<TRIPOS>SUBSTRUCTURE
  1 ****   7 GROUP 4 **** **** 0

# MOE 2024.06 (io_trps.svl 2023.06)
