@<TRIPOS>MOLECULE
NONAME
28 29 1 0 0 
SMALL
USER_CHARGES


@<TRIPOS>ATOM
  1 O       -0.1450     0.6690     0.0460 O.2   1 <1>  -0.5700 
  2 C        0.4330     1.7250     0.1360 C.2   1 <1>   0.6340 
  3 O        1.6980     1.7340     0.5860 O.3   1 <1>  -0.4300 
  4 C       -0.1570     3.0010    -0.1640 C.ar  1 <1>   0.0860 
  5 C        2.7410     2.5650     0.0750 C.3   1 <1>   0.1200 
  6 C       -0.7350     3.7430     0.8610 C.ar  1 <1>  -0.1500 
  7 C        0.0420     3.6160    -1.3980 C.ar  1 <1>  -0.1500 
  8 C        3.3080     3.5500     1.1250 C.3   1 <1>  -0.1600 
  9 C       -0.7460     5.1180     0.7820 C.ar  1 <1>  -0.1500 
 10 C        0.0420     4.9920    -1.4750 C.ar  1 <1>  -0.1500 
 11 C        2.5860     4.9060     1.3320 C.3   1 <1>  -0.1600 
 12 C       -0.1580     5.7380    -0.3170 C.ar  1 <1>   0.0860 
 13 C        2.6610     5.8740     0.1270 C.3   1 <1>   0.1200 
 14 C        0.4900     7.0110    -0.1440 C.2   1 <1>   0.6340 
 15 O        1.7740     6.9910     0.2590 O.3   1 <1>  -0.4300 
 16 O       -0.0480     8.0780    -0.3210 O.2   1 <1>  -0.5700 
 17 H        2.4200     3.0730    -0.8130 H     1 <1>   0.0800 
 18 H        3.5290     1.8910    -0.2150 H     1 <1>   0.0800 
 19 H       -1.0860     3.2440     1.7500 H     1 <1>   0.1500 
 20 H        0.2820     3.0180    -2.2620 H     1 <1>   0.1500 
 21 H        4.3220     3.7720     0.8410 H     1 <1>   0.0800 
 22 H        3.3640     3.0320     2.0680 H     1 <1>   0.0800 
 23 H       -1.1050     5.7140     1.6050 H     1 <1>   0.1500 
 24 H        0.2880     5.4920    -2.3980 H     1 <1>   0.1500 
 25 H        3.0510     5.4020     2.1670 H     1 <1>   0.0800 
 26 H        1.5800     4.7080     1.6230 H     1 <1>   0.0800 
 27 H        2.4550     5.3730    -0.8000 H     1 <1>   0.0800 
 28 H        3.6570     6.2750     0.0600 H     1 <1>   0.0800 
@<TRIPOS>BOND
  1   1   2  2   
  2   2   3  1   
  3   2   4  1   
  4   3   5  1   
  5   4   6  ar  
  6   4   7  ar  
  7   5   8  1   
  8   5  17  1   
  9   5  18  1   
 10   6   9  ar  
 11   6  19  1   
 12   7  10  ar  
 13   7  20  1   
 14   8  11  1   
 15   8  21  1   
 16   8  22  1   
 17   9  12  ar  
 18   9  23  1   
 19  10  12  ar  
 20  10  24  1   
 21  11  13  1   
 22  11  25  1   
 23  11  26  1   
 24  12  14  1   
 25  13  15  1   
 26  13  27  1   
 27  13  28  1   
 28  14  15  1   
 29  14  16  2   
@<TRIPOS>SUBSTRUCTURE
  1 ****   4 GROUP 4 **** **** 0

# MOE 2024.06 (io_trps.svl 2023.06)
