@<TRIPOS>MOLECULE
NONAME
50 52 1 0 0 
SMALL
USER_CHARGES


@<TRIPOS>ATOM
  1 O       -0.8580    -4.5610     0.7340 O.co2 1 <1>  -0.9000 
  2 C       -0.9440    -4.2220    -0.4530 C.2   1 <1>   1.0330 
  3 O       -1.9730    -4.6030    -1.0520 O.co2 1 <1>  -0.9000 
  4 C        0.1780    -3.6870    -1.1580 C.2   1 <1>  -0.2330 
  5 C        0.4520    -4.0010    -2.4860 C.2   1 <1>   0.3720 
  6 C        1.2240    -2.8900    -0.8080 C.2   1 <1>   0.0870 
  7 N        1.5660    -3.5040    -2.8790 N.2   1 <1>  -0.4100 
  8 N       -0.3880    -4.7550    -3.2880 N.pl3 1 <1>  -0.8520 
  9 O        2.0140    -2.8240    -1.8570 O.3   1 <1>  -0.0190 
 10 C        1.5930    -2.1590     0.3810 C.ar  1 <1>   0.0530 
 11 C        0.0730    -6.0990    -3.6660 C.3   1 <1>   0.2090 
 12 C        2.1170    -0.8710     0.2710 C.ar  1 <1>  -0.1500 
 13 C        1.4650    -2.6870     1.6650 C.ar  1 <1>  -0.1500 
 14 C       -0.8690    -7.1360    -3.0500 C.3   1 <1>  -0.1600 
 15 C        2.4890    -0.1410     1.3850 C.ar  1 <1>  -0.1500 
 16 C        1.8330    -1.9630     2.7850 C.ar  1 <1>  -0.1500 
 17 C       -0.6040    -7.3340    -1.5500 C.3   1 <1>   0.3430 
 18 C        2.3470    -0.6860     2.6480 C.ar  1 <1>  -0.1500 
 19 N       -1.8470    -7.2940    -0.7270 N.4   1 <1>  -0.9590 
 20 C       -1.5180    -7.4000     0.7260 C.3   1 <1>   0.4230 
 21 C       -2.9740    -8.1500    -1.1970 C.3   1 <1>   0.2630 
 22 C       -1.1990    -8.8310     1.1630 C.3   1 <1>  -0.1600 
 23 C       -2.7090    -6.9970     1.5940 C.3   1 <1>  -0.1600 
 24 C       -2.5020    -9.4500     1.6850 C.3   1 <1>  -0.1600 
 25 C       -3.4300    -8.2800     2.0310 C.3   1 <1>  -0.1600 
 26 H       -1.3050    -4.7900    -2.7990 H     1 <1>   0.4000 
 27 H        1.0920    -6.2560    -3.3490 H     1 <1>   0.0800 
 28 H        0.0440    -6.1720    -4.7410 H     1 <1>   0.0800 
 29 H        2.2290    -0.4370    -0.7070 H     1 <1>   0.1500 
 30 H        1.0760    -3.6800     1.7920 H     1 <1>   0.1500 
 31 H       -0.7070    -8.0750    -3.5460 H     1 <1>   0.0800 
 32 H       -1.8760    -6.8190    -3.2480 H     1 <1>   0.0800 
 33 H        2.8890     0.8520     1.2690 H     1 <1>   0.1500 
 34 H        1.7160    -2.3970     3.7620 H     1 <1>   0.1500 
 35 H        0.0510    -6.5480    -1.2090 H     1 <1>   0.0800 
 36 H       -0.0960    -8.2710    -1.3990 H     1 <1>   0.0800 
 37 H        2.6330    -0.1220     3.5180 H     1 <1>   0.1500 
 38 H       -2.1510    -6.2840    -0.8010 H     1 <1>   0.4500 
 39 H       -0.6850    -6.7510     0.9440 H     1 <1>   0.0800 
 40 H       -2.6950    -9.1880    -1.1530 H     1 <1>   0.0800 
 41 H       -3.2430    -7.8990    -2.2080 H     1 <1>   0.0800 
 42 H       -3.8370    -7.9930    -0.5730 H     1 <1>   0.0800 
 43 H       -0.5090    -8.7670     1.9860 H     1 <1>   0.0800 
 44 H       -0.7440    -9.4210     0.3890 H     1 <1>   0.0800 
 45 H       -3.3540    -6.2930     1.0980 H     1 <1>   0.0800 
 46 H       -2.3140    -6.5090     2.4680 H     1 <1>   0.0800 
 47 H       -2.3160   -10.0660     2.5490 H     1 <1>   0.0800 
 48 H       -2.9560   -10.0630     0.9250 H     1 <1>   0.0800 
 49 H       -4.3690    -8.3810     1.5160 H     1 <1>   0.0800 
 50 H       -3.6260    -8.2490     3.0900 H     1 <1>   0.0800 
@<TRIPOS>BOND
  1   1   2  ar  
  2   2   3  ar  
  3   2   4  1   
  4   4   5  1   
  5   4   6  2   
  6   5   7  2   
  7   5   8  1   
  8   6   9  1   
  9   6  10  1   
 10   7   9  1   
 11   8  11  1   
 12   8  26  1   
 13  10  12  ar  
 14  10  13  ar  
 15  11  14  1   
 16  11  27  1   
 17  11  28  1   
 18  12  15  ar  
 19  12  29  1   
 20  13  16  ar  
 21  13  30  1   
 22  14  17  1   
 23  14  31  1   
 24  14  32  1   
 25  15  18  ar  
 26  15  33  1   
 27  16  18  ar  
 28  16  34  1   
 29  17  19  1   
 30  17  35  1   
 31  17  36  1   
 32  18  37  1   
 33  19  20  1   
 34  19  21  1   
 35  19  38  1   
 36  20  22  1   
 37  20  23  1   
 38  20  39  1   
 39  21  40  1   
 40  21  41  1   
 41  21  42  1   
 42  22  24  1   
 43  22  43  1   
 44  22  44  1   
 45  23  25  1   
 46  23  45  1   
 47  23  46  1   
 48  24  25  1   
 49  24  47  1   
 50  24  48  1   
 51  25  49  1   
 52  25  50  1   
@<TRIPOS>SUBSTRUCTURE
  1 ****   2 GROUP 4 **** **** 0

# MOE 2024.06 (io_trps.svl 2023.06)
