@<TRIPOS>MOLECULE
NONAME
50 52 1 0 0 
SMALL
USER_CHARGES


@<TRIPOS>ATOM
  1 O        0.5540     0.1320    -0.0750 O.2   1 <1>  -0.5700 
  2 C        1.7230    -0.1150    -0.2170 C.2   1 <1>   0.5690 
  3 N        2.1960    -1.3440     0.0650 N.am  1 <1>  -0.7300 
  4 C        2.6620     0.9650    -0.7110 C.3   1 <1>  -0.0990 
  5 C        3.5930    -1.7990    -0.0230 C.3   1 <1>   0.1400 
  6 C        3.7190     1.3680     0.3370 C.3   1 <1>  -0.1600 
  7 C        4.4760    -1.0170     0.9590 C.3   1 <1>  -0.1600 
  8 C        4.9260     0.4090     0.5370 C.3   1 <1>   0.0000 
  9 C        5.7730     0.9630     1.7130 C.3   1 <1>  -0.1600 
 10 C        5.8040     0.3510    -0.7510 C.3   1 <1>  -0.1600 
 11 C        6.4920     2.2830     1.3970 C.3   1 <1>   0.2090 
 12 C        7.2160     0.9270    -0.5920 C.3   1 <1>   0.2090 
 13 N        7.1330     2.2620     0.0520 N.pl3 1 <1>  -0.8380 
 14 C        8.2150     3.1110    -0.1120 C.ar  1 <1>   0.4100 
 15 N        9.3820     2.5550     0.2050 N.ar  1 <1>  -0.6200 
 16 C        8.0790     4.4480    -0.5450 C.ar  1 <1>   0.0860 
 17 C       10.4590     3.3070     0.1260 C.ar  1 <1>   0.1670 
 18 C        6.8130     5.0420    -0.9270 C.2   1 <1>   0.5440 
 19 C        9.2380     5.2100    -0.6090 C.ar  1 <1>  -0.1500 
 20 C       10.4460     4.6390    -0.2730 C.ar  1 <1>  -0.1440 
 21 C       11.7570     2.6190     0.5040 C.3   1 <1>  -0.0970 
 22 O        6.6560     6.2460    -0.9600 O.2   1 <1>  -0.5700 
 23 N        5.7390     4.3060    -1.2810 N.am  1 <1>  -0.8000 
 24 C       11.7130     5.4810    -0.3530 C.3   1 <1>  -0.0970 
 25 H        1.5050    -2.0170     0.4050 H     1 <1>   0.3700 
 26 H        2.0640     1.8290    -0.9390 H     1 <1>   0.0800 
 27 H        3.1130     0.6420    -1.6290 H     1 <1>   0.0800 
 28 H        3.9440    -1.6960    -1.0350 H     1 <1>   0.0800 
 29 H        3.6230    -2.8440     0.2320 H     1 <1>   0.0800 
 30 H        3.2110     1.5020     1.2770 H     1 <1>   0.0800 
 31 H        4.0940     2.3330     0.0500 H     1 <1>   0.0800 
 32 H        5.3620    -1.6060     1.1160 H     1 <1>   0.0800 
 33 H        3.9680    -0.9720     1.9080 H     1 <1>   0.0800 
 34 H        6.5250     0.2450     1.9910 H     1 <1>   0.0800 
 35 H        5.1560     1.1080     2.5820 H     1 <1>   0.0800 
 36 H        5.3380     0.8900    -1.5550 H     1 <1>   0.0800 
 37 H        5.9210    -0.6610    -1.0900 H     1 <1>   0.0800 
 38 H        7.2430     2.4680     2.1490 H     1 <1>   0.0800 
 39 H        5.7890     3.0970     1.4300 H     1 <1>   0.0800 
 40 H        7.6910     1.0180    -1.5550 H     1 <1>   0.0800 
 41 H        7.8220     0.2770     0.0160 H     1 <1>   0.0800 
 42 H        9.1790     6.2370    -0.9250 H     1 <1>   0.1500 
 43 H       11.5580     1.6550     0.9370 H     1 <1>   0.0800 
 44 H       12.2960     3.2050     1.2230 H     1 <1>   0.0800 
 45 H       12.3630     2.4800    -0.3720 H     1 <1>   0.0800 
 46 H        4.8440     4.7570    -1.4600 H     1 <1>   0.3700 
 47 H        5.7560     3.2990    -1.0720 H     1 <1>   0.3700 
 48 H       12.4410     4.9980    -0.9810 H     1 <1>   0.0800 
 49 H       12.1290     5.6150     0.6290 H     1 <1>   0.0800 
 50 H       11.5050     6.4510    -0.7670 H     1 <1>   0.0800 
@<TRIPOS>BOND
  1   1   2  2   
  2   2   3  am  
  3   2   4  1   
  4   3   5  1   
  5   3  25  1   
  6   4   6  1   
  7   4  26  1   
  8   4  27  1   
  9   5   7  1   
 10   5  28  1   
 11   5  29  1   
 12   6   8  1   
 13   6  30  1   
 14   6  31  1   
 15   7   8  1   
 16   7  32  1   
 17   7  33  1   
 18   8   9  1   
 19   8  10  1   
 20   9  11  1   
 21   9  34  1   
 22   9  35  1   
 23  10  12  1   
 24  10  36  1   
 25  10  37  1   
 26  11  13  1   
 27  11  38  1   
 28  11  39  1   
 29  12  13  1   
 30  12  40  1   
 31  12  41  1   
 32  13  14  1   
 33  14  15  ar  
 34  14  16  ar  
 35  15  17  ar  
 36  16  18  1   
 37  16  19  ar  
 38  17  20  ar  
 39  17  21  1   
 40  18  22  2   
 41  18  23  am  
 42  19  20  ar  
 43  19  42  1   
 44  20  24  1   
 45  21  43  1   
 46  21  44  1   
 47  21  45  1   
 48  23  46  1   
 49  23  47  1   
 50  24  48  1   
 51  24  49  1   
 52  24  50  1   
@<TRIPOS>SUBSTRUCTURE
  1 ****  13 GROUP 4 **** **** 0

# MOE 2024.06 (io_trps.svl 2023.06)
