@<TRIPOS>MOLECULE
NONAME
54 55 1 0 0 
SMALL
USER_CHARGES


@<TRIPOS>ATOM
  1 S       -2.6650    -3.6570    -2.5940 S.3   1 <1>  -0.4600 
  2 C       -3.6670    -2.4420    -1.7000 C.3   1 <1>   0.0700 
  3 C       -2.4190    -2.8770    -4.2100 C.3   1 <1>  -0.0100 
  4 C       -3.8750    -2.9620    -0.2780 C.3   1 <1>  -0.1600 
  5 C       -4.8590    -2.1000     0.5310 C.3   1 <1>   0.2810 
  6 N       -4.2390    -0.7560     0.7420 N.am  1 <1>  -0.7300 
  7 C       -5.2800    -2.7800     1.8560 C.2   1 <1>   0.5690 
  8 C       -4.5570     0.4400     0.2050 C.2   1 <1>   0.5690 
  9 O       -4.5600    -3.6290     2.3370 O.2   1 <1>  -0.5700 
 10 N       -6.4690    -2.4600     2.4660 N.am  1 <1>  -0.6600 
 11 O       -3.9800     1.4310     0.5660 O.2   1 <1>  -0.5700 
 12 C       -5.6370     0.5740    -0.8420 C.3   1 <1>  -0.1790 
 13 C       -7.1900    -3.5050     3.2420 C.3   1 <1>   0.1400 
 14 C       -7.1980    -1.1720     2.3200 C.3   1 <1>   0.1400 
 15 C       -7.9740    -4.4330     2.2960 C.3   1 <1>   0.1400 
 16 C       -8.3680    -1.2590     1.3300 C.3   1 <1>  -0.1600 
 17 N       -8.6980    -3.7060     1.1940 N.am  1 <1>  -0.6600 
 18 C       -9.3440    -2.4190     1.5720 C.3   1 <1>   0.1400 
 19 C       -8.6600    -4.0810    -0.1350 C.2   1 <1>   0.5690 
 20 O       -9.2220    -3.4110    -0.9770 O.2   1 <1>  -0.5700 
 21 C       -7.9180    -5.3590    -0.5910 C.3   1 <1>   0.2610 
 22 O       -6.5220    -5.2130    -0.5200 O.3   1 <1>  -0.5600 
 23 C       -8.1770    -5.8240    -2.0230 C.3   1 <1>  -0.1600 
 24 C       -5.8690    -6.0070    -1.4660 C.3   1 <1>   0.1200 
 25 C       -6.9510    -6.6650    -2.3150 C.3   1 <1>  -0.1600 
 26 H       -3.1340    -1.5080    -1.7110 H     1 <1>   0.0800 
 27 H       -4.5990    -2.3530    -2.2300 H     1 <1>   0.0800 
 28 H       -1.8190    -3.5420    -4.8060 H     1 <1>   0.0800 
 29 H       -1.9130    -1.9410    -4.0540 H     1 <1>   0.0800 
 30 H       -3.3850    -2.7270    -4.6590 H     1 <1>   0.0800 
 31 H       -4.2650    -3.9600    -0.3320 H     1 <1>   0.0800 
 32 H       -2.9310    -3.0160     0.2360 H     1 <1>   0.0800 
 33 H       -5.7560    -1.9950    -0.0520 H     1 <1>   0.0800 
 34 H       -3.4890    -0.7460     1.4380 H     1 <1>   0.3700 
 35 H       -5.5560    -0.2040    -1.5750 H     1 <1>   0.0800 
 36 H       -5.5380     1.5220    -1.3370 H     1 <1>   0.0800 
 37 H       -6.6010     0.5320    -0.3740 H     1 <1>   0.0800 
 38 H       -6.4860    -4.0910     3.8090 H     1 <1>   0.0800 
 39 H       -7.8600    -3.0450     3.9460 H     1 <1>   0.0800 
 40 H       -7.5740    -0.8820     3.2860 H     1 <1>   0.0800 
 41 H       -6.5180    -0.4000     2.0090 H     1 <1>   0.0800 
 42 H       -8.6860    -4.9980     2.8700 H     1 <1>   0.0800 
 43 H       -7.2690    -5.1300     1.8820 H     1 <1>   0.0800 
 44 H       -7.9940    -1.3200     0.3250 H     1 <1>   0.0800 
 45 H       -8.9210    -0.3390     1.3970 H     1 <1>   0.0800 
 46 H      -10.2200    -2.2740     0.9620 H     1 <1>   0.0800 
 47 H       -9.6660    -2.4440     2.5980 H     1 <1>   0.0800 
 48 H       -8.1790    -6.1600     0.0760 H     1 <1>   0.0800 
 49 H       -9.0970    -6.3740    -2.1090 H     1 <1>   0.0800 
 50 H       -8.2060    -4.9760    -2.6850 H     1 <1>   0.0800 
 51 H       -5.2470    -5.3620    -2.0630 H     1 <1>   0.0800 
 52 H       -5.2580    -6.7300    -0.9540 H     1 <1>   0.0800 
 53 H       -6.6930    -6.6710    -3.3590 H     1 <1>   0.0800 
 54 H       -7.0980    -7.6770    -1.9820 H     1 <1>   0.0800 
@<TRIPOS>BOND
  1   1   2  1   
  2   1   3  1   
  3   2   4  1   
  4   2  26  1   
  5   2  27  1   
  6   3  28  1   
  7   3  29  1   
  8   3  30  1   
  9   4   5  1   
 10   4  31  1   
 11   4  32  1   
 12   5   6  1   
 13   5   7  1   
 14   5  33  1   
 15   6   8  am  
 16   6  34  1   
 17   7   9  2   
 18   7  10  am  
 19   8  11  2   
 20   8  12  1   
 21  10  13  1   
 22  10  14  1   
 23  12  35  1   
 24  12  36  1   
 25  12  37  1   
 26  13  15  1   
 27  13  38  1   
 28  13  39  1   
 29  14  16  1   
 30  14  40  1   
 31  14  41  1   
 32  15  17  1   
 33  15  42  1   
 34  15  43  1   
 35  16  18  1   
 36  16  44  1   
 37  16  45  1   
 38  17  18  1   
 39  17  19  am  
 40  18  46  1   
 41  18  47  1   
 42  19  20  2   
 43  19  21  1   
 44  21  22  1   
 45  21  23  1   
 46  21  48  1   
 47  22  24  1   
 48  23  25  1   
 49  23  49  1   
 50  23  50  1   
 51  24  25  1   
 52  24  51  1   
 53  24  52  1   
 54  25  53  1   
 55  25  54  1   
@<TRIPOS>SUBSTRUCTURE
  1 ****   5 GROUP 4 **** **** 0

# MOE 2024.06 (io_trps.svl 2023.06)
