@<TRIPOS>MOLECULE
NONAME
57 59 1 0 0 
SMALL
USER_CHARGES


@<TRIPOS>ATOM
  1 O        1.5010    -1.7530     0.4190 O.3   1 <1>  -0.3630 
  2 C        0.7830    -2.7830     0.9170 C.ar  1 <1>   0.0820 
  3 C        1.2220    -1.3330    -0.8980 C.3   1 <1>   0.2000 
  4 C        1.2720    -4.0860     0.8630 C.ar  1 <1>  -0.1440 
  5 C       -0.4360    -2.5170     1.5170 C.ar  1 <1>  -0.1500 
  6 C        2.5570    -1.0170    -1.5700 C.3   1 <1>  -0.2400 
  7 C        0.3280    -0.0950    -0.8420 C.3   1 <1>  -0.2400 
  8 C        0.5000    -5.1140     1.3840 C.ar  1 <1>  -0.1500 
  9 C        2.6450    -4.3920     0.2720 C.3   1 <1>   0.1220 
 10 C       -1.1930    -3.5470     2.0410 C.ar  1 <1>  -0.1500 
 11 C       -0.7320    -4.8530     1.9700 C.ar  1 <1>  -0.1430 
 12 C        2.5340    -4.8590    -1.1700 C.2   1 <1>  -0.2880 
 13 C       -1.5680    -5.9840     2.5350 C.3   1 <1>   0.4860 
 14 C        3.1240    -5.9460    -1.6780 C.2   1 <1>  -0.3000 
 15 N       -2.2960    -6.6280     1.4160 N.4   1 <1>  -0.9590 
 16 C       -3.2280    -5.7370     0.6650 C.3   1 <1>   0.3430 
 17 C       -3.0400    -7.8680     1.7320 C.3   1 <1>   0.3430 
 18 C       -4.3010    -6.6580     0.0670 C.3   1 <1>   0.2000 
 19 C       -3.9610    -8.0830     0.5270 C.3   1 <1>  -0.0800 
 20 O       -5.5470    -6.3060     0.5720 O.3   1 <1>  -0.6800 
 21 C       -3.3140    -8.9400    -0.5930 C.3   1 <1>  -0.0170 
 22 C       -1.8250    -8.7040    -0.8440 C.ar  1 <1>   0.1670 
 23 N       -1.4560    -7.4800    -1.1980 N.ar  1 <1>  -0.6200 
 24 C       -0.9240    -9.7570    -0.6890 C.ar  1 <1>   0.1600 
 25 C       -0.1520    -7.3900    -1.4210 C.ar  1 <1>   0.1600 
 26 N        0.3800    -9.6540    -0.8660 N.ar  1 <1>  -0.6200 
 27 C        0.7360    -8.4440    -1.2570 C.ar  1 <1>   0.1600 
 28 H        0.7260    -2.1330    -1.4230 H     1 <1>   0.0800 
 29 H       -0.7810    -1.5010     1.5800 H     1 <1>   0.1500 
 30 H        3.0700    -0.2400    -1.0330 H     1 <1>   0.0800 
 31 H        2.3910    -0.6850    -2.5790 H     1 <1>   0.0800 
 32 H        3.1750    -1.8950    -1.6010 H     1 <1>   0.0800 
 33 H        0.7880     0.6710    -0.2440 H     1 <1>   0.0800 
 34 H       -0.6320    -0.3420    -0.4320 H     1 <1>   0.0800 
 35 H        0.1750     0.2910    -1.8340 H     1 <1>   0.0800 
 36 H        0.8780    -6.1220     1.3370 H     1 <1>   0.1500 
 37 H        3.2690    -3.5170     0.3130 H     1 <1>   0.0800 
 38 H        3.1320    -5.1470     0.8650 H     1 <1>   0.0800 
 39 H       -2.1350    -3.3120     2.5070 H     1 <1>   0.1500 
 40 H        1.9310    -4.1970    -1.7680 H     1 <1>   0.1500 
 41 H       -2.2640    -5.6000     3.2630 H     1 <1>   0.0800 
 42 H       -0.9220    -6.6990     3.0190 H     1 <1>   0.0800 
 43 H        3.0450    -6.2460    -2.7090 H     1 <1>   0.1500 
 44 H        3.7470    -6.6190    -1.1130 H     1 <1>   0.1500 
 45 H       -1.5910    -6.8840     0.6960 H     1 <1>   0.4500 
 46 H       -3.6880    -5.0160     1.3190 H     1 <1>   0.0800 
 47 H       -2.6940    -5.2230    -0.1190 H     1 <1>   0.0800 
 48 H       -2.3760    -8.7030     1.8840 H     1 <1>   0.0800 
 49 H       -3.6360    -7.7180     2.6190 H     1 <1>   0.0800 
 50 H       -4.3440    -6.5590    -1.0050 H     1 <1>   0.0800 
 51 H       -4.8560    -8.5960     0.8380 H     1 <1>   0.0800 
 52 H       -5.6520    -6.4990     1.5240 H     1 <1>   0.4000 
 53 H       -3.8440    -8.7820    -1.5170 H     1 <1>   0.0800 
 54 H       -3.4560    -9.9760    -0.3400 H     1 <1>   0.0800 
 55 H       -1.2900   -10.7290    -0.4050 H     1 <1>   0.1500 
 56 H        0.2350    -6.4390    -1.7470 H     1 <1>   0.1500 
 57 H        1.7810    -8.2830    -1.4560 H     1 <1>   0.1500 
@<TRIPOS>BOND
  1   1   2  1   
  2   1   3  1   
  3   2   4  ar  
  4   2   5  ar  
  5   3   6  1   
  6   3   7  1   
  7   3  28  1   
  8   4   8  ar  
  9   4   9  1   
 10   5  10  ar  
 11   5  29  1   
 12   6  30  1   
 13   6  31  1   
 14   6  32  1   
 15   7  33  1   
 16   7  34  1   
 17   7  35  1   
 18   8  11  ar  
 19   8  36  1   
 20   9  12  1   
 21   9  37  1   
 22   9  38  1   
 23  10  11  ar  
 24  10  39  1   
 25  11  13  1   
 26  12  14  2   
 27  12  40  1   
 28  13  15  1   
 29  13  41  1   
 30  13  42  1   
 31  14  43  1   
 32  14  44  1   
 33  15  16  1   
 34  15  17  1   
 35  15  45  1   
 36  16  18  1   
 37  16  46  1   
 38  16  47  1   
 39  17  19  1   
 40  17  48  1   
 41  17  49  1   
 42  18  19  1   
 43  18  20  1   
 44  18  50  1   
 45  19  21  1   
 46  19  51  1   
 47  20  52  1   
 48  21  22  1   
 49  21  53  1   
 50  21  54  1   
 51  22  23  ar  
 52  22  24  ar  
 53  23  25  ar  
 54  24  26  ar  
 55  24  55  1   
 56  25  27  ar  
 57  25  56  1   
 58  26  27  ar  
 59  27  57  1   
@<TRIPOS>SUBSTRUCTURE
  1 ****   8 GROUP 4 **** **** 0

# MOE 2024.06 (io_trps.svl 2023.06)
