@<TRIPOS>MOLECULE
NONAME
55 57 1 0 0 
SMALL
USER_CHARGES


@<TRIPOS>ATOM
  1 CL       1.0790    -5.0240    -0.1990 Cl    1 <1>  -0.1230 
  2 C       -0.5480    -4.3760    -0.0540 C.2   1 <1>   0.1230 
  3 C       -1.1530    -3.4850    -0.9290 C.2   1 <1>   0.1080 
  4 C       -1.4510    -4.6480     0.9070 C.2   1 <1>  -0.3320 
  5 N       -2.3650    -3.2100    -0.5540 N.2   1 <1>  -0.7070 
  6 C       -0.5270    -2.8870    -2.1690 C.3   1 <1>  -0.0590 
  7 N       -2.5560    -3.9280     0.5810 N.pl3 1 <1>   0.3140 
  8 C       -1.3130    -5.5720     2.1090 C.3   1 <1>  -0.0600 
  9 C       -3.8420    -3.8650     1.2980 C.3   1 <1>   0.1570 
 10 C       -4.4910    -5.2310     1.2960 C.2   1 <1>   0.5690 
 11 O       -4.5650    -5.8010     2.3590 O.2   1 <1>  -0.5700 
 12 N       -4.9580    -5.8000     0.1400 N.am  1 <1>  -0.6600 
 13 C       -5.0460    -7.2980     0.0760 C.3   1 <1>   0.3640 
 14 C       -5.2760    -5.0120    -1.0950 C.3   1 <1>   0.1400 
 15 C       -3.6230    -7.8650    -0.0080 C.ar  1 <1>  -0.1440 
 16 C       -5.9210    -7.8710    -1.0790 C.3   1 <1>   0.2000 
 17 C       -5.7090    -5.8780    -2.2830 C.3   1 <1>   0.1200 
 18 C       -3.2630    -8.9220     0.8180 C.ar  1 <1>  -0.1500 
 19 C       -2.6740    -7.3420    -0.8790 C.ar  1 <1>  -0.1500 
 20 O       -6.5620    -6.8850    -1.8450 O.3   1 <1>  -0.5600 
 21 C       -7.0150    -8.8140    -0.5600 C.3   1 <1>   0.1200 
 22 C       -1.9840    -9.4510     0.7820 C.ar  1 <1>   0.0820 
 23 C       -1.3890    -7.8550    -0.9150 C.ar  1 <1>  -0.1500 
 24 O       -6.4540    -9.9030     0.1000 O.3   1 <1>  -0.6800 
 25 O       -1.7200   -10.4950     1.6070 O.3   1 <1>  -0.3630 
 26 C       -1.0320    -8.8960    -0.0790 C.ar  1 <1>   0.0820 
 27 C       -1.3030   -11.7010     1.0050 C.3   1 <1>   0.0400 
 28 O        0.2520    -9.3240    -0.1230 O.3   1 <1>  -0.3630 
 29 C        1.0530    -8.9390     0.9710 C.3   1 <1>   0.0400 
 30 H        0.5420    -2.9790    -2.1350 H     1 <1>   0.0800 
 31 H       -0.7850    -1.8460    -2.2360 H     1 <1>   0.0800 
 32 H       -0.8980    -3.3950    -3.0400 H     1 <1>   0.0800 
 33 H       -0.2990    -5.9160     2.2010 H     1 <1>   0.0800 
 34 H       -1.9470    -6.4330     1.9950 H     1 <1>   0.0800 
 35 H       -1.5820    -5.0590     3.0150 H     1 <1>   0.0800 
 36 H       -3.6560    -3.5520     2.3060 H     1 <1>   0.0800 
 37 H       -4.4800    -3.1480     0.8210 H     1 <1>   0.0800 
 38 H       -5.4730    -7.6370     1.0050 H     1 <1>   0.0800 
 39 H       -6.0760    -4.3280    -0.8670 H     1 <1>   0.0800 
 40 H       -4.4250    -4.4310    -1.3960 H     1 <1>   0.0800 
 41 H       -5.2960    -8.4270    -1.7560 H     1 <1>   0.0800 
 42 H       -4.8610    -6.3240    -2.7730 H     1 <1>   0.0800 
 43 H       -6.2420    -5.2800    -3.0010 H     1 <1>   0.0800 
 44 H       -3.9770    -9.3450     1.5030 H     1 <1>   0.1500 
 45 H       -2.9140    -6.5170    -1.5240 H     1 <1>   0.1500 
 46 H       -7.6110    -9.1860    -1.3760 H     1 <1>   0.0800 
 47 H       -7.6480    -8.2950     0.1390 H     1 <1>   0.0800 
 48 H       -0.6550    -7.4380    -1.5800 H     1 <1>   0.1500 
 49 H       -5.9770   -10.4860    -0.5240 H     1 <1>   0.4000 
 50 H       -1.3640   -12.4820     1.7410 H     1 <1>   0.0800 
 51 H       -0.2890   -11.5990     0.6670 H     1 <1>   0.0800 
 52 H       -1.9540   -11.9220     0.1780 H     1 <1>   0.0800 
 53 H        2.0450    -9.3220     0.8140 H     1 <1>   0.0800 
 54 H        0.6370    -9.3480     1.8740 H     1 <1>   0.0800 
 55 H        1.0750    -7.8640     1.0210 H     1 <1>   0.0800 
@<TRIPOS>BOND
  1   1   2  1   
  2   2   3  1   
  3   2   4  2   
  4   3   5  2   
  5   3   6  1   
  6   4   7  1   
  7   4   8  1   
  8   5   7  1   
  9   6  30  1   
 10   6  31  1   
 11   6  32  1   
 12   7   9  1   
 13   8  33  1   
 14   8  34  1   
 15   8  35  1   
 16   9  10  1   
 17   9  36  1   
 18   9  37  1   
 19  10  11  2   
 20  10  12  am  
 21  12  13  1   
 22  12  14  1   
 23  13  15  1   
 24  13  16  1   
 25  13  38  1   
 26  14  17  1   
 27  14  39  1   
 28  14  40  1   
 29  15  18  ar  
 30  15  19  ar  
 31  16  20  1   
 32  16  21  1   
 33  16  41  1   
 34  17  20  1   
 35  17  42  1   
 36  17  43  1   
 37  18  22  ar  
 38  18  44  1   
 39  19  23  ar  
 40  19  45  1   
 41  21  24  1   
 42  21  46  1   
 43  21  47  1   
 44  22  25  1   
 45  22  26  ar  
 46  23  26  ar  
 47  23  48  1   
 48  24  49  1   
 49  25  27  1   
 50  26  28  1   
 51  27  50  1   
 52  27  51  1   
 53  27  52  1   
 54  28  29  1   
 55  29  53  1   
 56  29  54  1   
 57  29  55  1   
@<TRIPOS>SUBSTRUCTURE
  1 ****  19 GROUP 4 **** **** 0

# MOE 2024.06 (io_trps.svl 2023.06)
