@<TRIPOS>MOLECULE
NONAME
43 46 1 0 0 
SMALL
USER_CHARGES


@<TRIPOS>ATOM
  1 O       -0.2660     0.1950     0.4950 O.2   1 <1>  -0.5700 
  2 C       -1.3180     0.8050     0.4840 C.2   1 <1>   0.5440 
  3 N       -2.4880     0.0940     0.3340 N.am  1 <1>  -0.6600 
  4 C       -1.3160     2.2490     0.6090 C.ar  1 <1>   0.0860 
  5 C       -3.7790     0.6750    -0.1130 C.3   1 <1>   0.1400 
  6 C       -2.5020    -1.3830     0.1920 C.3   1 <1>   0.1400 
  7 C       -0.4830     3.0280    -0.1990 C.ar  1 <1>  -0.1500 
  8 C       -2.1370     2.9060     1.5360 C.ar  1 <1>  -0.1500 
  9 C       -4.5710    -0.5090    -0.6690 C.3   1 <1>   0.2000 
 10 C       -3.9740    -1.7490    -0.0080 C.3   1 <1>  -0.0800 
 11 C       -0.4990     4.4040    -0.0870 C.ar  1 <1>  -0.1440 
 12 C       -2.1510     4.2870     1.6450 C.ar  1 <1>  -0.1500 
 13 O       -5.9200    -0.4130    -0.3620 O.3   1 <1>  -0.6800 
 14 C       -4.2020    -3.0270    -0.8330 C.3   1 <1>  -0.0170 
 15 C       -1.3220     5.0190     0.8180 C.ar  1 <1>   0.0820 
 16 C        0.2770     5.4570    -0.8190 C.3   1 <1>  -0.0170 
 17 C       -3.6530    -4.2570    -0.1270 C.ar  1 <1>   0.1670 
 18 O       -1.2170     6.3530     0.7980 O.3   1 <1>  -0.3630 
 19 C       -0.2500     6.7480    -0.1650 C.3   1 <1>   0.1200 
 20 N       -2.3630    -4.5040    -0.2860 N.ar  1 <1>  -0.6200 
 21 C       -4.4990    -5.0540     0.6420 C.ar  1 <1>   0.1600 
 22 C       -1.9790    -5.5860     0.3700 C.ar  1 <1>   0.1600 
 23 N       -4.1170    -6.1360     1.3000 N.ar  1 <1>  -0.6200 
 24 C       -2.8270    -6.3750     1.1370 C.ar  1 <1>   0.1600 
 25 H       -4.2840     1.1100     0.7310 H     1 <1>   0.0800 
 26 H       -3.6160     1.4180    -0.8750 H     1 <1>   0.0800 
 27 H       -1.9140    -1.6600    -0.6670 H     1 <1>   0.0800 
 28 H       -2.0890    -1.8560     1.0670 H     1 <1>   0.0800 
 29 H        0.1700     2.5430    -0.9040 H     1 <1>   0.1500 
 30 H       -2.7650     2.3190     2.1820 H     1 <1>   0.1500 
 31 H       -4.4670    -0.5470    -1.7400 H     1 <1>   0.0800 
 32 H       -4.4040    -1.8740     0.9710 H     1 <1>   0.0800 
 33 H       -2.7810     4.7940     2.3540 H     1 <1>   0.1500 
 34 H       -6.0470    -0.3630     0.6050 H     1 <1>   0.4000 
 35 H       -3.7280    -2.9340    -1.7950 H     1 <1>   0.0800 
 36 H       -5.2560    -3.1540    -1.0040 H     1 <1>   0.0800 
 37 H        0.0610     5.4420    -1.8720 H     1 <1>   0.0800 
 38 H        1.3350     5.3470    -0.6590 H     1 <1>   0.0800 
 39 H       -0.7320     7.3890    -0.8820 H     1 <1>   0.0800 
 40 H        0.5330     7.2810     0.3460 H     1 <1>   0.0800 
 41 H       -5.5380    -4.7840     0.7190 H     1 <1>   0.1500 
 42 H       -0.9420    -5.8620     0.2970 H     1 <1>   0.1500 
 43 H       -2.4200    -7.2370     1.6350 H     1 <1>   0.1500 
@<TRIPOS>BOND
  1   1   2  2   
  2   2   3  am  
  3   2   4  1   
  4   3   5  1   
  5   3   6  1   
  6   4   7  ar  
  7   4   8  ar  
  8   5   9  1   
  9   5  25  1   
 10   5  26  1   
 11   6  10  1   
 12   6  27  1   
 13   6  28  1   
 14   7  11  ar  
 15   7  29  1   
 16   8  12  ar  
 17   8  30  1   
 18   9  10  1   
 19   9  13  1   
 20   9  31  1   
 21  10  14  1   
 22  10  32  1   
 23  11  15  ar  
 24  11  16  1   
 25  12  15  ar  
 26  12  33  1   
 27  13  34  1   
 28  14  17  1   
 29  14  35  1   
 30  14  36  1   
 31  15  18  1   
 32  16  19  1   
 33  16  37  1   
 34  16  38  1   
 35  17  20  ar  
 36  17  21  ar  
 37  18  19  1   
 38  19  39  1   
 39  19  40  1   
 40  20  22  ar  
 41  21  23  ar  
 42  21  41  1   
 43  22  24  ar  
 44  22  42  1   
 45  23  24  ar  
 46  24  43  1   
@<TRIPOS>SUBSTRUCTURE
  1 ****   3 GROUP 4 **** **** 0

# MOE 2024.06 (io_trps.svl 2023.06)
