@<TRIPOS>MOLECULE
NONAME
47 49 1 0 0 
SMALL
USER_CHARGES


@<TRIPOS>ATOM
  1 O       -2.3980     0.5260     1.6010 O.2   1 <1>  -0.5700 
  2 C       -2.4860     1.6920     1.2500 C.2   1 <1>   0.5440 
  3 N       -3.6570     2.3660     1.5570 N.am  1 <1>  -0.6600 
  4 C       -1.3840     2.2760     0.4890 C.ar  1 <1>   0.3960 
  5 C       -4.7210     1.7200     2.3820 C.3   1 <1>   0.1400 
  6 C       -4.0610     3.6650     0.9510 C.3   1 <1>   0.1400 
  7 N       -0.8640     3.4740     0.8070 N.ar  1 <1>  -0.6200 
  8 C       -0.8740     1.5320    -0.5810 C.ar  1 <1>   0.1600 
  9 C       -5.5900     0.7440     1.5670 C.3   1 <1>   0.1400 
 10 C       -4.9500     3.4540    -0.2800 C.3   1 <1>  -0.1600 
 11 C        0.1300     3.8360     0.0180 C.ar  1 <1>   0.1600 
 12 N        0.1170     1.8990    -1.3760 N.ar  1 <1>  -0.6200 
 13 N       -5.8780     1.1950     0.1620 N.am  1 <1>  -0.6600 
 14 C       -6.2190     2.6350    -0.0130 C.3   1 <1>   0.1400 
 15 C        0.6100     3.0760    -1.0450 C.ar  1 <1>   0.1670 
 16 C       -5.8520     0.3440    -0.9270 C.2   1 <1>   0.5440 
 17 C        1.7570     3.5770    -1.9000 C.3   1 <1>  -0.0960 
 18 O       -6.1530     0.7750    -2.0230 O.2   1 <1>  -0.5700 
 19 C       -5.4950    -1.0550    -0.8120 C.ar  1 <1>   0.0860 
 20 C       -6.4150    -2.0650    -1.0260 C.ar  1 <1>  -0.1500 
 21 C       -4.2160    -1.4860    -0.4910 C.ar  1 <1>  -0.1500 
 22 C       -6.0460    -3.3920    -0.8970 C.ar  1 <1>   0.3930 
 23 C       -3.9400    -2.8340    -0.3830 C.ar  1 <1>   0.1600 
 24 O       -7.0050    -4.3160    -1.1150 O.3   1 <1>  -0.3630 
 25 N       -4.8230    -3.8000    -0.5730 N.ar  1 <1>  -0.6200 
 26 C       -6.7180    -5.6980    -1.0200 C.3   1 <1>   0.0400 
 27 H       -5.3490     2.4760     2.8180 H     1 <1>   0.0800 
 28 H       -4.2640     1.1840     3.1960 H     1 <1>   0.0800 
 29 H       -3.2000     4.2390     0.6650 H     1 <1>   0.0800 
 30 H       -4.5920     4.2460     1.6850 H     1 <1>   0.0800 
 31 H       -1.3240     0.5760    -0.7790 H     1 <1>   0.1500 
 32 H       -6.5220     0.5960     2.0820 H     1 <1>   0.0800 
 33 H       -5.0830    -0.2020     1.5590 H     1 <1>   0.0800 
 34 H       -4.3840     2.9910    -1.0680 H     1 <1>   0.0800 
 35 H       -5.2490     4.4220    -0.6370 H     1 <1>   0.0800 
 36 H        0.5920     4.7860     0.2240 H     1 <1>   0.1500 
 37 H       -6.8880     2.7430    -0.8510 H     1 <1>   0.0800 
 38 H       -6.7340     3.0030     0.8570 H     1 <1>   0.0800 
 39 H        2.1020     4.5390    -1.5670 H     1 <1>   0.0800 
 40 H        1.4350     3.6580    -2.9220 H     1 <1>   0.0800 
 41 H        2.5730     2.8790    -1.8500 H     1 <1>   0.0800 
 42 H       -7.4250    -1.8220    -1.2970 H     1 <1>   0.1500 
 43 H       -3.4410    -0.7630    -0.3230 H     1 <1>   0.1500 
 44 H       -2.9380    -3.1360    -0.1250 H     1 <1>   0.1500 
 45 H       -7.6180    -6.2450    -1.2340 H     1 <1>   0.0800 
 46 H       -6.3790    -5.9150    -0.0220 H     1 <1>   0.0800 
 47 H       -5.9550    -5.9440    -1.7370 H     1 <1>   0.0800 
@<TRIPOS>BOND
  1   1   2  2   
  2   2   3  am  
  3   2   4  1   
  4   3   5  1   
  5   3   6  1   
  6   4   7  ar  
  7   4   8  ar  
  8   5   9  1   
  9   5  27  1   
 10   5  28  1   
 11   6  10  1   
 12   6  29  1   
 13   6  30  1   
 14   7  11  ar  
 15   8  12  ar  
 16   8  31  1   
 17   9  13  1   
 18   9  32  1   
 19   9  33  1   
 20  10  14  1   
 21  10  34  1   
 22  10  35  1   
 23  11  15  ar  
 24  11  36  1   
 25  12  15  ar  
 26  13  14  1   
 27  13  16  am  
 28  14  37  1   
 29  14  38  1   
 30  15  17  1   
 31  16  18  2   
 32  16  19  1   
 33  17  39  1   
 34  17  40  1   
 35  17  41  1   
 36  19  20  ar  
 37  19  21  ar  
 38  20  22  ar  
 39  20  42  1   
 40  21  23  ar  
 41  21  43  1   
 42  22  24  1   
 43  22  25  ar  
 44  23  25  ar  
 45  23  44  1   
 46  24  26  1   
 47  26  45  1   
 48  26  46  1   
 49  26  47  1   
@<TRIPOS>SUBSTRUCTURE
  1 ****  21 GROUP 4 **** **** 0

# MOE 2024.06 (io_trps.svl 2023.06)
