@<TRIPOS>MOLECULE
NONAME
33 33 1 0 0 
SMALL
USER_CHARGES


@<TRIPOS>ATOM
  1 N       -0.7730     0.9920    -0.2180 N.4   1 <1>  -0.8530 
  2 C       -1.4170    -0.2700    -0.6010 C.3   1 <1>   0.5030 
  3 C       -0.7590    -1.4890     0.1920 C.3   1 <1>   0.1430 
  4 C       -1.2010    -0.3140    -2.1250 C.3   1 <1>  -0.2400 
  5 C       -2.8970    -0.0160    -0.2580 C.3   1 <1>  -0.2400 
  6 C       -1.3310    -2.9140    -0.1010 C.ar  1 <1>  -0.1440 
  7 C        0.7630    -1.5460    -0.1160 C.3   1 <1>  -0.2400 
  8 C       -0.9040    -1.2530     1.7200 C.3   1 <1>  -0.2400 
  9 C       -2.3660    -3.2030    -0.9940 C.ar  1 <1>  -0.1500 
 10 C       -0.7800    -4.0060     0.5740 C.ar  1 <1>  -0.1500 
 11 C       -2.8170    -4.4950    -1.1980 C.ar  1 <1>  -0.1500 
 12 C       -1.2270    -5.3000     0.3750 C.ar  1 <1>  -0.1500 
 13 C       -2.2500    -5.5500    -0.5140 C.ar  1 <1>  -0.1500 
 14 H        0.2240     0.9520    -0.4400 H     1 <1>   0.4500 
 15 H       -0.8890     1.1480     0.7860 H     1 <1>   0.4500 
 16 H       -1.1990     1.7690    -0.7290 H     1 <1>   0.4500 
 17 H       -0.1620    -0.2040    -2.3790 H     1 <1>   0.0800 
 18 H       -1.7510     0.4670    -2.6200 H     1 <1>   0.0800 
 19 H       -1.5170    -1.2410    -2.5580 H     1 <1>   0.0800 
 20 H       -3.0160     0.2980     0.7640 H     1 <1>   0.0800 
 21 H       -3.5010    -0.8920    -0.3740 H     1 <1>   0.0800 
 22 H       -3.3200     0.7430    -0.8930 H     1 <1>   0.0800 
 23 H        0.9310    -1.8500    -1.1350 H     1 <1>   0.0800 
 24 H        1.2620    -2.2670     0.5060 H     1 <1>   0.0800 
 25 H        1.2600    -0.6100     0.0550 H     1 <1>   0.0800 
 26 H       -1.9340    -1.3470     2.0190 H     1 <1>   0.0800 
 27 H       -0.5370    -0.2940     2.0320 H     1 <1>   0.0800 
 28 H       -0.3530    -1.9830     2.2840 H     1 <1>   0.0800 
 29 H       -2.8700    -2.4600    -1.5710 H     1 <1>   0.1500 
 30 H        0.0190    -3.8840     1.2800 H     1 <1>   0.1500 
 31 H       -3.6170    -4.6850    -1.8940 H     1 <1>   0.1500 
 32 H       -0.7760    -6.1150     0.9140 H     1 <1>   0.1500 
 33 H       -2.6000    -6.5550    -0.6720 H     1 <1>   0.1500 
@<TRIPOS>BOND
  1   1   2  1   
  2   1  14  1   
  3   1  15  1   
  4   1  16  1   
  5   2   3  1   
  6   2   4  1   
  7   2   5  1   
  8   3   6  1   
  9   3   7  1   
 10   3   8  1   
 11   4  17  1   
 12   4  18  1   
 13   4  19  1   
 14   5  20  1   
 15   5  21  1   
 16   5  22  1   
 17   6   9  ar  
 18   6  10  ar  
 19   7  23  1   
 20   7  24  1   
 21   7  25  1   
 22   8  26  1   
 23   8  27  1   
 24   8  28  1   
 25   9  11  ar  
 26   9  29  1   
 27  10  12  ar  
 28  10  30  1   
 29  11  13  ar  
 30  11  31  1   
 31  12  13  ar  
 32  12  32  1   
 33  13  33  1   
@<TRIPOS>SUBSTRUCTURE
  1 ****   6 GROUP 4 **** **** 0

# MOE 2024.06 (io_trps.svl 2023.06)
