@<TRIPOS>MOLECULE
NONAME
45 48 1 0 0 
SMALL
USER_CHARGES


@<TRIPOS>ATOM
  1 CL      -1.7860    -2.6880     1.5410 Cl    1 <1>  -0.1770 
  2 C       -2.4340    -1.1900     0.9150 C.ar  1 <1>   0.1770 
  3 C       -3.7460    -0.8300     1.2230 C.ar  1 <1>  -0.1440 
  4 C       -1.6170    -0.4010     0.1200 C.ar  1 <1>  -0.1500 
  5 C       -4.2600     0.3660     0.7270 C.ar  1 <1>  -0.1500 
  6 C       -4.5950    -1.7390     2.0890 C.3   1 <1>   0.4870 
  7 C       -2.1590     0.7710    -0.3640 C.ar  1 <1>   0.0830 
  8 C       -3.4390     1.1420    -0.0690 C.ar  1 <1>   0.0830 
  9 N       -5.2200    -2.7680     1.2260 N.4   1 <1>  -0.9590 
 10 O       -1.5840     1.6890    -1.1470 O.3   1 <1>  -0.3630 
 11 O       -3.7260     2.3090    -0.6510 O.3   1 <1>  -0.3620 
 12 C       -6.1910    -2.2670     0.2080 C.3   1 <1>   0.3430 
 13 C       -5.8530    -3.9140     1.9150 C.3   1 <1>   0.3430 
 14 C       -2.5530     2.7160    -1.3560 C.3   1 <1>   0.4000 
 15 C       -7.1730    -3.4190    -0.0440 C.3   1 <1>   0.2000 
 16 C       -6.7110    -4.5840     0.8410 C.3   1 <1>  -0.0800 
 17 O       -8.4480    -3.0300     0.3530 O.3   1 <1>  -0.6800 
 18 C       -5.9370    -5.6650     0.0480 C.3   1 <1>   0.0210 
 19 C       -4.5120    -5.3060    -0.3560 C.2   1 <1>   0.1080 
 20 N       -4.1800    -4.2240    -0.9950 N.2   1 <1>  -0.7070 
 21 C       -3.4110    -6.1120    -0.0920 C.2   1 <1>  -0.1500 
 22 N       -2.8470    -4.3370    -1.1940 N.pl3 1 <1>   0.3000 
 23 C       -2.3610    -5.4620    -0.6350 C.2   1 <1>  -0.3320 
 24 C       -0.8970    -5.8620    -0.6680 C.3   1 <1>  -0.0600 
 25 H       -0.6060    -0.6810    -0.1110 H     1 <1>   0.1500 
 26 H       -5.2590     0.7050     0.9370 H     1 <1>   0.1500 
 27 H       -5.3530    -1.1650     2.5950 H     1 <1>   0.0800 
 28 H       -3.9710    -2.2110     2.8310 H     1 <1>   0.0800 
 29 H       -4.4700    -3.1950     0.6370 H     1 <1>   0.4500 
 30 H       -6.7230    -1.4030     0.5660 H     1 <1>   0.0800 
 31 H       -5.6690    -2.0200    -0.7030 H     1 <1>   0.0800 
 32 H       -5.1150    -4.5910     2.3130 H     1 <1>   0.0800 
 33 H       -6.4840    -3.5570     2.7120 H     1 <1>   0.0800 
 34 H       -2.1900     3.6440    -0.9500 H     1 <1>   0.0800 
 35 H       -2.7710     2.8000    -2.4060 H     1 <1>   0.0800 
 36 H       -7.2170    -3.6730    -1.0900 H     1 <1>   0.0800 
 37 H       -7.5580    -5.0710     1.2940 H     1 <1>   0.0800 
 38 H       -8.5420    -2.9430     1.3200 H     1 <1>   0.4000 
 39 H       -6.4870    -5.9190    -0.8420 H     1 <1>   0.0800 
 40 H       -5.8930    -6.5570     0.6460 H     1 <1>   0.0800 
 41 H       -3.4130    -7.0550     0.4260 H     1 <1>   0.1500 
 42 H       -2.2960    -3.6430    -1.7170 H     1 <1>   0.2700 
 43 H       -0.7570    -6.8020    -0.1630 H     1 <1>   0.0800 
 44 H       -0.2950    -5.1180    -0.1760 H     1 <1>   0.0800 
 45 H       -0.5610    -5.9680    -1.6840 H     1 <1>   0.0800 
@<TRIPOS>BOND
  1   1   2  1   
  2   2   3  ar  
  3   2   4  ar  
  4   3   5  ar  
  5   3   6  1   
  6   4   7  ar  
  7   4  25  1   
  8   5   8  ar  
  9   5  26  1   
 10   6   9  1   
 11   6  27  1   
 12   6  28  1   
 13   7   8  ar  
 14   7  10  1   
 15   8  11  1   
 16   9  12  1   
 17   9  13  1   
 18   9  29  1   
 19  10  14  1   
 20  11  14  1   
 21  12  15  1   
 22  12  30  1   
 23  12  31  1   
 24  13  16  1   
 25  13  32  1   
 26  13  33  1   
 27  14  34  1   
 28  14  35  1   
 29  15  16  1   
 30  15  17  1   
 31  15  36  1   
 32  16  18  1   
 33  16  37  1   
 34  17  38  1   
 35  18  19  1   
 36  18  39  1   
 37  18  40  1   
 38  19  20  2   
 39  19  21  1   
 40  20  22  1   
 41  21  23  2   
 42  21  41  1   
 43  22  23  1   
 44  22  42  1   
 45  23  24  1   
 46  24  43  1   
 47  24  44  1   
 48  24  45  1   
@<TRIPOS>SUBSTRUCTURE
  1 ****   9 GROUP 4 **** **** 0

# MOE 2024.06 (io_trps.svl 2023.06)
