@<TRIPOS>MOLECULE
NONAME
57 60 1 0 0 
SMALL
USER_CHARGES


@<TRIPOS>ATOM
  1 O       -1.0390     0.3610    -0.6790 O.2   1 <1>  -0.5700 
  2 C       -0.7640     1.4230    -0.1690 C.2   1 <1>   0.5690 
  3 N       -1.6270     2.4890    -0.1560 N.am  1 <1>  -0.5090 
  4 C        0.6310     1.5680     0.4440 C.3   1 <1>   0.1810 
  5 C       -1.2040     3.8270     0.3700 C.3   1 <1>   0.3640 
  6 C       -3.0360     2.3790    -0.6110 C.3   1 <1>   0.0490 
  7 O        0.7670     2.6950     1.2740 O.3   1 <1>  -0.5600 
  8 C       -1.5400     4.9320    -0.6320 C.ar  1 <1>  -0.1440 
  9 C        0.3060     3.8970     0.6930 C.3   1 <1>   0.2610 
 10 C       -4.1350     2.7340     0.3430 C.3   1 <1>  -0.2000 
 11 C       -3.9110     1.3080    -0.0420 C.3   1 <1>  -0.2000 
 12 C       -1.2590     4.7870    -1.9850 C.ar  1 <1>   0.1600 
 13 C       -2.1090     6.1140    -0.2000 C.ar  1 <1>  -0.1500 
 14 C        0.6260     5.1120     1.5820 C.2   1 <1>   0.5690 
 15 N       -1.4830     5.7050    -2.9100 N.ar  1 <1>  -0.6200 
 16 C       -2.3570     7.0790    -1.1520 C.ar  1 <1>  -0.1500 
 17 O       -0.2240     5.5000     2.3540 O.2   1 <1>  -0.5700 
 18 N        1.8310     5.7680     1.4710 N.am  1 <1>  -0.6600 
 19 C       -2.0290     6.8280    -2.4730 C.ar  1 <1>   0.1600 
 20 C        3.0100     5.2840     0.7070 C.3   1 <1>   0.1400 
 21 C        2.0410     7.1130     2.0730 C.3   1 <1>   0.1400 
 22 C        3.2760     6.2490    -0.4530 C.3   1 <1>  -0.1600 
 23 C        2.3110     8.1210     0.9520 C.3   1 <1>  -0.1600 
 24 C        3.4890     7.6880     0.0550 C.3   1 <1>  -0.0800 
 25 C        3.6850     8.6510    -1.1240 C.3   1 <1>   0.1200 
 26 O        3.9570     9.9220    -0.6280 O.3   1 <1>  -0.5600 
 27 C        4.1310    10.8870    -1.6090 C.3   1 <1>   0.1200 
 28 C        4.4120    12.2080    -0.9050 C.3   1 <1>  -0.2400 
 29 H        1.3610     1.6330    -0.3410 H     1 <1>   0.0800 
 30 H        0.8450     0.6990     1.0400 H     1 <1>   0.0800 
 31 H       -1.7570     3.9980     1.2770 H     1 <1>   0.0800 
 32 H       -3.1570     2.6280    -1.6530 H     1 <1>   0.1000 
 33 H        0.8300     4.0240    -0.2360 H     1 <1>   0.0800 
 34 H       -3.9050     3.0190     1.3540 H     1 <1>   0.1000 
 35 H       -5.0080     3.2320    -0.0400 H     1 <1>   0.1000 
 36 H       -4.6230     0.8310    -0.6920 H     1 <1>   0.1000 
 37 H       -3.4870     0.6270     0.6750 H     1 <1>   0.1000 
 38 H       -0.8260     3.8640    -2.3310 H     1 <1>   0.1500 
 39 H       -2.3450     6.2860     0.8380 H     1 <1>   0.1500 
 40 H       -2.7980     8.0190    -0.8740 H     1 <1>   0.1500 
 41 H       -2.2260     7.5910    -3.2070 H     1 <1>   0.1500 
 42 H        3.8640     5.2630     1.3640 H     1 <1>   0.0800 
 43 H        2.8620     4.2840     0.3410 H     1 <1>   0.0800 
 44 H        1.1770     7.4220     2.6370 H     1 <1>   0.0800 
 45 H        2.8800     7.0730     2.7460 H     1 <1>   0.0800 
 46 H        4.1500     5.9220    -0.9880 H     1 <1>   0.0800 
 47 H        2.4410     6.2180    -1.1310 H     1 <1>   0.0800 
 48 H        1.4180     8.2260     0.3610 H     1 <1>   0.0800 
 49 H        2.5240     9.0800     1.3910 H     1 <1>   0.0800 
 50 H        4.3910     7.7040     0.6440 H     1 <1>   0.0800 
 51 H        2.7920     8.6980    -1.7250 H     1 <1>   0.0800 
 52 H        4.5170     8.3370    -1.7320 H     1 <1>   0.0800 
 53 H        4.9620    10.6040    -2.2330 H     1 <1>   0.0800 
 54 H        3.2310    10.9530    -2.1970 H     1 <1>   0.0800 
 55 H        5.3030    12.1260    -0.3100 H     1 <1>   0.0800 
 56 H        3.5820    12.4710    -0.2730 H     1 <1>   0.0800 
 57 H        4.5530    12.9870    -1.6320 H     1 <1>   0.0800 
@<TRIPOS>BOND
  1   1   2  2   
  2   2   3  am  
  3   2   4  1   
  4   3   5  1   
  5   3   6  1   
  6   4   7  1   
  7   4  29  1   
  8   4  30  1   
  9   5   8  1   
 10   5   9  1   
 11   5  31  1   
 12   6  10  1   
 13   6  11  1   
 14   6  32  1   
 15   7   9  1   
 16   8  12  ar  
 17   8  13  ar  
 18   9  14  1   
 19   9  33  1   
 20  10  11  1   
 21  10  34  1   
 22  10  35  1   
 23  11  36  1   
 24  11  37  1   
 25  12  15  ar  
 26  12  38  1   
 27  13  16  ar  
 28  13  39  1   
 29  14  17  2   
 30  14  18  am  
 31  15  19  ar  
 32  16  19  ar  
 33  16  40  1   
 34  18  20  1   
 35  18  21  1   
 36  19  41  1   
 37  20  22  1   
 38  20  42  1   
 39  20  43  1   
 40  21  23  1   
 41  21  44  1   
 42  21  45  1   
 43  22  24  1   
 44  22  46  1   
 45  22  47  1   
 46  23  24  1   
 47  23  48  1   
 48  23  49  1   
 49  24  25  1   
 50  24  50  1   
 51  25  26  1   
 52  25  51  1   
 53  25  52  1   
 54  26  27  1   
 55  27  28  1   
 56  27  53  1   
 57  27  54  1   
 58  28  55  1   
 59  28  56  1   
 60  28  57  1   
@<TRIPOS>SUBSTRUCTURE
  1 ****   9 GROUP 4 **** **** 0

# MOE 2024.06 (io_trps.svl 2023.06)
