@<TRIPOS>MOLECULE
NONAME
56 58 1 0 0 
SMALL
USER_CHARGES


@<TRIPOS>ATOM
  1 O       -0.7900    -0.7610     0.2740 O.3   1 <1>  -0.3630 
  2 C       -2.0250    -1.0750     0.7350 C.ar  1 <1>   0.0820 
  3 C       -0.4390     0.5710    -0.0310 C.3   1 <1>   0.1200 
  4 C       -2.2370    -2.4000     1.0760 C.ar  1 <1>  -0.1500 
  5 C       -3.0600    -0.1550     0.8760 C.ar  1 <1>  -0.1500 
  6 C        1.0240     0.5880    -0.4810 C.3   1 <1>  -0.1600 
  7 C       -3.4700    -2.8210     1.5490 C.ar  1 <1>  -0.1440 
  8 C       -4.2890    -0.5700     1.3560 C.ar  1 <1>  -0.1500 
  9 C        1.4910     1.9760    -0.9560 C.3   1 <1>  -0.0800 
 10 C       -4.4960    -1.8960     1.6920 C.ar  1 <1>  -0.1500 
 11 C       -3.7020    -4.2770     1.9020 C.3   1 <1>   0.4860 
 12 C        2.9180     1.8810    -1.5080 C.3   1 <1>  -0.2400 
 13 C        1.4480     3.0160     0.1730 C.3   1 <1>  -0.2400 
 14 N       -3.7170    -5.0810     0.6490 N.4   1 <1>  -0.9590 
 15 C       -4.8710    -4.6880    -0.2200 C.3   1 <1>   0.3430 
 16 C       -3.8800    -6.5360     0.9590 C.3   1 <1>   0.3430 
 17 C       -5.9500    -5.7460     0.0280 C.3   1 <1>   0.2000 
 18 C       -5.1400    -7.0250     0.2240 C.3   1 <1>  -0.0800 
 19 O       -6.5900    -5.4500     1.2280 O.3   1 <1>  -0.6800 
 20 C       -4.8140    -7.7010    -1.1270 C.3   1 <1>  -0.0170 
 21 C       -4.0950    -9.0300    -0.9470 C.ar  1 <1>   0.1670 
 22 N       -2.8240    -8.9640    -0.5830 N.ar  1 <1>  -0.6200 
 23 C       -4.7700   -10.2300    -1.1690 C.ar  1 <1>   0.1600 
 24 C       -2.2760   -10.1650    -0.4680 C.ar  1 <1>   0.1600 
 25 N       -4.2280   -11.4270    -1.0400 N.ar  1 <1>  -0.6200 
 26 C       -2.9560   -11.3570    -0.6880 C.ar  1 <1>   0.1600 
 27 H       -1.0820     0.9190    -0.8200 H     1 <1>   0.0800 
 28 H       -0.5760     1.1650     0.8550 H     1 <1>   0.0800 
 29 H       -1.4140    -3.0830     0.9670 H     1 <1>   0.1500 
 30 H       -2.9280     0.8800     0.6210 H     1 <1>   0.1500 
 31 H        1.6450     0.2580     0.3330 H     1 <1>   0.0800 
 32 H        1.1340    -0.1090    -1.2930 H     1 <1>   0.0800 
 33 H       -5.0870     0.1450     1.4690 H     1 <1>   0.1500 
 34 H        0.8450     2.3070    -1.7530 H     1 <1>   0.0800 
 35 H       -5.4610    -2.1960     2.0660 H     1 <1>   0.1500 
 36 H       -4.6420    -4.3830     2.4200 H     1 <1>   0.0800 
 37 H       -2.9120    -4.6150     2.5520 H     1 <1>   0.0800 
 38 H        3.6000     1.5560    -0.7420 H     1 <1>   0.0800 
 39 H        3.2430     2.8400    -1.8720 H     1 <1>   0.0800 
 40 H        2.9580     1.1810    -2.3230 H     1 <1>   0.0800 
 41 H        2.0420     2.6920     1.0090 H     1 <1>   0.0800 
 42 H        0.4400     3.1820     0.5070 H     1 <1>   0.0800 
 43 H        1.8360     3.9570    -0.1760 H     1 <1>   0.0800 
 44 H       -2.8350    -4.9030     0.1520 H     1 <1>   0.4500 
 45 H       -5.2380    -3.6990    -0.0010 H     1 <1>   0.0800 
 46 H       -4.5700    -4.7280    -1.2530 H     1 <1>   0.0800 
 47 H       -3.0040    -7.0890     0.6680 H     1 <1>   0.0800 
 48 H       -4.0270    -6.6680     2.0190 H     1 <1>   0.0800 
 49 H       -6.6840    -5.7900    -0.7590 H     1 <1>   0.0800 
 50 H       -5.6760    -7.7330     0.8320 H     1 <1>   0.0800 
 51 H       -7.4030    -5.9880     1.3410 H     1 <1>   0.4000 
 52 H       -4.1970    -7.0620    -1.7350 H     1 <1>   0.0800 
 53 H       -5.7280    -7.8720    -1.6680 H     1 <1>   0.0800 
 54 H       -5.8040   -10.2050    -1.4640 H     1 <1>   0.1500 
 55 H       -1.2390   -10.2140    -0.1860 H     1 <1>   0.1500 
 56 H       -2.4270   -12.2870    -0.5670 H     1 <1>   0.1500 
@<TRIPOS>BOND
  1   1   2  1   
  2   1   3  1   
  3   2   4  ar  
  4   2   5  ar  
  5   3   6  1   
  6   3  27  1   
  7   3  28  1   
  8   4   7  ar  
  9   4  29  1   
 10   5   8  ar  
 11   5  30  1   
 12   6   9  1   
 13   6  31  1   
 14   6  32  1   
 15   7  10  ar  
 16   7  11  1   
 17   8  10  ar  
 18   8  33  1   
 19   9  12  1   
 20   9  13  1   
 21   9  34  1   
 22  10  35  1   
 23  11  14  1   
 24  11  36  1   
 25  11  37  1   
 26  12  38  1   
 27  12  39  1   
 28  12  40  1   
 29  13  41  1   
 30  13  42  1   
 31  13  43  1   
 32  14  15  1   
 33  14  16  1   
 34  14  44  1   
 35  15  17  1   
 36  15  45  1   
 37  15  46  1   
 38  16  18  1   
 39  16  47  1   
 40  16  48  1   
 41  17  18  1   
 42  17  19  1   
 43  17  49  1   
 44  18  20  1   
 45  18  50  1   
 46  19  51  1   
 47  20  21  1   
 48  20  52  1   
 49  20  53  1   
 50  21  22  ar  
 51  21  23  ar  
 52  22  24  ar  
 53  23  25  ar  
 54  23  54  1   
 55  24  26  ar  
 56  24  55  1   
 57  25  26  ar  
 58  26  56  1   
@<TRIPOS>SUBSTRUCTURE
  1 ****  14 GROUP 4 **** **** 0

# MOE 2024.06 (io_trps.svl 2023.06)
