@<TRIPOS>MOLECULE
NONAME
45 48 1 0 0 
SMALL
USER_CHARGES


@<TRIPOS>ATOM
  1 O        3.5890    -2.0050     1.6580 O.2   1 <1>  -0.5700 
  2 C        2.7650    -1.7780     0.7930 C.2   1 <1>   0.5440 
  3 N        2.7210    -0.4890     0.3120 N.am  1 <1>  -0.6600 
  4 C        1.9720    -2.8490     0.2210 C.ar  1 <1>   0.0860 
  5 C        3.1150     0.6490     1.2270 C.3   1 <1>   0.2200 
  6 C        2.6650    -0.2510    -1.1600 C.3   1 <1>   0.1400 
  7 C        0.5720    -2.7150    -0.0100 C.ar  1 <1>   0.0000 
  8 C        2.5960    -4.0290    -0.1360 C.ar  1 <1>  -0.1500 
  9 C        2.4490     1.9840     0.8550 C.3   1 <1>   0.1200 
 10 C        4.6530     0.8090     1.2880 C.3   1 <1>   0.3430 
 11 C        3.6240     0.8530    -1.6480 C.3   1 <1>  -0.0800 
 12 C       -0.1170    -3.7480    -0.6880 C.ar  1 <1>   0.3100 
 13 C       -0.1990    -1.6120     0.4140 C.ar  1 <1>  -0.1500 
 14 C        1.9070    -5.0620    -0.7680 C.ar  1 <1>  -0.1500 
 15 O        3.2100     2.6640    -0.0980 O.3   1 <1>  -0.5600 
 16 N        5.3370     0.1080     0.1480 N.4   1 <1>  -0.9590 
 17 C        3.0430     2.2570    -1.4140 C.3   1 <1>   0.1200 
 18 C        5.1000     0.7420    -1.1930 C.3   1 <1>   0.3430 
 19 N       -1.4330    -3.6770    -1.0070 N.ar  1 <1>  -0.6200 
 20 C        0.5780    -4.9110    -1.0450 C.ar  1 <1>  -0.1500 
 21 C       -1.5250    -1.5760     0.1040 C.ar  1 <1>  -0.1500 
 22 C        6.7860    -0.0850     0.4320 C.3   1 <1>   0.2630 
 23 C       -2.0930    -2.6320    -0.6160 C.ar  1 <1>   0.1600 
 24 H        2.7720     0.4030     2.2180 H     1 <1>   0.0800 
 25 H        2.9110    -1.1660    -1.6720 H     1 <1>   0.0800 
 26 H        1.6530     0.0000    -1.4320 H     1 <1>   0.0800 
 27 H        3.6440    -4.1660     0.0710 H     1 <1>   0.1500 
 28 H        2.4190     2.6150     1.7260 H     1 <1>   0.0800 
 29 H        1.4400     1.8480     0.5030 H     1 <1>   0.0800 
 30 H        4.9860     0.3740     2.2160 H     1 <1>   0.0800 
 31 H        4.9160     1.8540     1.3030 H     1 <1>   0.0800 
 32 H        3.6440     0.7570    -2.7190 H     1 <1>   0.0800 
 33 H        0.2430    -0.8150     0.9810 H     1 <1>   0.1500 
 34 H        2.4270    -5.9670    -1.0340 H     1 <1>   0.1500 
 35 H        4.8680    -0.8160     0.1500 H     1 <1>   0.4500 
 36 H        1.9960     2.3050    -1.6650 H     1 <1>   0.0800 
 37 H        3.5630     2.9740    -2.0270 H     1 <1>   0.0800 
 38 H        5.5340     1.7290    -1.1990 H     1 <1>   0.0800 
 39 H        5.6250     0.1590    -1.9320 H     1 <1>   0.0800 
 40 H        0.0250    -5.6880    -1.5420 H     1 <1>   0.1500 
 41 H       -2.1530    -0.7560     0.4040 H     1 <1>   0.1500 
 42 H        7.2860     0.8680     0.4920 H     1 <1>   0.0800 
 43 H        7.2460    -0.6690    -0.3490 H     1 <1>   0.0800 
 44 H        6.9160    -0.6050     1.3680 H     1 <1>   0.0800 
 45 H       -3.1410    -2.5750    -0.8580 H     1 <1>   0.1500 
@<TRIPOS>BOND
  1   1   2  2   
  2   2   3  am  
  3   2   4  1   
  4   3   5  1   
  5   3   6  1   
  6   4   7  ar  
  7   4   8  ar  
  8   5   9  1   
  9   5  10  1   
 10   5  24  1   
 11   6  11  1   
 12   6  25  1   
 13   6  26  1   
 14   7  12  ar  
 15   7  13  ar  
 16   8  14  ar  
 17   8  27  1   
 18   9  15  1   
 19   9  28  1   
 20   9  29  1   
 21  10  16  1   
 22  10  30  1   
 23  10  31  1   
 24  11  17  1   
 25  11  18  1   
 26  11  32  1   
 27  12  19  ar  
 28  12  20  ar  
 29  13  21  ar  
 30  13  33  1   
 31  14  20  ar  
 32  14  34  1   
 33  15  17  1   
 34  16  18  1   
 35  16  22  1   
 36  16  35  1   
 37  17  36  1   
 38  17  37  1   
 39  18  38  1   
 40  18  39  1   
 41  19  23  ar  
 42  20  40  1   
 43  21  23  ar  
 44  21  41  1   
 45  22  42  1   
 46  22  43  1   
 47  22  44  1   
 48  23  45  1   
@<TRIPOS>SUBSTRUCTURE
  1 ****   3 GROUP 4 **** **** 0

# MOE 2024.06 (io_trps.svl 2023.06)
