@<TRIPOS>MOLECULE
NONAME
31 32 1 0 0 
SMALL
USER_CHARGES


@<TRIPOS>ATOM
  1 S        0.6730     0.0640     0.2720 S.3   1 <1>  -0.0800 
  2 C        2.4170     0.1640     0.1800 C.2   1 <1>   0.1980 
  3 C        0.5690     1.0950    -1.1250 C.2   1 <1>  -0.1100 
  4 N        2.8540     0.8830    -0.7750 N.2   1 <1>  -0.5650 
  5 C        3.2100    -0.5940     1.2190 C.3   1 <1>  -0.0600 
  6 C        1.8100     1.4160    -1.5240 C.2   1 <1>   0.0460 
  7 C        2.1600     2.2970    -2.7160 C.3   1 <1>   0.0820 
  8 C        2.7780     3.6230    -2.3120 C.2   1 <1>   0.5690 
  9 O        2.5270     4.5980    -2.9830 O.2   1 <1>  -0.5700 
 10 N        3.5930     3.6460    -1.2220 N.am  1 <1>  -0.4930 
 11 C        4.2940     4.7190    -0.6180 C.2   1 <1>   0.0630 
 12 C        5.0520     4.6630     0.5530 C.2   1 <1>   0.1080 
 13 C        4.3900     6.0020    -1.0180 C.2   1 <1>  -0.3020 
 14 N        5.5760     5.8100     0.8570 N.2   1 <1>  -0.7070 
 15 C        5.2580     3.4240     1.3950 C.3   1 <1>  -0.0590 
 16 N        5.1640     6.6400    -0.1180 N.pl3 1 <1>   0.3140 
 17 C        5.5440     8.0550    -0.1470 C.3   1 <1>   0.0160 
 18 H       -0.4090     1.3470    -1.4930 H     1 <1>   0.1500 
 19 H        2.9780    -1.6410     1.1600 H     1 <1>   0.0800 
 20 H        2.9660    -0.2310     2.2000 H     1 <1>   0.0800 
 21 H        4.2620    -0.4590     1.0460 H     1 <1>   0.0800 
 22 H        1.2710     2.4970    -3.2840 H     1 <1>   0.0800 
 23 H        2.8500     1.7760    -3.3530 H     1 <1>   0.0800 
 24 H        3.6690     2.7400    -0.7430 H     1 <1>   0.3700 
 25 H        3.9550     6.4760    -1.8780 H     1 <1>   0.1500 
 26 H        5.8100     2.6930     0.8350 H     1 <1>   0.0800 
 27 H        4.3070     3.0150     1.6810 H     1 <1>   0.0800 
 28 H        5.8110     3.6750     2.2820 H     1 <1>   0.0800 
 29 H        4.6610     8.6550    -0.2610 H     1 <1>   0.0800 
 30 H        6.2110     8.2220    -0.9710 H     1 <1>   0.0800 
 31 H        6.0360     8.3060     0.7740 H     1 <1>   0.0800 
@<TRIPOS>BOND
  1   1   2  1   
  2   1   3  1   
  3   2   4  2   
  4   2   5  1   
  5   3   6  2   
  6   3  18  1   
  7   4   6  1   
  8   5  19  1   
  9   5  20  1   
 10   5  21  1   
 11   6   7  1   
 12   7   8  1   
 13   7  22  1   
 14   7  23  1   
 15   8   9  2   
 16   8  10  am  
 17  10  11  1   
 18  10  24  1   
 19  11  12  1   
 20  11  13  2   
 21  12  14  2   
 22  12  15  1   
 23  13  16  1   
 24  13  25  1   
 25  14  16  1   
 26  15  26  1   
 27  15  27  1   
 28  15  28  1   
 29  16  17  1   
 30  17  29  1   
 31  17  30  1   
 32  17  31  1   
@<TRIPOS>SUBSTRUCTURE
  1 ****  10 GROUP 4 **** **** 0

# MOE 2024.06 (io_trps.svl 2023.06)
