@<TRIPOS>MOLECULE
NONAME
46 47 1 0 0 
SMALL
USER_CHARGES


@<TRIPOS>ATOM
  1 S       -0.3830     0.0240     0.0280 S.o2  1 <1>   1.3330 
  2 O       -0.5010    -0.5610     1.3440 O.2   1 <1>  -0.6500 
  3 O       -1.0520     1.2720    -0.2600 O.2   1 <1>  -0.6500 
  4 N       -0.9000    -1.1330    -1.1020 N.am  1 <1>  -0.8490 
  5 C        1.3490     0.2320    -0.3920 C.3   1 <1>  -0.0550 
  6 C       -0.6340    -2.5140    -0.6850 C.3   1 <1>   0.1160 
  7 C       -2.3170    -0.9800    -1.4450 C.3   1 <1>   0.1160 
  8 C        2.0600     1.3200     0.4390 C.3   1 <1>  -0.0800 
  9 C        3.4430     1.6160    -0.1130 C.3   1 <1>   0.2200 
 10 C        2.3800     0.8420     1.8600 C.3   1 <1>   0.1200 
 11 N        3.8580     2.9720     0.3140 N.am  1 <1>  -0.7300 
 12 C        4.2960     0.5720     0.5990 C.3   1 <1>   0.1200 
 13 O        3.6860     0.3460     1.8350 O.3   1 <1>  -0.5600 
 14 C        4.1770     4.0020    -0.5230 C.2   1 <1>   0.5440 
 15 O        4.1310     3.8110    -1.7210 O.2   1 <1>  -0.5700 
 16 C        4.5530     5.2880     0.0270 C.ar  1 <1>   0.0860 
 17 C        5.7210     5.9680    -0.3430 C.ar  1 <1>   0.1670 
 18 C        3.7400     5.8980     0.9740 C.ar  1 <1>  -0.1500 
 19 N        6.0990     7.1390     0.1460 N.ar  1 <1>  -0.6200 
 20 C        6.6740     5.3790    -1.3710 C.3   1 <1>  -0.0970 
 21 C        4.1270     7.1160     1.4840 C.ar  1 <1>  -0.1500 
 22 C        5.3050     7.6920     1.0440 C.ar  1 <1>   0.1670 
 23 C        5.7540     9.0320     1.5860 C.3   1 <1>  -0.0970 
 24 H        1.8610    -0.7030    -0.2750 H     1 <1>   0.0800 
 25 H        1.4030     0.5070    -1.4280 H     1 <1>   0.0800 
 26 H       -0.8950    -3.1960    -1.4760 H     1 <1>   0.0800 
 27 H       -1.2080    -2.7590     0.1940 H     1 <1>   0.0800 
 28 H        0.4110    -2.6400    -0.4600 H     1 <1>   0.0800 
 29 H       -2.6070    -1.7170    -2.1740 H     1 <1>   0.0800 
 30 H       -2.4910    -0.0040    -1.8680 H     1 <1>   0.0800 
 31 H       -2.9300    -1.0890    -0.5650 H     1 <1>   0.0800 
 32 H        1.4480     2.2070     0.4480 H     1 <1>   0.0800 
 33 H        3.5020     1.5210    -1.1850 H     1 <1>   0.0800 
 34 H        1.7230     0.0680     2.2160 H     1 <1>   0.0800 
 35 H        2.3600     1.6660     2.5510 H     1 <1>   0.0800 
 36 H        4.0000     3.0740     1.3210 H     1 <1>   0.3700 
 37 H        5.3100     0.8970     0.7480 H     1 <1>   0.0800 
 38 H        4.2880    -0.3580     0.0580 H     1 <1>   0.0800 
 39 H        2.8240     5.4310     1.2920 H     1 <1>   0.1500 
 40 H        6.8240     4.3300    -1.1960 H     1 <1>   0.0800 
 41 H        7.6300     5.8690    -1.3220 H     1 <1>   0.0800 
 42 H        6.2690     5.5170    -2.3560 H     1 <1>   0.0800 
 43 H        3.5180     7.6150     2.2160 H     1 <1>   0.1500 
 44 H        5.0560     9.4150     2.3080 H     1 <1>   0.0800 
 45 H        5.8400     9.7350     0.7780 H     1 <1>   0.0800 
 46 H        6.7160     8.9250     2.0530 H     1 <1>   0.0800 
@<TRIPOS>BOND
  1   1   2  2   
  2   1   3  2   
  3   1   4  am  
  4   1   5  1   
  5   4   6  1   
  6   4   7  1   
  7   5   8  1   
  8   5  24  1   
  9   5  25  1   
 10   6  26  1   
 11   6  27  1   
 12   6  28  1   
 13   7  29  1   
 14   7  30  1   
 15   7  31  1   
 16   8   9  1   
 17   8  10  1   
 18   8  32  1   
 19   9  11  1   
 20   9  12  1   
 21   9  33  1   
 22  10  13  1   
 23  10  34  1   
 24  10  35  1   
 25  11  14  am  
 26  11  36  1   
 27  12  13  1   
 28  12  37  1   
 29  12  38  1   
 30  14  15  2   
 31  14  16  1   
 32  16  17  ar  
 33  16  18  ar  
 34  17  19  ar  
 35  17  20  1   
 36  18  21  ar  
 37  18  39  1   
 38  19  22  ar  
 39  20  40  1   
 40  20  41  1   
 41  20  42  1   
 42  21  22  ar  
 43  21  43  1   
 44  22  23  1   
 45  23  44  1   
 46  23  45  1   
 47  23  46  1   
@<TRIPOS>SUBSTRUCTURE
  1 ****  11 GROUP 4 **** **** 0

# MOE 2024.06 (io_trps.svl 2023.06)
