@<TRIPOS>MOLECULE
NONAME
54 56 1 0 0 
SMALL
USER_CHARGES


@<TRIPOS>ATOM
  1 O       -0.2560     0.0630     0.1160 O.2   1 <1>  -0.5700 
  2 C       -0.2580     1.2650    -0.0760 C.2   1 <1>   0.6900 
  3 N       -1.4350     1.9710    -0.0580 N.am  1 <1>  -0.6600 
  4 N        0.9050     1.9500    -0.2810 N.am  1 <1>  -0.5470 
  5 C       -1.5720     3.3410    -0.6350 C.3   1 <1>   0.1400 
  6 C       -2.6820     1.3320     0.4530 C.3   1 <1>   0.1400 
  7 C        2.2340     1.5220    -0.4360 C.ar  1 <1>   0.1170 
  8 C       -3.0150     3.6020    -1.0670 C.3   1 <1>  -0.1600 
  9 C       -3.5800     2.3870     1.1050 C.3   1 <1>  -0.1600 
 10 C        3.2830     2.3730    -0.0800 C.ar  1 <1>  -0.1430 
 11 C        2.5380     0.2700    -0.9630 C.ar  1 <1>  -0.1500 
 12 C       -3.9910     3.5170     0.1280 C.3   1 <1>   0.2800 
 13 C        4.5980     1.9660    -0.2530 C.ar  1 <1>  -0.1500 
 14 C        3.0100     3.7530     0.5070 C.3   1 <1>  -0.0970 
 15 C        3.8490    -0.1310    -1.1310 C.ar  1 <1>  -0.1500 
 16 O       -3.7980     4.7240     0.8380 O.3   1 <1>  -0.5600 
 17 C       -5.4780     3.3450    -0.3190 C.3   1 <1>   0.2000 
 18 C        4.8880     0.7110    -0.7800 C.ar  1 <1>   0.0830 
 19 C       -4.8770     5.5940     1.0320 C.3   1 <1>   0.1200 
 20 O       -5.6660     2.2140    -1.1220 O.3   1 <1>  -0.6800 
 21 C       -6.0960     4.6220    -0.9640 C.3   1 <1>   0.2800 
 22 O        6.1490     0.2420    -0.9780 O.3   1 <1>  -0.3630 
 23 C       -5.5240     5.8970    -0.3210 C.3   1 <1>  -0.1600 
 24 O       -7.4500     4.5900    -0.6850 O.3   1 <1>  -0.6800 
 25 C       -6.0070     4.7000    -2.4960 C.3   1 <1>  -0.2400 
 26 C        7.2750     1.0080    -0.6130 C.3   1 <1>   0.0400 
 27 H        0.7880     2.9480    -0.1670 H     1 <1>   0.3700 
 28 H       -1.2850     4.0660     0.1080 H     1 <1>   0.0800 
 29 H       -0.9250     3.4410    -1.4890 H     1 <1>   0.0800 
 30 H       -3.1990     0.8590    -0.3640 H     1 <1>   0.0800 
 31 H       -2.4340     0.5740     1.1780 H     1 <1>   0.0800 
 32 H       -3.2740     2.8780    -1.8180 H     1 <1>   0.0800 
 33 H       -3.0760     4.5730    -1.5200 H     1 <1>   0.0800 
 34 H       -3.0460     2.7980     1.9430 H     1 <1>   0.0800 
 35 H       -4.4500     1.8910     1.4930 H     1 <1>   0.0800 
 36 H        1.7440    -0.3960    -1.2460 H     1 <1>   0.1500 
 37 H        5.3900     2.6320     0.0260 H     1 <1>   0.1500 
 38 H        3.9240     4.2370     0.8010 H     1 <1>   0.0800 
 39 H        2.3850     3.6650     1.3780 H     1 <1>   0.0800 
 40 H        2.5190     4.3730    -0.2210 H     1 <1>   0.0800 
 41 H        4.0720    -1.1010    -1.5370 H     1 <1>   0.1500 
 42 H       -6.0380     3.1520     0.5800 H     1 <1>   0.0800 
 43 H       -5.5750     5.1390     1.7150 H     1 <1>   0.0800 
 44 H       -4.4920     6.4940     1.4780 H     1 <1>   0.0800 
 45 H       -6.6170     2.1530    -1.3440 H     1 <1>   0.4000 
 46 H       -4.7600     6.3190    -0.9500 H     1 <1>   0.0800 
 47 H       -6.2880     6.6450    -0.2030 H     1 <1>   0.0800 
 48 H       -7.8960     5.3300    -1.1390 H     1 <1>   0.4000 
 49 H       -4.9840     4.6620    -2.8160 H     1 <1>   0.0800 
 50 H       -6.4320     5.6200    -2.8550 H     1 <1>   0.0800 
 51 H       -6.5250     3.8760    -2.9530 H     1 <1>   0.0800 
 52 H        8.1560     0.4370    -0.8440 H     1 <1>   0.0800 
 53 H        7.2340     1.2070     0.4430 H     1 <1>   0.0800 
 54 H        7.2730     1.9220    -1.1800 H     1 <1>   0.0800 
@<TRIPOS>BOND
  1   1   2  2   
  2   2   3  am  
  3   2   4  am  
  4   3   5  1   
  5   3   6  1   
  6   4   7  1   
  7   4  27  1   
  8   5   8  1   
  9   5  28  1   
 10   5  29  1   
 11   6   9  1   
 12   6  30  1   
 13   6  31  1   
 14   7  10  ar  
 15   7  11  ar  
 16   8  12  1   
 17   8  32  1   
 18   8  33  1   
 19   9  12  1   
 20   9  34  1   
 21   9  35  1   
 22  10  13  ar  
 23  10  14  1   
 24  11  15  ar  
 25  11  36  1   
 26  12  16  1   
 27  12  17  1   
 28  13  18  ar  
 29  13  37  1   
 30  14  38  1   
 31  14  39  1   
 32  14  40  1   
 33  15  18  ar  
 34  15  41  1   
 35  16  19  1   
 36  17  20  1   
 37  17  21  1   
 38  17  42  1   
 39  18  22  1   
 40  19  23  1   
 41  19  43  1   
 42  19  44  1   
 43  20  45  1   
 44  21  23  1   
 45  21  24  1   
 46  21  25  1   
 47  22  26  1   
 48  23  46  1   
 49  23  47  1   
 50  24  48  1   
 51  25  49  1   
 52  25  50  1   
 53  25  51  1   
 54  26  52  1   
 55  26  53  1   
 56  26  54  1   
@<TRIPOS>SUBSTRUCTURE
  1 ****   3 GROUP 4 **** **** 0

# MOE 2024.06 (io_trps.svl 2023.06)
