@<TRIPOS>MOLECULE
NONAME
35 36 1 0 0 
SMALL
USER_CHARGES


@<TRIPOS>ATOM
  1 F        2.3980     1.5080    -1.1920 F     1 <1>  -0.3400 
  2 C        2.5680     2.2880    -0.1260 C.3   1 <1>   0.8560 
  3 F        2.3850     1.4870     0.9210 F     1 <1>  -0.3400 
  4 N        1.5490     3.3930    -0.1210 N.pl3 1 <1>   0.3140 
  5 N        1.8810     4.7090    -0.1170 N.2   1 <1>  -0.7070 
  6 C        0.2050     3.2420    -0.1190 C.2   1 <1>  -0.3020 
  7 C        0.7330     5.3690    -0.1110 C.2   1 <1>   0.2030 
  8 C       -0.3400     4.4720    -0.1130 C.2   1 <1>  -0.1500 
  9 C        0.6060     6.8160    -0.1030 C.2   1 <1>   0.7160 
 10 O       -0.4810     7.3700    -0.0940 O.2   1 <1>  -0.5700 
 11 N        1.7690     7.5440    -0.1070 N.am  1 <1>  -0.4940 
 12 C        2.0010     8.9390    -0.0670 C.2   1 <1>  -0.0880 
 13 N        3.2290     9.5240    -0.0950 N.pl3 1 <1>   0.3140 
 14 C        1.1080     9.9530     0.0110 C.2   1 <1>  -0.1500 
 15 N        3.1410    10.8710    -0.0380 N.2   1 <1>  -0.7070 
 16 C        4.5390     8.8490    -0.1990 C.3   1 <1>   0.0960 
 17 C        1.8710    11.1130     0.0250 C.2   1 <1>   0.1080 
 18 C        4.9700     8.2670     1.1560 C.3   1 <1>  -0.1600 
 19 C        1.3190    12.5160     0.1050 C.3   1 <1>  -0.0590 
 20 C        6.3100     7.5300     1.0440 C.3   1 <1>  -0.2400 
 21 H        3.5790     2.6510    -0.1170 H     1 <1>   0.0800 
 22 H       -0.2750     2.2780    -0.1220 H     1 <1>   0.1500 
 23 H       -1.3790     4.7560    -0.1090 H     1 <1>   0.1500 
 24 H        2.5820     6.9240    -0.1150 H     1 <1>   0.3700 
 25 H        0.0360     9.8920     0.0530 H     1 <1>   0.1500 
 26 H        5.2610     9.5720    -0.5330 H     1 <1>   0.0800 
 27 H        4.4650     8.0750    -0.9390 H     1 <1>   0.0800 
 28 H        4.2210     7.5830     1.5170 H     1 <1>   0.0800 
 29 H        5.0660     9.0700     1.8670 H     1 <1>   0.0800 
 30 H        0.2460    12.4960     0.1480 H     1 <1>   0.0800 
 31 H        1.6280    13.0720    -0.7610 H     1 <1>   0.0800 
 32 H        1.7000    13.0010     0.9850 H     1 <1>   0.0800 
 33 H        6.2360     6.7090     0.3520 H     1 <1>   0.0800 
 34 H        6.5950     7.1410     2.0060 H     1 <1>   0.0800 
 35 H        7.0810     8.2010     0.7080 H     1 <1>   0.0800 
@<TRIPOS>BOND
  1   1   2  1   
  2   2   3  1   
  3   2   4  1   
  4   2  21  1   
  5   4   5  1   
  6   4   6  1   
  7   5   7  2   
  8   6   8  2   
  9   6  22  1   
 10   7   8  1   
 11   7   9  1   
 12   8  23  1   
 13   9  10  2   
 14   9  11  am  
 15  11  12  1   
 16  11  24  1   
 17  12  13  1   
 18  12  14  2   
 19  13  15  1   
 20  13  16  1   
 21  14  17  1   
 22  14  25  1   
 23  15  17  2   
 24  16  18  1   
 25  16  26  1   
 26  16  27  1   
 27  17  19  1   
 28  18  20  1   
 29  18  28  1   
 30  18  29  1   
 31  19  30  1   
 32  19  31  1   
 33  19  32  1   
 34  20  33  1   
 35  20  34  1   
 36  20  35  1   
@<TRIPOS>SUBSTRUCTURE
  1 ****  11 GROUP 4 **** **** 0

# MOE 2024.06 (io_trps.svl 2023.06)
