@<TRIPOS>MOLECULE
NONAME
40 42 1 0 0 
SMALL
USER_CHARGES


@<TRIPOS>ATOM
  1 O        0.9580    -1.1740     2.3940 O.2   1 <1>  -0.5700 
  2 C        0.5310    -2.0900     1.7420 C.2   1 <1>   0.5690 
  3 N        0.5160    -3.3760     2.2080 N.am  1 <1>  -0.3680 
  4 C       -0.0470    -1.8610     0.3640 C.3   1 <1>  -0.0990 
  5 N        0.1140    -4.5050     1.5260 N.2   1 <1>  -0.5120 
  6 C        0.1070    -3.1180    -0.5130 C.3   1 <1>  -0.0990 
  7 C       -0.1190    -4.4370     0.2540 C.2   1 <1>   0.3890 
  8 C       -0.5580    -5.5790    -0.5280 C.2   1 <1>   0.6300 
  9 O       -0.7440    -5.5090    -1.7340 O.2   1 <1>  -0.5700 
 10 N       -0.7800    -6.7930     0.0700 N.am  1 <1>  -0.7300 
 11 C       -1.1570    -8.0550    -0.6100 C.3   1 <1>   0.2200 
 12 C       -2.5690    -8.4410    -0.2040 C.3   1 <1>  -0.0800 
 13 C       -0.3380    -9.2100    -0.0390 C.3   1 <1>   0.1200 
 14 C       -2.3280    -9.1550     1.1300 C.3   1 <1>   0.1200 
 15 C       -3.2240    -9.3650    -1.2500 C.3   1 <1>  -0.0170 
 16 O       -1.0270    -9.6650     1.0890 O.3   1 <1>  -0.5600 
 17 C       -4.6410    -9.7490    -0.8490 C.ar  1 <1>  -0.1430 
 18 C       -5.6940    -8.8650    -0.9680 C.ar  1 <1>  -0.1500 
 19 C       -4.9480   -10.9980    -0.3480 C.ar  1 <1>  -0.1500 
 20 C       -6.9660    -9.2600    -0.5870 C.ar  1 <1>   0.1600 
 21 C       -6.2540   -11.2930     0.0040 C.ar  1 <1>   0.1600 
 22 N       -7.2710   -10.4520    -0.1010 N.ar  1 <1>  -0.6200 
 23 H        0.8220    -3.4700     3.1820 H     1 <1>   0.3700 
 24 H       -1.0900    -1.6300     0.4840 H     1 <1>   0.0800 
 25 H        0.4360    -1.0190    -0.0970 H     1 <1>   0.0800 
 26 H        1.1050    -3.1450    -0.9130 H     1 <1>   0.0800 
 27 H       -0.5740    -3.0410    -1.3420 H     1 <1>   0.0800 
 28 H       -0.6050    -6.8710     1.0770 H     1 <1>   0.3700 
 29 H       -1.0330    -7.9610    -1.6760 H     1 <1>   0.0800 
 30 H       -3.1900    -7.5730    -0.0710 H     1 <1>   0.0800 
 31 H        0.6570    -8.9140     0.2400 H     1 <1>   0.0800 
 32 H       -0.2920   -10.0240    -0.7400 H     1 <1>   0.0800 
 33 H       -3.0170    -9.9600     1.3140 H     1 <1>   0.0800 
 34 H       -2.3740    -8.4550     1.9460 H     1 <1>   0.0800 
 35 H       -2.6350   -10.2560    -1.3820 H     1 <1>   0.0800 
 36 H       -3.2620    -8.8590    -2.1990 H     1 <1>   0.0800 
 37 H       -5.5390    -7.8740    -1.3540 H     1 <1>   0.1500 
 38 H       -4.1850   -11.7450    -0.2270 H     1 <1>   0.1500 
 39 H       -7.7750    -8.5570    -0.6860 H     1 <1>   0.1500 
 40 H       -6.4750   -12.2720     0.3940 H     1 <1>   0.1500 
@<TRIPOS>BOND
  1   1   2  2   
  2   2   3  am  
  3   2   4  1   
  4   3   5  1   
  5   3  23  1   
  6   4   6  1   
  7   4  24  1   
  8   4  25  1   
  9   5   7  2   
 10   6   7  1   
 11   6  26  1   
 12   6  27  1   
 13   7   8  1   
 14   8   9  2   
 15   8  10  am  
 16  10  11  1   
 17  10  28  1   
 18  11  12  1   
 19  11  13  1   
 20  11  29  1   
 21  12  14  1   
 22  12  15  1   
 23  12  30  1   
 24  13  16  1   
 25  13  31  1   
 26  13  32  1   
 27  14  16  1   
 28  14  33  1   
 29  14  34  1   
 30  15  17  1   
 31  15  35  1   
 32  15  36  1   
 33  17  18  ar  
 34  17  19  ar  
 35  18  20  ar  
 36  18  37  1   
 37  19  21  ar  
 38  19  38  1   
 39  20  22  ar  
 40  20  39  1   
 41  21  22  ar  
 42  21  40  1   
@<TRIPOS>SUBSTRUCTURE
  1 ****  10 GROUP 4 **** **** 0

# MOE 2024.06 (io_trps.svl 2023.06)
