@<TRIPOS>MOLECULE
Untitled Document
41 44 1 0 0 
SMALL
USER_CHARGES


@<TRIPOS>ATOM
  1 O        0.5360    -0.3080     1.4540 O.2   1 <1>  -0.5700 
  2 C        1.4730    -0.8010     0.8420 C.2   1 <1>   0.6160 
  3 N        2.6370    -0.0640     0.6750 N.am  1 <1>  -0.4770 
  4 C        1.4000    -2.1410     0.3080 C.2   1 <1>   0.0600 
  5 C        3.8450    -0.7590     0.5330 C.ar  1 <1>   0.4270 
  6 C        2.4790     1.4430     0.6680 C.3   1 <1>   0.2200 
  7 C        0.1300    -2.8270     0.1560 C.2   1 <1>  -0.0460 
  8 C        2.5630    -2.7450    -0.0590 C.2   1 <1>  -0.1780 
  9 N        4.9850    -0.1640     0.8350 N.ar  1 <1>  -0.6200 
 10 C        3.8210    -2.0970     0.1110 C.ar  1 <1>   0.0280 
 11 C        1.4010     1.8950    -0.3350 C.3   1 <1>  -0.1600 
 12 C        3.6810     2.3020     0.2600 C.3   1 <1>  -0.1600 
 13 C       -1.1570    -2.2760     0.0970 C.2   1 <1>   0.1390 
 14 C       -0.1050    -4.1600     0.0200 C.2   1 <1>  -0.3020 
 15 C        6.0730    -0.8550     0.6230 C.ar  1 <1>   0.7200 
 16 C        5.0610    -2.7070    -0.0760 C.ar  1 <1>   0.1660 
 17 C        1.7570     3.3170    -0.7890 C.3   1 <1>  -0.1600 
 18 C        3.0880     3.6530    -0.1240 C.3   1 <1>  -0.1600 
 19 N       -2.0870    -3.1650    -0.0670 N.2   1 <1>  -0.7070 
 20 N       -1.4310    -4.3340    -0.1090 N.pl3 1 <1>   0.3000 
 21 N        6.1810    -2.0940     0.1740 N.ar  1 <1>  -0.6200 
 22 N        7.2230    -0.2490     0.9070 N.pl3 1 <1>  -0.9000 
 23 C        5.1780    -4.1380    -0.5720 C.3   1 <1>  -0.0970 
 24 H        2.1740     1.7520     1.6540 H     1 <1>   0.0800 
 25 H        2.5510    -3.7340    -0.4770 H     1 <1>   0.1500 
 26 H        0.4260     1.8840     0.1200 H     1 <1>   0.0800 
 27 H        1.4010     1.2460    -1.1940 H     1 <1>   0.0800 
 28 H        4.1600     1.8800    -0.6070 H     1 <1>   0.0800 
 29 H        4.3910     2.4070     1.0610 H     1 <1>   0.0800 
 30 H       -1.3680    -1.2210     0.1760 H     1 <1>   0.1500 
 31 H        0.5900    -4.9780     0.0120 H     1 <1>   0.1500 
 32 H        0.9980     4.0230    -0.5000 H     1 <1>   0.0800 
 33 H        1.8630     3.3390    -1.8610 H     1 <1>   0.0800 
 34 H        3.7400     4.2080    -0.7770 H     1 <1>   0.0800 
 35 H        2.9080     4.2300     0.7680 H     1 <1>   0.0800 
 36 H       -1.9240    -5.2290    -0.2240 H     1 <1>   0.2700 
 37 H        8.0470    -0.8380     0.9780 H     1 <1>   0.4000 
 38 H        7.1800     0.5790     1.4940 H     1 <1>   0.4000 
 39 H        4.7040    -4.2360    -1.5310 H     1 <1>   0.0800 
 40 H        4.7170    -4.8100     0.1280 H     1 <1>   0.0800 
 41 H        6.2120    -4.4160    -0.6770 H     1 <1>   0.0800 
@<TRIPOS>BOND
  1   1   2  2   
  2   2   3  am  
  3   2   4  1   
  4   3   5  1   
  5   3   6  1   
  6   4   7  1   
  7   4   8  2   
  8   5   9  ar  
  9   5  10  ar  
 10   6  11  1   
 11   6  12  1   
 12   6  24  1   
 13   7  13  1   
 14   7  14  2   
 15   8  10  1   
 16   8  25  1   
 17   9  15  ar  
 18  10  16  ar  
 19  11  17  1   
 20  11  26  1   
 21  11  27  1   
 22  12  18  1   
 23  12  28  1   
 24  12  29  1   
 25  13  19  2   
 26  13  30  1   
 27  14  20  1   
 28  14  31  1   
 29  15  21  ar  
 30  15  22  1   
 31  16  21  ar  
 32  16  23  1   
 33  17  18  1   
 34  17  32  1   
 35  17  33  1   
 36  18  34  1   
 37  18  35  1   
 38  19  20  1   
 39  20  36  1   
 40  22  37  1   
 41  22  38  1   
 42  23  39  1   
 43  23  40  1   
 44  23  41  1   
@<TRIPOS>SUBSTRUCTURE
  1 ****   3 GROUP 4 **** **** 0

# MOE 2024.06 (io_trps.svl 2023.06)
