@<TRIPOS>MOLECULE
NONAME
51 53 1 0 0 
SMALL
USER_CHARGES


@<TRIPOS>ATOM
  1 S        1.3210    -0.8380     0.7870 S.o2  1 <1>   1.4470 
  2 O        1.9300    -1.9720     0.1290 O.2   1 <1>  -0.6500 
  3 O        1.3580    -0.7670     2.2300 O.2   1 <1>  -0.6500 
  4 N       -0.3020    -0.8720     0.3670 N.am  1 <1>  -0.9140 
  5 C        1.9160     0.7070     0.0700 C.ar  1 <1>  -0.0090 
  6 C       -1.0170    -2.0140     0.9110 C.3   1 <1>   0.2760 
  7 C        1.2680     1.9030     0.3530 C.ar  1 <1>   0.0830 
  8 C        3.0320     0.7440    -0.7550 C.ar  1 <1>  -0.1500 
  9 C       -2.2900    -2.1980     0.1010 C.3   1 <1>  -0.0800 
 10 C       -1.5900    -1.7050     2.2990 C.3   1 <1>   0.1200 
 11 O        0.1700     1.8980     1.1440 O.3   1 <1>  -0.3630 
 12 C        1.7160     3.1020    -0.1800 C.ar  1 <1>  -0.1500 
 13 C        3.4960     1.9430    -1.2900 C.ar  1 <1>   0.0830 
 14 C       -3.2350    -1.1930     0.7670 C.3   1 <1>   0.1200 
 15 C       -2.8170    -3.6430     0.1850 C.3   1 <1>  -0.0160 
 16 O       -2.8050    -1.0470     2.0890 O.3   1 <1>  -0.5600 
 17 C        0.3100     2.4760     2.4230 C.3   1 <1>   0.0400 
 18 C        2.8310     3.1300    -0.9990 C.ar  1 <1>  -0.1430 
 19 O        4.5870     2.0150    -2.1010 O.3   1 <1>  -0.3630 
 20 C       -4.0850    -3.8220    -0.6360 C.ar  1 <1>  -0.1430 
 21 C        3.3160     4.4530    -1.5760 C.3   1 <1>  -0.0970 
 22 C        5.3020     0.8610    -2.4850 C.3   1 <1>   0.0400 
 23 C       -5.3300    -3.9240    -0.0490 C.ar  1 <1>  -0.1500 
 24 C       -4.0540    -3.8920    -2.0140 C.ar  1 <1>  -0.1500 
 25 C       -6.4520    -4.0820    -0.8450 C.ar  1 <1>   0.1600 
 26 C       -5.2360    -4.0510    -2.7190 C.ar  1 <1>   0.1600 
 27 N       -6.4350    -4.1460    -2.1670 N.ar  1 <1>  -0.6200 
 28 H       -0.6990    -0.0450     0.8210 H     1 <1>   0.4200 
 29 H       -0.3950    -2.8950     0.9020 H     1 <1>   0.0800 
 30 H        3.5290    -0.1840    -0.9690 H     1 <1>   0.1500 
 31 H       -2.1320    -1.9470    -0.9340 H     1 <1>   0.0800 
 32 H       -0.9530    -1.0870     2.9040 H     1 <1>   0.0800 
 33 H       -1.8040    -2.6160     2.8280 H     1 <1>   0.0800 
 34 H        1.1840     4.0080     0.0460 H     1 <1>   0.1500 
 35 H       -4.2640    -1.5060     0.7620 H     1 <1>   0.0800 
 36 H       -3.1540    -0.2300     0.2920 H     1 <1>   0.0800 
 37 H       -3.0120    -3.9130     1.2080 H     1 <1>   0.0800 
 38 H       -2.0680    -4.3190    -0.1910 H     1 <1>   0.0800 
 39 H       -0.6170     2.3500     2.9540 H     1 <1>   0.0800 
 40 H        0.5340     3.5230     2.3180 H     1 <1>   0.0800 
 41 H        1.1040     1.9720     2.9480 H     1 <1>   0.0800 
 42 H        2.6940     5.2700    -1.2580 H     1 <1>   0.0800 
 43 H        3.3010     4.4080    -2.6500 H     1 <1>   0.0800 
 44 H        4.3240     4.6420    -1.2540 H     1 <1>   0.0800 
 45 H        6.1040     1.1650    -3.1330 H     1 <1>   0.0800 
 46 H        4.6390     0.1980    -3.0130 H     1 <1>   0.0800 
 47 H        5.7030     0.3880    -1.6060 H     1 <1>   0.0800 
 48 H       -5.4400    -3.8810     1.0200 H     1 <1>   0.1500 
 49 H       -3.1230    -3.8240    -2.5470 H     1 <1>   0.1500 
 50 H       -7.4150    -4.1580    -0.3700 H     1 <1>   0.1500 
 51 H       -5.1930    -4.1030    -3.7930 H     1 <1>   0.1500 
@<TRIPOS>BOND
  1   1   2  2   
  2   1   3  2   
  3   1   4  am  
  4   1   5  1   
  5   4   6  1   
  6   4  28  1   
  7   5   7  ar  
  8   5   8  ar  
  9   6   9  1   
 10   6  10  1   
 11   6  29  1   
 12   7  11  1   
 13   7  12  ar  
 14   8  13  ar  
 15   8  30  1   
 16   9  14  1   
 17   9  15  1   
 18   9  31  1   
 19  10  16  1   
 20  10  32  1   
 21  10  33  1   
 22  11  17  1   
 23  12  18  ar  
 24  12  34  1   
 25  13  18  ar  
 26  13  19  1   
 27  14  16  1   
 28  14  35  1   
 29  14  36  1   
 30  15  20  1   
 31  15  37  1   
 32  15  38  1   
 33  17  39  1   
 34  17  40  1   
 35  17  41  1   
 36  18  21  1   
 37  19  22  1   
 38  20  23  ar  
 39  20  24  ar  
 40  21  42  1   
 41  21  43  1   
 42  21  44  1   
 43  22  45  1   
 44  22  46  1   
 45  22  47  1   
 46  23  25  ar  
 47  23  48  1   
 48  24  26  ar  
 49  24  49  1   
 50  25  27  ar  
 51  25  50  1   
 52  26  27  ar  
 53  26  51  1   
@<TRIPOS>SUBSTRUCTURE
  1 ****   4 GROUP 4 **** **** 0

# MOE 2024.06 (io_trps.svl 2023.06)
