@<TRIPOS>MOLECULE
NONAME
56 58 1 0 0 
SMALL
USER_CHARGES


@<TRIPOS>ATOM
  1 O       -1.5880     1.3180     1.6740 O.2   1 <1>  -0.5700 
  2 C       -1.1770     2.4180     1.4060 C.2   1 <1>   0.5690 
  3 N       -2.0240     3.4580     1.2600 N.am  1 <1>  -0.7300 
  4 C        0.3180     2.6510     1.1880 C.3   1 <1>   0.1810 
  5 C       -1.6050     4.8170     0.8350 C.3   1 <1>   0.3640 
  6 O        0.6790     4.0030     1.3600 O.3   1 <1>  -0.5600 
  7 C       -2.4030     5.1810    -0.4160 C.ar  1 <1>  -0.1440 
  8 C       -0.0750     4.9290     0.5800 C.3   1 <1>   0.2610 
  9 C       -2.5260     4.2920    -1.4770 C.ar  1 <1>  -0.1500 
 10 C       -3.0170     6.4230    -0.5080 C.ar  1 <1>  -0.1500 
 11 C        0.4000     6.3590     0.8710 C.2   1 <1>   0.5690 
 12 C       -3.2480     4.6380    -2.6060 C.ar  1 <1>  -0.1500 
 13 C       -3.7400     6.7690    -1.6360 C.ar  1 <1>  -0.1500 
 14 O       -0.1200     7.2980     0.3150 O.2   1 <1>  -0.5700 
 15 N        1.4190     6.5500     1.7540 N.am  1 <1>  -0.7300 
 16 C       -3.8560     5.8770    -2.6860 C.ar  1 <1>  -0.1500 
 17 C        1.9070     7.8560     2.2450 C.3   1 <1>   0.1400 
 18 C        3.1480     8.3150     1.4570 C.3   1 <1>  -0.0800 
 19 C        3.6760     9.6420     2.0290 C.3   1 <1>  -0.1600 
 20 C        2.8470     8.4840    -0.0460 C.3   1 <1>  -0.1600 
 21 C        4.8420    10.2000     1.2130 C.3   1 <1>   0.3430 
 22 C        4.0240     9.0740    -0.8160 C.3   1 <1>   0.3430 
 23 N        4.4210    10.3750    -0.2090 N.4   1 <1>  -0.9590 
 24 C        5.4690    11.0330    -1.0360 C.3   1 <1>   0.3430 
 25 C        5.5940    12.5130    -0.6680 C.3   1 <1>  -0.1600 
 26 C        6.5870    13.2250    -1.5940 C.3   1 <1>  -0.2400 
 27 H       -3.0270     3.2880     1.3400 H     1 <1>   0.3700 
 28 H        0.5910     2.3460     0.1950 H     1 <1>   0.0800 
 29 H        0.8760     2.0680     1.8980 H     1 <1>   0.0800 
 30 H       -1.8680     5.5000     1.6260 H     1 <1>   0.0800 
 31 H        0.1280     4.7180    -0.4540 H     1 <1>   0.0800 
 32 H       -2.0650     3.3200    -1.4330 H     1 <1>   0.1500 
 33 H       -2.9310     7.1350     0.2940 H     1 <1>   0.1500 
 34 H       -3.3380     3.9420    -3.4220 H     1 <1>   0.1500 
 35 H       -4.2100     7.7350    -1.6970 H     1 <1>   0.1500 
 36 H        1.8030     5.7040     2.1930 H     1 <1>   0.3700 
 37 H       -4.4180     6.1470    -3.5640 H     1 <1>   0.1500 
 38 H        1.1210     8.5870     2.1460 H     1 <1>   0.0800 
 39 H        2.1440     7.7660     3.2920 H     1 <1>   0.0800 
 40 H        3.9150     7.5670     1.5770 H     1 <1>   0.0800 
 41 H        4.0070     9.4880     3.0420 H     1 <1>   0.0800 
 42 H        2.8860    10.3740     2.0580 H     1 <1>   0.0800 
 43 H        1.9810     9.1090    -0.1830 H     1 <1>   0.0800 
 44 H        2.6150     7.5260    -0.4770 H     1 <1>   0.0800 
 45 H        5.6790     9.5230     1.2660 H     1 <1>   0.0800 
 46 H        5.1450    11.1460     1.6310 H     1 <1>   0.0800 
 47 H        3.7390     9.2170    -1.8460 H     1 <1>   0.0800 
 48 H        4.8550     8.3870    -0.7860 H     1 <1>   0.0800 
 49 H        3.5860    10.9760    -0.2160 H     1 <1>   0.4500 
 50 H        6.4180    10.5380    -0.8980 H     1 <1>   0.0800 
 51 H        5.2020    10.9610    -2.0780 H     1 <1>   0.0800 
 52 H        4.6350    12.9940    -0.7620 H     1 <1>   0.0800 
 53 H        5.9390    12.6230     0.3440 H     1 <1>   0.0800 
 54 H        6.2650    13.1680    -2.6200 H     1 <1>   0.0800 
 55 H        7.5680    12.7880    -1.5140 H     1 <1>   0.0800 
 56 H        6.6610    14.2650    -1.3240 H     1 <1>   0.0800 
@<TRIPOS>BOND
  1   1   2  2   
  2   2   3  am  
  3   2   4  1   
  4   3   5  1   
  5   3  27  1   
  6   4   6  1   
  7   4  28  1   
  8   4  29  1   
  9   5   7  1   
 10   5   8  1   
 11   5  30  1   
 12   6   8  1   
 13   7   9  ar  
 14   7  10  ar  
 15   8  11  1   
 16   8  31  1   
 17   9  12  ar  
 18   9  32  1   
 19  10  13  ar  
 20  10  33  1   
 21  11  14  2   
 22  11  15  am  
 23  12  16  ar  
 24  12  34  1   
 25  13  16  ar  
 26  13  35  1   
 27  15  17  1   
 28  15  36  1   
 29  16  37  1   
 30  17  18  1   
 31  17  38  1   
 32  17  39  1   
 33  18  19  1   
 34  18  20  1   
 35  18  40  1   
 36  19  21  1   
 37  19  41  1   
 38  19  42  1   
 39  20  22  1   
 40  20  43  1   
 41  20  44  1   
 42  21  23  1   
 43  21  45  1   
 44  21  46  1   
 45  22  23  1   
 46  22  47  1   
 47  22  48  1   
 48  23  24  1   
 49  23  49  1   
 50  24  25  1   
 51  24  50  1   
 52  24  51  1   
 53  25  26  1   
 54  25  52  1   
 55  25  53  1   
 56  26  54  1   
 57  26  55  1   
 58  26  56  1   
@<TRIPOS>SUBSTRUCTURE
  1 ****  11 GROUP 4 **** **** 0

# MOE 2024.06 (io_trps.svl 2023.06)
