@<TRIPOS>MOLECULE
NONAME
45 46 1 0 0 
SMALL
USER_CHARGES


@<TRIPOS>ATOM
  1 S        0.1080    -0.0310    -1.4430 S.o2  1 <1>   1.4470 
  2 O       -0.8140     0.9500    -1.9800 O.2   1 <1>  -0.6500 
  3 O        0.8610    -0.8710    -2.3490 O.2   1 <1>  -0.6500 
  4 N       -0.7520    -1.0300    -0.3790 N.am  1 <1>  -0.8490 
  5 C        1.2800     0.7850    -0.3230 C.ar  1 <1>  -0.0090 
  6 C       -1.4410    -2.1360    -1.0740 C.3   1 <1>   0.1960 
  7 C       -1.7190    -0.2840     0.4330 C.3   1 <1>   0.1960 
  8 C        1.4320     2.1670    -0.3150 C.ar  1 <1>  -0.1500 
  9 C        2.0570     0.0390     0.5540 C.ar  1 <1>  -0.1500 
 10 C       -1.9560    -3.1730    -0.0560 C.3   1 <1>  -0.1060 
 11 C       -2.3080    -1.1870     1.5220 C.3   1 <1>  -0.1600 
 12 C        2.3240     2.7920     0.5420 C.ar  1 <1>  -0.1440 
 13 C        2.9530     0.6500     1.4140 C.ar  1 <1>  -0.1500 
 14 C       -2.7710    -4.2320    -0.8080 C.2   1 <1>   0.9060 
 15 C       -2.9230    -2.4530     0.9150 C.3   1 <1>   0.2000 
 16 C       -0.7660    -3.8050     0.7470 C.3   1 <1>  -0.1600 
 17 C        3.0860     2.0260     1.4070 C.ar  1 <1>  -0.1500 
 18 C        2.4670     4.3040     0.5260 C.3   1 <1>  -0.0960 
 19 O       -2.6400    -5.4340    -0.5590 O.co2 1 <1>  -0.9000 
 20 O       -3.6250    -3.8390    -1.6170 O.co2 1 <1>  -0.9000 
 21 O       -4.0650    -2.0410     0.2420 O.3   1 <1>  -0.6800 
 22 C        0.3430    -4.4440    -0.1100 C.3   1 <1>  -0.1600 
 23 C        1.3950    -5.1200     0.7720 C.3   1 <1>  -0.2400 
 24 H       -2.2610    -1.7410    -1.6540 H     1 <1>   0.0800 
 25 H       -0.7770    -2.6230    -1.7670 H     1 <1>   0.0800 
 26 H       -1.2360     0.5570     0.8990 H     1 <1>   0.0800 
 27 H       -2.5130     0.0890    -0.1960 H     1 <1>   0.0800 
 28 H        0.8400     2.7590    -0.9920 H     1 <1>   0.1500 
 29 H        1.9530    -1.0340     0.5600 H     1 <1>   0.1500 
 30 H       -3.0630    -0.6520     2.0680 H     1 <1>   0.0800 
 31 H       -1.5360    -1.4450     2.2200 H     1 <1>   0.0800 
 32 H        3.5460     0.0530     2.0850 H     1 <1>   0.1500 
 33 H       -3.2400    -3.1350     1.6860 H     1 <1>   0.0800 
 34 H       -0.3010    -3.0610     1.3650 H     1 <1>   0.0800 
 35 H       -1.1690    -4.5590     1.4020 H     1 <1>   0.0800 
 36 H        3.7860     2.4960     2.0760 H     1 <1>   0.1500 
 37 H        2.7760     4.6640     1.4910 H     1 <1>   0.0800 
 38 H        1.5300     4.7670     0.2770 H     1 <1>   0.0800 
 39 H        3.2020     4.5920    -0.2040 H     1 <1>   0.0800 
 40 H       -4.1940    -2.6680    -0.5330 H     1 <1>   0.4000 
 41 H       -0.0840    -5.1780    -0.7720 H     1 <1>   0.0800 
 42 H        0.8270    -3.6930    -0.7100 H     1 <1>   0.0800 
 43 H        0.9400    -5.9000     1.3580 H     1 <1>   0.0800 
 44 H        1.8490    -4.4040     1.4330 H     1 <1>   0.0800 
 45 H        2.1610    -5.5570     0.1570 H     1 <1>   0.0800 
@<TRIPOS>BOND
  1   1   2  2   
  2   1   3  2   
  3   1   4  am  
  4   1   5  1   
  5   4   6  1   
  6   4   7  1   
  7   5   8  ar  
  8   5   9  ar  
  9   6  10  1   
 10   6  24  1   
 11   6  25  1   
 12   7  11  1   
 13   7  26  1   
 14   7  27  1   
 15   8  12  ar  
 16   8  28  1   
 17   9  13  ar  
 18   9  29  1   
 19  10  14  1   
 20  10  15  1   
 21  10  16  1   
 22  11  15  1   
 23  11  30  1   
 24  11  31  1   
 25  12  17  ar  
 26  12  18  1   
 27  13  17  ar  
 28  13  32  1   
 29  14  19  ar  
 30  14  20  ar  
 31  15  21  1   
 32  15  33  1   
 33  16  22  1   
 34  16  34  1   
 35  16  35  1   
 36  17  36  1   
 37  18  37  1   
 38  18  38  1   
 39  18  39  1   
 40  21  40  1   
 41  22  23  1   
 42  22  41  1   
 43  22  42  1   
 44  23  43  1   
 45  23  44  1   
 46  23  45  1   
@<TRIPOS>SUBSTRUCTURE
  1 ****   4 GROUP 4 **** **** 0

# MOE 2024.06 (io_trps.svl 2023.06)
