@<TRIPOS>MOLECULE
NONAME
49 51 1 0 0 
SMALL
USER_CHARGES


@<TRIPOS>ATOM
  1 F       -0.1450    -0.3730    -0.2750 F     1 <1>  -0.1900 
  2 C       -0.2030    -1.6700    -0.4370 C.ar  1 <1>   0.1900 
  3 C        0.5420    -2.5480     0.3580 C.ar  1 <1>   0.0830 
  4 C       -1.0440    -2.1270    -1.4350 C.ar  1 <1>  -0.1500 
  5 O        1.4010    -2.2240     1.3650 O.3   1 <1>  -0.3630 
  6 C        0.4080    -3.9070     0.1160 C.ar  1 <1>  -0.1500 
  7 C       -1.1610    -3.4890    -1.6550 C.ar  1 <1>  -0.1500 
  8 C        1.7460    -0.8920     1.6810 C.3   1 <1>   0.0400 
  9 C       -0.4390    -4.3840    -0.8760 C.ar  1 <1>  -0.1430 
 10 C       -0.5760    -5.8790    -1.0950 C.3   1 <1>   0.4870 
 11 N       -1.4410    -6.4260    -0.0210 N.4   1 <1>  -0.9590 
 12 C       -2.8330    -5.9150    -0.0980 C.3   1 <1>   0.3430 
 13 C       -1.5360    -7.9090    -0.0190 C.3   1 <1>   0.3430 
 14 C       -3.6540    -6.9060     0.7170 C.3   1 <1>  -0.0800 
 15 C       -2.9340    -8.2550     0.5040 C.3   1 <1>  -0.0800 
 16 C       -5.1660    -6.8900     0.3740 C.3   1 <1>   0.2800 
 17 C       -3.6660    -9.1760    -0.4860 C.3   1 <1>  -0.1600 
 18 O       -5.3110    -6.6560    -0.9790 O.3   1 <1>  -0.6800 
 19 C       -5.7820    -8.2670     0.6780 C.3   1 <1>  -0.1600 
 20 C       -5.9530    -5.7880     1.1190 C.3   1 <1>  -0.1600 
 21 C       -5.1200    -9.4450    -0.0650 C.3   1 <1>  -0.1600 
 22 C       -5.5080    -4.3370     0.8660 C.3   1 <1>  -0.2400 
 23 H       -1.5970    -1.4210    -2.0290 H     1 <1>   0.1500 
 24 H        0.9880    -4.5800     0.7230 H     1 <1>   0.1500 
 25 H       -1.8180    -3.8350    -2.4360 H     1 <1>   0.1500 
 26 H        2.4790    -0.9130     2.4670 H     1 <1>   0.0800 
 27 H        0.8670    -0.3720     2.0180 H     1 <1>   0.0800 
 28 H        2.1620    -0.4200     0.8080 H     1 <1>   0.0800 
 29 H        0.4000    -6.3370    -1.0570 H     1 <1>   0.0800 
 30 H       -1.0110    -6.0750    -2.0620 H     1 <1>   0.0800 
 31 H       -1.0570    -6.1120     0.8790 H     1 <1>   0.4500 
 32 H       -2.9100    -4.9120     0.2860 H     1 <1>   0.0800 
 33 H       -3.1660    -5.9280    -1.1230 H     1 <1>   0.0800 
 34 H       -1.4310    -8.2860    -1.0240 H     1 <1>   0.0800 
 35 H       -0.7700    -8.3460     0.6010 H     1 <1>   0.0800 
 36 H       -3.5470    -6.6480     1.7550 H     1 <1>   0.0800 
 37 H       -2.8470    -8.7710     1.4460 H     1 <1>   0.0800 
 38 H       -3.6770    -8.7120    -1.4580 H     1 <1>   0.0800 
 39 H       -3.1470   -10.1150    -0.5840 H     1 <1>   0.0800 
 40 H       -6.2550    -6.7360    -1.2190 H     1 <1>   0.4000 
 41 H       -5.6800    -8.4440     1.7350 H     1 <1>   0.0800 
 42 H       -6.8380    -8.2610     0.4710 H     1 <1>   0.0800 
 43 H       -6.9930    -5.8710     0.8530 H     1 <1>   0.0800 
 44 H       -5.8960    -5.9760     2.1770 H     1 <1>   0.0800 
 45 H       -5.1580   -10.3160     0.5680 H     1 <1>   0.0800 
 46 H       -5.6910    -9.6740    -0.9500 H     1 <1>   0.0800 
 47 H       -5.4740    -4.1200    -0.1880 H     1 <1>   0.0800 
 48 H       -4.5460    -4.1420     1.3030 H     1 <1>   0.0800 
 49 H       -6.2130    -3.6620     1.3210 H     1 <1>   0.0800 
@<TRIPOS>BOND
  1   1   2  1   
  2   2   3  ar  
  3   2   4  ar  
  4   3   5  1   
  5   3   6  ar  
  6   4   7  ar  
  7   4  23  1   
  8   5   8  1   
  9   6   9  ar  
 10   6  24  1   
 11   7   9  ar  
 12   7  25  1   
 13   8  26  1   
 14   8  27  1   
 15   8  28  1   
 16   9  10  1   
 17  10  11  1   
 18  10  29  1   
 19  10  30  1   
 20  11  12  1   
 21  11  13  1   
 22  11  31  1   
 23  12  14  1   
 24  12  32  1   
 25  12  33  1   
 26  13  15  1   
 27  13  34  1   
 28  13  35  1   
 29  14  15  1   
 30  14  16  1   
 31  14  36  1   
 32  15  17  1   
 33  15  37  1   
 34  16  18  1   
 35  16  19  1   
 36  16  20  1   
 37  17  21  1   
 38  17  38  1   
 39  17  39  1   
 40  18  40  1   
 41  19  21  1   
 42  19  41  1   
 43  19  42  1   
 44  20  22  1   
 45  20  43  1   
 46  20  44  1   
 47  21  45  1   
 48  21  46  1   
 49  22  47  1   
 50  22  48  1   
 51  22  49  1   
@<TRIPOS>SUBSTRUCTURE
  1 ****  12 GROUP 4 **** **** 0

# MOE 2024.06 (io_trps.svl 2023.06)
