@<TRIPOS>MOLECULE
NONAME
48 49 1 0 0 
SMALL
USER_CHARGES


@<TRIPOS>ATOM
  1 O       -0.9530    -0.0760     0.5170 O.2   1 <1>  -0.5700 
  2 C       -1.9390     0.6340     0.5770 C.2   1 <1>   0.5440 
  3 N       -3.1640     0.0540     0.8380 N.am  1 <1>  -0.6600 
  4 C       -1.7840     2.0600     0.3580 C.ar  1 <1>   0.0860 
  5 C       -3.2890    -1.4340     1.0090 C.3   1 <1>   0.3210 
  6 C       -4.4680     0.7970     0.7340 C.3   1 <1>   0.1400 
  7 C       -2.1100     3.0010     1.3310 C.ar  1 <1>  -0.1500 
  8 C       -1.2930     2.5430    -0.8500 C.ar  1 <1>  -0.1500 
  9 C       -4.1350    -2.0630    -0.0940 C.2   1 <1>   0.0460 
 10 C       -5.2680     0.7340     2.0420 C.3   1 <1>   0.1200 
 11 C       -1.9710     4.3560     1.0970 C.ar  1 <1>  -0.1500 
 12 C       -1.1520     3.8990    -1.0860 C.ar  1 <1>  -0.1500 
 13 N       -5.4630    -2.2510     0.0680 N.2   1 <1>  -0.5650 
 14 C       -3.7310    -2.5010    -1.3100 C.2   1 <1>  -0.3320 
 15 O       -4.4380     1.0520     3.1070 O.3   1 <1>  -0.6800 
 16 C       -1.4920     4.8370    -0.1160 C.ar  1 <1>  -0.1430 
 17 C       -5.8340    -2.7990    -1.0430 C.2   1 <1>   0.0360 
 18 N       -4.8280    -2.9790    -1.9230 N.pl3 1 <1>   0.0330 
 19 C       -2.3530    -2.4950    -1.9510 C.3   1 <1>  -0.0600 
 20 C       -1.3560     6.3610    -0.3310 C.3   1 <1>   0.1430 
 21 C       -0.8160     6.7310    -1.7230 C.3   1 <1>  -0.2400 
 22 C       -0.3890     6.9430     0.7110 C.3   1 <1>  -0.2400 
 23 C       -2.7330     7.0250    -0.1770 C.3   1 <1>  -0.2400 
 24 H       -3.7400    -1.6500     1.9600 H     1 <1>   0.0800 
 25 H       -2.3220    -1.9020     1.0050 H     1 <1>   0.0800 
 26 H       -5.0600     0.3800    -0.0620 H     1 <1>   0.0800 
 27 H       -4.3050     1.8290     0.4830 H     1 <1>   0.0800 
 28 H       -2.4800     2.6650     2.2840 H     1 <1>   0.1500 
 29 H       -1.0170     1.8360    -1.6130 H     1 <1>   0.1500 
 30 H       -5.6570    -0.2590     2.1970 H     1 <1>   0.0800 
 31 H       -6.0880     1.4300     2.0280 H     1 <1>   0.0800 
 32 H       -2.2430     5.0390     1.8820 H     1 <1>   0.1500 
 33 H       -0.7680     4.1970    -2.0440 H     1 <1>   0.1500 
 34 H       -3.5920     0.5730     2.9830 H     1 <1>   0.4000 
 35 H       -6.8460    -3.0920    -1.2650 H     1 <1>   0.1500 
 36 H       -4.8910    -3.3910    -2.8580 H     1 <1>   0.2700 
 37 H       -1.6320    -2.0410    -1.2940 H     1 <1>   0.0800 
 38 H       -2.3730    -1.9330    -2.8670 H     1 <1>   0.0800 
 39 H       -2.0350    -3.5000    -2.1620 H     1 <1>   0.0800 
 40 H        0.1630     6.3120    -1.8720 H     1 <1>   0.0800 
 41 H       -0.7410     7.7980    -1.8280 H     1 <1>   0.0800 
 42 H       -1.4740     6.3670    -2.4920 H     1 <1>   0.0800 
 43 H        0.5690     6.4590     0.6330 H     1 <1>   0.0800 
 44 H       -0.7590     6.7980     1.7090 H     1 <1>   0.0800 
 45 H       -0.2530     7.9980     0.5560 H     1 <1>   0.0800 
 46 H       -3.4270     6.5990    -0.8790 H     1 <1>   0.0800 
 47 H       -2.6670     8.0830    -0.3590 H     1 <1>   0.0800 
 48 H       -3.1240     6.8830     0.8140 H     1 <1>   0.0800 
@<TRIPOS>BOND
  1   1   2  2   
  2   2   3  am  
  3   2   4  1   
  4   3   5  1   
  5   3   6  1   
  6   4   7  ar  
  7   4   8  ar  
  8   5   9  1   
  9   5  24  1   
 10   5  25  1   
 11   6  10  1   
 12   6  26  1   
 13   6  27  1   
 14   7  11  ar  
 15   7  28  1   
 16   8  12  ar  
 17   8  29  1   
 18   9  13  1   
 19   9  14  2   
 20  10  15  1   
 21  10  30  1   
 22  10  31  1   
 23  11  16  ar  
 24  11  32  1   
 25  12  16  ar  
 26  12  33  1   
 27  13  17  2   
 28  14  18  1   
 29  14  19  1   
 30  15  34  1   
 31  16  20  1   
 32  17  18  1   
 33  17  35  1   
 34  18  36  1   
 35  19  37  1   
 36  19  38  1   
 37  19  39  1   
 38  20  21  1   
 39  20  22  1   
 40  20  23  1   
 41  21  40  1   
 42  21  41  1   
 43  21  42  1   
 44  22  43  1   
 45  22  44  1   
 46  22  45  1   
 47  23  46  1   
 48  23  47  1   
 49  23  48  1   
@<TRIPOS>SUBSTRUCTURE
  1 ****   4 GROUP 4 **** **** 0

# MOE 2024.06 (io_trps.svl 2023.06)
