@<TRIPOS>MOLECULE
NONAME
43 45 1 0 0 
SMALL
USER_CHARGES


@<TRIPOS>ATOM
  1 O        1.4920     2.1470     1.1110 O.co2 1 <1>  -0.9000 
  2 C        1.0130     2.5120     0.0320 C.2   1 <1>   0.9060 
  3 O        1.7330     2.6360    -0.9650 O.co2 1 <1>  -0.9000 
  4 C       -0.4040     3.1050     0.0240 C.3   1 <1>   0.0380 
  5 C       -1.5560     2.0920     0.1620 C.ar  1 <1>  -0.1440 
  6 C       -0.3620     4.0830     1.1880 C.3   1 <1>   0.3430 
  7 C       -0.6120     4.0680    -1.1540 C.3   1 <1>  -0.1600 
  8 C       -1.3170     0.7240     0.1070 C.ar  1 <1>  -0.1500 
  9 C       -2.8650     2.5270     0.3450 C.ar  1 <1>  -0.1500 
 10 N        0.3630     5.2940     0.6800 N.4   1 <1>  -0.9590 
 11 C        0.3000     5.2410    -0.8170 C.3   1 <1>   0.3430 
 12 C       -2.3540    -0.1830     0.2320 C.ar  1 <1>  -0.1500 
 13 C       -3.9040     1.6210     0.4700 C.ar  1 <1>  -0.1500 
 14 C        1.7870     5.2490     1.1340 C.3   1 <1>   0.5240 
 15 C       -3.6500     0.2630     0.4140 C.ar  1 <1>  -0.1500 
 16 C        2.4980     6.4710     0.5950 C.2   1 <1>  -0.1810 
 17 C        3.4380     6.4650    -0.4300 C.2   1 <1>   0.1080 
 18 C        2.3850     7.7700     0.9520 C.2   1 <1>  -0.3020 
 19 N        3.8620     7.6580    -0.6990 N.2   1 <1>  -0.7070 
 20 C        3.9430     5.2460    -1.1810 C.3   1 <1>  -0.0590 
 21 N        3.2220     8.4660     0.1580 N.pl3 1 <1>   0.3140 
 22 C        3.4680     9.9120     0.1690 C.3   1 <1>   0.0160 
 23 H        0.1250     3.6470     2.0460 H     1 <1>   0.0800 
 24 H       -1.3680     4.3510     1.4590 H     1 <1>   0.0800 
 25 H       -1.6270     4.4110    -1.2180 H     1 <1>   0.0800 
 26 H       -0.3410     3.6180    -2.0940 H     1 <1>   0.0800 
 27 H       -0.3190     0.3400    -0.0320 H     1 <1>   0.1500 
 28 H       -3.1000     3.5740     0.3890 H     1 <1>   0.1500 
 29 H       -0.0470     6.1640     1.0250 H     1 <1>   0.4500 
 30 H       -0.0640     6.1640    -1.2360 H     1 <1>   0.0800 
 31 H        1.2800     5.0350    -1.2190 H     1 <1>   0.0800 
 32 H       -2.1470    -1.2380     0.1880 H     1 <1>   0.1500 
 33 H       -4.9120     1.9700     0.6110 H     1 <1>   0.1500 
 34 H        2.2780     4.3590     0.7750 H     1 <1>   0.0800 
 35 H        1.8350     5.2440     2.2090 H     1 <1>   0.0800 
 36 H       -4.4550    -0.4440     0.5120 H     1 <1>   0.1500 
 37 H        1.7790     8.2360     1.7070 H     1 <1>   0.1500 
 38 H        3.9210     4.3680    -0.5620 H     1 <1>   0.0800 
 39 H        4.9560     5.4130    -1.4970 H     1 <1>   0.0800 
 40 H        3.3380     5.0710    -2.0500 H     1 <1>   0.0800 
 41 H        2.8560    10.3810     0.9160 H     1 <1>   0.0800 
 42 H        3.2350    10.3110    -0.8000 H     1 <1>   0.0800 
 43 H        4.5060    10.0850     0.3860 H     1 <1>   0.0800 
@<TRIPOS>BOND
  1   1   2  ar  
  2   2   3  ar  
  3   2   4  1   
  4   4   5  1   
  5   4   6  1   
  6   4   7  1   
  7   5   8  ar  
  8   5   9  ar  
  9   6  10  1   
 10   6  23  1   
 11   6  24  1   
 12   7  11  1   
 13   7  25  1   
 14   7  26  1   
 15   8  12  ar  
 16   8  27  1   
 17   9  13  ar  
 18   9  28  1   
 19  10  11  1   
 20  10  14  1   
 21  10  29  1   
 22  11  30  1   
 23  11  31  1   
 24  12  15  ar  
 25  12  32  1   
 26  13  15  ar  
 27  13  33  1   
 28  14  16  1   
 29  14  34  1   
 30  14  35  1   
 31  15  36  1   
 32  16  17  1   
 33  16  18  2   
 34  17  19  2   
 35  17  20  1   
 36  18  21  1   
 37  18  37  1   
 38  19  21  1   
 39  20  38  1   
 40  20  39  1   
 41  20  40  1   
 42  21  22  1   
 43  22  41  1   
 44  22  42  1   
 45  22  43  1   
@<TRIPOS>SUBSTRUCTURE
  1 ****  10 GROUP 4 **** **** 0

# MOE 2024.06 (io_trps.svl 2023.06)
