@<TRIPOS>MOLECULE
NONAME
52 53 1 0 0 
SMALL
USER_CHARGES


@<TRIPOS>ATOM
  1 O       -1.2930     1.1500    -1.6250 O.2   1 <1>  -0.5700 
  2 C       -1.3440     1.3860    -0.4400 C.2   1 <1>   0.5690 
  3 N       -1.6910     0.4270     0.4810 N.am  1 <1>  -0.6600 
  4 C       -0.9890     2.7970     0.0130 C.3   1 <1>  -0.0990 
  5 C       -2.1680    -0.9140     0.0160 C.3   1 <1>   0.2200 
  6 C       -1.6010     0.6430     1.9580 C.3   1 <1>   0.0600 
  7 C       -1.1520     3.8580    -1.0920 C.3   1 <1>  -0.0990 
  8 C       -3.4840    -1.3200     0.6980 C.3   1 <1>  -0.1600 
  9 C       -1.0780    -1.9750     0.2190 C.3   1 <1>  -0.1600 
 10 C       -0.7480     5.2320    -0.6000 C.2   1 <1>   0.5690 
 11 C       -3.9570    -2.6930     0.1970 C.3   1 <1>  -0.1600 
 12 C       -1.5520    -3.3510    -0.2730 C.3   1 <1>  -0.1600 
 13 O       -1.4150     5.7520     0.2620 O.2   1 <1>  -0.5700 
 14 N        0.3590     5.8100    -1.1440 N.am  1 <1>  -0.4930 
 15 C       -2.8710    -3.7590     0.3990 C.3   1 <1>  -0.1600 
 16 C        0.9380     7.0680    -0.8430 C.2   1 <1>   0.0630 
 17 C        0.5120     8.0490     0.0540 C.2   1 <1>   0.1390 
 18 C        2.0610     7.5760    -1.3910 C.2   1 <1>  -0.3020 
 19 N        1.3040     9.0820     0.0700 N.2   1 <1>  -0.7070 
 20 N        2.2650     8.7900    -0.8300 N.pl3 1 <1>   0.3140 
 21 C        3.3710     9.7170    -1.1060 C.3   1 <1>   0.1570 
 22 C        4.4200     9.6120    -0.0220 C.2   1 <1>   0.5690 
 23 O        5.5810     9.5620    -0.3530 O.2   1 <1>  -0.5700 
 24 N        4.0370     9.5890     1.2830 N.am  1 <1>  -0.7300 
 25 C        4.9360     9.4890     2.4580 C.3   1 <1>   0.0600 
 26 H        0.0280     2.7910     0.3580 H     1 <1>   0.0800 
 27 H       -1.6250     3.0740     0.8340 H     1 <1>   0.0800 
 28 H       -2.3700    -0.8640    -1.0420 H     1 <1>   0.0800 
 29 H       -0.8090     1.3310     2.1960 H     1 <1>   0.0800 
 30 H       -1.3940    -0.2820     2.4650 H     1 <1>   0.0800 
 31 H       -2.5340     1.0370     2.3220 H     1 <1>   0.0800 
 32 H       -2.1810     3.8950    -1.4010 H     1 <1>   0.0800 
 33 H       -0.5600     3.5900    -1.9480 H     1 <1>   0.0800 
 34 H       -4.2370    -0.5830     0.4810 H     1 <1>   0.0800 
 35 H       -3.3540    -1.3770     1.7630 H     1 <1>   0.0800 
 36 H       -0.8200    -2.0500     1.2590 H     1 <1>   0.0800 
 37 H       -0.2000    -1.6860    -0.3320 H     1 <1>   0.0800 
 38 H       -4.2000    -2.6260    -0.8500 H     1 <1>   0.0800 
 39 H       -4.8500    -2.9820     0.7240 H     1 <1>   0.0800 
 40 H       -0.7970    -4.0890    -0.0650 H     1 <1>   0.0800 
 41 H       -1.6930    -3.3180    -1.3400 H     1 <1>   0.0800 
 42 H        0.8460     5.2760    -1.8610 H     1 <1>   0.3700 
 43 H       -3.2080    -4.6960    -0.0100 H     1 <1>   0.0800 
 44 H       -2.7040    -3.9020     1.4530 H     1 <1>   0.0800 
 45 H       -0.3700     7.9640     0.6660 H     1 <1>   0.1500 
 46 H        2.7170     7.1540    -2.1280 H     1 <1>   0.1500 
 47 H        2.9870    10.7170    -1.1340 H     1 <1>   0.0800 
 48 H        3.8060     9.4770    -2.0570 H     1 <1>   0.0800 
 49 H        3.0230     9.5470     1.4740 H     1 <1>   0.3700 
 50 H        5.9660     9.5100     2.1420 H     1 <1>   0.0800 
 51 H        4.7500     8.5670     2.9800 H     1 <1>   0.0800 
 52 H        4.7590    10.3160     3.1230 H     1 <1>   0.0800 
@<TRIPOS>BOND
  1   1   2  2   
  2   2   3  am  
  3   2   4  1   
  4   3   5  1   
  5   3   6  1   
  6   4   7  1   
  7   4  26  1   
  8   4  27  1   
  9   5   8  1   
 10   5   9  1   
 11   5  28  1   
 12   6  29  1   
 13   6  30  1   
 14   6  31  1   
 15   7  10  1   
 16   7  32  1   
 17   7  33  1   
 18   8  11  1   
 19   8  34  1   
 20   8  35  1   
 21   9  12  1   
 22   9  36  1   
 23   9  37  1   
 24  10  13  2   
 25  10  14  am  
 26  11  15  1   
 27  11  38  1   
 28  11  39  1   
 29  12  15  1   
 30  12  40  1   
 31  12  41  1   
 32  14  16  1   
 33  14  42  1   
 34  15  43  1   
 35  15  44  1   
 36  16  17  1   
 37  16  18  2   
 38  17  19  2   
 39  17  45  1   
 40  18  20  1   
 41  18  46  1   
 42  19  20  1   
 43  20  21  1   
 44  21  22  1   
 45  21  47  1   
 46  21  48  1   
 47  22  23  2   
 48  22  24  am  
 49  24  25  1   
 50  24  49  1   
 51  25  50  1   
 52  25  51  1   
 53  25  52  1   
@<TRIPOS>SUBSTRUCTURE
  1 ****  10 GROUP 4 **** **** 0

# MOE 2024.06 (io_trps.svl 2023.06)
