@<TRIPOS>MOLECULE
NONAME
33 33 1 0 0 
SMALL
USER_CHARGES


@<TRIPOS>ATOM
  1 N        0.9180     0.1560    -0.7010 N.4   1 <1>  -0.8530 
  2 C        1.2820    -0.7600     0.3740 C.3   1 <1>   0.5660 
  3 C        1.1390    -2.1600    -0.1890 C.ar  1 <1>  -0.1430 
  4 C        2.6930    -0.4340     0.8490 C.3   1 <1>  -0.2400 
  5 C        0.0820    -2.9480     0.2480 C.ar  1 <1>  -0.1500 
  6 C        2.0170    -2.6680    -1.1370 C.ar  1 <1>  -0.1500 
  7 C       -0.1260    -4.2330    -0.2450 C.ar  1 <1>  -0.1430 
  8 C        1.8280    -3.9410    -1.6380 C.ar  1 <1>  -0.1500 
  9 C        0.7680    -4.7090    -1.1970 C.ar  1 <1>  -0.1500 
 10 C       -1.2890    -5.1410     0.2170 C.3   1 <1>   0.1430 
 11 C       -2.1700    -5.5030    -0.9890 C.3   1 <1>  -0.2400 
 12 C       -2.1970    -4.4840     1.2710 C.3   1 <1>  -0.2400 
 13 C       -0.7210    -6.4270     0.8360 C.3   1 <1>  -0.2400 
 14 H        0.9320     1.1300    -0.3900 H     1 <1>   0.4500 
 15 H       -0.0150    -0.0960    -1.0410 H     1 <1>   0.4500 
 16 H        1.5700     0.0260    -1.4770 H     1 <1>   0.4500 
 17 H        0.5980    -0.6440     1.2010 H     1 <1>   0.0800 
 18 H        3.4080    -0.4660     0.0470 H     1 <1>   0.0800 
 19 H        2.9910    -1.1590     1.5870 H     1 <1>   0.0800 
 20 H        2.7220     0.5360     1.3130 H     1 <1>   0.0800 
 21 H       -0.5860    -2.5470     0.9890 H     1 <1>   0.1500 
 22 H        2.8580    -2.1030    -1.5000 H     1 <1>   0.1500 
 23 H        2.5060    -4.3430    -2.3720 H     1 <1>   0.1500 
 24 H        0.6500    -5.6970    -1.6070 H     1 <1>   0.1500 
 25 H       -3.0040    -6.1090    -0.6810 H     1 <1>   0.0800 
 26 H       -1.6150    -6.0550    -1.7250 H     1 <1>   0.0800 
 27 H       -2.5500    -4.6100    -1.4520 H     1 <1>   0.0800 
 28 H       -2.9870    -5.1550     1.5570 H     1 <1>   0.0800 
 29 H       -2.6500    -3.5910     0.8790 H     1 <1>   0.0800 
 30 H       -1.6360    -4.2400     2.1550 H     1 <1>   0.0800 
 31 H       -1.5140    -7.0580     1.1960 H     1 <1>   0.0800 
 32 H       -0.0760    -6.1860     1.6620 H     1 <1>   0.0800 
 33 H       -0.1530    -6.9880     0.1180 H     1 <1>   0.0800 
@<TRIPOS>BOND
  1   1   2  1   
  2   1  14  1   
  3   1  15  1   
  4   1  16  1   
  5   2   3  1   
  6   2   4  1   
  7   2  17  1   
  8   3   5  ar  
  9   3   6  ar  
 10   4  18  1   
 11   4  19  1   
 12   4  20  1   
 13   5   7  ar  
 14   5  21  1   
 15   6   8  ar  
 16   6  22  1   
 17   7   9  ar  
 18   7  10  1   
 19   8   9  ar  
 20   8  23  1   
 21   9  24  1   
 22  10  11  1   
 23  10  12  1   
 24  10  13  1   
 25  11  25  1   
 26  11  26  1   
 27  11  27  1   
 28  12  28  1   
 29  12  29  1   
 30  12  30  1   
 31  13  31  1   
 32  13  32  1   
 33  13  33  1   
@<TRIPOS>SUBSTRUCTURE
  1 ****   5 GROUP 4 **** **** 0

# MOE 2024.06 (io_trps.svl 2023.06)
