@<TRIPOS>MOLECULE
NONAME
41 42 1 0 0 
SMALL
USER_CHARGES


@<TRIPOS>ATOM
  1 S       -0.1810     0.1450     0.2780 S.o2  1 <1>   1.3330 
  2 O        0.0330    -0.7470     1.3950 O.2   1 <1>  -0.6500 
  3 O       -0.8010     1.4310     0.5040 O.2   1 <1>  -0.6500 
  4 N       -1.1080    -0.6910    -0.8730 N.am  1 <1>  -0.8490 
  5 C        1.3590     0.4260    -0.5970 C.3   1 <1>  -0.0550 
  6 C       -2.5450    -0.4600    -0.7030 C.3   1 <1>   0.1160 
  7 C       -0.8360    -2.1330    -0.9020 C.3   1 <1>   0.1160 
  8 C        2.3930     1.2420     0.2040 C.3   1 <1>  -0.0800 
  9 C        3.5730     1.6270    -0.6730 C.3   1 <1>   0.2200 
 10 C        3.0820     0.3950     1.2730 C.3   1 <1>   0.1200 
 11 N        4.2210     2.8330    -0.1160 N.am  1 <1>  -0.7300 
 12 C        4.5030     0.4200    -0.5380 C.3   1 <1>   0.1200 
 13 O        4.1120    -0.2730     0.6140 O.3   1 <1>  -0.5600 
 14 C        4.3390     4.0480    -0.7260 C.2   1 <1>   0.7160 
 15 O        3.8730     4.1870    -1.8440 O.2   1 <1>  -0.5700 
 16 C        5.0130     5.1300    -0.0280 C.2   1 <1>   0.1410 
 17 N        5.5550     4.9940     1.2210 N.2   1 <1>  -0.5650 
 18 C        5.2240     6.4080    -0.4550 C.2   1 <1>  -0.3020 
 19 C        6.0540     6.1540     1.4900 C.2   1 <1>   0.0360 
 20 N        5.8850     7.0630     0.5060 N.pl3 1 <1>   0.0480 
 21 C        6.3290     8.4670     0.4930 C.3   1 <1>   0.0160 
 22 H        1.7870    -0.5160    -0.8790 H     1 <1>   0.0800 
 23 H        1.1280     0.9610    -1.4980 H     1 <1>   0.0800 
 24 H       -3.1010    -0.9920    -1.4560 H     1 <1>   0.0800 
 25 H       -2.7650     0.5900    -0.8050 H     1 <1>   0.0800 
 26 H       -2.8650    -0.7870     0.2720 H     1 <1>   0.0800 
 27 H       -1.3780    -2.5950    -1.7090 H     1 <1>   0.0800 
 28 H       -1.1330    -2.5910     0.0280 H     1 <1>   0.0800 
 29 H        0.2150    -2.3110    -1.0530 H     1 <1>   0.0800 
 30 H        1.9140     2.1090     0.6260 H     1 <1>   0.0800 
 31 H        3.2950     1.7990    -1.7000 H     1 <1>   0.0800 
 32 H        2.4400    -0.3270     1.7450 H     1 <1>   0.0800 
 33 H        3.5280     1.0210     2.0270 H     1 <1>   0.0800 
 34 H        4.6470     2.7580     0.8120 H     1 <1>   0.3700 
 35 H        5.5360     0.7080    -0.4470 H     1 <1>   0.0800 
 36 H        4.3830    -0.2480    -1.3720 H     1 <1>   0.0800 
 37 H        4.9280     6.8500    -1.3890 H     1 <1>   0.1500 
 38 H        6.5620     6.3970     2.4070 H     1 <1>   0.1500 
 39 H        6.0390     8.9280    -0.4330 H     1 <1>   0.0800 
 40 H        7.3990     8.5020     0.5910 H     1 <1>   0.0800 
 41 H        5.8730     8.9920     1.3130 H     1 <1>   0.0800 
@<TRIPOS>BOND
  1   1   2  2   
  2   1   3  2   
  3   1   4  am  
  4   1   5  1   
  5   4   6  1   
  6   4   7  1   
  7   5   8  1   
  8   5  22  1   
  9   5  23  1   
 10   6  24  1   
 11   6  25  1   
 12   6  26  1   
 13   7  27  1   
 14   7  28  1   
 15   7  29  1   
 16   8   9  1   
 17   8  10  1   
 18   8  30  1   
 19   9  11  1   
 20   9  12  1   
 21   9  31  1   
 22  10  13  1   
 23  10  32  1   
 24  10  33  1   
 25  11  14  am  
 26  11  34  1   
 27  12  13  1   
 28  12  35  1   
 29  12  36  1   
 30  14  15  2   
 31  14  16  1   
 32  16  17  1   
 33  16  18  2   
 34  17  19  2   
 35  18  20  1   
 36  18  37  1   
 37  19  20  1   
 38  19  38  1   
 39  20  21  1   
 40  21  39  1   
 41  21  40  1   
 42  21  41  1   
@<TRIPOS>SUBSTRUCTURE
  1 ****   9 GROUP 4 **** **** 0

# MOE 2024.06 (io_trps.svl 2023.06)
