@<TRIPOS>MOLECULE
NONAME
45 47 1 0 0 
SMALL
USER_CHARGES


@<TRIPOS>ATOM
  1 CL      -0.3720     0.1610    -0.2660 Cl    1 <1>  -0.1770 
  2 C       -1.8640    -0.7340    -0.1630 C.ar  1 <1>   0.1770 
  3 C       -2.0860    -1.7890    -1.0280 C.ar  1 <1>  -0.1500 
  4 C       -2.8050    -0.3810     0.7850 C.ar  1 <1>  -0.1500 
  5 C       -3.2740    -2.4940    -0.9430 C.ar  1 <1>  -0.1500 
  6 C       -3.9890    -1.0940     0.8610 C.ar  1 <1>  -0.1500 
  7 C       -4.2540    -2.1580    -0.0060 C.ar  1 <1>   0.0860 
  8 C       -5.4990    -2.9010     0.0620 C.2   1 <1>   0.5440 
  9 O       -5.4630    -4.1170     0.1150 O.2   1 <1>  -0.5700 
 10 N       -6.7250    -2.2700     0.0560 N.am  1 <1>  -0.6600 
 11 C       -7.9650    -3.0330     0.3810 C.3   1 <1>   0.1400 
 12 C       -6.9000    -0.8640    -0.4120 C.3   1 <1>   0.1400 
 13 C       -9.0360    -2.1000     0.9530 C.3   1 <1>  -0.1600 
 14 C       -8.2860    -0.6870    -1.0290 C.3   1 <1>  -0.1600 
 15 C       -9.3930    -0.9140     0.0220 C.3   1 <1>   0.2800 
 16 O       -9.4210     0.2100     0.8660 O.3   1 <1>  -0.5600 
 17 C      -10.7690    -1.1210    -0.6650 C.3   1 <1>  -0.1600 
 18 C      -10.1130     1.3600     0.4490 C.3   1 <1>   0.1200 
 19 C      -11.9180    -0.4340     0.0820 C.3   1 <1>   0.2800 
 20 C      -11.6040     1.0840     0.1670 C.3   1 <1>   0.2000 
 21 O      -13.0550    -0.6090    -0.6820 O.3   1 <1>  -0.6800 
 22 C      -12.2280    -1.1020     1.4320 C.3   1 <1>  -0.2400 
 23 O      -12.3970     1.7350     1.1140 O.3   1 <1>  -0.6800 
 24 H       -1.3370    -2.0520    -1.7530 H     1 <1>   0.1500 
 25 H       -2.6080     0.4390     1.4530 H     1 <1>   0.1500 
 26 H       -3.4560    -3.3230    -1.6050 H     1 <1>   0.1500 
 27 H       -4.7240    -0.8320     1.6030 H     1 <1>   0.1500 
 28 H       -8.3260    -3.5120    -0.5130 H     1 <1>   0.0800 
 29 H       -7.7370    -3.8020     1.1010 H     1 <1>   0.0800 
 30 H       -6.7900    -0.1940     0.4240 H     1 <1>   0.0800 
 31 H       -6.1480    -0.6260    -1.1460 H     1 <1>   0.0800 
 32 H       -8.6640    -1.7280     1.8920 H     1 <1>   0.0800 
 33 H       -9.9060    -2.6880     1.1740 H     1 <1>   0.0800 
 34 H       -8.3880    -1.3980    -1.8300 H     1 <1>   0.0800 
 35 H       -8.3680     0.2890    -1.4650 H     1 <1>   0.0800 
 36 H      -10.7260    -0.7030    -1.6550 H     1 <1>   0.0800 
 37 H      -10.9710    -2.1690    -0.7840 H     1 <1>   0.0800 
 38 H      -10.0130     2.0990     1.2240 H     1 <1>   0.0800 
 39 H       -9.6380     1.7340    -0.4390 H     1 <1>   0.0800 
 40 H      -11.8310     1.5360    -0.7830 H     1 <1>   0.0800 
 41 H      -13.8390    -0.5740    -0.1030 H     1 <1>   0.4000 
 42 H      -11.4160    -0.9430     2.1180 H     1 <1>   0.0800 
 43 H      -12.3640    -2.1610     1.3080 H     1 <1>   0.0800 
 44 H      -13.1100    -0.6830     1.8800 H     1 <1>   0.0800 
 45 H      -13.3360     1.6750     0.8540 H     1 <1>   0.4000 
@<TRIPOS>BOND
  1   1   2  1   
  2   2   3  ar  
  3   2   4  ar  
  4   3   5  ar  
  5   3  24  1   
  6   4   6  ar  
  7   4  25  1   
  8   5   7  ar  
  9   5  26  1   
 10   6   7  ar  
 11   6  27  1   
 12   7   8  1   
 13   8   9  2   
 14   8  10  am  
 15  10  11  1   
 16  10  12  1   
 17  11  13  1   
 18  11  28  1   
 19  11  29  1   
 20  12  14  1   
 21  12  30  1   
 22  12  31  1   
 23  13  15  1   
 24  13  32  1   
 25  13  33  1   
 26  14  15  1   
 27  14  34  1   
 28  14  35  1   
 29  15  16  1   
 30  15  17  1   
 31  16  18  1   
 32  17  19  1   
 33  17  36  1   
 34  17  37  1   
 35  18  20  1   
 36  18  38  1   
 37  18  39  1   
 38  19  20  1   
 39  19  21  1   
 40  19  22  1   
 41  20  23  1   
 42  20  40  1   
 43  21  41  1   
 44  22  42  1   
 45  22  43  1   
 46  22  44  1   
 47  23  45  1   
@<TRIPOS>SUBSTRUCTURE
  1 ****  12 GROUP 4 **** **** 0

# MOE 2024.06 (io_trps.svl 2023.06)
