@<TRIPOS>MOLECULE
NONAME
45 48 1 0 0 
SMALL
USER_CHARGES


@<TRIPOS>ATOM
  1 F       -0.9040    -0.0420    -0.6670 F     1 <1>  -0.3400 
  2 C        0.1800    -0.8010    -0.5380 C.3   1 <1>   1.2000 
  3 F        0.8750    -0.6580    -1.6610 F     1 <1>  -0.3400 
  4 F        0.9000    -0.2370     0.4260 F     1 <1>  -0.3400 
  5 C       -0.1890    -2.2560    -0.1900 C.2   1 <1>   0.0060 
  6 N        0.0860    -3.3330    -0.8610 N.2   1 <1>  -0.5650 
  7 N       -0.8890    -2.5070     0.9500 N.pl3 1 <1>   0.0330 
  8 C       -0.4550    -4.3470    -0.1320 C.ar  1 <1>   0.2270 
  9 C       -1.0700    -3.8480     0.9990 C.ar  1 <1>  -0.1520 
 10 C       -0.4580    -5.7130    -0.3830 C.ar  1 <1>  -0.1500 
 11 C       -1.7000    -4.6990     1.9090 C.ar  1 <1>  -0.1500 
 12 C       -1.0880    -6.5860     0.4910 C.ar  1 <1>   0.0860 
 13 C       -1.6990    -6.0490     1.6450 C.ar  1 <1>  -0.1500 
 14 C       -1.1170    -8.0100     0.2290 C.2   1 <1>   0.5440 
 15 O       -0.0820    -8.6090     0.0090 O.2   1 <1>  -0.5700 
 16 N       -2.2980    -8.7160     0.2070 N.am  1 <1>  -0.6600 
 17 C       -3.6490    -8.1130     0.0810 C.3   1 <1>   0.1400 
 18 C       -2.3380   -10.1610    -0.1180 C.3   1 <1>   0.1400 
 19 C       -4.5270    -9.2330    -0.4780 C.3   1 <1>   0.2000 
 20 C       -3.8220   -10.5350    -0.1030 C.3   1 <1>  -0.0800 
 21 O       -5.8010    -9.2050     0.0680 O.3   1 <1>  -0.6800 
 22 C       -4.1790   -11.6920    -1.0490 C.3   1 <1>   0.0200 
 23 C       -3.5200   -13.0070    -0.6690 C.2   1 <1>  -0.0400 
 24 O       -3.6160   -14.0160    -1.4940 O.3   1 <1>  -0.0190 
 25 C       -2.8110   -13.4180     0.3950 C.2   1 <1>  -0.1500 
 26 N       -3.0070   -15.0740    -1.0440 N.2   1 <1>  -0.4100 
 27 C       -2.5120   -14.7440     0.0930 C.2   1 <1>   0.1080 
 28 C       -1.7120   -15.6760     0.9760 C.3   1 <1>  -0.0590 
 29 H       -1.2150    -1.8260     1.6440 H     1 <1>   0.2700 
 30 H        0.0360    -6.0800    -1.2650 H     1 <1>   0.1500 
 31 H       -2.1690    -4.3010     2.7930 H     1 <1>   0.1500 
 32 H       -2.1670    -6.7300     2.3340 H     1 <1>   0.1500 
 33 H       -3.9930    -7.8080     1.0530 H     1 <1>   0.0800 
 34 H       -3.6290    -7.2720    -0.5900 H     1 <1>   0.0800 
 35 H       -1.9100   -10.3100    -1.0960 H     1 <1>   0.0800 
 36 H       -1.7710   -10.7230     0.6040 H     1 <1>   0.0800 
 37 H       -4.6130    -9.1260    -1.5470 H     1 <1>   0.0800 
 38 H       -4.0790   -10.8020     0.9070 H     1 <1>   0.0800 
 39 H       -5.7650    -9.3450     1.0330 H     1 <1>   0.4000 
 40 H       -3.8860   -11.4400    -2.0530 H     1 <1>   0.0800 
 41 H       -5.2460   -11.8370    -1.0490 H     1 <1>   0.0800 
 42 H       -2.5200   -12.8950     1.2860 H     1 <1>   0.1500 
 43 H       -0.7220   -15.2850     1.1160 H     1 <1>   0.0800 
 44 H       -1.6420   -16.6450     0.5170 H     1 <1>   0.0800 
 45 H       -2.1940   -15.7770     1.9310 H     1 <1>   0.0800 
@<TRIPOS>BOND
  1   1   2  1   
  2   2   3  1   
  3   2   4  1   
  4   2   5  1   
  5   5   6  2   
  6   5   7  1   
  7   6   8  1   
  8   7   9  1   
  9   7  29  1   
 10   8   9  ar  
 11   8  10  ar  
 12   9  11  ar  
 13  10  12  ar  
 14  10  30  1   
 15  11  13  ar  
 16  11  31  1   
 17  12  13  ar  
 18  12  14  1   
 19  13  32  1   
 20  14  15  2   
 21  14  16  am  
 22  16  17  1   
 23  16  18  1   
 24  17  19  1   
 25  17  33  1   
 26  17  34  1   
 27  18  20  1   
 28  18  35  1   
 29  18  36  1   
 30  19  20  1   
 31  19  21  1   
 32  19  37  1   
 33  20  22  1   
 34  20  38  1   
 35  21  39  1   
 36  22  23  1   
 37  22  40  1   
 38  22  41  1   
 39  23  24  1   
 40  23  25  2   
 41  24  26  1   
 42  25  27  1   
 43  25  42  1   
 44  26  27  2   
 45  27  28  1   
 46  28  43  1   
 47  28  44  1   
 48  28  45  1   
@<TRIPOS>SUBSTRUCTURE
  1 ****  14 GROUP 4 **** **** 0

# MOE 2024.06 (io_trps.svl 2023.06)
