@<TRIPOS>MOLECULE
NONAME
55 57 1 0 0 
SMALL
USER_CHARGES


@<TRIPOS>ATOM
  1 O       -0.5210     1.7580     2.4960 O.2   1 <1>  -0.5700 
  2 C       -0.5280     2.3450     1.4320 C.2   1 <1>   0.5440 
  3 N       -1.7250     2.7550     0.8850 N.am  1 <1>  -0.6600 
  4 C        0.7310     2.5920     0.7670 C.ar  1 <1>   0.0860 
  5 C       -3.0110     2.4820     1.5920 C.3   1 <1>   0.1400 
  6 C       -1.8190     3.4440    -0.4340 C.3   1 <1>   0.1400 
  7 C        1.2260     1.7110    -0.2000 C.ar  1 <1>   0.0730 
  8 C        1.4750     3.7260     1.0880 C.ar  1 <1>  -0.1500 
  9 C       -4.0490     3.5620     1.2730 C.3   1 <1>  -0.1600 
 10 C       -3.1750     3.1510    -1.0750 C.3   1 <1>  -0.1600 
 11 C        0.4910     0.5370    -0.5740 C.1   1 <1>   0.4840 
 12 C        2.4420     1.9880    -0.8160 C.ar  1 <1>  -0.1500 
 13 C        2.6810     3.9920     0.4670 C.ar  1 <1>  -0.1500 
 14 C       -4.3360     3.7480    -0.2420 C.3   1 <1>   0.2800 
 15 N       -0.0870    -0.3810    -0.9240 N.1   1 <1>  -0.5570 
 16 C        3.1660     3.1190    -0.4890 C.ar  1 <1>  -0.1500 
 17 O       -4.3000     5.1460    -0.4430 O.3   1 <1>  -0.5600 
 18 C       -5.7470     3.1640    -0.6270 C.3   1 <1>   0.2000 
 19 C       -4.9690     5.6800    -1.5420 C.3   1 <1>   0.1200 
 20 O       -5.7410     2.6120    -1.9190 O.3   1 <1>  -0.6800 
 21 C       -6.8700     4.2420    -0.5360 C.3   1 <1>   0.3000 
 22 C       -6.4830     5.4390    -1.4320 C.3   1 <1>  -0.1600 
 23 N       -6.9850     4.7840     0.8400 N.am  1 <1>  -0.7300 
 24 C       -8.2490     3.7280    -0.9860 C.3   1 <1>  -0.2400 
 25 C       -7.4380     4.3190     2.0300 C.2   1 <1>   0.5690 
 26 O       -7.2920     5.0100     3.0050 O.2   1 <1>  -0.5700 
 27 C       -8.0760     2.9520     2.2260 C.3   1 <1>  -0.0990 
 28 C       -9.6120     3.0130     2.2480 C.3   1 <1>  -0.2400 
 29 H       -3.3760     1.5160     1.2880 H     1 <1>   0.0800 
 30 H       -2.8460     2.4550     2.6560 H     1 <1>   0.0800 
 31 H       -1.7060     4.5060    -0.2890 H     1 <1>   0.0800 
 32 H       -1.0400     3.1030    -1.0920 H     1 <1>   0.0800 
 33 H        1.0980     4.4000     1.8380 H     1 <1>   0.1500 
 34 H       -3.6910     4.4850     1.6950 H     1 <1>   0.0800 
 35 H       -4.9440     3.3070     1.8030 H     1 <1>   0.0800 
 36 H       -3.2830     2.0820    -1.1490 H     1 <1>   0.0800 
 37 H       -3.1860     3.5370    -2.0760 H     1 <1>   0.0800 
 38 H        2.8280     1.3120    -1.5610 H     1 <1>   0.1500 
 39 H        3.2420     4.8730     0.7290 H     1 <1>   0.1500 
 40 H        4.1070     3.3220    -0.9740 H     1 <1>   0.1500 
 41 H       -5.9800     2.3430     0.0260 H     1 <1>   0.0800 
 42 H       -4.7610     6.7360    -1.5700 H     1 <1>   0.0800 
 43 H       -4.5700     5.2340    -2.4360 H     1 <1>   0.0800 
 44 H       -5.4580     3.2820    -2.5690 H     1 <1>   0.4000 
 45 H       -6.9690     6.3330    -1.0840 H     1 <1>   0.0800 
 46 H       -6.8400     5.2790    -2.4330 H     1 <1>   0.0800 
 47 H       -6.4610     5.6570     0.9390 H     1 <1>   0.3700 
 48 H       -8.2500     3.5280    -2.0430 H     1 <1>   0.0800 
 49 H       -9.0090     4.4620    -0.7840 H     1 <1>   0.0800 
 50 H       -8.5010     2.8060    -0.5040 H     1 <1>   0.0800 
 51 H       -7.7370     2.2660     1.4770 H     1 <1>   0.0800 
 52 H       -7.7380     2.5700     3.1720 H     1 <1>   0.0800 
 53 H       -9.9920     3.4140     1.3260 H     1 <1>   0.0800 
 54 H       -9.9390     3.6470     3.0540 H     1 <1>   0.0800 
 55 H      -10.0210     2.0300     2.3950 H     1 <1>   0.0800 
@<TRIPOS>BOND
  1   1   2  2   
  2   2   3  am  
  3   2   4  1   
  4   3   5  1   
  5   3   6  1   
  6   4   7  ar  
  7   4   8  ar  
  8   5   9  1   
  9   5  29  1   
 10   5  30  1   
 11   6  10  1   
 12   6  31  1   
 13   6  32  1   
 14   7  11  1   
 15   7  12  ar  
 16   8  13  ar  
 17   8  33  1   
 18   9  14  1   
 19   9  34  1   
 20   9  35  1   
 21  10  14  1   
 22  10  36  1   
 23  10  37  1   
 24  11  15  3   
 25  12  16  ar  
 26  12  38  1   
 27  13  16  ar  
 28  13  39  1   
 29  14  17  1   
 30  14  18  1   
 31  16  40  1   
 32  17  19  1   
 33  18  20  1   
 34  18  21  1   
 35  18  41  1   
 36  19  22  1   
 37  19  42  1   
 38  19  43  1   
 39  20  44  1   
 40  21  22  1   
 41  21  23  1   
 42  21  24  1   
 43  22  45  1   
 44  22  46  1   
 45  23  25  am  
 46  23  47  1   
 47  24  48  1   
 48  24  49  1   
 49  24  50  1   
 50  25  26  2   
 51  25  27  1   
 52  27  28  1   
 53  27  51  1   
 54  27  52  1   
 55  28  53  1   
 56  28  54  1   
 57  28  55  1   
@<TRIPOS>SUBSTRUCTURE
  1 ****   9 GROUP 4 **** **** 0

# MOE 2024.06 (io_trps.svl 2023.06)
