@<TRIPOS>MOLECULE
NONAME
52 54 1 0 0 
SMALL
USER_CHARGES


@<TRIPOS>ATOM
  1 O       -0.5900     0.2550     0.9100 O.2   1 <1>  -0.5700 
  2 C       -1.5880     0.8530     0.5500 C.2   1 <1>   0.7150 
  3 N       -2.6930     0.1210     0.1880 N.am  1 <1>  -0.6600 
  4 C       -1.5920     2.2870     0.4890 C.2   1 <1>  -0.2370 
  5 C       -3.8050     0.6260    -0.6550 C.3   1 <1>   0.1400 
  6 C       -2.7130    -1.3620     0.2440 C.3   1 <1>   0.1400 
  7 N       -0.5170     3.0440     0.1410 N.pl3 1 <1>   0.3140 
  8 C       -2.5880     3.1780     0.7540 C.2   1 <1>  -0.1500 
  9 C       -4.3670    -0.6170    -1.3440 C.3   1 <1>   0.2000 
 10 C       -4.0320    -1.7750    -0.4100 C.3   1 <1>  -0.0800 
 11 N       -0.8050     4.3600     0.1640 N.2   1 <1>  -0.7070 
 12 C        0.8380     2.5340    -0.2190 C.3   1 <1>   0.0960 
 13 C       -2.0470     4.4310     0.5340 C.2   1 <1>   0.1080 
 14 O       -5.7370    -0.5260    -1.5260 O.3   1 <1>  -0.6800 
 15 C       -3.9650    -3.1350    -1.1220 C.3   1 <1>   0.0210 
 16 C        1.6990     3.5510    -0.9860 C.3   1 <1>  -0.2400 
 17 C       -2.7800     5.7570     0.6960 C.3   1 <1>   0.1010 
 18 C       -3.4720    -4.2230    -0.1880 C.2   1 <1>   0.1080 
 19 C       -3.2470     5.9500     2.1440 C.3   1 <1>  -0.2400 
 20 C       -3.9650     5.8480    -0.2720 C.3   1 <1>  -0.2400 
 21 N       -3.9740    -4.4240     0.9910 N.2   1 <1>  -0.7070 
 22 C       -2.4360    -5.1060    -0.4740 C.2   1 <1>  -0.1500 
 23 N       -3.2650    -5.4520     1.4930 N.pl3 1 <1>   0.3000 
 24 C       -2.3260    -5.8820     0.6240 C.2   1 <1>  -0.3320 
 25 C       -1.3670    -7.0250     0.9020 C.3   1 <1>  -0.0600 
 26 H       -4.5500     1.0750    -0.0220 H     1 <1>   0.0800 
 27 H       -3.4470     1.3380    -1.3790 H     1 <1>   0.0800 
 28 H       -1.8710    -1.7480    -0.3060 H     1 <1>   0.0800 
 29 H       -2.6570    -1.7070     1.2630 H     1 <1>   0.0800 
 30 H       -3.5910     2.9750     1.0770 H     1 <1>   0.1500 
 31 H       -3.9020    -0.7380    -2.3080 H     1 <1>   0.0800 
 32 H       -4.7650    -1.8280     0.3770 H     1 <1>   0.0800 
 33 H        1.3340     2.2510     0.6910 H     1 <1>   0.0800 
 34 H        0.7160     1.6550    -0.8230 H     1 <1>   0.0800 
 35 H       -6.1980    -0.5920    -0.6670 H     1 <1>   0.4000 
 36 H       -3.3080    -3.0740    -1.9710 H     1 <1>   0.0800 
 37 H       -4.9450    -3.4030    -1.4760 H     1 <1>   0.0800 
 38 H        1.8810     4.4190    -0.3760 H     1 <1>   0.0800 
 39 H        1.1990     3.8530    -1.8900 H     1 <1>   0.0800 
 40 H        2.6440     3.1100    -1.2430 H     1 <1>   0.0800 
 41 H       -2.0860     6.5450     0.4570 H     1 <1>   0.0800 
 42 H       -3.9580     5.1930     2.4190 H     1 <1>   0.0800 
 43 H       -3.7020     6.9170     2.2630 H     1 <1>   0.0800 
 44 H       -2.4020     5.8850     2.8060 H     1 <1>   0.0800 
 45 H       -4.6940     5.0880    -0.0540 H     1 <1>   0.0800 
 46 H       -3.6180     5.7140    -1.2810 H     1 <1>   0.0800 
 47 H       -4.4350     6.8130    -0.1960 H     1 <1>   0.0800 
 48 H       -1.8630    -5.1420    -1.3830 H     1 <1>   0.1500 
 49 H       -3.4450    -5.8350     2.4290 H     1 <1>   0.2700 
 50 H       -0.7180    -7.1770     0.0570 H     1 <1>   0.0800 
 51 H       -1.9130    -7.9340     1.0810 H     1 <1>   0.0800 
 52 H       -0.7620    -6.8020     1.7620 H     1 <1>   0.0800 
@<TRIPOS>BOND
  1   1   2  2   
  2   2   3  am  
  3   2   4  1   
  4   3   5  1   
  5   3   6  1   
  6   4   7  1   
  7   4   8  2   
  8   5   9  1   
  9   5  26  1   
 10   5  27  1   
 11   6  10  1   
 12   6  28  1   
 13   6  29  1   
 14   7  11  1   
 15   7  12  1   
 16   8  13  1   
 17   8  30  1   
 18   9  10  1   
 19   9  14  1   
 20   9  31  1   
 21  10  15  1   
 22  10  32  1   
 23  11  13  2   
 24  12  16  1   
 25  12  33  1   
 26  12  34  1   
 27  13  17  1   
 28  14  35  1   
 29  15  18  1   
 30  15  36  1   
 31  15  37  1   
 32  16  38  1   
 33  16  39  1   
 34  16  40  1   
 35  17  19  1   
 36  17  20  1   
 37  17  41  1   
 38  18  21  2   
 39  18  22  1   
 40  19  42  1   
 41  19  43  1   
 42  19  44  1   
 43  20  45  1   
 44  20  46  1   
 45  20  47  1   
 46  21  23  1   
 47  22  24  2   
 48  22  48  1   
 49  23  24  1   
 50  23  49  1   
 51  24  25  1   
 52  25  50  1   
 53  25  51  1   
 54  25  52  1   
@<TRIPOS>SUBSTRUCTURE
  1 ****   3 GROUP 4 **** **** 0

# MOE 2024.06 (io_trps.svl 2023.06)
