@<TRIPOS>MOLECULE
NONAME
54 57 1 0 0 
SMALL
USER_CHARGES


@<TRIPOS>ATOM
  1 O        0.5540     0.1110     0.8000 O.3   1 <1>  -0.5600 
  2 C        0.4720    -1.2570     0.5050 C.3   1 <1>   0.1200 
  3 C        1.4030     0.8090    -0.0560 C.3   1 <1>   0.1200 
  4 C        1.8610    -1.9320     0.5800 C.3   1 <1>   0.2850 
  5 C        2.8300     0.2420     0.0560 C.3   1 <1>   0.1900 
  6 N        2.8480    -1.2090    -0.2680 N.3   1 <1>  -0.8100 
  7 C        1.7320    -3.3930     0.1220 C.3   1 <1>  -0.1950 
  8 C        3.7820     1.0190    -0.8740 C.3   1 <1>   0.3430 
  9 C        4.2170    -1.7590    -0.1630 C.3   1 <1>   0.1100 
 10 C        1.0830    -4.4110     1.0090 C.3   1 <1>  -0.2000 
 11 C        2.5520    -4.4990     0.7170 C.3   1 <1>  -0.2000 
 12 N        5.1870     0.4720    -0.8310 N.4   1 <1>  -0.9590 
 13 C        5.2000    -1.0070    -1.0850 C.3   1 <1>   0.3430 
 14 C        6.0930     1.2110    -1.7440 C.3   1 <1>   0.5240 
 15 C        6.1430     2.6370    -1.2550 C.2   1 <1>  -0.1810 
 16 C        6.7340     3.1720    -0.1610 C.2   1 <1>  -0.3320 
 17 C        5.5210     3.7070    -1.8870 C.2   1 <1>   0.1390 
 18 N        6.4440     4.4970    -0.1750 N.pl3 1 <1>   0.3140 
 19 C        7.5820     2.5060     0.9150 C.3   1 <1>  -0.0600 
 20 N        5.6820     4.8110    -1.2370 N.2   1 <1>  -0.7070 
 21 C        6.8630     5.5370     0.7920 C.3   1 <1>   0.0960 
 22 C        8.2070     6.1570     0.3840 C.3   1 <1>  -0.1600 
 23 C        8.6580     7.2200     1.3910 C.3   1 <1>  -0.2400 
 24 H       -0.1950    -1.7060     1.2190 H     1 <1>   0.0800 
 25 H        0.0490    -1.3720    -0.4780 H     1 <1>   0.0800 
 26 H        1.0260     0.7240    -1.0610 H     1 <1>   0.0800 
 27 H        1.3790     1.8430     0.2410 H     1 <1>   0.0800 
 28 H        2.1820    -1.9130     1.6080 H     1 <1>   0.0800 
 29 H        3.1550     0.3880     1.0730 H     1 <1>   0.0800 
 30 H        1.4870    -3.4600    -0.9240 H     1 <1>   0.1000 
 31 H        3.7840     2.0570    -0.5820 H     1 <1>   0.0800 
 32 H        3.3980     0.9580    -1.8790 H     1 <1>   0.0800 
 33 H        4.5590    -1.7120     0.8570 H     1 <1>   0.0800 
 34 H        4.2160    -2.7910    -0.4640 H     1 <1>   0.0800 
 35 H        0.7780    -4.1370     2.0050 H     1 <1>   0.1000 
 36 H        0.4260    -5.1400     0.5670 H     1 <1>   0.1000 
 37 H        2.8970    -5.2940     0.0780 H     1 <1>   0.1000 
 38 H        3.2360    -4.2900     1.5220 H     1 <1>   0.1000 
 39 H        5.5380     0.6540     0.1160 H     1 <1>   0.4500 
 40 H        4.9130    -1.2020    -2.1060 H     1 <1>   0.0800 
 41 H        6.1920    -1.4000    -0.9370 H     1 <1>   0.0800 
 42 H        7.0840     0.7880    -1.7130 H     1 <1>   0.0800 
 43 H        5.7270     1.1730    -2.7570 H     1 <1>   0.0800 
 44 H        4.9590     3.6550    -2.8060 H     1 <1>   0.1500 
 45 H        7.7350     1.4640     0.7000 H     1 <1>   0.0800 
 46 H        7.1050     2.5940     1.8760 H     1 <1>   0.0800 
 47 H        8.5470     2.9790     0.9680 H     1 <1>   0.0800 
 48 H        6.1030     6.2980     0.8130 H     1 <1>   0.0800 
 49 H        6.9320     5.0990     1.7690 H     1 <1>   0.0800 
 50 H        8.9590     5.3890     0.3220 H     1 <1>   0.0800 
 51 H        8.1050     6.6120    -0.5870 H     1 <1>   0.0800 
 52 H        8.7870     6.7890     2.3690 H     1 <1>   0.0800 
 53 H        7.9330     8.0130     1.4530 H     1 <1>   0.0800 
 54 H        9.5970     7.6440     1.0800 H     1 <1>   0.0800 
@<TRIPOS>BOND
  1   1   2  1   
  2   1   3  1   
  3   2   4  1   
  4   2  24  1   
  5   2  25  1   
  6   3   5  1   
  7   3  26  1   
  8   3  27  1   
  9   4   6  1   
 10   4   7  1   
 11   4  28  1   
 12   5   6  1   
 13   5   8  1   
 14   5  29  1   
 15   6   9  1   
 16   7  10  1   
 17   7  11  1   
 18   7  30  1   
 19   8  12  1   
 20   8  31  1   
 21   8  32  1   
 22   9  13  1   
 23   9  33  1   
 24   9  34  1   
 25  10  11  1   
 26  10  35  1   
 27  10  36  1   
 28  11  37  1   
 29  11  38  1   
 30  12  13  1   
 31  12  14  1   
 32  12  39  1   
 33  13  40  1   
 34  13  41  1   
 35  14  15  1   
 36  14  42  1   
 37  14  43  1   
 38  15  16  2   
 39  15  17  1   
 40  16  18  1   
 41  16  19  1   
 42  17  20  2   
 43  17  44  1   
 44  18  20  1   
 45  18  21  1   
 46  19  45  1   
 47  19  46  1   
 48  19  47  1   
 49  21  22  1   
 50  21  48  1   
 51  21  49  1   
 52  22  23  1   
 53  22  50  1   
 54  22  51  1   
 55  23  52  1   
 56  23  53  1   
 57  23  54  1   
@<TRIPOS>SUBSTRUCTURE
  1 ****   8 GROUP 4 **** **** 0

# MOE 2024.06 (io_trps.svl 2023.06)
