@<TRIPOS>MOLECULE
NONAME
42 44 1 0 0 
SMALL
USER_CHARGES


@<TRIPOS>ATOM
  1 CL       0.9690     0.5480    -1.7050 Cl    1 <1>  -0.1770 
  2 C        2.1150     1.2230    -0.5670 C.ar  1 <1>   0.1770 
  3 C        2.1010     2.5850    -0.2820 C.ar  1 <1>   0.0820 
  4 C        3.0200     0.3700     0.0300 C.ar  1 <1>  -0.1500 
  5 O        1.2170     3.3860    -0.9160 O.3   1 <1>  -0.3630 
  6 C        3.0220     3.1220     0.6260 C.ar  1 <1>   0.0860 
  7 C        3.9240     0.9040     0.9280 C.ar  1 <1>   0.1770 
  8 C        0.0580     3.7600    -0.2020 C.3   1 <1>   0.0400 
  9 C        3.0540     4.5280     0.9550 C.2   1 <1>   0.5440 
 10 C        3.9320     2.2510     1.2270 C.ar  1 <1>  -0.1500 
 11 CL       5.0830    -0.1520     1.6930 Cl    1 <1>  -0.1770 
 12 O        2.5340     4.8870     1.9960 O.2   1 <1>  -0.5700 
 13 N        3.6760     5.4630     0.1500 N.am  1 <1>  -0.6600 
 14 C        4.0390     6.8090     0.7040 C.3   1 <1>   0.1400 
 15 C        4.2070     5.1310    -1.2100 C.3   1 <1>   0.1400 
 16 C        5.5570     7.0530     0.8750 C.3   1 <1>   0.2200 
 17 C        5.7430     5.1700    -1.3400 C.3   1 <1>  -0.0190 
 18 N        6.1800     7.4470    -0.4210 N.am  1 <1>  -0.6600 
 19 C        6.3530     5.9140     1.5640 C.3   1 <1>   0.1200 
 20 C        6.2440     6.5890    -1.4790 C.2   1 <1>   0.5690 
 21 C        6.5700     4.4010    -0.2920 C.3   1 <1>   0.1200 
 22 C        6.6790     8.8500    -0.5090 C.3   1 <1>   0.0600 
 23 O        6.1730     4.6300     1.0260 O.3   1 <1>  -0.5600 
 24 O        6.6990     6.9220    -2.5490 O.2   1 <1>  -0.5700 
 25 H        3.0230    -0.6810    -0.1950 H     1 <1>   0.1500 
 26 H       -0.5560     4.3590    -0.8500 H     1 <1>   0.0800 
 27 H        0.3390     4.3300     0.6650 H     1 <1>   0.0800 
 28 H       -0.4730     2.8710     0.0900 H     1 <1>   0.0800 
 29 H        4.6480     2.6410     1.9300 H     1 <1>   0.1500 
 30 H        3.6270     7.5710     0.0670 H     1 <1>   0.0800 
 31 H        3.5830     6.9340     1.6690 H     1 <1>   0.0800 
 32 H        3.8730     4.1540    -1.5050 H     1 <1>   0.0800 
 33 H        3.7820     5.8240    -1.9160 H     1 <1>   0.0800 
 34 H        5.6420     7.9040     1.5280 H     1 <1>   0.0800 
 35 H        5.9650     4.7020    -2.2820 H     1 <1>   0.0800 
 36 H        6.0340     5.8520     2.5890 H     1 <1>   0.0800 
 37 H        7.4050     6.1410     1.5570 H     1 <1>   0.0800 
 38 H        7.6160     4.6440    -0.3800 H     1 <1>   0.0800 
 39 H        6.4570     3.3450    -0.4630 H     1 <1>   0.0800 
 40 H        7.4280     9.0190     0.2450 H     1 <1>   0.0800 
 41 H        5.8640     9.5370    -0.3640 H     1 <1>   0.0800 
 42 H        7.1190     9.0400    -1.4740 H     1 <1>   0.0800 
@<TRIPOS>BOND
  1   1   2  1   
  2   2   3  ar  
  3   2   4  ar  
  4   3   5  1   
  5   3   6  ar  
  6   4   7  ar  
  7   4  25  1   
  8   5   8  1   
  9   6   9  1   
 10   6  10  ar  
 11   7  10  ar  
 12   7  11  1   
 13   8  26  1   
 14   8  27  1   
 15   8  28  1   
 16   9  12  2   
 17   9  13  am  
 18  10  29  1   
 19  13  14  1   
 20  13  15  1   
 21  14  16  1   
 22  14  30  1   
 23  14  31  1   
 24  15  17  1   
 25  15  32  1   
 26  15  33  1   
 27  16  18  1   
 28  16  19  1   
 29  16  34  1   
 30  17  20  1   
 31  17  21  1   
 32  17  35  1   
 33  18  20  am  
 34  18  22  1   
 35  19  23  1   
 36  19  36  1   
 37  19  37  1   
 38  20  24  2   
 39  21  23  1   
 40  21  38  1   
 41  21  39  1   
 42  22  40  1   
 43  22  41  1   
 44  22  42  1   
@<TRIPOS>SUBSTRUCTURE
  1 ****  13 GROUP 4 **** **** 0

# MOE 2024.06 (io_trps.svl 2023.06)
