@<TRIPOS>MOLECULE
NONAME
48 49 1 0 0 
SMALL
USER_CHARGES


@<TRIPOS>ATOM
  1 S        0.5510     0.7450     0.0730 S.o2  1 <1>   1.3330 
  2 O        0.3060    -0.4520    -0.7000 O.2   1 <1>  -0.6500 
  3 O       -0.5600     1.5880     0.4540 O.2   1 <1>  -0.6500 
  4 N        1.3340     0.2810     1.5090 N.am  1 <1>  -0.8490 
  5 C        1.7810     1.7270    -0.7880 C.3   1 <1>  -0.0550 
  6 C        1.3580     1.3420     2.5220 C.3   1 <1>   0.1160 
  7 C        0.7510    -0.9360     2.0810 C.3   1 <1>   0.1160 
  8 C        2.9470     0.9080    -1.3840 C.3   1 <1>  -0.0800 
  9 C        3.9560     1.7160    -2.1870 C.3   1 <1>   0.2200 
 10 C        3.8300     0.1910    -0.3560 C.3   1 <1>   0.1200 
 11 N        4.2770     2.9860    -1.4990 N.am  1 <1>  -0.7300 
 12 C        5.1700     0.8010    -2.1160 C.3   1 <1>   0.1200 
 13 O        5.1440     0.2550    -0.8310 O.3   1 <1>  -0.5600 
 14 C        3.7110     4.2030    -1.7300 C.2   1 <1>   0.5440 
 15 O        2.9130     4.2840    -2.6450 O.2   1 <1>  -0.5700 
 16 C        4.0400     5.3640    -0.9180 C.ar  1 <1>   0.0860 
 17 C        4.4910     5.2850     0.4130 C.ar  1 <1>   0.0820 
 18 C        3.9130     6.6380    -1.4790 C.ar  1 <1>  -0.1500 
 19 O        4.6050     4.0630     0.9960 O.3   1 <1>  -0.3630 
 20 C        4.8060     6.4460     1.1180 C.ar  1 <1>  -0.1500 
 21 C        4.2250     7.7840    -0.7750 C.ar  1 <1>  -0.1500 
 22 C        5.3190     3.8500     2.1930 C.3   1 <1>   0.1200 
 23 C        4.6750     7.6880     0.5280 C.ar  1 <1>  -0.1500 
 24 C        5.4060     2.3450     2.4260 C.3   1 <1>  -0.2400 
 25 H        1.2970     2.2430    -1.5960 H     1 <1>   0.0800 
 26 H        2.1610     2.4740    -0.1200 H     1 <1>   0.0800 
 27 H        1.9320     1.0240     3.3760 H     1 <1>   0.0800 
 28 H        0.3570     1.5810     2.8430 H     1 <1>   0.0800 
 29 H        1.8120     2.2320     2.1210 H     1 <1>   0.0800 
 30 H        1.2730    -1.2140     2.9810 H     1 <1>   0.0800 
 31 H        0.8350    -1.7500     1.3800 H     1 <1>   0.0800 
 32 H       -0.2910    -0.7820     2.3070 H     1 <1>   0.0800 
 33 H        2.5350     0.1560    -2.0340 H     1 <1>   0.0800 
 34 H        3.6370     1.9030    -3.1990 H     1 <1>   0.0800 
 35 H        3.5480    -0.8410    -0.2350 H     1 <1>   0.0800 
 36 H        3.8090     0.6870     0.5980 H     1 <1>   0.0800 
 37 H        4.8250     2.8760    -0.6380 H     1 <1>   0.3700 
 38 H        6.0960     1.3250    -2.2710 H     1 <1>   0.0800 
 39 H        5.0800    -0.0070    -2.8200 H     1 <1>   0.0800 
 40 H        3.5620     6.7250    -2.4930 H     1 <1>   0.1500 
 41 H        5.1490     6.4080     2.1340 H     1 <1>   0.1500 
 42 H        4.1180     8.7500    -1.2390 H     1 <1>   0.1500 
 43 H        6.3030     4.2740     2.0850 H     1 <1>   0.0800 
 44 H        4.7900     4.3300     2.9990 H     1 <1>   0.0800 
 45 H        4.9190     8.5800     1.0790 H     1 <1>   0.1500 
 46 H        5.9030     1.8670     1.5990 H     1 <1>   0.0800 
 47 H        4.4220     1.9280     2.5430 H     1 <1>   0.0800 
 48 H        5.9680     2.1480     3.3200 H     1 <1>   0.0800 
@<TRIPOS>BOND
  1   1   2  2   
  2   1   3  2   
  3   1   4  am  
  4   1   5  1   
  5   4   6  1   
  6   4   7  1   
  7   5   8  1   
  8   5  25  1   
  9   5  26  1   
 10   6  27  1   
 11   6  28  1   
 12   6  29  1   
 13   7  30  1   
 14   7  31  1   
 15   7  32  1   
 16   8   9  1   
 17   8  10  1   
 18   8  33  1   
 19   9  11  1   
 20   9  12  1   
 21   9  34  1   
 22  10  13  1   
 23  10  35  1   
 24  10  36  1   
 25  11  14  am  
 26  11  37  1   
 27  12  13  1   
 28  12  38  1   
 29  12  39  1   
 30  14  15  2   
 31  14  16  1   
 32  16  17  ar  
 33  16  18  ar  
 34  17  19  1   
 35  17  20  ar  
 36  18  21  ar  
 37  18  40  1   
 38  19  22  1   
 39  20  23  ar  
 40  20  41  1   
 41  21  23  ar  
 42  21  42  1   
 43  22  24  1   
 44  22  43  1   
 45  22  44  1   
 46  23  45  1   
 47  24  46  1   
 48  24  47  1   
 49  24  48  1   
@<TRIPOS>SUBSTRUCTURE
  1 ****  11 GROUP 4 **** **** 0

# MOE 2024.06 (io_trps.svl 2023.06)
