@<TRIPOS>MOLECULE
NONAME
54 58 1 0 0 
SMALL
USER_CHARGES


@<TRIPOS>ATOM
  1 O        0.0030     0.7550    -2.0330 O.2   1 <1>  -0.5700 
  2 C       -0.4970     1.8250    -1.7250 C.2   1 <1>   0.5440 
  3 N       -1.8520     1.8510    -1.4350 N.am  1 <1>  -0.6600 
  4 C        0.3550     3.0090    -1.6010 C.ar  1 <1>   0.3960 
  5 C       -2.6200     3.0930    -1.1110 C.3   1 <1>   0.1400 
  6 C       -2.6480     0.5890    -1.3440 C.3   1 <1>   0.1400 
  7 N        0.1700     4.0340    -2.4270 N.ar  1 <1>  -0.6200 
  8 C        1.3340     3.0710    -0.6120 C.ar  1 <1>  -0.1430 
  9 C       -3.1080     3.0680     0.3540 C.3   1 <1>   0.1430 
 10 C       -3.8630     0.7430    -0.4080 C.3   1 <1>  -0.1600 
 11 C        0.9380     5.0750    -2.2270 C.ar  1 <1>   0.7200 
 12 C        2.0850     4.2260    -0.5270 C.ar  1 <1>   0.1660 
 13 C        1.5720     1.8950     0.3420 C.3   1 <1>  -0.0160 
 14 C       -4.2250     4.0910     0.4740 C.ar  1 <1>   0.1660 
 15 C       -3.5370     1.6430     0.7970 C.3   1 <1>  -0.1600 
 16 C       -2.0380     3.6540     1.3120 C.3   1 <1>  -0.1600 
 17 N        1.8860     5.2390    -1.3310 N.ar  1 <1>  -0.6200 
 18 N        0.7420     6.1030    -3.0510 N.pl3 1 <1>  -0.9000 
 19 C        3.1800     4.4140     0.5140 C.3   1 <1>  -0.0170 
 20 C        2.3680     2.2900     1.5900 C.3   1 <1>  -0.1600 
 21 N       -5.4610     3.9310     0.0560 N.ar  1 <1>  -0.6200 
 22 C       -3.7880     5.2400     1.0640 C.ar  1 <1>  -0.1430 
 23 C       -2.3280     5.1600     1.4340 C.3   1 <1>  -0.0170 
 24 C        3.6000     3.1070     1.1970 C.3   1 <1>  -0.1600 
 25 C       -6.2500     4.9760     0.2640 C.ar  1 <1>   0.4770 
 26 C       -4.6900     6.2610     1.2280 C.ar  1 <1>   0.1600 
 27 N       -5.9390     6.1360     0.8280 N.ar  1 <1>  -0.6200 
 28 C       -7.6810     4.8340    -0.1930 C.3   1 <1>  -0.0970 
 29 H       -3.4730     3.1340    -1.7660 H     1 <1>   0.0800 
 30 H       -2.0480     3.9820    -1.2910 H     1 <1>   0.0800 
 31 H       -2.0140    -0.1950    -0.9640 H     1 <1>   0.0800 
 32 H       -2.9740     0.3010    -2.3290 H     1 <1>   0.0800 
 33 H       -4.1730    -0.2300    -0.0700 H     1 <1>   0.0800 
 34 H       -4.6860     1.1660    -0.9590 H     1 <1>   0.0800 
 35 H        2.1120     1.1310    -0.1930 H     1 <1>   0.0800 
 36 H        0.6360     1.4670     0.6570 H     1 <1>   0.0800 
 37 H       -4.3870     1.7020     1.4540 H     1 <1>   0.0800 
 38 H       -2.7350     1.1760     1.3400 H     1 <1>   0.0800 
 39 H       -1.0360     3.4650     0.9760 H     1 <1>   0.0800 
 40 H       -2.1580     3.2190     2.2890 H     1 <1>   0.0800 
 41 H        1.5140     6.7620    -3.1040 H     1 <1>   0.4000 
 42 H        0.2820     5.8740    -3.9280 H     1 <1>   0.4000 
 43 H        2.8150     5.1030     1.2560 H     1 <1>   0.0800 
 44 H        4.0400     4.8620     0.0490 H     1 <1>   0.0800 
 45 H        2.6700     1.4020     2.1190 H     1 <1>   0.0800 
 46 H        1.7440     2.8730     2.2470 H     1 <1>   0.0800 
 47 H       -1.7420     5.7200     0.7240 H     1 <1>   0.0800 
 48 H       -2.1440     5.5220     2.4300 H     1 <1>   0.0800 
 49 H        4.1910     3.3300     2.0690 H     1 <1>   0.0800 
 50 H        4.2100     2.5320     0.5210 H     1 <1>   0.0800 
 51 H       -4.3910     7.1870     1.6880 H     1 <1>   0.1500 
 52 H       -7.8040     3.9430    -0.7800 H     1 <1>   0.0800 
 53 H       -7.9550     5.6850    -0.7870 H     1 <1>   0.0800 
 54 H       -8.3240     4.7820     0.6660 H     1 <1>   0.0800 
@<TRIPOS>BOND
  1   1   2  2   
  2   2   3  am  
  3   2   4  1   
  4   3   5  1   
  5   3   6  1   
  6   4   7  ar  
  7   4   8  ar  
  8   5   9  1   
  9   5  29  1   
 10   5  30  1   
 11   6  10  1   
 12   6  31  1   
 13   6  32  1   
 14   7  11  ar  
 15   8  12  ar  
 16   8  13  1   
 17   9  14  1   
 18   9  15  1   
 19   9  16  1   
 20  10  15  1   
 21  10  33  1   
 22  10  34  1   
 23  11  17  ar  
 24  11  18  1   
 25  12  17  ar  
 26  12  19  1   
 27  13  20  1   
 28  13  35  1   
 29  13  36  1   
 30  14  21  ar  
 31  14  22  ar  
 32  15  37  1   
 33  15  38  1   
 34  16  23  1   
 35  16  39  1   
 36  16  40  1   
 37  18  41  1   
 38  18  42  1   
 39  19  24  1   
 40  19  43  1   
 41  19  44  1   
 42  20  24  1   
 43  20  45  1   
 44  20  46  1   
 45  21  25  ar  
 46  22  23  1   
 47  22  26  ar  
 48  23  47  1   
 49  23  48  1   
 50  24  49  1   
 51  24  50  1   
 52  25  27  ar  
 53  25  28  1   
 54  26  27  ar  
 55  26  51  1   
 56  28  52  1   
 57  28  53  1   
 58  28  54  1   
@<TRIPOS>SUBSTRUCTURE
  1 ****   5 GROUP 4 **** **** 0

# MOE 2024.06 (io_trps.svl 2023.06)
