@<TRIPOS>MOLECULE
NONAME
51 54 1 0 0 
SMALL
USER_CHARGES


@<TRIPOS>ATOM
  1 O        3.7520    -0.2110     0.7190 O.2   1 <1>  -0.5700 
  2 C        2.9620    -0.6420    -0.1050 C.2   1 <1>   0.7150 
  3 N        2.7340     0.1530    -1.2030 N.am  1 <1>  -0.6600 
  4 C        2.3950    -1.9590     0.0170 C.2   1 <1>   0.0550 
  5 C        3.3990    -0.1730    -2.5010 C.3   1 <1>   0.1400 
  6 C        2.2590     1.5560    -1.0540 C.3   1 <1>   0.1400 
  7 O        1.6810    -2.4840    -0.9520 O.3   1 <1>  -0.0190 
  8 C        2.4400    -2.8910     0.9960 C.2   1 <1>  -0.1500 
  9 C        4.9200     0.1020    -2.4460 C.3   1 <1>   0.3430 
 10 C        3.3970     2.5340    -0.7160 C.3   1 <1>  -0.1600 
 11 N        1.2650    -3.6830    -0.6860 N.2   1 <1>  -0.4100 
 12 C        1.7050    -3.9530     0.4930 C.2   1 <1>   0.2030 
 13 N        5.2790     1.0890    -1.3740 N.4   1 <1>  -0.9590 
 14 C        4.6510     2.4200    -1.5890 C.3   1 <1>   0.3430 
 15 C        1.4510    -5.2640     1.2170 C.3   1 <1>  -0.0140 
 16 C        6.7560     1.1570    -1.1640 C.3   1 <1>   0.3430 
 17 C        0.0530    -5.6310     1.6150 C.3   1 <1>  -0.2000 
 18 C        1.0600    -5.2800     2.6650 C.3   1 <1>  -0.2000 
 19 C        7.1110     1.6530     0.2410 C.3   1 <1>   0.0200 
 20 C        8.6200     1.7150     0.3790 C.2   1 <1>   0.0060 
 21 N        9.4170     1.5620    -0.6290 N.2   1 <1>  -0.5650 
 22 N        9.2610     1.9360     1.5540 N.pl3 1 <1>   0.0480 
 23 C       10.6440     1.6870    -0.0910 C.2   1 <1>   0.0770 
 24 C       10.5670     1.9150     1.2370 C.2   1 <1>  -0.3020 
 25 C        8.6990     2.1520     2.9000 C.3   1 <1>   0.0160 
 26 H        2.9580     0.4120    -3.2890 H     1 <1>   0.0800 
 27 H        3.2340    -1.2090    -2.7490 H     1 <1>   0.0800 
 28 H        1.5180     1.5940    -0.2710 H     1 <1>   0.0800 
 29 H        1.7720     1.8600    -1.9660 H     1 <1>   0.0800 
 30 H        2.9260    -2.8450     1.9530 H     1 <1>   0.1500 
 31 H        5.2620     0.4480    -3.4080 H     1 <1>   0.0800 
 32 H        5.4200    -0.8310    -2.2420 H     1 <1>   0.0800 
 33 H        3.6700     2.4200     0.3180 H     1 <1>   0.0800 
 34 H        3.0100     3.5320    -0.8170 H     1 <1>   0.0800 
 35 H        4.8450     0.7090    -0.5060 H     1 <1>   0.4500 
 36 H        5.3410     3.2000    -1.3090 H     1 <1>   0.0800 
 37 H        4.3980     2.5540    -2.6280 H     1 <1>   0.0800 
 38 H        2.0800    -6.0570     0.8540 H     1 <1>   0.1000 
 39 H        7.2080     1.8050    -1.8970 H     1 <1>   0.0800 
 40 H        7.1890     0.1770    -1.2860 H     1 <1>   0.0800 
 41 H       -0.2560    -6.6560     1.5060 H     1 <1>   0.1000 
 42 H       -0.7370    -4.9350     1.3920 H     1 <1>   0.1000 
 43 H        0.9410    -4.3480     3.1900 H     1 <1>   0.1000 
 44 H        1.4440    -6.0630     3.2950 H     1 <1>   0.1000 
 45 H        6.7160     0.9720     0.9740 H     1 <1>   0.0800 
 46 H        6.7110     2.6350     0.4080 H     1 <1>   0.0800 
 47 H       11.5340     1.6060    -0.6950 H     1 <1>   0.1500 
 48 H       11.3560     2.0590     1.9520 H     1 <1>   0.1500 
 49 H        7.9720     2.9420     2.8640 H     1 <1>   0.0800 
 50 H        9.4870     2.4280     3.5780 H     1 <1>   0.0800 
 51 H        8.2370     1.2450     3.2440 H     1 <1>   0.0800 
@<TRIPOS>BOND
  1   1   2  2   
  2   2   3  am  
  3   2   4  1   
  4   3   5  1   
  5   3   6  1   
  6   4   7  1   
  7   4   8  2   
  8   5   9  1   
  9   5  26  1   
 10   5  27  1   
 11   6  10  1   
 12   6  28  1   
 13   6  29  1   
 14   7  11  1   
 15   8  12  1   
 16   8  30  1   
 17   9  13  1   
 18   9  31  1   
 19   9  32  1   
 20  10  14  1   
 21  10  33  1   
 22  10  34  1   
 23  11  12  2   
 24  12  15  1   
 25  13  14  1   
 26  13  16  1   
 27  13  35  1   
 28  14  36  1   
 29  14  37  1   
 30  15  17  1   
 31  15  18  1   
 32  15  38  1   
 33  16  19  1   
 34  16  39  1   
 35  16  40  1   
 36  17  18  1   
 37  17  41  1   
 38  17  42  1   
 39  18  43  1   
 40  18  44  1   
 41  19  20  1   
 42  19  45  1   
 43  19  46  1   
 44  20  21  2   
 45  20  22  1   
 46  21  23  1   
 47  22  24  1   
 48  22  25  1   
 49  23  24  2   
 50  23  47  1   
 51  24  48  1   
 52  25  49  1   
 53  25  50  1   
 54  25  51  1   
@<TRIPOS>SUBSTRUCTURE
  1 ****   1 GROUP 4 **** **** 0

# MOE 2024.06 (io_trps.svl 2023.06)
