@<TRIPOS>MOLECULE
NONAME
46 47 1 0 0 
SMALL
USER_CHARGES


@<TRIPOS>ATOM
  1 O        0.3920     0.1030     0.3560 O.2   1 <1>  -0.5700 
  2 C        1.5990     0.0590     0.2730 C.2   1 <1>   0.7150 
  3 N        2.1420    -1.1590     0.5290 N.am  1 <1>  -0.7300 
  4 C        2.3340     1.2390    -0.0780 C.2   1 <1>  -0.2370 
  5 C        3.5150    -1.6250     0.8700 C.3   1 <1>   0.1400 
  6 N        3.6270     1.3010    -0.4750 N.pl3 1 <1>   0.3140 
  7 C        1.8950     2.5240    -0.1130 C.2   1 <1>  -0.1500 
  8 C        4.6340    -0.5840     0.7140 C.3   1 <1>   0.2000 
  9 N        4.0220     2.5480    -0.7490 N.2   1 <1>  -0.7070 
 10 C        4.5740     0.1860    -0.6030 C.3   1 <1>   0.0960 
 11 C        2.9630     3.3120    -0.5300 C.2   1 <1>   0.2030 
 12 O        5.8510    -1.2510     0.7810 O.3   1 <1>  -0.6800 
 13 C        2.9170     4.7570    -0.6950 C.2   1 <1>   0.7160 
 14 O        1.9060     5.4010    -0.4680 O.2   1 <1>  -0.5700 
 15 N        4.0400     5.4140    -1.1150 N.am  1 <1>  -0.7300 
 16 C        4.2040     6.8680    -1.2990 C.3   1 <1>   0.1400 
 17 C        5.3850     7.3450    -0.4540 C.3   1 <1>  -0.1600 
 18 C        5.5920     8.8640    -0.6060 C.3   1 <1>  -0.1600 
 19 C        6.7620     9.4700     0.2050 C.3   1 <1>   0.0000 
 20 C        6.5610     9.2610     1.7130 C.3   1 <1>  -0.2400 
 21 C        6.8070    10.9800    -0.0720 C.3   1 <1>  -0.2400 
 22 C        8.1080     8.8610    -0.2150 C.3   1 <1>  -0.2400 
 23 H        1.4120    -1.8510     0.7200 H     1 <1>   0.3700 
 24 H        3.7350    -2.4670     0.2370 H     1 <1>   0.0800 
 25 H        3.5130    -1.9680     1.8900 H     1 <1>   0.0800 
 26 H        0.9110     2.8900     0.1280 H     1 <1>   0.1500 
 27 H        4.6180     0.1050     1.5430 H     1 <1>   0.0800 
 28 H        5.5400     0.6010    -0.8270 H     1 <1>   0.0800 
 29 H        4.2580    -0.4460    -1.4120 H     1 <1>   0.0800 
 30 H        5.9730    -1.8680     0.0330 H     1 <1>   0.4000 
 31 H        4.8550     4.8190    -1.2830 H     1 <1>   0.3700 
 32 H        3.3050     7.3810    -0.9980 H     1 <1>   0.0800 
 33 H        4.3830     7.0740    -2.3400 H     1 <1>   0.0800 
 34 H        6.2690     6.8210    -0.7680 H     1 <1>   0.0800 
 35 H        5.1840     7.1040     0.5750 H     1 <1>   0.0800 
 36 H        4.6810     9.3590    -0.3150 H     1 <1>   0.0800 
 37 H        5.7500     9.0820    -1.6490 H     1 <1>   0.0800 
 38 H        5.6050     9.6420     2.0240 H     1 <1>   0.0800 
 39 H        7.3260     9.7740     2.2690 H     1 <1>   0.0800 
 40 H        6.6130     8.2180     1.9700 H     1 <1>   0.0800 
 41 H        5.8840    11.4470     0.2240 H     1 <1>   0.0800 
 42 H        6.9610    11.1690    -1.1190 H     1 <1>   0.0800 
 43 H        7.6080    11.4430     0.4760 H     1 <1>   0.0800 
 44 H        8.1590     7.8190     0.0430 H     1 <1>   0.0800 
 45 H        8.9180     9.3630     0.2840 H     1 <1>   0.0800 
 46 H        8.2520     8.9590    -1.2760 H     1 <1>   0.0800 
@<TRIPOS>BOND
  1   1   2  2   
  2   2   3  am  
  3   2   4  1   
  4   3   5  1   
  5   3  23  1   
  6   4   6  1   
  7   4   7  2   
  8   5   8  1   
  9   5  24  1   
 10   5  25  1   
 11   6   9  1   
 12   6  10  1   
 13   7  11  1   
 14   7  26  1   
 15   8  10  1   
 16   8  12  1   
 17   8  27  1   
 18   9  11  2   
 19  10  28  1   
 20  10  29  1   
 21  11  13  1   
 22  12  30  1   
 23  13  14  2   
 24  13  15  am  
 25  15  16  1   
 26  15  31  1   
 27  16  17  1   
 28  16  32  1   
 29  16  33  1   
 30  17  18  1   
 31  17  34  1   
 32  17  35  1   
 33  18  19  1   
 34  18  36  1   
 35  18  37  1   
 36  19  20  1   
 37  19  21  1   
 38  19  22  1   
 39  20  38  1   
 40  20  39  1   
 41  20  40  1   
 42  21  41  1   
 43  21  42  1   
 44  21  43  1   
 45  22  44  1   
 46  22  45  1   
 47  22  46  1   
@<TRIPOS>SUBSTRUCTURE
  1 ****  11 GROUP 4 **** **** 0

# MOE 2024.06 (io_trps.svl 2023.06)
