@<TRIPOS>MOLECULE
NONAME
55 58 1 0 0 
SMALL
USER_CHARGES


@<TRIPOS>ATOM
  1 O       -1.2750     1.2100     0.9850 O.2   1 <1>  -0.5700 
  2 C       -0.9690     2.1550     0.2720 C.2   1 <1>   0.6160 
  3 N        0.0840     2.9910     0.5980 N.am  1 <1>  -0.4770 
  4 C       -1.7330     2.4290    -0.9010 C.2   1 <1>  -0.1240 
  5 C        0.3680     4.1350    -0.1800 C.ar  1 <1>   0.1170 
  6 C        0.9490     2.6570     1.7720 C.3   1 <1>   0.0600 
  7 C       -1.4600     3.5020    -1.6800 C.2   1 <1>  -0.1780 
  8 C       -2.8460     1.4540    -1.2140 C.3   1 <1>   0.4810 
  9 C       -0.4010     4.3950    -1.3320 C.ar  1 <1>   0.0280 
 10 C        1.3880     5.0350     0.1480 C.ar  1 <1>  -0.1500 
 11 N       -4.1280     1.9640    -0.6560 N.4   1 <1>  -0.9590 
 12 C       -0.1210     5.5200    -2.1100 C.ar  1 <1>  -0.1500 
 13 C        1.6480     6.1420    -0.6300 C.ar  1 <1>  -0.1500 
 14 C       -4.1620     1.9510     0.8380 C.3   1 <1>   0.3430 
 15 C       -5.3310     1.3260    -1.2380 C.3   1 <1>   0.3430 
 16 C        0.8910     6.3860    -1.7650 C.ar  1 <1>  -0.1500 
 17 C       -5.5210     2.4360     1.3630 C.3   1 <1>  -0.1600 
 18 C       -6.5780     2.1440    -0.8720 C.3   1 <1>  -0.1600 
 19 C       -6.3690     3.1410     0.2890 C.3   1 <1>   0.2800 
 20 O       -5.6160     4.2080    -0.2490 O.3   1 <1>  -0.5600 
 21 C       -7.7230     3.6510     0.8460 C.3   1 <1>  -0.1600 
 22 C       -5.6160     5.4170     0.4640 C.3   1 <1>   0.1200 
 23 C       -8.1360     5.0020     0.2580 C.3   1 <1>   0.2800 
 24 C       -7.0260     6.0310     0.4990 C.3   1 <1>  -0.1600 
 25 O       -8.2590     4.8520    -1.0980 O.3   1 <1>  -0.6800 
 26 C       -9.4920     5.4760     0.7710 C.3   1 <1>  -0.2400 
 27 H        0.6830     1.7080     2.2040 H     1 <1>   0.0800 
 28 H        0.8430     3.4170     2.5260 H     1 <1>   0.0800 
 29 H        1.9770     2.6030     1.4600 H     1 <1>   0.0800 
 30 H       -2.0160     3.7280    -2.5730 H     1 <1>   0.1500 
 31 H       -2.6170     0.4820    -0.8060 H     1 <1>   0.0800 
 32 H       -2.9310     1.3610    -2.2840 H     1 <1>   0.0800 
 33 H        1.9940     4.8810     1.0210 H     1 <1>   0.1500 
 34 H       -4.2170     2.9700    -0.8970 H     1 <1>   0.4500 
 35 H       -0.7040     5.7160    -2.9920 H     1 <1>   0.1500 
 36 H        2.4380     6.8230    -0.3610 H     1 <1>   0.1500 
 37 H       -3.3930     2.6070     1.2130 H     1 <1>   0.0800 
 38 H       -3.9570     0.9600     1.2090 H     1 <1>   0.0800 
 39 H       -5.4280     0.3240    -0.8500 H     1 <1>   0.0800 
 40 H       -5.2460     1.2690    -2.3110 H     1 <1>   0.0800 
 41 H        1.1010     7.2520    -2.3710 H     1 <1>   0.1500 
 42 H       -5.3630     3.0780     2.2110 H     1 <1>   0.0800 
 43 H       -6.0650     1.5830     1.7290 H     1 <1>   0.0800 
 44 H       -7.3500     1.4420    -0.6120 H     1 <1>   0.0800 
 45 H       -6.9270     2.6670    -1.7430 H     1 <1>   0.0800 
 46 H       -7.6440     3.7700     1.9120 H     1 <1>   0.0800 
 47 H       -8.5040     2.9300     0.6860 H     1 <1>   0.0800 
 48 H       -4.9300     6.0900    -0.0200 H     1 <1>   0.0800 
 49 H       -5.2610     5.2270     1.4620 H     1 <1>   0.0800 
 50 H       -7.1030     6.8310    -0.2160 H     1 <1>   0.0800 
 51 H       -7.1560     6.4760     1.4690 H     1 <1>   0.0800 
 52 H       -7.3560     4.7720    -1.4620 H     1 <1>   0.4000 
 53 H       -9.4660     5.6050     1.8380 H     1 <1>   0.0800 
 54 H      -10.2540     4.7560     0.5340 H     1 <1>   0.0800 
 55 H       -9.7510     6.4180     0.3220 H     1 <1>   0.0800 
@<TRIPOS>BOND
  1   1   2  2   
  2   2   3  am  
  3   2   4  1   
  4   3   5  1   
  5   3   6  1   
  6   4   7  2   
  7   4   8  1   
  8   5   9  ar  
  9   5  10  ar  
 10   6  27  1   
 11   6  28  1   
 12   6  29  1   
 13   7   9  1   
 14   7  30  1   
 15   8  11  1   
 16   8  31  1   
 17   8  32  1   
 18   9  12  ar  
 19  10  13  ar  
 20  10  33  1   
 21  11  14  1   
 22  11  15  1   
 23  11  34  1   
 24  12  16  ar  
 25  12  35  1   
 26  13  16  ar  
 27  13  36  1   
 28  14  17  1   
 29  14  37  1   
 30  14  38  1   
 31  15  18  1   
 32  15  39  1   
 33  15  40  1   
 34  16  41  1   
 35  17  19  1   
 36  17  42  1   
 37  17  43  1   
 38  18  19  1   
 39  18  44  1   
 40  18  45  1   
 41  19  20  1   
 42  19  21  1   
 43  20  22  1   
 44  21  23  1   
 45  21  46  1   
 46  21  47  1   
 47  22  24  1   
 48  22  48  1   
 49  22  49  1   
 50  23  24  1   
 51  23  25  1   
 52  23  26  1   
 53  24  50  1   
 54  24  51  1   
 55  25  52  1   
 56  26  53  1   
 57  26  54  1   
 58  26  55  1   
@<TRIPOS>SUBSTRUCTURE
  1 ****  11 GROUP 4 **** **** 0

# MOE 2024.06 (io_trps.svl 2023.06)
