@<TRIPOS>MOLECULE
NONAME
55 58 1 0 0 
SMALL
USER_CHARGES


@<TRIPOS>ATOM
  1 O       -0.7570     0.2670    -1.6210 O.2   1 <1>  -0.5700 
  2 C       -1.7190     0.9010    -1.2240 C.2   1 <1>   0.7160 
  3 N       -2.9550     0.2900    -1.1930 N.am  1 <1>  -0.6600 
  4 C       -1.5520     2.2730    -0.7830 C.2   1 <1>  -0.0860 
  5 C       -4.1130     0.8210    -0.4130 C.3   1 <1>   0.1400 
  6 C       -3.1910    -1.0760    -1.7500 C.3   1 <1>   0.1400 
  7 C       -2.1310     3.4170    -1.2800 C.2   1 <1>  -0.3320 
  8 C       -0.7410     2.7050     0.2810 C.2   1 <1>  -0.1810 
  9 C       -4.5670    -0.1930     0.6540 C.3   1 <1>   0.1900 
 10 C       -3.6830    -2.0380    -0.6560 C.3   1 <1>   0.1100 
 11 N       -1.7120     4.4820    -0.5750 N.pl3 1 <1>   0.0330 
 12 C       -3.0850     3.5460    -2.4560 C.3   1 <1>  -0.0600 
 13 C       -0.8460     4.0710     0.4050 C.2   1 <1>  -0.2370 
 14 C        0.0990     1.7420     1.1070 C.3   1 <1>  -0.0590 
 15 N       -4.8790    -1.5060     0.0360 N.3   1 <1>  -0.8100 
 16 C       -5.7880     0.3490     1.4240 C.3   1 <1>   0.1200 
 17 C       -0.2260     4.9940     1.3190 C.2   1 <1>   0.5940 
 18 C       -5.3810    -2.4440     1.0690 C.3   1 <1>   0.3330 
 19 O       -6.2100    -0.5710     2.3890 O.3   1 <1>  -0.5600 
 20 O        0.5000     4.6760     2.2250 O.2   1 <1>  -0.5700 
 21 C       -0.4900     6.4770     1.1570 C.3   1 <1>  -0.1790 
 22 C       -5.8330    -3.7620     0.4430 C.ar  1 <1>  -0.1440 
 23 C       -6.5570    -1.8180     1.8480 C.3   1 <1>   0.1200 
 24 C       -5.4290    -4.9700     0.9950 C.ar  1 <1>  -0.1500 
 25 C       -6.6530    -3.7740    -0.6770 C.ar  1 <1>  -0.1500 
 26 C       -5.8390    -6.1690     0.4370 C.ar  1 <1>  -0.1500 
 27 C       -7.0640    -4.9720    -1.2360 C.ar  1 <1>  -0.1500 
 28 C       -6.6570    -6.1700    -0.6780 C.ar  1 <1>  -0.1500 
 29 H       -3.8530     1.7440     0.0740 H     1 <1>   0.0800 
 30 H       -4.9280     1.0170    -1.0870 H     1 <1>   0.0800 
 31 H       -3.9350    -1.0160    -2.5230 H     1 <1>   0.0800 
 32 H       -2.2920    -1.4700    -2.1900 H     1 <1>   0.0800 
 33 H       -3.7610    -0.3110     1.3600 H     1 <1>   0.0800 
 34 H       -2.8870    -2.2020     0.0510 H     1 <1>   0.0800 
 35 H       -3.9170    -2.9820    -1.1180 H     1 <1>   0.0800 
 36 H       -1.9840     5.4550    -0.7520 H     1 <1>   0.2700 
 37 H       -3.2470     2.5890    -2.9200 H     1 <1>   0.0800 
 38 H       -2.6730     4.2110    -3.1940 H     1 <1>   0.0800 
 39 H       -4.0330     3.9320    -2.1270 H     1 <1>   0.0800 
 40 H       -0.5240     0.9630     1.5060 H     1 <1>   0.0800 
 41 H        0.5870     2.2370     1.9250 H     1 <1>   0.0800 
 42 H        0.8520     1.2950     0.4830 H     1 <1>   0.0800 
 43 H       -6.6060     0.5420     0.7520 H     1 <1>   0.0800 
 44 H       -5.5330     1.2610     1.9350 H     1 <1>   0.0800 
 45 H       -4.5900    -2.6440     1.7720 H     1 <1>   0.0800 
 46 H       -0.1820     6.7990     0.1800 H     1 <1>   0.0800 
 47 H        0.0710     7.0270     1.8910 H     1 <1>   0.0800 
 48 H       -1.5340     6.6810     1.3000 H     1 <1>   0.0800 
 49 H       -6.8420    -2.4620     2.6610 H     1 <1>   0.0800 
 50 H       -7.4060    -1.6870     1.2000 H     1 <1>   0.0800 
 51 H       -4.7940    -4.9850     1.8630 H     1 <1>   0.1500 
 52 H       -6.9660    -2.8430    -1.1180 H     1 <1>   0.1500 
 53 H       -5.5220    -7.1010     0.8720 H     1 <1>   0.1500 
 54 H       -7.6990    -4.9700    -2.1050 H     1 <1>   0.1500 
 55 H       -6.9760    -7.1020    -1.1120 H     1 <1>   0.1500 
@<TRIPOS>BOND
  1   1   2  2   
  2   2   3  am  
  3   2   4  1   
  4   3   5  1   
  5   3   6  1   
  6   4   7  2   
  7   4   8  1   
  8   5   9  1   
  9   5  29  1   
 10   5  30  1   
 11   6  10  1   
 12   6  31  1   
 13   6  32  1   
 14   7  11  1   
 15   7  12  1   
 16   8  13  2   
 17   8  14  1   
 18   9  15  1   
 19   9  16  1   
 20   9  33  1   
 21  10  15  1   
 22  10  34  1   
 23  10  35  1   
 24  11  13  1   
 25  11  36  1   
 26  12  37  1   
 27  12  38  1   
 28  12  39  1   
 29  13  17  1   
 30  14  40  1   
 31  14  41  1   
 32  14  42  1   
 33  15  18  1   
 34  16  19  1   
 35  16  43  1   
 36  16  44  1   
 37  17  20  2   
 38  17  21  1   
 39  18  22  1   
 40  18  23  1   
 41  18  45  1   
 42  19  23  1   
 43  21  46  1   
 44  21  47  1   
 45  21  48  1   
 46  22  24  ar  
 47  22  25  ar  
 48  23  49  1   
 49  23  50  1   
 50  24  26  ar  
 51  24  51  1   
 52  25  27  ar  
 53  25  52  1   
 54  26  28  ar  
 55  26  53  1   
 56  27  28  ar  
 57  27  54  1   
 58  28  55  1   
@<TRIPOS>SUBSTRUCTURE
  1 ****   5 GROUP 4 **** **** 0

# MOE 2024.06 (io_trps.svl 2023.06)
