@<TRIPOS>MOLECULE
NONAME
36 37 1 0 0 
SMALL
USER_CHARGES


@<TRIPOS>ATOM
  1 S       -0.2770    -0.0200    -1.8650 S.o2  1 <1>   1.5000 
  2 O       -0.7210     1.1290    -2.6260 O.2   1 <1>  -0.6500 
  3 O        0.0270    -1.2380    -2.5870 O.2   1 <1>  -0.6500 
  4 N       -1.5120    -0.3990    -0.7670 N.am  1 <1>  -0.8490 
  5 C        1.1340     0.4370    -0.8240 C.2   1 <1>  -0.0220 
  6 C       -1.1920    -1.5950     0.0350 C.3   1 <1>   0.1960 
  7 C       -2.7960    -0.5550    -1.4550 C.3   1 <1>   0.1960 
  8 S        1.3750     2.1410    -0.4430 S.3   1 <1>  -0.0800 
  9 C        2.0930    -0.2910    -0.2120 C.2   1 <1>  -0.1500 
 10 C       -2.2610    -1.8480     1.0980 C.3   1 <1>  -0.1860 
 11 C       -3.9260    -0.7690    -0.4470 C.3   1 <1>  -0.1600 
 12 C        2.7940     1.7960     0.5320 C.2   1 <1>  -0.1400 
 13 C        3.0320     0.4730     0.5510 C.2   1 <1>  -0.1500 
 14 C       -1.9330    -3.0940     1.8890 C.2   1 <1>   0.9060 
 15 C       -3.6250    -1.9800     0.4280 C.3   1 <1>   0.2000 
 16 C        3.5070     2.9650     1.1850 C.3   1 <1>   0.0200 
 17 O       -0.8440    -3.6510     1.7220 O.co2 1 <1>  -0.9000 
 18 O       -2.7820    -3.5260     2.6800 O.co2 1 <1>  -0.9000 
 19 O       -4.5920    -2.0690     1.4040 O.3   1 <1>  -0.6800 
 20 C        4.2050     3.8400     0.1400 C.3   1 <1>  -0.2400 
 21 H       -1.1050    -2.4610    -0.6030 H     1 <1>   0.0800 
 22 H       -0.2490    -1.4620     0.5370 H     1 <1>   0.0800 
 23 H       -3.0110     0.3320    -2.0270 H     1 <1>   0.0800 
 24 H       -2.7460    -1.3910    -2.1340 H     1 <1>   0.0800 
 25 H        2.1750    -1.3640    -0.2670 H     1 <1>   0.1500 
 26 H       -2.2660    -1.0190     1.7790 H     1 <1>   0.0800 
 27 H       -4.8510    -0.9260    -0.9700 H     1 <1>   0.0800 
 28 H       -4.0180     0.1100     0.1660 H     1 <1>   0.0800 
 29 H        3.8360    -0.0130     1.0770 H     1 <1>   0.1500 
 30 H       -3.6610    -2.8880    -0.1520 H     1 <1>   0.0800 
 31 H        2.7950     3.5520     1.7380 H     1 <1>   0.0800 
 32 H        4.2390     2.5890     1.8780 H     1 <1>   0.0800 
 33 H       -4.2100    -2.6820     2.1000 H     1 <1>   0.4000 
 34 H        3.4840     4.2600    -0.5380 H     1 <1>   0.0800 
 35 H        4.9070     3.2520    -0.4240 H     1 <1>   0.0800 
 36 H        4.7310     4.6430     0.6230 H     1 <1>   0.0800 
@<TRIPOS>BOND
  1   1   2  2   
  2   1   3  2   
  3   1   4  am  
  4   1   5  1   
  5   4   6  1   
  6   4   7  1   
  7   5   8  1   
  8   5   9  2   
  9   6  10  1   
 10   6  21  1   
 11   6  22  1   
 12   7  11  1   
 13   7  23  1   
 14   7  24  1   
 15   8  12  1   
 16   9  13  1   
 17   9  25  1   
 18  10  14  1   
 19  10  15  1   
 20  10  26  1   
 21  11  15  1   
 22  11  27  1   
 23  11  28  1   
 24  12  13  2   
 25  12  16  1   
 26  13  29  1   
 27  14  17  ar  
 28  14  18  ar  
 29  15  19  1   
 30  15  30  1   
 31  16  20  1   
 32  16  31  1   
 33  16  32  1   
 34  19  33  1   
 35  20  34  1   
 36  20  35  1   
 37  20  36  1   
@<TRIPOS>SUBSTRUCTURE
  1 ****   4 GROUP 4 **** **** 0

# MOE 2024.06 (io_trps.svl 2023.06)
