@<TRIPOS>MOLECULE
NONAME
50 52 1 0 0 
SMALL
USER_CHARGES


@<TRIPOS>ATOM
  1 S        0.0000     0.2740     0.0120 S.o2  1 <1>   1.3330 
  2 O       -0.1940    -0.3540     1.3000 O.2   1 <1>  -0.6500 
  3 O       -0.5620     1.5820    -0.2350 O.2   1 <1>  -0.6500 
  4 N       -0.5670    -0.7910    -1.1810 N.am  1 <1>  -0.8490 
  5 C        1.7550     0.3670    -0.3480 C.3   1 <1>  -0.0550 
  6 C       -0.4430    -2.2050    -0.8090 C.3   1 <1>   0.1160 
  7 C       -1.9480    -0.4990    -1.5790 C.3   1 <1>   0.1160 
  8 C        2.5110     1.3660     0.5510 C.3   1 <1>  -0.0800 
  9 C        3.9390     1.5700     0.0690 C.3   1 <1>   0.2200 
 10 C        2.7060     0.8290     1.9780 C.3   1 <1>   0.1200 
 11 N        4.4000     2.9100     0.4930 N.am  1 <1>  -0.7300 
 12 C        4.6870     0.5090     0.8620 C.3   1 <1>   0.1200 
 13 O        4.0510     0.4660     2.1000 O.3   1 <1>  -0.5600 
 14 C        4.7670     3.9270    -0.3340 C.2   1 <1>   0.7160 
 15 O        4.7500     3.7390    -1.5320 O.2   1 <1>  -0.5700 
 16 C        5.1670     5.1840     0.2300 C.2   1 <1>  -0.0860 
 17 C        6.2720     5.9570    -0.1190 C.2   1 <1>   0.2350 
 18 C        4.5970     5.9290     1.1990 C.2   1 <1>  -0.0400 
 19 N        6.2860     7.0240     0.6110 N.2   1 <1>  -0.4100 
 20 C        7.2760     5.6570    -1.1200 C.ar  1 <1>   0.0540 
 21 O        5.2680     7.0270     1.4360 O.3   1 <1>  -0.0190 
 22 C        3.3290     5.6970     2.0010 C.3   1 <1>  -0.0600 
 23 C        7.7280     6.6530    -1.9850 C.ar  1 <1>  -0.1500 
 24 C        7.8390     4.3870    -1.2530 C.ar  1 <1>  -0.1500 
 25 C        8.6890     6.3950    -2.9460 C.ar  1 <1>  -0.1500 
 26 C        8.7990     4.1210    -2.2130 C.ar  1 <1>  -0.1500 
 27 C        9.2260     5.1260    -3.0620 C.ar  1 <1>  -0.1500 
 28 H        2.1920    -0.6080    -0.2560 H     1 <1>   0.0800 
 29 H        1.8630     0.6790    -1.3690 H     1 <1>   0.0800 
 30 H       -0.7290    -2.8320    -1.6360 H     1 <1>   0.0800 
 31 H       -1.0760    -2.4290     0.0350 H     1 <1>   0.0800 
 32 H        0.5750    -2.4320    -0.5450 H     1 <1>   0.0800 
 33 H       -2.2680    -1.1820    -2.3480 H     1 <1>   0.0800 
 34 H       -2.0160     0.5020    -1.9710 H     1 <1>   0.0800 
 35 H       -2.6080    -0.5840    -0.7310 H     1 <1>   0.0800 
 36 H        1.9700     2.2970     0.5570 H     1 <1>   0.0800 
 37 H        4.0570     1.4430    -0.9950 H     1 <1>   0.0800 
 38 H        2.1040    -0.0370     2.1930 H     1 <1>   0.0800 
 39 H        2.5050     1.5910     2.7110 H     1 <1>   0.0800 
 40 H        4.5220     3.0150     1.5020 H     1 <1>   0.3700 
 41 H        5.7280     0.7420     0.9950 H     1 <1>   0.0800 
 42 H        4.5840    -0.4590     0.4040 H     1 <1>   0.0800 
 43 H        2.8070     4.8220     1.6600 H     1 <1>   0.0800 
 44 H        2.6760     6.5440     1.8940 H     1 <1>   0.0800 
 45 H        3.5720     5.5780     3.0420 H     1 <1>   0.0800 
 46 H        7.3160     7.6430    -1.8970 H     1 <1>   0.1500 
 47 H        7.5240     3.5960    -0.5980 H     1 <1>   0.1500 
 48 H        9.0180     7.1820    -3.6020 H     1 <1>   0.1500 
 49 H        9.2150     3.1330    -2.3000 H     1 <1>   0.1500 
 50 H        9.9720     4.9210    -3.8100 H     1 <1>   0.1500 
@<TRIPOS>BOND
  1   1   2  2   
  2   1   3  2   
  3   1   4  am  
  4   1   5  1   
  5   4   6  1   
  6   4   7  1   
  7   5   8  1   
  8   5  28  1   
  9   5  29  1   
 10   6  30  1   
 11   6  31  1   
 12   6  32  1   
 13   7  33  1   
 14   7  34  1   
 15   7  35  1   
 16   8   9  1   
 17   8  10  1   
 18   8  36  1   
 19   9  11  1   
 20   9  12  1   
 21   9  37  1   
 22  10  13  1   
 23  10  38  1   
 24  10  39  1   
 25  11  14  am  
 26  11  40  1   
 27  12  13  1   
 28  12  41  1   
 29  12  42  1   
 30  14  15  2   
 31  14  16  1   
 32  16  17  1   
 33  16  18  2   
 34  17  19  2   
 35  17  20  1   
 36  18  21  1   
 37  18  22  1   
 38  19  21  1   
 39  20  23  ar  
 40  20  24  ar  
 41  22  43  1   
 42  22  44  1   
 43  22  45  1   
 44  23  25  ar  
 45  23  46  1   
 46  24  26  ar  
 47  24  47  1   
 48  25  27  ar  
 49  25  48  1   
 50  26  27  ar  
 51  26  49  1   
 52  27  50  1   
@<TRIPOS>SUBSTRUCTURE
  1 ****  11 GROUP 4 **** **** 0

# MOE 2024.06 (io_trps.svl 2023.06)
