@<TRIPOS>MOLECULE
NONAME
51 54 1 0 0 
SMALL
USER_CHARGES


@<TRIPOS>ATOM
  1 S        0.6390     0.3450    -2.2160 S.3   1 <1>  -0.0800 
  2 C        0.3540     1.7740    -1.2450 C.2   1 <1>  -0.1400 
  3 C        2.3370     0.7690    -2.3760 C.2   1 <1>  -0.1100 
  4 C        1.4730     2.4860    -1.0630 C.2   1 <1>  -0.1810 
  5 C       -1.0020     2.1310    -0.7010 C.3   1 <1>   0.0200 
  6 C        2.6140     1.9130    -1.7190 C.2   1 <1>  -0.1500 
  7 C        1.4670     3.7700    -0.2300 C.3   1 <1>   0.4610 
  8 C       -0.9580     3.6180    -0.3120 C.3   1 <1>   0.1200 
  9 O        0.2110     3.9200     0.4130 O.3   1 <1>  -0.5600 
 10 C        1.7310     4.9950    -1.1150 C.3   1 <1>  -0.1600 
 11 C        2.5070     3.6810     0.8890 C.3   1 <1>  -0.1600 
 12 C        1.7960     6.2770    -0.2890 C.3   1 <1>   0.2090 
 13 C        2.5980     4.9820     1.6850 C.3   1 <1>   0.2090 
 14 N        2.8360     6.1250     0.7590 N.pl3 1 <1>  -0.8380 
 15 C        4.1200     6.5830     0.5160 C.ar  1 <1>   0.4100 
 16 N        5.1130     5.7090     0.6230 N.ar  1 <1>  -0.6200 
 17 C        4.3220     7.9120     0.1660 C.ar  1 <1>  -0.1500 
 18 C        6.3220     6.1690     0.3600 C.ar  1 <1>   0.1600 
 19 C        5.5840     8.4030    -0.1090 C.ar  1 <1>   0.0860 
 20 C        6.6070     7.4680    -0.0040 C.ar  1 <1>  -0.1500 
 21 C        5.8060     9.7860    -0.4810 C.2   1 <1>   0.5440 
 22 O        4.9450    10.4120    -1.0660 O.2   1 <1>  -0.5700 
 23 N        6.9840    10.4070    -0.1720 N.am  1 <1>  -0.7300 
 24 C        7.3300    11.7940    -0.5020 C.3   1 <1>   0.2200 
 25 C        8.6690    11.7890    -1.2320 C.3   1 <1>  -0.2400 
 26 C        7.4090    12.5870     0.7970 C.3   1 <1>  -0.2400 
 27 H        2.9580     0.1090    -2.9540 H     1 <1>   0.1500 
 28 H       -1.2240     1.5260     0.1590 H     1 <1>   0.0800 
 29 H       -1.7610     1.9710    -1.4460 H     1 <1>   0.0800 
 30 H        3.5810     2.3820    -1.6660 H     1 <1>   0.1500 
 31 H       -1.8010     3.8650     0.3070 H     1 <1>   0.0800 
 32 H       -0.9830     4.2360    -1.1920 H     1 <1>   0.0800 
 33 H        0.9760     5.0780    -1.8720 H     1 <1>   0.0800 
 34 H        2.6730     4.8700    -1.6160 H     1 <1>   0.0800 
 35 H        3.4750     3.4770     0.4710 H     1 <1>   0.0800 
 36 H        2.2580     2.8660     1.5430 H     1 <1>   0.0800 
 37 H        0.8450     6.4670     0.1810 H     1 <1>   0.0800 
 38 H        2.0260     7.1080    -0.9320 H     1 <1>   0.0800 
 39 H        3.3950     4.9190     2.4060 H     1 <1>   0.0800 
 40 H        1.6780     5.1500     2.2200 H     1 <1>   0.0800 
 41 H        3.4760     8.5700     0.1140 H     1 <1>   0.1500 
 42 H        7.1310     5.4620     0.4380 H     1 <1>   0.1500 
 43 H        7.6210     7.7520    -0.2130 H     1 <1>   0.1500 
 44 H        7.6540     9.9370     0.4330 H     1 <1>   0.3700 
 45 H        6.5740    12.2230    -1.1410 H     1 <1>   0.0800 
 46 H        9.4420    11.3710    -0.6130 H     1 <1>   0.0800 
 47 H        8.9440    12.7940    -1.4930 H     1 <1>   0.0800 
 48 H        8.5860    11.2170    -2.1390 H     1 <1>   0.0800 
 49 H        8.1600    12.1820     1.4510 H     1 <1>   0.0800 
 50 H        6.4550    12.5680     1.2930 H     1 <1>   0.0800 
 51 H        7.6550    13.6120     0.5840 H     1 <1>   0.0800 
@<TRIPOS>BOND
  1   1   2  1   
  2   1   3  1   
  3   2   4  2   
  4   2   5  1   
  5   3   6  2   
  6   3  27  1   
  7   4   6  1   
  8   4   7  1   
  9   5   8  1   
 10   5  28  1   
 11   5  29  1   
 12   6  30  1   
 13   7   9  1   
 14   7  10  1   
 15   7  11  1   
 16   8   9  1   
 17   8  31  1   
 18   8  32  1   
 19  10  12  1   
 20  10  33  1   
 21  10  34  1   
 22  11  13  1   
 23  11  35  1   
 24  11  36  1   
 25  12  14  1   
 26  12  37  1   
 27  12  38  1   
 28  13  14  1   
 29  13  39  1   
 30  13  40  1   
 31  14  15  1   
 32  15  16  ar  
 33  15  17  ar  
 34  16  18  ar  
 35  17  19  ar  
 36  17  41  1   
 37  18  20  ar  
 38  18  42  1   
 39  19  20  ar  
 40  19  21  1   
 41  20  43  1   
 42  21  22  2   
 43  21  23  am  
 44  23  24  1   
 45  23  44  1   
 46  24  25  1   
 47  24  26  1   
 48  24  45  1   
 49  25  46  1   
 50  25  47  1   
 51  25  48  1   
 52  26  49  1   
 53  26  50  1   
 54  26  51  1   
@<TRIPOS>SUBSTRUCTURE
  1 ****  15 GROUP 4 **** **** 0

# MOE 2024.06 (io_trps.svl 2023.06)
