@<TRIPOS>MOLECULE
NONAME
41 43 1 0 0 
SMALL
USER_CHARGES


@<TRIPOS>ATOM
  1 O        0.5310     0.0090    -0.2130 O.2   1 <1>  -0.5700 
  2 C        1.4890    -0.6880    -0.4870 C.2   1 <1>   0.5440 
  3 N        2.6680    -0.0790    -0.8300 N.am  1 <1>  -0.5100 
  4 C        1.3860    -2.1320    -0.4220 C.ar  1 <1>   0.0860 
  5 C        3.9510    -0.2570    -0.0650 C.3   1 <1>   0.2250 
  6 C        2.9030     1.4100    -0.8500 C.3   1 <1>   0.2250 
  7 C        2.2580    -2.9630    -1.1240 C.ar  1 <1>   0.1600 
  8 C        0.4100    -2.7620     0.3430 C.ar  1 <1>  -0.1500 
  9 C        3.8640     1.2290     0.3470 C.3   1 <1>   0.2580 
 10 N        2.2550    -4.2840    -1.1120 N.ar  1 <1>  -0.6200 
 11 C        0.3820    -4.1380     0.3670 C.ar  1 <1>  -0.1500 
 12 O        5.1010     1.8880     0.1580 O.3   1 <1>  -0.3400 
 13 C        1.3210    -4.8580    -0.3700 C.ar  1 <1>   0.3930 
 14 C        5.2100     3.2310     0.3140 C.ar  1 <1>   0.0830 
 15 O        1.3500    -6.2030    -0.3860 O.3   1 <1>  -0.3630 
 16 C        6.4250     3.8020    -0.0290 C.ar  1 <1>  -0.1500 
 17 C        4.1830     4.0430     0.7910 C.ar  1 <1>  -0.1500 
 18 C        0.4220    -7.0090     0.3060 C.3   1 <1>   0.0400 
 19 C        6.6280     5.1650     0.0920 C.ar  1 <1>   0.0830 
 20 C        4.3810     5.4080     0.9130 C.ar  1 <1>  -0.1500 
 21 O        7.8490     5.6360    -0.2690 O.3   1 <1>  -0.3630 
 22 C        5.5960     5.9720     0.5660 C.ar  1 <1>  -0.1500 
 23 C        8.1630     7.0070    -0.1750 C.3   1 <1>   0.0400 
 24 H        4.7660    -0.4870    -0.7300 H     1 <1>   0.0000 
 25 H        3.8350    -0.9430     0.7550 H     1 <1>   0.0000 
 26 H        2.0200     1.9750    -0.6130 H     1 <1>   0.0000 
 27 H        3.3890     1.7100    -1.7620 H     1 <1>   0.0000 
 28 H        3.0100    -2.5020    -1.7410 H     1 <1>   0.1500 
 29 H       -0.3040    -2.1780     0.9000 H     1 <1>   0.1500 
 30 H        3.4480     1.3970     1.3250 H     1 <1>   0.0000 
 31 H       -0.3650    -4.6360     0.9530 H     1 <1>   0.1500 
 32 H        7.2210     3.1810    -0.3940 H     1 <1>   0.1500 
 33 H        3.2300     3.6380     1.0730 H     1 <1>   0.1500 
 34 H        0.6650    -8.0380     0.1110 H     1 <1>   0.0800 
 35 H       -0.5680    -6.7940    -0.0560 H     1 <1>   0.0800 
 36 H        0.5010    -6.8090     1.3600 H     1 <1>   0.0800 
 37 H        3.5860     6.0330     1.2810 H     1 <1>   0.1500 
 38 H        5.7210     7.0330     0.6710 H     1 <1>   0.1500 
 39 H        9.1760     7.1400    -0.5090 H     1 <1>   0.0800 
 40 H        8.0720     7.3170     0.8510 H     1 <1>   0.0800 
 41 H        7.4940     7.5630    -0.8080 H     1 <1>   0.0800 
@<TRIPOS>BOND
  1   1   2  2   
  2   2   3  am  
  3   2   4  1   
  4   3   5  1   
  5   3   6  1   
  6   4   7  ar  
  7   4   8  ar  
  8   5   9  1   
  9   5  24  1   
 10   5  25  1   
 11   6   9  1   
 12   6  26  1   
 13   6  27  1   
 14   7  10  ar  
 15   7  28  1   
 16   8  11  ar  
 17   8  29  1   
 18   9  12  1   
 19   9  30  1   
 20  10  13  ar  
 21  11  13  ar  
 22  11  31  1   
 23  12  14  1   
 24  13  15  1   
 25  14  16  ar  
 26  14  17  ar  
 27  15  18  1   
 28  16  19  ar  
 29  16  32  1   
 30  17  20  ar  
 31  17  33  1   
 32  18  34  1   
 33  18  35  1   
 34  18  36  1   
 35  19  21  1   
 36  19  22  ar  
 37  20  22  ar  
 38  20  37  1   
 39  21  23  1   
 40  22  38  1   
 41  23  39  1   
 42  23  40  1   
 43  23  41  1   
@<TRIPOS>SUBSTRUCTURE
  1 ****   5 GROUP 4 **** **** 0

# MOE 2024.06 (io_trps.svl 2023.06)
