@<TRIPOS>MOLECULE
NONAME
51 53 1 0 0 
SMALL
USER_CHARGES


@<TRIPOS>ATOM
  1 F        0.1460    -0.4520     1.0990 F     1 <1>  -0.1900 
  2 C        0.2050    -1.4870     0.3030 C.ar  1 <1>   0.1900 
  3 C        1.4360    -2.0660     0.0310 C.ar  1 <1>  -0.1440 
  4 C       -0.9750    -1.9550    -0.2430 C.ar  1 <1>  -0.1500 
  5 C        1.4650    -3.1560    -0.8290 C.ar  1 <1>  -0.1500 
  6 C        2.7120    -1.5260     0.6480 C.3   1 <1>   0.2840 
  7 C       -0.9270    -3.0430    -1.0980 C.ar  1 <1>  -0.1500 
  8 C        0.2910    -3.6380    -1.3880 C.ar  1 <1>  -0.1500 
  9 N        3.0960    -0.3080    -0.0950 N.am  1 <1>  -0.7300 
 10 C        3.7760     0.7260     0.4610 C.2   1 <1>   0.5690 
 11 O        4.2640     0.6440     1.5640 O.2   1 <1>  -0.5700 
 12 C        3.9590     2.0530    -0.3010 C.3   1 <1>   0.4040 
 13 N        5.0590     2.9190     0.2710 N.4   1 <1>  -0.9590 
 14 C        4.9510     4.3480    -0.1670 C.3   1 <1>   0.3430 
 15 C        6.4080     2.3310     0.0200 C.3   1 <1>   0.3430 
 16 C        6.0200     5.2230     0.5030 C.3   1 <1>   0.0630 
 17 C        7.4770     3.1670     0.7290 C.3   1 <1>  -0.1600 
 18 C        5.9160     6.6450    -0.0330 C.ar  1 <1>  -0.1430 
 19 C        7.4300     4.6430     0.3030 C.3   1 <1>  -0.1600 
 20 C        5.5860     7.6820     0.8290 C.ar  1 <1>  -0.1500 
 21 C        6.1350     6.9290    -1.3750 C.ar  1 <1>  -0.1500 
 22 C        5.4660     8.9810     0.3640 C.ar  1 <1>  -0.1430 
 23 C        6.0190     8.2250    -1.8430 C.ar  1 <1>  -0.1500 
 24 C        5.6850     9.2480    -0.9760 C.ar  1 <1>  -0.1500 
 25 C        5.1060    10.1070     1.3170 C.3   1 <1>  -0.0970 
 26 H       -1.9080    -1.4770    -0.0030 H     1 <1>   0.1500 
 27 H        2.3980    -3.6380    -1.0690 H     1 <1>   0.1500 
 28 H        3.5020    -2.2550     0.5780 H     1 <1>   0.0800 
 29 H        2.5550    -1.2960     1.6890 H     1 <1>   0.0800 
 30 H       -1.8330    -3.4260    -1.5350 H     1 <1>   0.1500 
 31 H        0.3240    -4.4850    -2.0530 H     1 <1>   0.1500 
 32 H        2.6370    -0.2490    -1.0090 H     1 <1>   0.3700 
 33 H        3.0240     2.5830    -0.2470 H     1 <1>   0.0800 
 34 H        4.1630     1.8370    -1.3350 H     1 <1>   0.0800 
 35 H        4.9260     2.8680     1.2960 H     1 <1>   0.4500 
 36 H        3.9780     4.7410     0.0800 H     1 <1>   0.0800 
 37 H        5.0740     4.4090    -1.2350 H     1 <1>   0.0800 
 38 H        6.6110     2.3140    -1.0390 H     1 <1>   0.0800 
 39 H        6.4450     1.3190     0.3920 H     1 <1>   0.0800 
 40 H        5.8110     5.2410     1.5580 H     1 <1>   0.0800 
 41 H        8.4470     2.7620     0.4990 H     1 <1>   0.0800 
 42 H        7.3430     3.0850     1.7950 H     1 <1>   0.0800 
 43 H        8.1380     5.2140     0.8820 H     1 <1>   0.0800 
 44 H        7.7210     4.7200    -0.7300 H     1 <1>   0.0800 
 45 H        5.4200     7.4890     1.8740 H     1 <1>   0.1500 
 46 H        6.4010     6.1560    -2.0730 H     1 <1>   0.1500 
 47 H        6.1910     8.4430    -2.8830 H     1 <1>   0.1500 
 48 H        5.5990    10.2540    -1.3490 H     1 <1>   0.1500 
 49 H        4.4880     9.7430     2.1180 H     1 <1>   0.0800 
 50 H        4.5670    10.8800     0.7990 H     1 <1>   0.0800 
 51 H        6.0020    10.5310     1.7340 H     1 <1>   0.0800 
@<TRIPOS>BOND
  1   1   2  1   
  2   2   3  ar  
  3   2   4  ar  
  4   3   5  ar  
  5   3   6  1   
  6   4   7  ar  
  7   4  26  1   
  8   5   8  ar  
  9   5  27  1   
 10   6   9  1   
 11   6  28  1   
 12   6  29  1   
 13   7   8  ar  
 14   7  30  1   
 15   8  31  1   
 16   9  10  am  
 17   9  32  1   
 18  10  11  2   
 19  10  12  1   
 20  12  13  1   
 21  12  33  1   
 22  12  34  1   
 23  13  14  1   
 24  13  15  1   
 25  13  35  1   
 26  14  16  1   
 27  14  36  1   
 28  14  37  1   
 29  15  17  1   
 30  15  38  1   
 31  15  39  1   
 32  16  18  1   
 33  16  19  1   
 34  16  40  1   
 35  17  19  1   
 36  17  41  1   
 37  17  42  1   
 38  18  20  ar  
 39  18  21  ar  
 40  19  43  1   
 41  19  44  1   
 42  20  22  ar  
 43  20  45  1   
 44  21  23  ar  
 45  21  46  1   
 46  22  24  ar  
 47  22  25  1   
 48  23  24  ar  
 49  23  47  1   
 50  24  48  1   
 51  25  49  1   
 52  25  50  1   
 53  25  51  1   
@<TRIPOS>SUBSTRUCTURE
  1 ****  12 GROUP 4 **** **** 0

# MOE 2024.06 (io_trps.svl 2023.06)
