@<TRIPOS>MOLECULE
NONAME
51 53 1 0 0 
SMALL
USER_CHARGES


@<TRIPOS>ATOM
  1 CL      -1.0740    -0.5240    -0.6140 Cl    1 <1>  -0.1770 
  2 C       -2.6920     0.0920    -0.4140 C.ar  1 <1>   0.1770 
  3 C       -3.5250    -0.4770     0.5300 C.ar  1 <1>  -0.1500 
  4 C       -3.1230     1.1430    -1.2010 C.ar  1 <1>  -0.1500 
  5 C       -4.8090     0.0140     0.6830 C.ar  1 <1>  -0.1500 
  6 C       -4.4100     1.6240    -1.0410 C.ar  1 <1>  -0.1500 
  7 C       -5.2830     1.0680    -0.1020 C.ar  1 <1>   0.0530 
  8 C       -6.6260     1.5700     0.0410 C.2   1 <1>   0.0870 
  9 O       -6.8790     2.8410    -0.1410 O.3   1 <1>  -0.0190 
 10 C       -7.8070     0.9730     0.3580 C.2   1 <1>  -0.0860 
 11 N       -8.1350     3.1430     0.0500 N.2   1 <1>  -0.4100 
 12 C       -8.7110     2.0360     0.3620 C.2   1 <1>   0.3720 
 13 C       -8.1480    -0.3890     0.6320 C.2   1 <1>   0.7160 
 14 N      -10.0640     1.9070     0.6620 N.pl3 1 <1>  -0.8520 
 15 O       -8.9230    -0.6380     1.5410 O.2   1 <1>  -0.5700 
 16 N       -7.6310    -1.4380    -0.0990 N.am  1 <1>  -0.6600 
 17 C      -10.7380     3.0920     1.2580 C.3   1 <1>   0.2090 
 18 C       -7.7040    -2.8470     0.3890 C.3   1 <1>   0.1400 
 19 C       -7.1670    -1.3070    -1.5090 C.3   1 <1>   0.1400 
 20 C      -12.2390     2.8310     1.3850 C.3   1 <1>   0.1200 
 21 C       -8.6560    -3.6580    -0.4980 C.3   1 <1>  -0.0190 
 22 C       -8.0910    -2.1120    -2.4290 C.3   1 <1>  -0.1600 
 23 O      -12.8350     3.9170     2.0240 O.3   1 <1>  -0.5600 
 24 C       -8.7070    -5.1000    -0.0140 C.2   1 <1>   0.5690 
 25 C       -8.2260    -3.5740    -1.9760 C.3   1 <1>  -0.1600 
 26 C      -14.2130     3.7960     2.1700 C.3   1 <1>   0.0400 
 27 O       -7.6890    -5.7170     0.1630 O.2   1 <1>  -0.5700 
 28 N       -9.8960    -5.6880     0.2140 N.am  1 <1>  -0.8000 
 29 H       -3.1670    -1.2910     1.1350 H     1 <1>   0.1500 
 30 H       -2.4560     1.5740    -1.9260 H     1 <1>   0.1500 
 31 H       -5.4520    -0.4260     1.4260 H     1 <1>   0.1500 
 32 H       -4.7470     2.4440    -1.6520 H     1 <1>   0.1500 
 33 H      -10.2110     1.0620     1.2340 H     1 <1>   0.4000 
 34 H      -10.5830     3.9510     0.6280 H     1 <1>   0.0800 
 35 H      -10.3210     3.2890     2.2310 H     1 <1>   0.0800 
 36 H       -8.0420    -2.8810     1.4110 H     1 <1>   0.0800 
 37 H       -6.7180    -3.2800     0.3550 H     1 <1>   0.0800 
 38 H       -6.1580    -1.6800    -1.5830 H     1 <1>   0.0800 
 39 H       -7.1690    -0.2790    -1.8240 H     1 <1>   0.0800 
 40 H      -12.4150     1.9500     1.9760 H     1 <1>   0.0800 
 41 H      -12.6750     2.7220     0.4070 H     1 <1>   0.0800 
 42 H       -9.6380    -3.2330    -0.3950 H     1 <1>   0.0800 
 43 H       -7.7050    -2.0810    -3.4330 H     1 <1>   0.0800 
 44 H       -9.0610    -1.6450    -2.4390 H     1 <1>   0.0800 
 45 H       -8.9450    -4.0830    -2.5940 H     1 <1>   0.0800 
 46 H       -7.2770    -4.0720    -2.0970 H     1 <1>   0.0800 
 47 H      -14.5750     4.6780     2.6700 H     1 <1>   0.0800 
 48 H      -14.4330     2.9260     2.7640 H     1 <1>   0.0800 
 49 H      -14.6680     3.7180     1.1970 H     1 <1>   0.0800 
 50 H       -9.9160    -6.6550     0.5390 H     1 <1>   0.3700 
 51 H      -10.7980    -5.2300     0.0880 H     1 <1>   0.3700 
@<TRIPOS>BOND
  1   1   2  1   
  2   2   3  ar  
  3   2   4  ar  
  4   3   5  ar  
  5   3  29  1   
  6   4   6  ar  
  7   4  30  1   
  8   5   7  ar  
  9   5  31  1   
 10   6   7  ar  
 11   6  32  1   
 12   7   8  1   
 13   8   9  1   
 14   8  10  2   
 15   9  11  1   
 16  10  12  1   
 17  10  13  1   
 18  11  12  2   
 19  12  14  1   
 20  13  15  2   
 21  13  16  am  
 22  14  17  1   
 23  14  33  1   
 24  16  18  1   
 25  16  19  1   
 26  17  20  1   
 27  17  34  1   
 28  17  35  1   
 29  18  21  1   
 30  18  36  1   
 31  18  37  1   
 32  19  22  1   
 33  19  38  1   
 34  19  39  1   
 35  20  23  1   
 36  20  40  1   
 37  20  41  1   
 38  21  24  1   
 39  21  25  1   
 40  21  42  1   
 41  22  25  1   
 42  22  43  1   
 43  22  44  1   
 44  23  26  1   
 45  24  27  2   
 46  24  28  am  
 47  25  45  1   
 48  25  46  1   
 49  26  47  1   
 50  26  48  1   
 51  26  49  1   
 52  28  50  1   
 53  28  51  1   
@<TRIPOS>SUBSTRUCTURE
  1 ****  13 GROUP 4 **** **** 0

# MOE 2024.06 (io_trps.svl 2023.06)
