@<TRIPOS>MOLECULE
NONAME
49 51 1 0 0 
SMALL
USER_CHARGES


@<TRIPOS>ATOM
  1 CL      -1.4420    -0.5480     2.1370 Cl    1 <1>  -0.1770 
  2 C       -2.2000    -1.0790     0.6510 C.ar  1 <1>   0.1770 
  3 C       -2.3010    -2.4310     0.2940 C.ar  1 <1>   0.0820 
  4 C       -2.7350    -0.0890    -0.1510 C.ar  1 <1>  -0.1500 
  5 O       -1.7930    -3.4620     1.0260 O.3   1 <1>  -0.3630 
  6 C       -2.9830    -2.7750    -0.8740 C.ar  1 <1>  -0.1440 
  7 C       -3.3890    -0.4530    -1.3090 C.ar  1 <1>   0.1770 
  8 C       -0.4940    -3.3770     1.5810 C.3   1 <1>   0.0400 
  9 C       -3.5230    -1.7790    -1.6770 C.ar  1 <1>  -0.1500 
 10 C       -3.1410    -4.2330    -1.2700 C.3   1 <1>   0.4870 
 11 CL      -4.0740     0.7840    -2.3310 Cl    1 <1>  -0.1770 
 12 N       -3.9090    -4.9260    -0.2090 N.4   1 <1>  -0.9590 
 13 C       -5.2970    -4.4250    -0.0660 C.3   1 <1>   0.3430 
 14 C       -3.9930    -6.3990    -0.3720 C.3   1 <1>   0.3430 
 15 C       -6.0220    -5.5240     0.7010 C.3   1 <1>  -0.0800 
 16 C       -5.3350    -6.8250     0.2320 C.3   1 <1>  -0.0800 
 17 C       -7.5630    -5.4810     0.5400 C.3   1 <1>   0.2800 
 18 C       -6.1710    -7.6000    -0.8000 C.3   1 <1>  -0.1600 
 19 O       -7.8630    -5.0540    -0.7390 O.3   1 <1>  -0.6800 
 20 C       -8.1440    -6.8960     0.7070 C.3   1 <1>  -0.1600 
 21 C       -8.2550    -4.5100     1.5220 C.3   1 <1>  -0.1600 
 22 C       -7.5750    -7.9420    -0.2740 C.3   1 <1>  -0.1600 
 23 C       -7.8320    -3.0320     1.4360 C.3   1 <1>  -0.2400 
 24 H       -2.6490     0.9470     0.1250 H     1 <1>   0.1500 
 25 H       -0.0760    -4.3670     1.6200 H     1 <1>   0.0800 
 26 H       -0.5630    -2.9820     2.5790 H     1 <1>   0.0800 
 27 H        0.1240    -2.7450     0.9650 H     1 <1>   0.0800 
 28 H       -4.0490    -2.0090    -2.5880 H     1 <1>   0.1500 
 29 H       -2.1640    -4.6800    -1.3660 H     1 <1>   0.0800 
 30 H       -3.6540    -4.3130    -2.2140 H     1 <1>   0.0800 
 31 H       -3.4090    -4.7120     0.6690 H     1 <1>   0.4500 
 32 H       -5.3280    -3.4820     0.4530 H     1 <1>   0.0800 
 33 H       -5.7430    -4.3100    -1.0400 H     1 <1>   0.0800 
 34 H       -3.9760    -6.6580    -1.4180 H     1 <1>   0.0800 
 35 H       -3.1710    -6.8890     0.1260 H     1 <1>   0.0800 
 36 H       -5.7930    -5.4020     1.7450 H     1 <1>   0.0800 
 37 H       -5.1600    -7.4680     1.0780 H     1 <1>   0.0800 
 38 H       -6.2810    -6.9990    -1.6880 H     1 <1>   0.0800 
 39 H       -5.6700    -8.5090    -1.0870 H     1 <1>   0.0800 
 40 H       -8.8290    -5.1090    -0.8780 H     1 <1>   0.4000 
 41 H       -7.9200    -7.2250     1.7070 H     1 <1>   0.0800 
 42 H       -9.2170    -6.8750     0.6260 H     1 <1>   0.0800 
 43 H       -9.3190    -4.5640     1.3660 H     1 <1>   0.0800 
 44 H       -8.0790    -4.8500     2.5280 H     1 <1>   0.0800 
 45 H       -7.5520    -8.8990     0.2200 H     1 <1>   0.0800 
 46 H       -8.2380    -8.0370    -1.1170 H     1 <1>   0.0800 
 47 H       -7.9210    -2.6630     0.4290 H     1 <1>   0.0800 
 48 H       -6.8240    -2.8960     1.7810 H     1 <1>   0.0800 
 49 H       -8.4740    -2.4390     2.0650 H     1 <1>   0.0800 
@<TRIPOS>BOND
  1   1   2  1   
  2   2   3  ar  
  3   2   4  ar  
  4   3   5  1   
  5   3   6  ar  
  6   4   7  ar  
  7   4  24  1   
  8   5   8  1   
  9   6   9  ar  
 10   6  10  1   
 11   7   9  ar  
 12   7  11  1   
 13   8  25  1   
 14   8  26  1   
 15   8  27  1   
 16   9  28  1   
 17  10  12  1   
 18  10  29  1   
 19  10  30  1   
 20  12  13  1   
 21  12  14  1   
 22  12  31  1   
 23  13  15  1   
 24  13  32  1   
 25  13  33  1   
 26  14  16  1   
 27  14  34  1   
 28  14  35  1   
 29  15  16  1   
 30  15  17  1   
 31  15  36  1   
 32  16  18  1   
 33  16  37  1   
 34  17  19  1   
 35  17  20  1   
 36  17  21  1   
 37  18  22  1   
 38  18  38  1   
 39  18  39  1   
 40  19  40  1   
 41  20  22  1   
 42  20  41  1   
 43  20  42  1   
 44  21  23  1   
 45  21  43  1   
 46  21  44  1   
 47  22  45  1   
 48  22  46  1   
 49  23  47  1   
 50  23  48  1   
 51  23  49  1   
@<TRIPOS>SUBSTRUCTURE
  1 ****  13 GROUP 4 **** **** 0

# MOE 2024.06 (io_trps.svl 2023.06)
