@<TRIPOS>MOLECULE
NONAME
37 39 1 0 0 
SMALL
USER_CHARGES


@<TRIPOS>ATOM
  1 O       -0.7930     0.5230     2.0410 O.2   1 <1>  -0.5700 
  2 C       -1.4870     1.0500     1.1830 C.2   1 <1>   0.5440 
  3 N       -2.5170     0.2740     0.6740 N.am  1 <1>  -0.6600 
  4 C       -1.2080     2.4320     0.7740 C.ar  1 <1>   0.3960 
  5 C       -3.5080     0.7020    -0.3530 C.3   1 <1>   0.1400 
  6 C       -2.6240    -1.1850     0.9080 C.3   1 <1>   0.1400 
  7 N       -1.6270     2.8860    -0.4110 N.ar  1 <1>  -0.6200 
  8 C       -0.4940     3.2510     1.6570 C.ar  1 <1>   0.1600 
  9 C       -4.4910    -0.4620    -0.4420 C.3   1 <1>   0.2000 
 10 C       -3.6150    -1.6840    -0.1510 C.3   1 <1>  -0.0800 
 11 C       -1.3240     4.1660    -0.6330 C.ar  1 <1>   0.1390 
 12 N       -0.1670     4.5290     1.4560 N.ar  1 <1>  -0.6200 
 13 O       -5.4280    -0.3200     0.5710 O.3   1 <1>  -0.6800 
 14 C       -4.3840    -2.9520     0.2640 C.3   1 <1>   0.0200 
 15 O       -1.7130     4.6590    -1.7120 O.3   1 <1>  -0.8290 
 16 C       -0.6040     4.9520     0.2940 C.ar  1 <1>   0.1600 
 17 C       -3.4880    -4.1730     0.3920 C.2   1 <1>  -0.0400 
 18 O       -4.0000    -5.2810     0.8580 O.3   1 <1>  -0.0190 
 19 C       -2.1940    -4.4060     0.1160 C.2   1 <1>  -0.1500 
 20 N       -3.1210    -6.2390     0.9120 N.2   1 <1>  -0.4100 
 21 C       -2.0230    -5.7410     0.4720 C.2   1 <1>   0.1080 
 22 C       -0.7250    -6.5090     0.3590 C.3   1 <1>  -0.0590 
 23 H       -3.9930     1.6270    -0.0860 H     1 <1>   0.0800 
 24 H       -3.0030     0.8300    -1.2960 H     1 <1>   0.0800 
 25 H       -1.6600    -1.6540     0.8110 H     1 <1>   0.0800 
 26 H       -3.0020    -1.3510     1.9020 H     1 <1>   0.0800 
 27 H       -0.1730     2.8250     2.5890 H     1 <1>   0.1500 
 28 H       -5.0050    -0.5120    -1.3870 H     1 <1>   0.0800 
 29 H       -3.0580    -1.8990    -1.0460 H     1 <1>   0.0800 
 30 H       -4.9650     0.0210     1.3640 H     1 <1>   0.4000 
 31 H       -5.1440    -3.1620    -0.4680 H     1 <1>   0.0800 
 32 H       -4.8770    -2.7900     1.2060 H     1 <1>   0.0800 
 33 H       -0.4150     5.9670    -0.0010 H     1 <1>   0.1500 
 34 H       -1.4380    -3.7570    -0.2830 H     1 <1>   0.1500 
 35 H       -0.3900    -6.5140    -0.6610 H     1 <1>   0.0800 
 36 H       -0.8710    -7.5240     0.6830 H     1 <1>   0.0800 
 37 H        0.0250    -6.0510     0.9780 H     1 <1>   0.0800 
@<TRIPOS>BOND
  1   1   2  2   
  2   2   3  am  
  3   2   4  1   
  4   3   5  1   
  5   3   6  1   
  6   4   7  ar  
  7   4   8  ar  
  8   5   9  1   
  9   5  23  1   
 10   5  24  1   
 11   6  10  1   
 12   6  25  1   
 13   6  26  1   
 14   7  11  ar  
 15   8  12  ar  
 16   8  27  1   
 17   9  10  1   
 18   9  13  1   
 19   9  28  1   
 20  10  14  1   
 21  10  29  1   
 22  11  15  1   
 23  11  16  ar  
 24  12  16  ar  
 25  13  30  1   
 26  14  17  1   
 27  14  31  1   
 28  14  32  1   
 29  16  33  1   
 30  17  18  1   
 31  17  19  2   
 32  18  20  1   
 33  19  21  1   
 34  19  34  1   
 35  20  21  2   
 36  21  22  1   
 37  22  35  1   
 38  22  36  1   
 39  22  37  1   
@<TRIPOS>SUBSTRUCTURE
  1 ****   3 GROUP 4 **** **** 0

# MOE 2024.06 (io_trps.svl 2023.06)
