@<TRIPOS>MOLECULE
NONAME
50 53 1 0 0 
SMALL
USER_CHARGES


@<TRIPOS>ATOM
  1 O        1.5660    -0.0380     3.5900 O.3   1 <1>  -0.6800 
  2 C        1.1550    -0.7800     2.4910 C.3   1 <1>   0.2000 
  3 C        1.7880    -2.1650     2.6000 C.3   1 <1>  -0.0800 
  4 C        1.8120    -0.1720     1.2420 C.3   1 <1>   0.3430 
  5 C        3.2280    -1.8710     2.1640 C.3   1 <1>   0.3430 
  6 C        1.0480    -3.2110     1.7230 C.3   1 <1>  -0.0170 
  7 N        3.1110    -0.8960     1.0490 N.4   1 <1>  -0.9590 
  8 C        2.0110    -4.1090     0.9510 C.ar  1 <1>  -0.1440 
  9 C        4.2560     0.0340     0.9510 C.3   1 <1>   0.5240 
 10 C        2.4150    -3.8470    -0.3830 C.ar  1 <1>   0.0000 
 11 C        2.5490    -5.1960     1.5740 C.ar  1 <1>  -0.1500 
 12 C        4.1810     0.6510    -0.4240 C.2   1 <1>  -0.1810 
 13 C        3.4050    -4.6930    -0.9410 C.ar  1 <1>   0.3100 
 14 C        1.9100    -2.8020    -1.1950 C.ar  1 <1>  -0.1500 
 15 C        3.5010    -5.9850     0.9180 C.ar  1 <1>   0.1600 
 16 C        4.7440     0.1280    -1.5820 C.2   1 <1>   0.1080 
 17 C        3.5700     1.7900    -0.8240 C.2   1 <1>  -0.3020 
 18 N        3.9380    -5.7450    -0.2760 N.ar  1 <1>  -0.6200 
 19 C        3.8730    -4.4330    -2.2390 C.ar  1 <1>  -0.1500 
 20 C        2.3930    -2.5710    -2.4540 C.ar  1 <1>  -0.1500 
 21 N        4.4870     0.8610    -2.6150 N.2   1 <1>  -0.7070 
 22 C        5.5820    -1.1290    -1.6930 C.3   1 <1>  -0.0590 
 23 N        3.7720     1.8970    -2.1510 N.pl3 1 <1>   0.3140 
 24 C        3.3870    -3.3940    -2.9840 C.ar  1 <1>  -0.1500 
 25 C        3.3250     2.9760    -3.0400 C.3   1 <1>   0.0160 
 26 H        1.0300    -0.2460     4.3860 H     1 <1>   0.4000 
 27 H        0.0780    -0.7720     2.4490 H     1 <1>   0.0800 
 28 H        1.7870    -2.5180     3.6170 H     1 <1>   0.0800 
 29 H        1.9600     0.8870     1.3800 H     1 <1>   0.0800 
 30 H        1.1830    -0.3280     0.3820 H     1 <1>   0.0800 
 31 H        3.7640    -2.7590     1.8670 H     1 <1>   0.0800 
 32 H        3.7460    -1.4090     2.9900 H     1 <1>   0.0800 
 33 H        0.3500    -2.7460     1.0530 H     1 <1>   0.0800 
 34 H        0.4480    -3.8290     2.3700 H     1 <1>   0.0800 
 35 H        3.0730    -1.4080     0.1550 H     1 <1>   0.4500 
 36 H        4.1940     0.7930     1.7130 H     1 <1>   0.0800 
 37 H        5.1870    -0.4980     1.0560 H     1 <1>   0.0800 
 38 H        2.2740    -5.4740     2.5760 H     1 <1>   0.1500 
 39 H        1.1180    -2.1750    -0.8400 H     1 <1>   0.1500 
 40 H        3.9020    -6.8380     1.4420 H     1 <1>   0.1500 
 41 H        3.0190     2.5230    -0.2630 H     1 <1>   0.1500 
 42 H        4.6300    -5.0870    -2.6330 H     1 <1>   0.1500 
 43 H        2.0130    -1.7660    -3.0620 H     1 <1>   0.1500 
 44 H        5.1840    -1.9150    -1.0820 H     1 <1>   0.0800 
 45 H        6.5920    -0.9170    -1.3940 H     1 <1>   0.0800 
 46 H        5.5970    -1.4620    -2.7160 H     1 <1>   0.0800 
 47 H        3.7550    -3.2040    -3.9790 H     1 <1>   0.1500 
 48 H        2.6050     3.5900    -2.5340 H     1 <1>   0.0800 
 49 H        2.8840     2.5440    -3.9190 H     1 <1>   0.0800 
 50 H        4.1760     3.5680    -3.3230 H     1 <1>   0.0800 
@<TRIPOS>BOND
  1   1   2  1   
  2   1  26  1   
  3   2   3  1   
  4   2   4  1   
  5   2  27  1   
  6   3   5  1   
  7   3   6  1   
  8   3  28  1   
  9   4   7  1   
 10   4  29  1   
 11   4  30  1   
 12   5   7  1   
 13   5  31  1   
 14   5  32  1   
 15   6   8  1   
 16   6  33  1   
 17   6  34  1   
 18   7   9  1   
 19   7  35  1   
 20   8  10  ar  
 21   8  11  ar  
 22   9  12  1   
 23   9  36  1   
 24   9  37  1   
 25  10  13  ar  
 26  10  14  ar  
 27  11  15  ar  
 28  11  38  1   
 29  12  16  1   
 30  12  17  2   
 31  13  18  ar  
 32  13  19  ar  
 33  14  20  ar  
 34  14  39  1   
 35  15  18  ar  
 36  15  40  1   
 37  16  21  2   
 38  16  22  1   
 39  17  23  1   
 40  17  41  1   
 41  19  24  ar  
 42  19  42  1   
 43  20  24  ar  
 44  20  43  1   
 45  21  23  1   
 46  22  44  1   
 47  22  45  1   
 48  22  46  1   
 49  23  25  1   
 50  24  47  1   
 51  25  48  1   
 52  25  49  1   
 53  25  50  1   
@<TRIPOS>SUBSTRUCTURE
  1 ****   7 GROUP 4 **** **** 0

# MOE 2024.06 (io_trps.svl 2023.06)
