@<TRIPOS>MOLECULE
NONAME
46 48 1 0 0 
SMALL
USER_CHARGES


@<TRIPOS>ATOM
  1 F        1.3740    -0.2370     0.2140 F     1 <1>  -0.1900 
  2 C        0.9500    -1.4450     0.4650 C.ar  1 <1>   0.1900 
  3 C        1.3040    -2.4640    -0.3940 C.ar  1 <1>  -0.1500 
  4 C        0.1630    -1.6520     1.5800 C.ar  1 <1>  -0.1500 
  5 C        0.8480    -3.7520    -0.1260 C.ar  1 <1>   0.0830 
  6 C       -0.2890    -2.9340     1.8420 C.ar  1 <1>  -0.1500 
  7 O        1.1510    -4.8120    -0.9230 O.3   1 <1>  -0.3630 
  8 C        0.0430    -3.9840     0.9930 C.ar  1 <1>  -0.1440 
  9 C        2.1190    -4.7010    -1.9500 C.3   1 <1>   0.0400 
 10 C       -0.4710    -5.3790     1.3130 C.3   1 <1>   0.4870 
 11 N       -1.1590    -5.9750     0.1320 N.4   1 <1>  -0.9590 
 12 C       -2.5880    -5.5720    -0.0240 C.3   1 <1>   0.4230 
 13 C       -0.9670    -7.4570     0.1390 C.3   1 <1>   0.2630 
 14 C       -3.2300    -6.2230    -1.2500 C.3   1 <1>  -0.1600 
 15 C       -2.7690    -4.0780    -0.2810 C.3   1 <1>  -0.1600 
 16 C       -4.4130    -5.3210    -1.6170 C.3   1 <1>  -0.0800 
 17 C       -4.1170    -3.9470    -0.9990 C.3   1 <1>  -0.0800 
 18 C       -5.7530    -5.7830    -1.0270 C.3   1 <1>  -0.1600 
 19 C       -5.2910    -3.6310    -0.0600 C.3   1 <1>  -0.1600 
 20 C       -6.4290    -4.5000    -0.5710 C.3   1 <1>   0.2000 
 21 O       -7.3250    -4.7620     0.4410 O.3   1 <1>  -0.6800 
 22 H        1.9200    -2.2260    -1.2400 H     1 <1>   0.1500 
 23 H       -0.0850    -0.8260     2.2230 H     1 <1>   0.1500 
 24 H       -0.9000    -3.0970     2.7150 H     1 <1>   0.1500 
 25 H        2.2610    -5.6720    -2.3900 H     1 <1>   0.0800 
 26 H        3.0470    -4.3590    -1.5250 H     1 <1>   0.0800 
 27 H        1.7650    -4.0130    -2.6980 H     1 <1>   0.0800 
 28 H       -1.1400    -5.3470     2.1570 H     1 <1>   0.0800 
 29 H        0.3790    -5.9860     1.5800 H     1 <1>   0.0800 
 30 H       -0.6310    -5.5850    -0.6690 H     1 <1>   0.4500 
 31 H       -3.1560    -5.8480     0.8510 H     1 <1>   0.0800 
 32 H       -1.4940    -7.9020     0.9670 H     1 <1>   0.0800 
 33 H        0.0810    -7.6960     0.2250 H     1 <1>   0.0800 
 34 H       -1.3350    -7.8890    -0.7780 H     1 <1>   0.0800 
 35 H       -2.5340    -6.2140    -2.0710 H     1 <1>   0.0800 
 36 H       -3.5480    -7.2320    -1.0600 H     1 <1>   0.0800 
 37 H       -2.7510    -3.5000     0.6250 H     1 <1>   0.0800 
 38 H       -2.0010    -3.7250    -0.9470 H     1 <1>   0.0800 
 39 H       -4.5060    -5.2310    -2.6880 H     1 <1>   0.0800 
 40 H       -4.0650    -3.1960    -1.7710 H     1 <1>   0.0800 
 41 H       -5.5940    -6.4290    -0.1820 H     1 <1>   0.0800 
 42 H       -6.3520    -6.2930    -1.7620 H     1 <1>   0.0800 
 43 H       -5.5550    -2.5880    -0.0990 H     1 <1>   0.0800 
 44 H       -5.0520    -3.9040     0.9530 H     1 <1>   0.0800 
 45 H       -6.9490    -4.0220    -1.3850 H     1 <1>   0.0800 
 46 H       -6.8850    -5.1990     1.1910 H     1 <1>   0.4000 
@<TRIPOS>BOND
  1   1   2  1   
  2   2   3  ar  
  3   2   4  ar  
  4   3   5  ar  
  5   3  22  1   
  6   4   6  ar  
  7   4  23  1   
  8   5   7  1   
  9   5   8  ar  
 10   6   8  ar  
 11   6  24  1   
 12   7   9  1   
 13   8  10  1   
 14   9  25  1   
 15   9  26  1   
 16   9  27  1   
 17  10  11  1   
 18  10  28  1   
 19  10  29  1   
 20  11  12  1   
 21  11  13  1   
 22  11  30  1   
 23  12  14  1   
 24  12  15  1   
 25  12  31  1   
 26  13  32  1   
 27  13  33  1   
 28  13  34  1   
 29  14  16  1   
 30  14  35  1   
 31  14  36  1   
 32  15  17  1   
 33  15  37  1   
 34  15  38  1   
 35  16  17  1   
 36  16  18  1   
 37  16  39  1   
 38  17  19  1   
 39  17  40  1   
 40  18  20  1   
 41  18  41  1   
 42  18  42  1   
 43  19  20  1   
 44  19  43  1   
 45  19  44  1   
 46  20  21  1   
 47  20  45  1   
 48  21  46  1   
@<TRIPOS>SUBSTRUCTURE
  1 ****  15 GROUP 4 **** **** 0

# MOE 2024.06 (io_trps.svl 2023.06)
