@<TRIPOS>MOLECULE
NONAME
44 46 1 0 0 
SMALL
USER_CHARGES


@<TRIPOS>ATOM
  1 O       -0.3400    -0.3900    -1.0710 O.2   1 <1>  -0.5700 
  2 C       -0.1940     0.7860    -0.8320 C.2   1 <1>   0.5690 
  3 N       -1.1960     1.5370    -0.2610 N.am  1 <1>  -0.6600 
  4 C        1.1430     1.3910    -1.2290 C.3   1 <1>   0.1570 
  5 C       -1.0960     2.9740     0.1250 C.3   1 <1>   0.1400 
  6 C       -2.4920     0.9160     0.1410 C.3   1 <1>   0.1400 
  7 N        1.9220     1.8380    -0.0530 N.pl3 1 <1>   0.0480 
  8 C       -2.2340     3.7550    -0.5350 C.3   1 <1>  -0.1600 
  9 C       -3.6480     1.6790    -0.5100 C.3   1 <1>  -0.1600 
 10 C        2.6610     2.9680     0.0850 C.2   1 <1>   0.0060 
 11 C        2.0350     1.2120     1.1330 C.2   1 <1>  -0.3020 
 12 C       -3.6050     3.1710    -0.1690 C.3   1 <1>   0.4180 
 13 N        3.2060     3.0940     1.2500 N.2   1 <1>  -0.5650 
 14 C        2.8480     3.9990    -1.0110 C.3   1 <1>  -0.0600 
 15 C        2.8160     1.9900     1.9110 C.2   1 <1>   0.0770 
 16 O       -3.7950     3.2620     1.2220 O.3   1 <1>  -0.5600 
 17 C       -4.7240     3.9000    -0.9090 C.2   1 <1>  -0.2880 
 18 C       -4.2220     4.4910     1.7390 C.3   1 <1>   0.1200 
 19 C       -5.6490     4.6550    -0.3110 C.2   1 <1>  -0.2760 
 20 C       -5.6100     4.8550     1.1930 C.3   1 <1>  -0.0220 
 21 C       -6.7900     5.3510    -1.0320 C.3   1 <1>  -0.1020 
 22 H        0.9670     2.2190    -1.8860 H     1 <1>   0.0800 
 23 H        1.7190     0.6530    -1.7540 H     1 <1>   0.0800 
 24 H       -0.1570     3.4010    -0.1720 H     1 <1>   0.0800 
 25 H       -1.1700     3.0540     1.1970 H     1 <1>   0.0800 
 26 H       -2.5840     0.9570     1.2130 H     1 <1>   0.0800 
 27 H       -2.5330    -0.1180    -0.1560 H     1 <1>   0.0800 
 28 H       -2.1070     3.7120    -1.6010 H     1 <1>   0.0800 
 29 H       -2.1850     4.7890    -0.2530 H     1 <1>   0.0800 
 30 H       -4.5850     1.2700    -0.1810 H     1 <1>   0.0800 
 31 H       -3.5900     1.5470    -1.5740 H     1 <1>   0.0800 
 32 H        1.5640     0.2710     1.3560 H     1 <1>   0.1500 
 33 H        3.2770     3.5390    -1.8820 H     1 <1>   0.0800 
 34 H        3.5160     4.7700    -0.6700 H     1 <1>   0.0800 
 35 H        1.9070     4.4500    -1.2640 H     1 <1>   0.0800 
 36 H        3.1240     1.8100     2.9280 H     1 <1>   0.1500 
 37 H       -4.6990     3.7350    -1.9700 H     1 <1>   0.1500 
 38 H       -3.5040     5.2460     1.4740 H     1 <1>   0.0800 
 39 H       -4.2540     4.4040     2.8100 H     1 <1>   0.0800 
 40 H       -5.8160     5.8810     1.4390 H     1 <1>   0.0800 
 41 H       -6.3570     4.2400     1.6610 H     1 <1>   0.0800 
 42 H       -7.7340     5.0050    -0.6510 H     1 <1>   0.0800 
 43 H       -6.7510     5.1440    -2.0870 H     1 <1>   0.0800 
 44 H       -6.7260     6.4160    -0.8910 H     1 <1>   0.0800 
@<TRIPOS>BOND
  1   1   2  2   
  2   2   3  am  
  3   2   4  1   
  4   3   5  1   
  5   3   6  1   
  6   4   7  1   
  7   4  22  1   
  8   4  23  1   
  9   5   8  1   
 10   5  24  1   
 11   5  25  1   
 12   6   9  1   
 13   6  26  1   
 14   6  27  1   
 15   7  10  1   
 16   7  11  1   
 17   8  12  1   
 18   8  28  1   
 19   8  29  1   
 20   9  12  1   
 21   9  30  1   
 22   9  31  1   
 23  10  13  2   
 24  10  14  1   
 25  11  15  2   
 26  11  32  1   
 27  12  16  1   
 28  12  17  1   
 29  13  15  1   
 30  14  33  1   
 31  14  34  1   
 32  14  35  1   
 33  15  36  1   
 34  16  18  1   
 35  17  19  2   
 36  17  37  1   
 37  18  20  1   
 38  18  38  1   
 39  18  39  1   
 40  19  20  1   
 41  19  21  1   
 42  20  40  1   
 43  20  41  1   
 44  21  42  1   
 45  21  43  1   
 46  21  44  1   
@<TRIPOS>SUBSTRUCTURE
  1 ****   5 GROUP 4 **** **** 0

# MOE 2024.06 (io_trps.svl 2023.06)
