@<TRIPOS>MOLECULE
NONAME
50 51 1 0 0 
SMALL
USER_CHARGES


@<TRIPOS>ATOM
  1 O       -0.6550    -0.2950    -0.0720 O.2   1 <1>  -0.5700 
  2 C       -1.6330     0.4270    -0.1360 C.2   1 <1>   0.5440 
  3 N       -1.4450     1.7970    -0.1800 N.am  1 <1>  -0.6600 
  4 C       -2.9460    -0.1730    -0.1510 C.ar  1 <1>   0.0860 
  5 C       -0.1010     2.3840    -0.4370 C.3   1 <1>   0.0600 
  6 C       -2.4820     2.7860     0.2260 C.3   1 <1>   0.0600 
  7 C       -3.2510    -1.2200     0.7150 C.ar  1 <1>   0.1600 
  8 C       -3.9570     0.2380    -1.0150 C.ar  1 <1>  -0.1500 
  9 N       -4.4150    -1.8380     0.8110 N.ar  1 <1>  -0.6200 
 10 C       -5.1720    -0.3970    -0.9350 C.ar  1 <1>  -0.1500 
 11 C       -5.3700    -1.4240    -0.0140 C.ar  1 <1>   0.4100 
 12 N       -6.5970    -2.0420     0.0660 N.pl3 1 <1>  -0.8380 
 13 C       -6.6760    -3.5120     0.3190 C.3   1 <1>   0.2090 
 14 C       -7.7670    -1.2500     0.5280 C.3   1 <1>   0.1290 
 15 C       -7.4490    -4.1920    -0.8100 C.3   1 <1>  -0.0170 
 16 C       -7.5770    -5.6840    -0.5480 C.ar  1 <1>  -0.1430 
 17 C       -6.5500    -6.5440    -0.9000 C.ar  1 <1>  -0.1500 
 18 C       -8.7140    -6.2010     0.0490 C.ar  1 <1>  -0.1500 
 19 C       -6.6410    -7.9060    -0.6650 C.ar  1 <1>   0.0830 
 20 C       -8.8280    -7.5610     0.2810 C.ar  1 <1>  -0.1500 
 21 O       -5.5540    -8.6330    -1.0470 O.3   1 <1>  -0.3630 
 22 C       -7.8030    -8.4340    -0.0780 C.ar  1 <1>   0.0830 
 23 C       -5.1160    -9.7250    -0.2700 C.3   1 <1>   0.0400 
 24 O       -7.9190    -9.7810     0.1120 O.3   1 <1>  -0.3630 
 25 C       -9.1500   -10.3830     0.4450 C.3   1 <1>   0.0400 
 26 H        0.5430     1.6620    -0.9100 H     1 <1>   0.0800 
 27 H        0.3460     2.6870     0.4940 H     1 <1>   0.0800 
 28 H       -0.1900     3.2370    -1.0860 H     1 <1>   0.0800 
 29 H       -3.3100     2.2980     0.7100 H     1 <1>   0.0800 
 30 H       -2.8390     3.3140    -0.6410 H     1 <1>   0.0800 
 31 H       -2.0580     3.4930     0.9180 H     1 <1>   0.0800 
 32 H       -2.4680    -1.5610     1.3710 H     1 <1>   0.1500 
 33 H       -3.7800     1.0260    -1.7250 H     1 <1>   0.1500 
 34 H       -5.9840    -0.1250    -1.5810 H     1 <1>   0.1500 
 35 H       -7.1570    -3.6960     1.2640 H     1 <1>   0.0800 
 36 H       -5.6880    -3.9380     0.3640 H     1 <1>   0.0800 
 37 H       -7.5350    -0.1990     0.5200 H     1 <1>   0.0800 
 38 H       -8.0280    -1.5330     1.5330 H     1 <1>   0.0800 
 39 H       -8.6070    -1.4250    -0.1210 H     1 <1>   0.0800 
 40 H       -6.9270    -4.0330    -1.7370 H     1 <1>   0.0800 
 41 H       -8.4260    -3.7550    -0.8950 H     1 <1>   0.0800 
 42 H       -5.6570    -6.1620    -1.3610 H     1 <1>   0.1500 
 43 H       -9.5190    -5.5470     0.3340 H     1 <1>   0.1500 
 44 H       -9.7270    -7.9160     0.7450 H     1 <1>   0.1500 
 45 H       -4.0770    -9.8940    -0.4860 H     1 <1>   0.0800 
 46 H       -5.6890   -10.5940    -0.5380 H     1 <1>   0.0800 
 47 H       -5.2440    -9.4900     0.7720 H     1 <1>   0.0800 
 48 H       -9.0150   -11.4500     0.4300 H     1 <1>   0.0800 
 49 H       -9.8870   -10.0980    -0.2850 H     1 <1>   0.0800 
 50 H       -9.4390   -10.0670     1.4320 H     1 <1>   0.0800 
@<TRIPOS>BOND
  1   1   2  2   
  2   2   3  am  
  3   2   4  1   
  4   3   5  1   
  5   3   6  1   
  6   4   7  ar  
  7   4   8  ar  
  8   5  26  1   
  9   5  27  1   
 10   5  28  1   
 11   6  29  1   
 12   6  30  1   
 13   6  31  1   
 14   7   9  ar  
 15   7  32  1   
 16   8  10  ar  
 17   8  33  1   
 18   9  11  ar  
 19  10  11  ar  
 20  10  34  1   
 21  11  12  1   
 22  12  13  1   
 23  12  14  1   
 24  13  15  1   
 25  13  35  1   
 26  13  36  1   
 27  14  37  1   
 28  14  38  1   
 29  14  39  1   
 30  15  16  1   
 31  15  40  1   
 32  15  41  1   
 33  16  17  ar  
 34  16  18  ar  
 35  17  19  ar  
 36  17  42  1   
 37  18  20  ar  
 38  18  43  1   
 39  19  21  1   
 40  19  22  ar  
 41  20  22  ar  
 42  20  44  1   
 43  21  23  1   
 44  22  24  1   
 45  23  45  1   
 46  23  46  1   
 47  23  47  1   
 48  24  25  1   
 49  25  48  1   
 50  25  49  1   
 51  25  50  1   
@<TRIPOS>SUBSTRUCTURE
  1 ****  13 GROUP 4 **** **** 0

# MOE 2024.06 (io_trps.svl 2023.06)
