@<TRIPOS>MOLECULE
NONAME
48 50 1 0 0 
SMALL
USER_CHARGES


@<TRIPOS>ATOM
  1 O       -0.0870    -0.6890    -0.1980 O.3   1 <1>  -0.5600 
  2 C        1.2040    -0.9570     0.2570 C.3   1 <1>   0.2000 
  3 C       -0.5030     0.6380    -0.0520 C.3   1 <1>   0.1200 
  4 C        2.2170    -0.1330    -0.5540 C.3   1 <1>  -0.1600 
  5 C        1.4290    -2.4610     0.0980 C.3   1 <1>  -0.1600 
  6 C        0.4020     1.5580    -0.8800 C.3   1 <1>  -0.1600 
  7 C        1.8740     1.3590    -0.5030 C.3   1 <1>  -0.1600 
  8 C        0.2590    -3.2320     0.7080 C.3   1 <1>   0.3430 
  9 N        0.3600    -4.6860     0.3910 N.4   1 <1>  -0.9590 
 10 C       -0.9690    -5.3320     0.6410 C.3   1 <1>   0.3430 
 11 C        1.4640    -5.3510     1.1550 C.3   1 <1>   0.2630 
 12 C       -1.0660    -6.7310     0.0310 C.3   1 <1>   0.0210 
 13 C       -2.4480    -7.3150     0.2450 C.2   1 <1>  -0.1810 
 14 C       -2.8140    -8.5970    -0.2220 C.ar  1 <1>   0.0000 
 15 C       -3.5270    -6.7840     0.8720 C.2   1 <1>  -0.3020 
 16 C       -4.1390    -8.7900     0.1550 C.ar  1 <1>  -0.1520 
 17 C       -2.1480    -9.6060    -0.9270 C.ar  1 <1>  -0.1500 
 18 N       -4.5640    -7.6730     0.8240 N.pl3 1 <1>   0.0330 
 19 C       -4.8130    -9.9730    -0.1570 C.ar  1 <1>  -0.1500 
 20 C       -2.8110   -10.7710    -1.2350 C.ar  1 <1>  -0.1500 
 21 C       -4.1450   -10.9550    -0.8490 C.ar  1 <1>  -0.1500 
 22 H        1.2520    -0.6820     1.2980 H     1 <1>   0.0800 
 23 H       -0.4690     0.8990     0.9920 H     1 <1>   0.0800 
 24 H       -1.5200     0.7060    -0.3970 H     1 <1>   0.0800 
 25 H        2.2090    -0.4640    -1.5780 H     1 <1>   0.0800 
 26 H        3.2080    -0.2870    -0.1660 H     1 <1>   0.0800 
 27 H        2.3540    -2.7220     0.5790 H     1 <1>   0.0800 
 28 H        1.5050    -2.6850    -0.9510 H     1 <1>   0.0800 
 29 H        0.1190     2.5830    -0.7190 H     1 <1>   0.0800 
 30 H        0.2580     1.3380    -1.9240 H     1 <1>   0.0800 
 31 H        2.5070     1.9100    -1.1780 H     1 <1>   0.0800 
 32 H        2.0410     1.7330     0.4930 H     1 <1>   0.0800 
 33 H       -0.6570    -2.8420     0.2910 H     1 <1>   0.0800 
 34 H        0.2290    -3.0790     1.7750 H     1 <1>   0.0800 
 35 H        0.5540    -4.7540    -0.6190 H     1 <1>   0.4500 
 36 H       -1.7480    -4.7270     0.2070 H     1 <1>   0.0800 
 37 H       -1.1540    -5.3950     1.7010 H     1 <1>   0.0800 
 38 H        1.2770    -5.2870     2.2150 H     1 <1>   0.0800 
 39 H        2.4080    -4.8760     0.9420 H     1 <1>   0.0800 
 40 H        1.5410    -6.3900     0.8810 H     1 <1>   0.0800 
 41 H       -0.3510    -7.3910     0.4860 H     1 <1>   0.0800 
 42 H       -0.8800    -6.6820    -1.0270 H     1 <1>   0.0800 
 43 H       -3.6490    -5.8310     1.3580 H     1 <1>   0.1500 
 44 H       -1.1260    -9.4630    -1.2220 H     1 <1>   0.1500 
 45 H       -5.5050    -7.5450     1.2120 H     1 <1>   0.2700 
 46 H       -5.8370   -10.1060     0.1430 H     1 <1>   0.1500 
 47 H       -2.3120   -11.5560    -1.7770 H     1 <1>   0.1500 
 48 H       -4.6410   -11.8760    -1.1020 H     1 <1>   0.1500 
@<TRIPOS>BOND
  1   1   2  1   
  2   1   3  1   
  3   2   4  1   
  4   2   5  1   
  5   2  22  1   
  6   3   6  1   
  7   3  23  1   
  8   3  24  1   
  9   4   7  1   
 10   4  25  1   
 11   4  26  1   
 12   5   8  1   
 13   5  27  1   
 14   5  28  1   
 15   6   7  1   
 16   6  29  1   
 17   6  30  1   
 18   7  31  1   
 19   7  32  1   
 20   8   9  1   
 21   8  33  1   
 22   8  34  1   
 23   9  10  1   
 24   9  11  1   
 25   9  35  1   
 26  10  12  1   
 27  10  36  1   
 28  10  37  1   
 29  11  38  1   
 30  11  39  1   
 31  11  40  1   
 32  12  13  1   
 33  12  41  1   
 34  12  42  1   
 35  13  14  1   
 36  13  15  2   
 37  14  16  ar  
 38  14  17  ar  
 39  15  18  1   
 40  15  43  1   
 41  16  18  1   
 42  16  19  ar  
 43  17  20  ar  
 44  17  44  1   
 45  18  45  1   
 46  19  21  ar  
 47  19  46  1   
 48  20  21  ar  
 49  20  47  1   
 50  21  48  1   
@<TRIPOS>SUBSTRUCTURE
  1 ****  10 GROUP 4 **** **** 0

# MOE 2024.06 (io_trps.svl 2023.06)
