@<TRIPOS>MOLECULE
NONAME
55 58 1 0 0 
SMALL
USER_CHARGES


@<TRIPOS>ATOM
  1 O        0.2290    -1.2110     1.5760 O.3   1 <1>  -0.5600 
  2 C       -0.5590    -2.1810     2.2040 C.3   1 <1>   0.1200 
  3 C        1.2250    -1.7340     0.7510 C.3   1 <1>   0.1200 
  4 C       -1.2820    -3.0490     1.1600 C.3   1 <1>   0.2090 
  5 C        0.6010    -2.5690    -0.3830 C.3   1 <1>   0.2090 
  6 N       -0.3080    -3.6390     0.1650 N.pl3 1 <1>  -0.8380 
  7 C       -0.2990    -4.9680    -0.1260 C.ar  1 <1>   0.7710 
  8 N       -1.0850    -5.7900     0.5560 N.ar  1 <1>  -0.6200 
  9 N        0.5050    -5.4220    -1.1050 N.ar  1 <1>  -0.1790 
 10 C       -1.0480    -7.0700     0.2700 C.ar  1 <1>   0.4100 
 11 C        0.5650    -6.7330    -1.4430 C.ar  1 <1>   0.2180 
 12 N       -1.8530    -7.8350     1.0220 N.pl3 1 <1>  -0.8690 
 13 C       -0.2250    -7.5860    -0.7470 C.ar  1 <1>  -0.1500 
 14 C        1.4960    -7.1680    -2.5690 C.3   1 <1>  -0.0170 
 15 C       -1.9610    -9.3090     1.1720 C.3   1 <1>   0.2890 
 16 C        1.1040    -6.5490    -3.9170 C.3   1 <1>  -0.2400 
 17 C       -3.3590    -9.7970     0.8100 C.3   1 <1>  -0.0800 
 18 C       -1.9270    -9.6500     2.6570 C.3   1 <1>   0.1200 
 19 C       -4.1510    -9.5790     2.1050 C.3   1 <1>   0.1200 
 20 C       -4.0060    -9.1550    -0.4310 C.3   1 <1>  -0.0160 
 21 O       -3.2150    -9.3900     3.1250 O.3   1 <1>  -0.5600 
 22 C       -5.3650    -9.7790    -0.7160 C.ar  1 <1>  -0.1430 
 23 C       -5.4880   -10.9990    -1.3500 C.ar  1 <1>  -0.1500 
 24 C       -6.5450    -9.1610    -0.3520 C.ar  1 <1>  -0.1500 
 25 C       -6.7480   -11.5290    -1.5790 C.ar  1 <1>   0.1600 
 26 C       -7.7540    -9.7770    -0.6280 C.ar  1 <1>   0.1600 
 27 N       -7.8840   -10.9480    -1.2300 N.ar  1 <1>  -0.6200 
 28 H        0.0690    -2.7860     2.8350 H     1 <1>   0.0800 
 29 H       -1.2770    -1.6700     2.8220 H     1 <1>   0.0800 
 30 H        1.7770    -0.9050     0.3440 H     1 <1>   0.0800 
 31 H        1.8910    -2.3310     1.3500 H     1 <1>   0.0800 
 32 H       -1.9940    -2.4340     0.6360 H     1 <1>   0.0800 
 33 H       -1.8390    -3.8070     1.6810 H     1 <1>   0.0800 
 34 H        1.3970    -2.9860    -0.9710 H     1 <1>   0.0800 
 35 H        0.0300    -1.9090    -1.0160 H     1 <1>   0.0800 
 36 H        1.0420    -4.7230    -1.5980 H     1 <1>   0.4570 
 37 H       -2.4090    -7.3460     1.7350 H     1 <1>   0.4000 
 38 H       -0.2440    -8.6380    -0.9530 H     1 <1>   0.1500 
 39 H        2.5100    -6.8980    -2.3260 H     1 <1>   0.0800 
 40 H        1.4660    -8.2410    -2.6620 H     1 <1>   0.0800 
 41 H       -1.1870    -9.8210     0.6300 H     1 <1>   0.0800 
 42 H        1.1930    -5.4780    -3.9040 H     1 <1>   0.0800 
 43 H        0.0910    -6.8110    -4.1730 H     1 <1>   0.0800 
 44 H        1.7500    -6.9270    -4.6920 H     1 <1>   0.0800 
 45 H       -3.3040   -10.8590     0.6480 H     1 <1>   0.0800 
 46 H       -1.2160    -9.0570     3.2060 H     1 <1>   0.0800 
 47 H       -1.7280   -10.6970     2.8070 H     1 <1>   0.0800 
 48 H       -4.7660   -10.4290     2.3450 H     1 <1>   0.0800 
 49 H       -4.7590    -8.6930     2.0560 H     1 <1>   0.0800 
 50 H       -3.3680    -9.2950    -1.2850 H     1 <1>   0.0800 
 51 H       -4.1250    -8.0950    -0.2860 H     1 <1>   0.0800 
 52 H       -4.6200   -11.5450    -1.6700 H     1 <1>   0.1500 
 53 H       -6.5390    -8.2070     0.1420 H     1 <1>   0.1500 
 54 H       -6.8240   -12.4810    -2.0750 H     1 <1>   0.1500 
 55 H       -8.6630    -9.2800    -0.3360 H     1 <1>   0.1500 
@<TRIPOS>BOND
  1   1   2  1   
  2   1   3  1   
  3   2   4  1   
  4   2  28  1   
  5   2  29  1   
  6   3   5  1   
  7   3  30  1   
  8   3  31  1   
  9   4   6  1   
 10   4  32  1   
 11   4  33  1   
 12   5   6  1   
 13   5  34  1   
 14   5  35  1   
 15   6   7  1   
 16   7   8  ar  
 17   7   9  ar  
 18   8  10  ar  
 19   9  11  ar  
 20   9  36  1   
 21  10  12  1   
 22  10  13  ar  
 23  11  13  ar  
 24  11  14  1   
 25  12  15  1   
 26  12  37  1   
 27  13  38  1   
 28  14  16  1   
 29  14  39  1   
 30  14  40  1   
 31  15  17  1   
 32  15  18  1   
 33  15  41  1   
 34  16  42  1   
 35  16  43  1   
 36  16  44  1   
 37  17  19  1   
 38  17  20  1   
 39  17  45  1   
 40  18  21  1   
 41  18  46  1   
 42  18  47  1   
 43  19  21  1   
 44  19  48  1   
 45  19  49  1   
 46  20  22  1   
 47  20  50  1   
 48  20  51  1   
 49  22  23  ar  
 50  22  24  ar  
 51  23  25  ar  
 52  23  52  1   
 53  24  26  ar  
 54  24  53  1   
 55  25  27  ar  
 56  25  54  1   
 57  26  27  ar  
 58  26  55  1   
@<TRIPOS>SUBSTRUCTURE
  1 ****  10 GROUP 4 **** **** 0

# MOE 2024.06 (io_trps.svl 2023.06)
