@<TRIPOS>MOLECULE
NONAME
53 56 1 0 0 
SMALL
USER_CHARGES


@<TRIPOS>ATOM
  1 O       -0.1680     0.9600     0.3480 O.2   1 <1>  -0.5700 
  2 C        0.1370     2.1280     0.3870 C.2   1 <1>   0.5690 
  3 N        1.4350     2.5400     0.2550 N.am  1 <1>  -0.6600 
  4 C       -0.9700     3.1450     0.5700 C.3   1 <1>  -0.0990 
  5 C        1.9340     3.9360     0.2790 C.3   1 <1>   0.1400 
  6 C        2.5520     1.5840     0.1200 C.3   1 <1>   0.1400 
  7 C       -1.5390     3.5860    -0.7820 C.3   1 <1>   0.0210 
  8 C        3.4360     3.8280     0.0140 C.3   1 <1>  -0.0800 
  9 C        3.7950     2.4030     0.4380 C.3   1 <1>  -0.1600 
 10 C       -2.2750     4.9020    -0.6360 C.2   1 <1>   0.0460 
 11 C        4.2690     4.8860     0.7440 C.3   1 <1>   0.1400 
 12 N       -3.3400     5.0490     0.1590 N.2   1 <1>  -0.2270 
 13 C       -1.9800     6.0750    -1.2130 C.2   1 <1>  -0.3020 
 14 N        3.9300     6.2410     0.2510 N.am  1 <1>  -0.7300 
 15 N       -3.7020     6.2830     0.1050 N.2   1 <1>  -0.4180 
 16 N       -2.8820     6.9290    -0.7290 N.pl3 1 <1>   0.3140 
 17 C        4.5760     6.8770    -0.7620 C.2   1 <1>   0.5690 
 18 C       -2.9730     8.3820    -0.9560 C.3   1 <1>   0.0960 
 19 O        5.4490     6.3350    -1.3940 O.2   1 <1>  -0.5700 
 20 C        4.2050     8.3070    -1.1200 C.3   1 <1>   0.0440 
 21 C       -1.8440     9.1040    -0.2200 C.3   1 <1>   0.1200 
 22 C        2.9700     8.8210    -0.3840 C.ar  1 <1>  -0.1440 
 23 O       -0.6150     8.7560    -0.8210 O.3   1 <1>  -0.3620 
 24 C        1.7060     8.5850    -0.8990 C.ar  1 <1>  -0.1500 
 25 C        3.0980     9.5240     0.8040 C.ar  1 <1>  -0.1500 
 26 C        0.5760     9.0430    -0.2430 C.ar  1 <1>   0.0820 
 27 C        1.9730     9.9870     1.4660 C.ar  1 <1>  -0.1500 
 28 C        0.7120     9.7520     0.9470 C.ar  1 <1>  -0.1500 
 29 H       -0.5990     3.9940     1.1120 H     1 <1>   0.0800 
 30 H       -1.7550     2.7080     1.1610 H     1 <1>   0.0800 
 31 H        1.7520     4.3580     1.2520 H     1 <1>   0.0800 
 32 H        1.4510     4.5350    -0.4740 H     1 <1>   0.0800 
 33 H        2.5820     1.2220    -0.8940 H     1 <1>   0.0800 
 34 H        2.4330     0.7530     0.7960 H     1 <1>   0.0800 
 35 H       -2.2060     2.8330    -1.1620 H     1 <1>   0.0800 
 36 H       -0.7400     3.7150    -1.4910 H     1 <1>   0.0800 
 37 H        3.6060     3.9200    -1.0460 H     1 <1>   0.0800 
 38 H        4.6600     2.0290    -0.0800 H     1 <1>   0.0800 
 39 H        3.9730     2.3570     1.4990 H     1 <1>   0.0800 
 40 H        5.3150     4.6980     0.5640 H     1 <1>   0.0800 
 41 H        4.0980     4.8370     1.8050 H     1 <1>   0.0800 
 42 H       -1.2010     6.3530    -1.8970 H     1 <1>   0.1500 
 43 H        3.1800     6.7450     0.7350 H     1 <1>   0.3700 
 44 H       -3.9220     8.7200    -0.5850 H     1 <1>   0.0800 
 45 H       -2.9220     8.5810    -2.0100 H     1 <1>   0.0800 
 46 H        4.0370     8.3540    -2.1800 H     1 <1>   0.0800 
 47 H        5.0480     8.9350    -0.9030 H     1 <1>   0.0800 
 48 H       -1.8310     8.8030     0.8130 H     1 <1>   0.0800 
 49 H       -1.9600    10.1710    -0.2930 H     1 <1>   0.0800 
 50 H        1.5840     8.0420    -1.8190 H     1 <1>   0.1500 
 51 H        4.0730     9.7180     1.2200 H     1 <1>   0.1500 
 52 H        2.0820    10.5350     2.3860 H     1 <1>   0.1500 
 53 H       -0.1410    10.1280     1.4780 H     1 <1>   0.1500 
@<TRIPOS>BOND
  1   1   2  2   
  2   2   3  am  
  3   2   4  1   
  4   3   5  1   
  5   3   6  1   
  6   4   7  1   
  7   4  29  1   
  8   4  30  1   
  9   5   8  1   
 10   5  31  1   
 11   5  32  1   
 12   6   9  1   
 13   6  33  1   
 14   6  34  1   
 15   7  10  1   
 16   7  35  1   
 17   7  36  1   
 18   8   9  1   
 19   8  11  1   
 20   8  37  1   
 21   9  38  1   
 22   9  39  1   
 23  10  12  1   
 24  10  13  2   
 25  11  14  1   
 26  11  40  1   
 27  11  41  1   
 28  12  15  2   
 29  13  16  1   
 30  13  42  1   
 31  14  17  am  
 32  14  43  1   
 33  15  16  1   
 34  16  18  1   
 35  17  19  2   
 36  17  20  1   
 37  18  21  1   
 38  18  44  1   
 39  18  45  1   
 40  20  22  1   
 41  20  46  1   
 42  20  47  1   
 43  21  23  1   
 44  21  48  1   
 45  21  49  1   
 46  22  24  ar  
 47  22  25  ar  
 48  23  26  1   
 49  24  26  ar  
 50  24  50  1   
 51  25  27  ar  
 52  25  51  1   
 53  26  28  ar  
 54  27  28  ar  
 55  27  52  1   
 56  28  53  1   
@<TRIPOS>SUBSTRUCTURE
  1 ****   5 GROUP 4 **** **** 0

# MOE 2024.06 (io_trps.svl 2023.06)
