@<TRIPOS>MOLECULE
NONAME
61 66 1 0 0 
SMALL
USER_CHARGES


@<TRIPOS>ATOM
  1 N        0.3200    -0.2910     0.0620 N.ar  1 <1>  -0.6200 
  2 C        1.3120     0.5880    -0.0020 C.ar  1 <1>   0.7710 
  3 C        0.6150    -1.5680    -0.0180 C.ar  1 <1>   0.4100 
  4 N        2.5910     0.2040    -0.1510 N.ar  1 <1>  -0.1790 
  5 N        1.0330     1.9110     0.0840 N.pl3 1 <1>  -0.8380 
  6 N       -0.4590    -2.3740     0.0590 N.pl3 1 <1>  -0.8690 
  7 C        1.9420    -2.0130    -0.1710 C.ar  1 <1>  -0.1500 
  8 C        2.9420    -1.1000    -0.2380 C.ar  1 <1>   0.2170 
  9 C        1.9790     3.0610     0.0970 C.3   1 <1>   0.2090 
 10 C       -0.3670     2.4050     0.2160 C.3   1 <1>   0.2090 
 11 C       -0.6720    -3.8330     0.0310 C.3   1 <1>   0.3690 
 12 C        4.4120    -1.4650    -0.4040 C.3   1 <1>  -0.0170 
 13 C        1.1410     4.2570     0.5250 C.3   1 <1>  -0.1600 
 14 C       -0.2730     3.9170     0.0710 C.3   1 <1>  -0.1600 
 15 C       -2.1850    -4.0700     0.1780 C.3   1 <1>  -0.1600 
 16 C       -0.2120    -4.4300    -1.3120 C.3   1 <1>  -0.1600 
 17 C        0.0470    -4.5170     1.2080 C.3   1 <1>  -0.1600 
 18 C        5.2500    -1.0500     0.8120 C.3   1 <1>  -0.2400 
 19 C       -2.5080    -5.5860     0.1590 C.3   1 <1>   0.2560 
 20 C       -0.4910    -5.9440    -1.3340 C.3   1 <1>  -0.0800 
 21 C       -0.2320    -6.0310     1.1830 C.3   1 <1>  -0.0800 
 22 N       -3.9820    -5.8470     0.3010 N.pl3 1 <1>   0.3140 
 23 C       -2.0040    -6.1790    -1.1780 C.3   1 <1>  -0.1600 
 24 C       -1.7470    -6.2650     1.3210 C.3   1 <1>  -0.1600 
 25 C        0.2480    -6.6160    -0.1600 C.3   1 <1>  -0.1600 
 26 N       -4.5060    -7.0740     0.3120 N.2   1 <1>  -0.7070 
 27 C       -4.9900    -4.9720     0.4340 C.2   1 <1>   0.0360 
 28 C       -5.7690    -6.8450     0.4490 C.2   1 <1>   0.3660 
 29 N       -6.1270    -5.5590     0.5300 N.2   1 <1>  -0.5650 
 30 H        3.2700     0.9510    -0.1920 H     1 <1>   0.4570 
 31 H       -1.3380    -1.8640     0.1680 H     1 <1>   0.4000 
 32 H        2.1460    -3.0610    -0.2320 H     1 <1>   0.1500 
 33 H        2.3590     3.2250    -0.8980 H     1 <1>   0.0800 
 34 H        2.7910     2.9050     0.7870 H     1 <1>   0.0800 
 35 H       -0.7450     2.1470     1.1910 H     1 <1>   0.0800 
 36 H       -1.0070     1.9800    -0.5400 H     1 <1>   0.0800 
 37 H        4.8040    -1.0000    -1.2920 H     1 <1>   0.0800 
 38 H        4.5020    -2.5310    -0.5370 H     1 <1>   0.0800 
 39 H        1.4990     5.1750     0.0930 H     1 <1>   0.0800 
 40 H        1.1680     4.3430     1.5980 H     1 <1>   0.0800 
 41 H       -1.0240     4.4210     0.6530 H     1 <1>   0.0800 
 42 H       -0.4010     4.1790    -0.9650 H     1 <1>   0.0800 
 43 H       -2.6970    -3.5860    -0.6350 H     1 <1>   0.0800 
 44 H       -2.5180    -3.6460     1.1090 H     1 <1>   0.0800 
 45 H        0.8370    -4.2750    -1.4630 H     1 <1>   0.0800 
 46 H       -0.7360    -3.9530    -2.1220 H     1 <1>   0.0800 
 47 H       -0.2990    -4.1000     2.1380 H     1 <1>   0.0800 
 48 H        1.1060    -4.3660     1.1540 H     1 <1>   0.0800 
 49 H        5.2540     0.0160     0.9460 H     1 <1>   0.0800 
 50 H        6.2690    -1.3740     0.6790 H     1 <1>   0.0800 
 51 H        4.8700    -1.5120     1.7080 H     1 <1>   0.0800 
 52 H       -0.1530    -6.3650    -2.2670 H     1 <1>   0.0800 
 53 H        0.2850    -6.5130     1.9970 H     1 <1>   0.0800 
 54 H       -2.5280    -5.7260    -2.0010 H     1 <1>   0.0800 
 55 H       -2.2020    -7.2380    -1.2040 H     1 <1>   0.0800 
 56 H       -1.9430    -7.3240     1.3150 H     1 <1>   0.0800 
 57 H       -2.0910    -5.8730     2.2630 H     1 <1>   0.0800 
 58 H        1.3100    -6.4700    -0.2630 H     1 <1>   0.0800 
 59 H        0.0670    -7.6780    -0.1780 H     1 <1>   0.0800 
 60 H       -4.8530    -3.9070     0.4570 H     1 <1>   0.1500 
 61 H       -6.5100    -7.6270     0.4980 H     1 <1>   0.1500 
@<TRIPOS>BOND
  1   1   2  ar  
  2   1   3  ar  
  3   2   4  ar  
  4   2   5  1   
  5   3   6  1   
  6   3   7  ar  
  7   4   8  ar  
  8   4  30  1   
  9   5   9  1   
 10   5  10  1   
 11   6  11  1   
 12   6  31  1   
 13   7   8  ar  
 14   7  32  1   
 15   8  12  1   
 16   9  13  1   
 17   9  33  1   
 18   9  34  1   
 19  10  14  1   
 20  10  35  1   
 21  10  36  1   
 22  11  15  1   
 23  11  16  1   
 24  11  17  1   
 25  12  18  1   
 26  12  37  1   
 27  12  38  1   
 28  13  14  1   
 29  13  39  1   
 30  13  40  1   
 31  14  41  1   
 32  14  42  1   
 33  15  19  1   
 34  15  43  1   
 35  15  44  1   
 36  16  20  1   
 37  16  45  1   
 38  16  46  1   
 39  17  21  1   
 40  17  47  1   
 41  17  48  1   
 42  18  49  1   
 43  18  50  1   
 44  18  51  1   
 45  19  22  1   
 46  19  23  1   
 47  19  24  1   
 48  20  23  1   
 49  20  25  1   
 50  20  52  1   
 51  21  24  1   
 52  21  25  1   
 53  21  53  1   
 54  22  26  1   
 55  22  27  1   
 56  23  54  1   
 57  23  55  1   
 58  24  56  1   
 59  24  57  1   
 60  25  58  1   
 61  25  59  1   
 62  26  28  2   
 63  27  29  2   
 64  27  60  1   
 65  28  29  1   
 66  28  61  1   
@<TRIPOS>SUBSTRUCTURE
  1 ****   6 GROUP 4 **** **** 0

# MOE 2024.06 (io_trps.svl 2023.06)
