@<TRIPOS>MOLECULE
NONAME
48 49 1 0 0 
SMALL
USER_CHARGES


@<TRIPOS>ATOM
  1 S        0.6500    -0.0450    -0.0510 S.o2  1 <1>   1.3330 
  2 O       -0.0130    -1.2700    -0.4220 O.2   1 <1>  -0.6500 
  3 O        1.9410     0.2980    -0.6070 O.2   1 <1>  -0.6500 
  4 N        0.7990     0.0040     1.6380 N.am  1 <1>  -0.8490 
  5 C       -0.4230     1.3520    -0.3980 C.3   1 <1>  -0.0550 
  6 C        1.9930    -0.7220     2.0930 C.3   1 <1>   0.1160 
  7 C       -0.3750    -0.5520     2.3290 C.3   1 <1>   0.1160 
  8 C        0.1190     2.6900     0.1510 C.3   1 <1>  -0.0800 
  9 C       -0.7640     3.8750    -0.2100 C.3   1 <1>   0.2000 
 10 C        1.4930     3.0840    -0.3960 C.3   1 <1>   0.3430 
 11 O       -1.8280     3.9620     0.6730 O.3   1 <1>  -0.6800 
 12 C        0.1580     5.0950    -0.1340 C.3   1 <1>   0.3430 
 13 N        1.5470     4.5750    -0.3620 N.4   1 <1>  -0.9590 
 14 C        2.5210     5.1010     0.6350 C.3   1 <1>   0.4860 
 15 C        2.5640     6.6050     0.4890 C.ar  1 <1>  -0.1440 
 16 C        1.9860     7.4230     1.4490 C.ar  1 <1>  -0.1500 
 17 C        3.1770     7.1780    -0.6160 C.ar  1 <1>  -0.1500 
 18 C        2.0070     8.7980     1.2950 C.ar  1 <1>  -0.1500 
 19 C        3.1910     8.5520    -0.7650 C.ar  1 <1>  -0.1500 
 20 C        2.6050     9.3700     0.1850 C.ar  1 <1>  -0.1440 
 21 C        2.6260    10.8880     0.0020 C.3   1 <1>  -0.1230 
 22 C        4.0060    11.4760    -0.2190 C.2   1 <1>   0.9060 
 23 O        4.5070    11.4040    -1.3480 O.co2 1 <1>  -0.9000 
 24 O        4.5690    12.0440     0.7230 O.co2 1 <1>  -0.9000 
 25 H       -0.5550     1.4270    -1.4610 H     1 <1>   0.0800 
 26 H       -1.3900     1.1670     0.0290 H     1 <1>   0.0800 
 27 H        2.0760    -0.6730     3.1650 H     1 <1>   0.0800 
 28 H        2.8800    -0.2840     1.6670 H     1 <1>   0.0800 
 29 H        1.9420    -1.7560     1.7910 H     1 <1>   0.0800 
 30 H       -0.2600    -0.4530     3.3950 H     1 <1>   0.0800 
 31 H       -0.4960    -1.5970     2.0900 H     1 <1>   0.0800 
 32 H       -1.2690    -0.0280     2.0360 H     1 <1>   0.0800 
 33 H        0.2110     2.6230     1.2220 H     1 <1>   0.0800 
 34 H       -1.1640     3.7860    -1.2070 H     1 <1>   0.0800 
 35 H        1.5850     2.7430    -1.4150 H     1 <1>   0.0800 
 36 H        2.2840     2.6350     0.1850 H     1 <1>   0.0800 
 37 H       -1.5560     3.9170     1.6120 H     1 <1>   0.4000 
 38 H        0.0850     5.5410     0.8440 H     1 <1>   0.0800 
 39 H       -0.1070     5.8280    -0.8790 H     1 <1>   0.0800 
 40 H        1.8690     4.9300    -1.2730 H     1 <1>   0.4500 
 41 H        2.2220     4.8340     1.6350 H     1 <1>   0.0800 
 42 H        3.5040     4.6970     0.4490 H     1 <1>   0.0800 
 43 H        1.5190     7.0120     2.3270 H     1 <1>   0.1500 
 44 H        3.6570     6.5810    -1.3700 H     1 <1>   0.1500 
 45 H        1.5640     9.4320     2.0430 H     1 <1>   0.1500 
 46 H        3.6730     9.0020    -1.6200 H     1 <1>   0.1500 
 47 H        2.2060    11.3750     0.8610 H     1 <1>   0.0800 
 48 H        2.0290    11.1490    -0.8490 H     1 <1>   0.0800 
@<TRIPOS>BOND
  1   1   2  2   
  2   1   3  2   
  3   1   4  am  
  4   1   5  1   
  5   4   6  1   
  6   4   7  1   
  7   5   8  1   
  8   5  25  1   
  9   5  26  1   
 10   6  27  1   
 11   6  28  1   
 12   6  29  1   
 13   7  30  1   
 14   7  31  1   
 15   7  32  1   
 16   8   9  1   
 17   8  10  1   
 18   8  33  1   
 19   9  11  1   
 20   9  12  1   
 21   9  34  1   
 22  10  13  1   
 23  10  35  1   
 24  10  36  1   
 25  11  37  1   
 26  12  13  1   
 27  12  38  1   
 28  12  39  1   
 29  13  14  1   
 30  13  40  1   
 31  14  15  1   
 32  14  41  1   
 33  14  42  1   
 34  15  16  ar  
 35  15  17  ar  
 36  16  18  ar  
 37  16  43  1   
 38  17  19  ar  
 39  17  44  1   
 40  18  20  ar  
 41  18  45  1   
 42  19  20  ar  
 43  19  46  1   
 44  20  21  1   
 45  21  22  1   
 46  21  47  1   
 47  21  48  1   
 48  22  23  ar  
 49  22  24  ar  
@<TRIPOS>SUBSTRUCTURE
  1 ****  13 GROUP 4 **** **** 0

# MOE 2024.06 (io_trps.svl 2023.06)
