@<TRIPOS>MOLECULE
NONAME
42 44 1 0 0 
SMALL
USER_CHARGES


@<TRIPOS>ATOM
  1 S       -0.0240     0.4860     1.5520 S.3   1 <1>  -0.0800 
  2 C       -1.2690    -0.2240     0.5320 C.2   1 <1>  -0.1400 
  3 C       -0.3310     2.0860     0.9170 C.2   1 <1>  -0.1100 
  4 C       -1.8440     0.7350    -0.2330 C.2   1 <1>  -0.1810 
  5 C       -1.4200    -1.7270     0.7410 C.3   1 <1>   0.3890 
  6 C       -1.3090     2.0440    -0.0030 C.2   1 <1>  -0.1500 
  7 C       -2.9500     0.6020    -1.2680 C.3   1 <1>  -0.0590 
  8 N       -2.6370    -2.2900     0.0950 N.pl3 1 <1>  -0.8380 
  9 C       -3.7900    -2.4180     0.8590 C.ar  1 <1>   0.4100 
 10 C       -2.3690    -3.2150    -1.0430 C.3   1 <1>   0.1290 
 11 N       -4.3980    -3.5920     0.8150 N.ar  1 <1>  -0.6200 
 12 C       -4.2760    -1.3530     1.6370 C.ar  1 <1>   0.1600 
 13 C       -5.5000    -3.6760     1.5800 C.ar  1 <1>   0.3960 
 14 N       -5.3470    -1.3980     2.4010 N.ar  1 <1>  -0.6200 
 15 C       -6.2910    -4.9090     1.6500 C.2   1 <1>   0.5440 
 16 C       -5.9300    -2.5880     2.3470 C.ar  1 <1>   0.1600 
 17 O       -6.9280    -5.1400     2.6660 O.2   1 <1>  -0.5700 
 18 N       -6.3970    -5.8330     0.6230 N.am  1 <1>  -0.6600 
 19 C       -7.2910    -7.0100     0.6960 C.3   1 <1>   0.1400 
 20 C       -5.7930    -5.7170    -0.7250 C.3   1 <1>   0.1400 
 21 C       -7.5240    -7.4080    -0.7550 C.3   1 <1>  -0.1600 
 22 C       -6.2630    -6.9540    -1.4830 C.3   1 <1>  -0.1600 
 23 H        0.2590     2.8970     1.3040 H     1 <1>   0.1500 
 24 H       -1.4670    -1.9250     1.7990 H     1 <1>   0.0800 
 25 H       -0.5420    -2.2210     0.3630 H     1 <1>   0.0800 
 26 H       -1.6830     2.8970    -0.5420 H     1 <1>   0.1500 
 27 H       -3.1560    -0.4220    -1.5080 H     1 <1>   0.0800 
 28 H       -2.6600     1.1000    -2.1750 H     1 <1>   0.0800 
 29 H       -3.8510     1.0550    -0.8970 H     1 <1>   0.0800 
 30 H       -1.6830    -2.7590    -1.7350 H     1 <1>   0.0800 
 31 H       -3.2860    -3.4340    -1.5630 H     1 <1>   0.0800 
 32 H       -1.9490    -4.1350    -0.6740 H     1 <1>   0.0800 
 33 H       -3.7360    -0.4250     1.6060 H     1 <1>   0.1500 
 34 H       -6.8130    -2.7140     2.9490 H     1 <1>   0.1500 
 35 H       -8.2150    -6.7690     1.1950 H     1 <1>   0.0800 
 36 H       -6.7870    -7.7970     1.2310 H     1 <1>   0.0800 
 37 H       -4.7190    -5.6930    -0.6620 H     1 <1>   0.0800 
 38 H       -6.1520    -4.8190    -1.1990 H     1 <1>   0.0800 
 39 H       -8.3780    -6.8710    -1.1300 H     1 <1>   0.0800 
 40 H       -7.7010    -8.4640    -0.8560 H     1 <1>   0.0800 
 41 H       -5.5060    -7.7160    -1.4080 H     1 <1>   0.0800 
 42 H       -6.4430    -6.7420    -2.5220 H     1 <1>   0.0800 
@<TRIPOS>BOND
  1   1   2  1   
  2   1   3  1   
  3   2   4  2   
  4   2   5  1   
  5   3   6  2   
  6   3  23  1   
  7   4   6  1   
  8   4   7  1   
  9   5   8  1   
 10   5  24  1   
 11   5  25  1   
 12   6  26  1   
 13   7  27  1   
 14   7  28  1   
 15   7  29  1   
 16   8   9  1   
 17   8  10  1   
 18   9  11  ar  
 19   9  12  ar  
 20  10  30  1   
 21  10  31  1   
 22  10  32  1   
 23  11  13  ar  
 24  12  14  ar  
 25  12  33  1   
 26  13  15  1   
 27  13  16  ar  
 28  14  16  ar  
 29  15  17  2   
 30  15  18  am  
 31  16  34  1   
 32  18  19  1   
 33  18  20  1   
 34  19  21  1   
 35  19  35  1   
 36  19  36  1   
 37  20  22  1   
 38  20  37  1   
 39  20  38  1   
 40  21  22  1   
 41  21  39  1   
 42  21  40  1   
 43  22  41  1   
 44  22  42  1   
@<TRIPOS>SUBSTRUCTURE
  1 ****   9 GROUP 4 **** **** 0

# MOE 2024.06 (io_trps.svl 2023.06)
