@<TRIPOS>MOLECULE
NONAME
44 46 1 0 0 
SMALL
USER_CHARGES


@<TRIPOS>ATOM
  1 O       -0.1620    -0.0410    -2.1030 O.2   1 <1>  -0.5700 
  2 C       -0.9290     0.7140    -1.5580 C.2   1 <1>   0.5690 
  3 N       -2.0010     0.2560    -0.8440 N.am  1 <1>  -0.6600 
  4 C       -0.6550     2.2030    -1.6820 C.3   1 <1>  -0.0990 
  5 C       -3.0350     1.0680    -0.1530 C.3   1 <1>   0.1400 
  6 C       -2.2530    -1.1920    -0.6480 C.3   1 <1>   0.1400 
  7 C        0.1380     2.7340    -0.4770 C.3   1 <1>  -0.1600 
  8 C       -4.0640     0.0510     0.3400 C.3   1 <1>   0.2000 
  9 C       -3.3080    -1.2700     0.4560 C.3   1 <1>  -0.0800 
 10 C        0.4710     4.2240    -0.6310 C.3   1 <1>   0.0960 
 11 O       -4.5930     0.4110     1.5680 O.3   1 <1>  -0.6800 
 12 C       -4.2240    -2.4980     0.3460 C.3   1 <1>   0.0200 
 13 N        1.1290     4.7360     0.5850 N.pl3 1 <1>   0.3140 
 14 C       -3.4200    -3.7820     0.3990 C.2   1 <1>  -0.0400 
 15 N        0.4500     5.1500     1.6450 N.2   1 <1>  -0.7070 
 16 C        2.4350     4.8660     0.8370 C.2   1 <1>   0.0360 
 17 O       -2.7440    -4.0850     1.4750 O.3   1 <1>  -0.0190 
 18 C       -3.2280    -4.7610    -0.4980 C.2   1 <1>  -0.1500 
 19 C        1.3920     5.5010     2.4580 C.2   1 <1>   0.3660 
 20 N        2.6450     5.3460     2.0090 N.2   1 <1>  -0.5650 
 21 N       -2.1070    -5.2120     1.3450 N.2   1 <1>  -0.4100 
 22 C       -2.3800    -5.6430     0.1660 C.2   1 <1>   0.1080 
 23 C       -1.8450    -6.9330    -0.4130 C.3   1 <1>  -0.0590 
 24 H       -0.0870     2.3600    -2.5820 H     1 <1>   0.0800 
 25 H       -1.5810     2.7350    -1.7890 H     1 <1>   0.0800 
 26 H       -2.5860     1.5880     0.6750 H     1 <1>   0.0800 
 27 H       -3.4900     1.7650    -0.8350 H     1 <1>   0.0800 
 28 H       -2.6220    -1.6070    -1.5710 H     1 <1>   0.0800 
 29 H       -1.3480    -1.7050    -0.3660 H     1 <1>   0.0800 
 30 H        1.0510     2.1700    -0.3810 H     1 <1>   0.0800 
 31 H       -0.4410     2.5910     0.4200 H     1 <1>   0.0800 
 32 H       -4.8720    -0.0190    -0.3690 H     1 <1>   0.0800 
 33 H       -2.7820    -1.3010     1.3940 H     1 <1>   0.0800 
 34 H       -0.4300     4.7910    -0.7830 H     1 <1>   0.0800 
 35 H        1.1220     4.3790    -1.4720 H     1 <1>   0.0800 
 36 H       -3.8990     0.4040     2.2560 H     1 <1>   0.4000 
 37 H       -4.7750    -2.4650    -0.5770 H     1 <1>   0.0800 
 38 H       -4.9320    -2.4940     1.1570 H     1 <1>   0.0800 
 39 H        3.2000     4.5940     0.1320 H     1 <1>   0.1500 
 40 H       -3.6130    -4.8720    -1.4940 H     1 <1>   0.1500 
 41 H        1.2070     5.8970     3.4440 H     1 <1>   0.1500 
 42 H       -2.6610    -7.5750    -0.6910 H     1 <1>   0.0800 
 43 H       -1.2380    -7.4380     0.3160 H     1 <1>   0.0800 
 44 H       -1.2460    -6.7230    -1.2790 H     1 <1>   0.0800 
@<TRIPOS>BOND
  1   1   2  2   
  2   2   3  am  
  3   2   4  1   
  4   3   5  1   
  5   3   6  1   
  6   4   7  1   
  7   4  24  1   
  8   4  25  1   
  9   5   8  1   
 10   5  26  1   
 11   5  27  1   
 12   6   9  1   
 13   6  28  1   
 14   6  29  1   
 15   7  10  1   
 16   7  30  1   
 17   7  31  1   
 18   8   9  1   
 19   8  11  1   
 20   8  32  1   
 21   9  12  1   
 22   9  33  1   
 23  10  13  1   
 24  10  34  1   
 25  10  35  1   
 26  11  36  1   
 27  12  14  1   
 28  12  37  1   
 29  12  38  1   
 30  13  15  1   
 31  13  16  1   
 32  14  17  1   
 33  14  18  2   
 34  15  19  2   
 35  16  20  2   
 36  16  39  1   
 37  17  21  1   
 38  18  22  1   
 39  18  40  1   
 40  19  20  1   
 41  19  41  1   
 42  21  22  2   
 43  22  23  1   
 44  23  42  1   
 45  23  43  1   
 46  23  44  1   
@<TRIPOS>SUBSTRUCTURE
  1 ****   3 GROUP 4 **** **** 0

# MOE 2024.06 (io_trps.svl 2023.06)
