@<TRIPOS>MOLECULE
NONAME
54 57 1 0 0 
SMALL
USER_CHARGES


@<TRIPOS>ATOM
  1 O       -1.1750     2.9130    -2.1090 O.2   1 <1>  -0.5700 
  2 C       -0.0440     2.9290    -1.6960 C.2   1 <1>   0.4950 
  3 C        0.5970     3.9040    -0.8870 C.2   1 <1>  -0.1240 
  4 C        0.9530     1.8460    -2.0340 C.3   1 <1>  -0.0990 
  5 C        1.9000     3.6220    -0.6880 C.2   1 <1>  -0.1670 
  6 C       -0.1720     5.1080    -0.3500 C.3   1 <1>   0.0390 
  7 C        2.2740     2.3330    -1.4040 C.3   1 <1>  -0.0220 
  8 C        2.9020     4.3230     0.0700 C.ar  1 <1>   0.0280 
  9 C       -1.2030     4.7100     0.7020 C.2   1 <1>   0.5690 
 10 C        2.6960     4.6330     1.4120 C.ar  1 <1>  -0.1500 
 11 C        4.1100     4.7110    -0.5070 C.ar  1 <1>  -0.1500 
 12 O       -0.7670     4.3340     1.7660 O.2   1 <1>  -0.5700 
 13 N       -2.5590     4.7940     0.4860 N.am  1 <1>  -0.6600 
 14 C        3.6510     5.3090     2.1480 C.ar  1 <1>  -0.1500 
 15 C        5.0700     5.3860     0.2240 C.ar  1 <1>  -0.1500 
 16 C       -3.4930     4.4390     1.5990 C.3   1 <1>   0.1400 
 17 C       -3.1940     5.1200    -0.8320 C.3   1 <1>   0.1400 
 18 C        4.8420     5.6880     1.5550 C.ar  1 <1>  -0.1500 
 19 C       -4.8550     5.1100     1.4080 C.3   1 <1>  -0.1600 
 20 C       -4.4880     4.3270    -0.9930 C.3   1 <1>  -0.1600 
 21 C       -5.5200     4.7270     0.0750 C.3   1 <1>   0.4180 
 22 O       -6.1840     5.8930    -0.3510 O.3   1 <1>  -0.5600 
 23 C       -6.5190     3.5930     0.3030 C.2   1 <1>  -0.2880 
 24 C       -7.2560     5.7480    -1.2420 C.3   1 <1>   0.1200 
 25 C       -7.8210     3.6670     0.0180 C.2   1 <1>  -0.2760 
 26 C       -8.3860     4.9290    -0.6050 C.3   1 <1>  -0.0220 
 27 C       -8.8260     2.5600     0.2810 C.3   1 <1>  -0.1020 
 28 H        1.0390     1.7440    -3.1000 H     1 <1>   0.0800 
 29 H        0.6340     0.9160    -1.5990 H     1 <1>   0.0800 
 30 H       -0.6200     5.6410    -1.1630 H     1 <1>   0.0800 
 31 H        0.5140     5.7890     0.1170 H     1 <1>   0.0800 
 32 H        3.0120     2.5190    -2.1640 H     1 <1>   0.0800 
 33 H        2.6550     1.6110    -0.7010 H     1 <1>   0.0800 
 34 H        1.7770     4.3340     1.8850 H     1 <1>   0.1500 
 35 H        4.2950     4.4870    -1.5420 H     1 <1>   0.1500 
 36 H        3.4660     5.5380     3.1830 H     1 <1>   0.1500 
 37 H        5.9950     5.6790    -0.2410 H     1 <1>   0.1500 
 38 H       -3.0730     4.7540     2.5390 H     1 <1>   0.0800 
 39 H       -3.6100     3.3690     1.6270 H     1 <1>   0.0800 
 40 H       -2.5410     4.8700    -1.6460 H     1 <1>   0.0800 
 41 H       -3.4060     6.1750    -0.8750 H     1 <1>   0.0800 
 42 H        5.5860     6.2150     2.1260 H     1 <1>   0.1500 
 43 H       -4.7030     6.1730     1.4500 H     1 <1>   0.0800 
 44 H       -5.5010     4.8440     2.2240 H     1 <1>   0.0800 
 45 H       -4.2470     3.2830    -0.8970 H     1 <1>   0.0800 
 46 H       -4.8840     4.4660    -1.9790 H     1 <1>   0.0800 
 47 H       -6.0610     2.7200     0.7320 H     1 <1>   0.1500 
 48 H       -6.9030     5.2650    -2.1350 H     1 <1>   0.0800 
 49 H       -7.6070     6.7330    -1.4970 H     1 <1>   0.0800 
 50 H       -9.1000     4.6810    -1.3700 H     1 <1>   0.0800 
 51 H       -8.8850     5.5160     0.1450 H     1 <1>   0.0800 
 52 H       -9.5970     2.9110     0.9440 H     1 <1>   0.0800 
 53 H       -8.3430     1.7140     0.7380 H     1 <1>   0.0800 
 54 H       -9.2760     2.2390    -0.6410 H     1 <1>   0.0800 
@<TRIPOS>BOND
  1   1   2  2   
  2   2   3  1   
  3   2   4  1   
  4   3   5  2   
  5   3   6  1   
  6   4   7  1   
  7   4  28  1   
  8   4  29  1   
  9   5   7  1   
 10   5   8  1   
 11   6   9  1   
 12   6  30  1   
 13   6  31  1   
 14   7  32  1   
 15   7  33  1   
 16   8  10  ar  
 17   8  11  ar  
 18   9  12  2   
 19   9  13  am  
 20  10  14  ar  
 21  10  34  1   
 22  11  15  ar  
 23  11  35  1   
 24  13  16  1   
 25  13  17  1   
 26  14  18  ar  
 27  14  36  1   
 28  15  18  ar  
 29  15  37  1   
 30  16  19  1   
 31  16  38  1   
 32  16  39  1   
 33  17  20  1   
 34  17  40  1   
 35  17  41  1   
 36  18  42  1   
 37  19  21  1   
 38  19  43  1   
 39  19  44  1   
 40  20  21  1   
 41  20  45  1   
 42  20  46  1   
 43  21  22  1   
 44  21  23  1   
 45  22  24  1   
 46  23  25  2   
 47  23  47  1   
 48  24  26  1   
 49  24  48  1   
 50  24  49  1   
 51  25  26  1   
 52  25  27  1   
 53  26  50  1   
 54  26  51  1   
 55  27  52  1   
 56  27  53  1   
 57  27  54  1   
@<TRIPOS>SUBSTRUCTURE
  1 ****   9 GROUP 4 **** **** 0

# MOE 2024.06 (io_trps.svl 2023.06)
