@<TRIPOS>MOLECULE
NONAME
45 47 1 0 0 
SMALL
USER_CHARGES


@<TRIPOS>ATOM
  1 S       -0.2770    -1.2460    -0.1030 S.3   1 <1>  -0.0800 
  2 C       -1.9010    -1.5730     0.4750 C.2   1 <1>  -0.1400 
  3 C       -0.5110     0.4860     0.0470 C.2   1 <1>  -0.1400 
  4 C       -2.5370    -0.4170     0.7540 C.2   1 <1>  -0.1500 
  5 C       -2.2740    -3.0400     0.5520 C.3   1 <1>   0.5230 
  6 C       -1.7470     0.7500     0.5090 C.2   1 <1>  -0.1500 
  7 C        0.6650     1.3640    -0.3500 C.3   1 <1>   0.0200 
  8 N       -3.7560    -3.1760     0.6600 N.4   1 <1>  -0.9590 
  9 C        0.3570     2.8550    -0.1860 C.3   1 <1>  -0.2400 
 10 C       -4.4430    -2.7330    -0.6020 C.3   1 <1>   0.3430 
 11 C       -4.1310    -4.6020     0.8910 C.3   1 <1>   0.3430 
 12 C       -5.3150    -3.9100    -1.0630 C.3   1 <1>   0.2000 
 13 C       -4.6440    -5.1360    -0.4510 C.3   1 <1>  -0.0800 
 14 O       -6.5940    -3.7820    -0.5360 O.3   1 <1>  -0.6800 
 15 C       -3.5160    -5.6540    -1.3730 C.3   1 <1>   0.0210 
 16 C       -2.4960    -6.4940    -0.6320 C.2   1 <1>   0.1080 
 17 N       -1.5290    -5.9690     0.0600 N.2   1 <1>  -0.7070 
 18 C       -2.4690    -7.8830    -0.6110 C.2   1 <1>  -0.1500 
 19 N       -0.8360    -7.0330     0.5270 N.pl3 1 <1>   0.3000 
 20 C       -1.3950    -8.1980     0.1410 C.2   1 <1>  -0.3320 
 21 C       -0.8530    -9.5670     0.5120 C.3   1 <1>  -0.0600 
 22 H       -3.5390    -0.3030     1.1300 H     1 <1>   0.1500 
 23 H       -1.7910    -3.4890     1.4040 H     1 <1>   0.0800 
 24 H       -1.9210    -3.5460    -0.3320 H     1 <1>   0.0800 
 25 H       -2.1450     1.7330     0.6940 H     1 <1>   0.1500 
 26 H        1.5140     1.1080     0.2600 H     1 <1>   0.0800 
 27 H        0.9210     1.1650    -1.3760 H     1 <1>   0.0800 
 28 H       -4.0500    -2.5950     1.4530 H     1 <1>   0.4500 
 29 H        0.1210     3.0760     0.8400 H     1 <1>   0.0800 
 30 H       -0.4770     3.1340    -0.8050 H     1 <1>   0.0800 
 31 H        1.2110     3.4400    -0.4750 H     1 <1>   0.0800 
 32 H       -5.0430    -1.8520    -0.4460 H     1 <1>   0.0800 
 33 H       -3.7050    -2.5220    -1.3590 H     1 <1>   0.0800 
 34 H       -3.3110    -5.1810     1.2820 H     1 <1>   0.0800 
 35 H       -4.9360    -4.6440     1.6060 H     1 <1>   0.0800 
 36 H       -5.4060    -3.9560    -2.1360 H     1 <1>   0.0800 
 37 H       -5.3430    -5.9390    -0.2920 H     1 <1>   0.0800 
 38 H       -6.6230    -3.8340     0.4380 H     1 <1>   0.4000 
 39 H       -2.9860    -4.8390    -1.8330 H     1 <1>   0.0800 
 40 H       -3.9440    -6.2400    -2.1670 H     1 <1>   0.0800 
 41 H       -3.1610    -8.5460    -1.1020 H     1 <1>   0.1500 
 42 H        0.0170    -6.9400     1.0960 H     1 <1>   0.2700 
 43 H       -1.4680   -10.3380     0.0820 H     1 <1>   0.0800 
 44 H       -0.8480    -9.6920     1.5800 H     1 <1>   0.0800 
 45 H        0.1500    -9.6850     0.1400 H     1 <1>   0.0800 
@<TRIPOS>BOND
  1   1   2  1   
  2   1   3  1   
  3   2   4  2   
  4   2   5  1   
  5   3   6  2   
  6   3   7  1   
  7   4   6  1   
  8   4  22  1   
  9   5   8  1   
 10   5  23  1   
 11   5  24  1   
 12   6  25  1   
 13   7   9  1   
 14   7  26  1   
 15   7  27  1   
 16   8  10  1   
 17   8  11  1   
 18   8  28  1   
 19   9  29  1   
 20   9  30  1   
 21   9  31  1   
 22  10  12  1   
 23  10  32  1   
 24  10  33  1   
 25  11  13  1   
 26  11  34  1   
 27  11  35  1   
 28  12  13  1   
 29  12  14  1   
 30  12  36  1   
 31  13  15  1   
 32  13  37  1   
 33  14  38  1   
 34  15  16  1   
 35  15  39  1   
 36  15  40  1   
 37  16  17  2   
 38  16  18  1   
 39  17  19  1   
 40  18  20  2   
 41  18  41  1   
 42  19  20  1   
 43  19  42  1   
 44  20  21  1   
 45  21  43  1   
 46  21  44  1   
 47  21  45  1   
@<TRIPOS>SUBSTRUCTURE
  1 ****   5 GROUP 4 **** **** 0

# MOE 2024.06 (io_trps.svl 2023.06)
