@<TRIPOS>MOLECULE
NONAME
47 49 1 0 0 
SMALL
USER_CHARGES


@<TRIPOS>ATOM
  1 O       -0.9740     1.0510     1.9500 O.2   1 <1>  -0.5700 
  2 C       -0.7720     1.8160     1.0200 C.2   1 <1>   0.5440 
  3 N        0.0540     1.3730    -0.0070 N.am  1 <1>  -0.6600 
  4 C       -1.4290     3.1300     1.0330 C.ar  1 <1>   0.3960 
  5 C        0.8600     0.1260     0.1120 C.3   1 <1>   0.0600 
  6 C        0.1800     2.0650    -1.3190 C.3   1 <1>   0.0600 
  7 N       -0.7870     4.2130     0.5630 N.ar  1 <1>  -0.6200 
  8 C       -2.7210     3.2230     1.5520 C.ar  1 <1>  -0.1500 
  9 C       -1.4260     5.3740     0.6060 C.ar  1 <1>   0.4100 
 10 C       -3.3890     4.4280     1.5940 C.ar  1 <1>  -0.1500 
 11 N       -0.7690     6.4920     0.1300 N.3   1 <1>  -0.5900 
 12 C       -2.7150     5.5190     1.1070 C.ar  1 <1>  -0.1500 
 13 C       -0.0810     6.4150    -1.2140 C.3   1 <1>   0.2450 
 14 C        0.5610     6.8420     0.7580 C.3   1 <1>   0.2450 
 15 C        1.2770     6.2790    -0.4940 C.3   1 <1>   0.2580 
 16 O        2.2490     7.1470    -1.0570 O.3   1 <1>  -0.3400 
 17 C        3.1890     7.6720    -0.2330 C.ar  1 <1>   0.0830 
 18 C        4.1270     6.8690     0.4200 C.ar  1 <1>  -0.1430 
 19 C        3.1950     9.0540    -0.0550 C.ar  1 <1>  -0.1430 
 20 C        5.0320     7.4630     1.2840 C.ar  1 <1>  -0.1500 
 21 C        4.2180     5.3640     0.2090 C.3   1 <1>  -0.0970 
 22 C        4.1120     9.6240     0.8100 C.ar  1 <1>  -0.1500 
 23 C        2.2080     9.9430    -0.7990 C.3   1 <1>  -0.0970 
 24 C        5.0240     8.8320     1.4830 C.ar  1 <1>  -0.1500 
 25 H        0.9010    -0.2080     1.1350 H     1 <1>   0.0800 
 26 H        1.8650     0.3060    -0.2260 H     1 <1>   0.0800 
 27 H        0.4160    -0.6500    -0.4870 H     1 <1>   0.0800 
 28 H       -0.7180     2.6130    -1.5440 H     1 <1>   0.0800 
 29 H        0.3430     1.3460    -2.1030 H     1 <1>   0.0800 
 30 H        1.0100     2.7490    -1.2870 H     1 <1>   0.0800 
 31 H       -3.1980     2.3340     1.9260 H     1 <1>   0.1500 
 32 H       -4.3860     4.5070     1.9920 H     1 <1>   0.1500 
 33 H       -3.1640     6.4940     1.1070 H     1 <1>   0.1500 
 34 H       -0.1990     7.3380    -1.7550 H     1 <1>   0.0000 
 35 H       -0.3680     5.5400    -1.7700 H     1 <1>   0.0000 
 36 H        0.7480     6.2760     1.6530 H     1 <1>   0.0000 
 37 H        0.6480     7.9060     0.8860 H     1 <1>   0.0000 
 38 H        1.6290     5.2680    -0.4140 H     1 <1>   0.0000 
 39 H        5.7570     6.8630     1.8070 H     1 <1>   0.1500 
 40 H        3.9810     5.1130    -0.8090 H     1 <1>   0.0800 
 41 H        3.5360     4.8570     0.8680 H     1 <1>   0.0800 
 42 H        5.2140     5.0130     0.4120 H     1 <1>   0.0800 
 43 H        4.1240    10.6880     0.9660 H     1 <1>   0.1500 
 44 H        2.2530     9.7350    -1.8530 H     1 <1>   0.0800 
 45 H        2.4350    10.9830    -0.6490 H     1 <1>   0.0800 
 46 H        1.2080     9.7560    -0.4520 H     1 <1>   0.0800 
 47 H        5.7310     9.2810     2.1570 H     1 <1>   0.1500 
@<TRIPOS>BOND
  1   1   2  2   
  2   2   3  am  
  3   2   4  1   
  4   3   5  1   
  5   3   6  1   
  6   4   7  ar  
  7   4   8  ar  
  8   5  25  1   
  9   5  26  1   
 10   5  27  1   
 11   6  28  1   
 12   6  29  1   
 13   6  30  1   
 14   7   9  ar  
 15   8  10  ar  
 16   8  31  1   
 17   9  11  1   
 18   9  12  ar  
 19  10  12  ar  
 20  10  32  1   
 21  11  13  1   
 22  11  14  1   
 23  12  33  1   
 24  13  15  1   
 25  13  34  1   
 26  13  35  1   
 27  14  15  1   
 28  14  36  1   
 29  14  37  1   
 30  15  16  1   
 31  15  38  1   
 32  16  17  1   
 33  17  18  ar  
 34  17  19  ar  
 35  18  20  ar  
 36  18  21  1   
 37  19  22  ar  
 38  19  23  1   
 39  20  24  ar  
 40  20  39  1   
 41  21  40  1   
 42  21  41  1   
 43  21  42  1   
 44  22  24  ar  
 45  22  43  1   
 46  23  44  1   
 47  23  45  1   
 48  23  46  1   
 49  24  47  1   
@<TRIPOS>SUBSTRUCTURE
  1 ****  15 GROUP 4 **** **** 0

# MOE 2024.06 (io_trps.svl 2023.06)
