@<TRIPOS>MOLECULE
NONAME
42 44 1 0 0 
SMALL
USER_CHARGES


@<TRIPOS>ATOM
  1 O       -1.2310     0.2680     2.2020 O.2   1 <1>  -0.5700 
  2 C       -1.7170     0.9180     1.2890 C.2   1 <1>   0.5440 
  3 N       -2.4820     0.2150     0.3750 N.am  1 <1>  -0.6600 
  4 C       -1.4870     2.3710     1.2340 C.ar  1 <1>   0.3960 
  5 C       -3.3650     0.7890    -0.6730 C.3   1 <1>   0.1400 
  6 C       -2.6030    -1.2670     0.3840 C.3   1 <1>   0.1400 
  7 N       -1.5710     3.0400     0.0670 N.ar  1 <1>  -0.6200 
  8 C       -1.1730     3.0440     2.4170 C.ar  1 <1>  -0.1500 
  9 C       -4.3910    -0.3080    -0.9430 C.3   1 <1>   0.2000 
 10 C       -3.5930    -1.5990    -0.7390 C.3   1 <1>  -0.0800 
 11 C       -1.3480     4.3390     0.0850 C.ar  1 <1>   0.1660 
 12 C       -0.9440     4.4010     2.4310 C.ar  1 <1>  -0.1500 
 13 O       -5.3780    -0.2160     0.0290 O.3   1 <1>  -0.6800 
 14 C       -4.4310    -2.8620    -0.4740 C.3   1 <1>   0.0210 
 15 C       -1.0360     5.0580     1.2260 C.ar  1 <1>  -0.1500 
 16 C       -1.4510     5.0450    -1.2510 C.3   1 <1>  -0.0970 
 17 C       -3.5390    -4.0750    -0.3030 C.2   1 <1>   0.1080 
 18 N       -2.8410    -4.5780    -1.2740 N.2   1 <1>  -0.7070 
 19 C       -3.3570    -4.7690     0.8890 C.2   1 <1>  -0.1500 
 20 N       -2.1910    -5.6190    -0.7210 N.pl3 1 <1>   0.3000 
 21 C       -2.4860    -5.7540     0.5890 C.2   1 <1>  -0.3320 
 22 C       -1.9080    -6.8320     1.4870 C.3   1 <1>  -0.0600 
 23 H       -3.8350     1.7030    -0.3520 H     1 <1>   0.0800 
 24 H       -2.7790     0.9750    -1.5560 H     1 <1>   0.0800 
 25 H       -1.6450    -1.7280     0.2100 H     1 <1>   0.0800 
 26 H       -2.9800    -1.5840     1.3410 H     1 <1>   0.0800 
 27 H       -1.1080     2.4850     3.3340 H     1 <1>   0.1500 
 28 H       -4.8520    -0.2350    -1.9130 H     1 <1>   0.0800 
 29 H       -3.0140    -1.7680    -1.6300 H     1 <1>   0.0800 
 30 H       -0.7020     4.9230     3.3420 H     1 <1>   0.1500 
 31 H       -4.9390    -0.1160     0.8980 H     1 <1>   0.4000 
 32 H       -5.0920    -3.0350    -1.3030 H     1 <1>   0.0800 
 33 H       -5.0310    -2.7410     0.4100 H     1 <1>   0.0800 
 34 H       -0.8660     6.1180     1.1770 H     1 <1>   0.1500 
 35 H       -1.2460     6.0950    -1.1530 H     1 <1>   0.0800 
 36 H       -2.4410     4.9190    -1.6490 H     1 <1>   0.0800 
 37 H       -0.7440     4.6160    -1.9380 H     1 <1>   0.0800 
 38 H       -3.8240    -4.5440     1.8310 H     1 <1>   0.1500 
 39 H       -1.5550    -6.2160    -1.2640 H     1 <1>   0.2700 
 40 H       -2.2950    -6.7280     2.4850 H     1 <1>   0.0800 
 41 H       -0.8360    -6.7500     1.5250 H     1 <1>   0.0800 
 42 H       -2.1730    -7.8070     1.1170 H     1 <1>   0.0800 
@<TRIPOS>BOND
  1   1   2  2   
  2   2   3  am  
  3   2   4  1   
  4   3   5  1   
  5   3   6  1   
  6   4   7  ar  
  7   4   8  ar  
  8   5   9  1   
  9   5  23  1   
 10   5  24  1   
 11   6  10  1   
 12   6  25  1   
 13   6  26  1   
 14   7  11  ar  
 15   8  12  ar  
 16   8  27  1   
 17   9  10  1   
 18   9  13  1   
 19   9  28  1   
 20  10  14  1   
 21  10  29  1   
 22  11  15  ar  
 23  11  16  1   
 24  12  15  ar  
 25  12  30  1   
 26  13  31  1   
 27  14  17  1   
 28  14  32  1   
 29  14  33  1   
 30  15  34  1   
 31  16  35  1   
 32  16  36  1   
 33  16  37  1   
 34  17  18  2   
 35  17  19  1   
 36  18  20  1   
 37  19  21  2   
 38  19  38  1   
 39  20  21  1   
 40  20  39  1   
 41  21  22  1   
 42  22  40  1   
 43  22  41  1   
 44  22  42  1   
@<TRIPOS>SUBSTRUCTURE
  1 ****   3 GROUP 4 **** **** 0

# MOE 2024.06 (io_trps.svl 2023.06)
