@<TRIPOS>MOLECULE
NONAME
39 41 1 0 0 
SMALL
USER_CHARGES


@<TRIPOS>ATOM
  1 O        1.4130    -0.1140     1.5930 O.3   1 <1>  -0.6800 
  2 C        1.6390    -0.1850     0.2190 C.3   1 <1>   0.2000 
  3 C        2.3600    -1.4900    -0.1370 C.3   1 <1>  -0.0800 
  4 C        2.6190     0.9200    -0.2010 C.3   1 <1>   0.2090 
  5 C        3.8410    -1.1540     0.0260 C.3   1 <1>   0.2090 
  6 C        1.9280    -2.7460     0.6430 C.3   1 <1>  -0.0170 
  7 N        3.9530     0.2700    -0.3550 N.pl3 1 <1>  -0.8380 
  8 C        2.7150    -3.9680     0.1950 C.ar  1 <1>  -0.1440 
  9 C        5.1230     1.0100    -0.2300 C.ar  1 <1>   0.4100 
 10 C        2.4350    -4.6230    -0.9870 C.ar  1 <1>  -0.1500 
 11 C        3.7540    -4.4820     0.9450 C.ar  1 <1>  -0.1500 
 12 N        4.9990     2.3320    -0.2930 N.ar  1 <1>  -0.6200 
 13 C        6.3610     0.3850    -0.0660 C.ar  1 <1>  -0.1500 
 14 C        3.1880    -5.7270    -1.3520 C.ar  1 <1>   0.1600 
 15 C        4.4440    -5.5930     0.4890 C.ar  1 <1>   0.1600 
 16 C        6.1050     3.0440    -0.1790 C.ar  1 <1>   0.1670 
 17 C        7.5090     1.1320     0.0520 C.ar  1 <1>  -0.1500 
 18 N        4.1870    -6.2270    -0.6430 N.ar  1 <1>  -0.6200 
 19 C        7.3660     2.5020    -0.0060 C.ar  1 <1>  -0.1500 
 20 C        5.9250     4.5450    -0.2490 C.3   1 <1>  -0.0970 
 21 H        0.7170    -0.7410     1.8620 H     1 <1>   0.4000 
 22 H        0.6920    -0.0790    -0.2810 H     1 <1>   0.0800 
 23 H        2.2000    -1.6700    -1.1860 H     1 <1>   0.0800 
 24 H        2.6490     1.7070     0.5340 H     1 <1>   0.0800 
 25 H        2.3310     1.3320    -1.1520 H     1 <1>   0.0800 
 26 H        4.4510    -1.7730    -0.6110 H     1 <1>   0.0800 
 27 H        4.1440    -1.2680     1.0530 H     1 <1>   0.0800 
 28 H        0.8790    -2.9250     0.4860 H     1 <1>   0.0800 
 29 H        2.0820    -2.5990     1.6980 H     1 <1>   0.0800 
 30 H        1.6410    -4.2870    -1.6280 H     1 <1>   0.1500 
 31 H        4.0350    -4.0310     1.8800 H     1 <1>   0.1500 
 32 H        6.4210    -0.6830    -0.0350 H     1 <1>   0.1500 
 33 H        2.9560    -6.2260    -2.2780 H     1 <1>   0.1500 
 34 H        5.2510    -5.9800     1.0880 H     1 <1>   0.1500 
 35 H        8.4730     0.6720     0.1820 H     1 <1>   0.1500 
 36 H        8.2290     3.1360     0.0810 H     1 <1>   0.1500 
 37 H        6.8650     5.0550    -0.1510 H     1 <1>   0.0800 
 38 H        5.2700     4.8630     0.5410 H     1 <1>   0.0800 
 39 H        5.4820     4.8070    -1.1920 H     1 <1>   0.0800 
@<TRIPOS>BOND
  1   1   2  1   
  2   1  21  1   
  3   2   3  1   
  4   2   4  1   
  5   2  22  1   
  6   3   5  1   
  7   3   6  1   
  8   3  23  1   
  9   4   7  1   
 10   4  24  1   
 11   4  25  1   
 12   5   7  1   
 13   5  26  1   
 14   5  27  1   
 15   6   8  1   
 16   6  28  1   
 17   6  29  1   
 18   7   9  1   
 19   8  10  ar  
 20   8  11  ar  
 21   9  12  ar  
 22   9  13  ar  
 23  10  14  ar  
 24  10  30  1   
 25  11  15  ar  
 26  11  31  1   
 27  12  16  ar  
 28  13  17  ar  
 29  13  32  1   
 30  14  18  ar  
 31  14  33  1   
 32  15  18  ar  
 33  15  34  1   
 34  16  19  ar  
 35  16  20  1   
 36  17  19  ar  
 37  17  35  1   
 38  19  36  1   
 39  20  37  1   
 40  20  38  1   
 41  20  39  1   
@<TRIPOS>SUBSTRUCTURE
  1 ****   5 GROUP 4 **** **** 0

# MOE 2024.06 (io_trps.svl 2023.06)
