@<TRIPOS>MOLECULE
NONAME
47 49 1 0 0 
SMALL
USER_CHARGES


@<TRIPOS>ATOM
  1 F        0.9870     0.3840    -0.9080 F     1 <1>  -0.1900 
  2 C        1.8690    -0.3860    -0.3220 C.ar  1 <1>   0.1900 
  3 C        2.8620     0.1850     0.4560 C.ar  1 <1>  -0.1440 
  4 C        1.7580    -1.7490    -0.5140 C.ar  1 <1>  -0.1500 
  5 C        3.7740    -0.6690     1.0560 C.ar  1 <1>  -0.1500 
  6 C        2.9690     1.6920     0.6530 C.3   1 <1>   0.2540 
  7 C        2.6760    -2.6000     0.0940 C.ar  1 <1>   0.0830 
  8 C        3.7020    -2.0430     0.8800 C.ar  1 <1>   0.0830 
  9 N        4.3350     2.1610     0.3560 N.3   1 <1>  -0.8100 
 10 O        2.5850    -3.9540    -0.0450 O.3   1 <1>  -0.3630 
 11 O        4.6720    -2.7560     1.5190 O.3   1 <1>  -0.3630 
 12 C        4.5370     3.5380     0.8550 C.3   1 <1>   0.1100 
 13 C        4.6430     2.0200    -1.0820 C.3   1 <1>   0.1100 
 14 C        1.4500    -4.5720    -0.6140 C.3   1 <1>   0.0400 
 15 C        5.2510    -3.8860     0.9050 C.3   1 <1>   0.0400 
 16 C        6.0030     4.0250     0.8380 C.3   1 <1>   0.2200 
 17 C        6.1300     2.2070    -1.4170 C.3   1 <1>  -0.0190 
 18 N        6.3800     4.5280    -0.5180 N.am  1 <1>  -0.6600 
 19 C        6.9890     2.9640     1.3940 C.3   1 <1>   0.1200 
 20 C        6.4620     3.6790    -1.5880 C.2   1 <1>   0.5690 
 21 C        7.0770     1.4640    -0.4530 C.3   1 <1>   0.1200 
 22 C        6.7820     5.9580    -0.6080 C.3   1 <1>   0.0600 
 23 O        7.7600     2.3220     0.4150 O.3   1 <1>  -0.5600 
 24 O        6.7530     4.0670    -2.6980 O.2   1 <1>  -0.5700 
 25 H        0.9600    -2.1090    -1.1320 H     1 <1>   0.1500 
 26 H        4.5630    -0.2650     1.6650 H     1 <1>   0.1500 
 27 H        2.7310     1.9060     1.6810 H     1 <1>   0.0800 
 28 H        2.2630     2.2190     0.0330 H     1 <1>   0.0800 
 29 H        3.9250     4.2280     0.2980 H     1 <1>   0.0800 
 30 H        4.2110     3.5700     1.8800 H     1 <1>   0.0800 
 31 H        4.3740     1.0280    -1.4010 H     1 <1>   0.0800 
 32 H        4.0510     2.7140    -1.6560 H     1 <1>   0.0800 
 33 H        1.5700    -5.6360    -0.5230 H     1 <1>   0.0800 
 34 H        1.3860    -4.3000    -1.6520 H     1 <1>   0.0800 
 35 H        0.5740    -4.2570    -0.0750 H     1 <1>   0.0800 
 36 H        6.2180    -4.0480     1.3450 H     1 <1>   0.0800 
 37 H        5.3510    -3.7030    -0.1510 H     1 <1>   0.0800 
 38 H        4.6240    -4.7400     1.0860 H     1 <1>   0.0800 
 39 H        6.0370     4.8610     1.5140 H     1 <1>   0.0800 
 40 H        6.2640     1.7550    -2.3820 H     1 <1>   0.0800 
 41 H        6.4710     2.2170     1.9690 H     1 <1>   0.0800 
 42 H        7.6840     3.4560     2.0500 H     1 <1>   0.0800 
 43 H        7.8320     0.9590    -1.0280 H     1 <1>   0.0800 
 44 H        6.5510     0.7260     0.1290 H     1 <1>   0.0800 
 45 H        5.9680     6.5870    -0.2940 H     1 <1>   0.0800 
 46 H        7.0440     6.2170    -1.6200 H     1 <1>   0.0800 
 47 H        7.6370     6.1340     0.0210 H     1 <1>   0.0800 
@<TRIPOS>BOND
  1   1   2  1   
  2   2   3  ar  
  3   2   4  ar  
  4   3   5  ar  
  5   3   6  1   
  6   4   7  ar  
  7   4  25  1   
  8   5   8  ar  
  9   5  26  1   
 10   6   9  1   
 11   6  27  1   
 12   6  28  1   
 13   7   8  ar  
 14   7  10  1   
 15   8  11  1   
 16   9  12  1   
 17   9  13  1   
 18  10  14  1   
 19  11  15  1   
 20  12  16  1   
 21  12  29  1   
 22  12  30  1   
 23  13  17  1   
 24  13  31  1   
 25  13  32  1   
 26  14  33  1   
 27  14  34  1   
 28  14  35  1   
 29  15  36  1   
 30  15  37  1   
 31  15  38  1   
 32  16  18  1   
 33  16  19  1   
 34  16  39  1   
 35  17  20  1   
 36  17  21  1   
 37  17  40  1   
 38  18  20  am  
 39  18  22  1   
 40  19  23  1   
 41  19  41  1   
 42  19  42  1   
 43  20  24  2   
 44  21  23  1   
 45  21  43  1   
 46  21  44  1   
 47  22  45  1   
 48  22  46  1   
 49  22  47  1   
@<TRIPOS>SUBSTRUCTURE
  1 ****   9 GROUP 4 **** **** 0

# MOE 2024.06 (io_trps.svl 2023.06)
