@<TRIPOS>MOLECULE
NONAME
46 48 1 0 0 
SMALL
USER_CHARGES


@<TRIPOS>ATOM
  1 O        1.1300    -0.2050     1.8400 O.2   1 <1>  -0.5700 
  2 C        1.7570    -0.8110     0.9800 C.2   1 <1>   0.6160 
  3 N        2.4810    -0.1320     0.0140 N.am  1 <1>  -0.4690 
  4 C        1.7490    -2.2270     0.9430 C.2   1 <1>  -0.1360 
  5 C        3.1770    -0.8370    -0.9480 C.2   1 <1>  -0.0410 
  6 C        2.5300     1.3520     0.0140 C.3   1 <1>   0.1400 
  7 C        2.4100    -2.9430    -0.0170 C.2   1 <1>   0.0140 
  8 C        3.1530    -2.1940    -0.9760 C.2   1 <1>  -0.1500 
  9 C        3.7380     1.8260     0.8200 C.3   1 <1>  -0.2400 
 10 C        2.3950    -4.3910    -0.0860 C.2   1 <1>   0.6160 
 11 O        3.4170    -4.9930    -0.3530 O.2   1 <1>  -0.5700 
 12 N        1.2420    -5.1100     0.1290 N.am  1 <1>  -0.6600 
 13 C       -0.1340    -4.5850    -0.0760 C.3   1 <1>   0.1400 
 14 C        1.2300    -6.5950     0.1390 C.3   1 <1>   0.1400 
 15 C       -0.9600    -5.8060    -0.4740 C.3   1 <1>   0.2000 
 16 C       -0.2470    -6.9900     0.1690 C.3   1 <1>  -0.0800 
 17 O       -2.2620    -5.7160    -0.0110 O.3   1 <1>  -0.6800 
 18 C       -0.5380    -8.3300    -0.5230 C.3   1 <1>   0.0210 
 19 C        0.2890    -9.4460     0.0860 C.2   1 <1>   0.1080 
 20 N        0.2600    -9.7340     1.3500 N.2   1 <1>  -0.7070 
 21 C        1.1650   -10.2630    -0.6200 C.2   1 <1>  -0.1500 
 22 N        1.1250   -10.7560     1.4860 N.pl3 1 <1>   0.3000 
 23 C        1.6870   -11.0940     0.3060 C.2   1 <1>  -0.3320 
 24 C        2.7060   -12.2060     0.1350 C.3   1 <1>  -0.0600 
 25 H        1.1930    -2.7110     1.7220 H     1 <1>   0.1500 
 26 H        3.7410    -0.2700    -1.6710 H     1 <1>   0.1500 
 27 H        2.6010     1.7080    -0.9990 H     1 <1>   0.0800 
 28 H        1.6240     1.7490     0.4420 H     1 <1>   0.0800 
 29 H        3.7000    -2.7460    -1.7220 H     1 <1>   0.1500 
 30 H        4.6490     1.4460     0.3930 H     1 <1>   0.0800 
 31 H        3.6540     1.4930     1.8390 H     1 <1>   0.0800 
 32 H        3.7780     2.9000     0.8160 H     1 <1>   0.0800 
 33 H       -0.4960    -4.1710     0.8490 H     1 <1>   0.0800 
 34 H       -0.1520    -3.8400    -0.8530 H     1 <1>   0.0800 
 35 H        1.7090    -6.9580    -0.7550 H     1 <1>   0.0800 
 36 H        1.7550    -6.9760     0.9990 H     1 <1>   0.0800 
 37 H       -0.9850    -5.8930    -1.5470 H     1 <1>   0.0800 
 38 H       -0.5300    -7.0620     1.2050 H     1 <1>   0.0800 
 39 H       -2.2850    -5.8190     0.9610 H     1 <1>   0.4000 
 40 H       -0.3210    -8.2590    -1.5740 H     1 <1>   0.0800 
 41 H       -1.5800    -8.5730    -0.4120 H     1 <1>   0.0800 
 42 H        1.3650   -10.2200    -1.6750 H     1 <1>   0.1500 
 43 H        1.3080   -11.2000     2.3930 H     1 <1>   0.2700 
 44 H        3.0020   -12.2790    -0.8970 H     1 <1>   0.0800 
 45 H        2.2830   -13.1480     0.4370 H     1 <1>   0.0800 
 46 H        3.5800   -12.0050     0.7280 H     1 <1>   0.0800 
@<TRIPOS>BOND
  1   1   2  2   
  2   2   3  am  
  3   2   4  1   
  4   3   5  1   
  5   3   6  1   
  6   4   7  2   
  7   4  25  1   
  8   5   8  2   
  9   5  26  1   
 10   6   9  1   
 11   6  27  1   
 12   6  28  1   
 13   7   8  1   
 14   7  10  1   
 15   8  29  1   
 16   9  30  1   
 17   9  31  1   
 18   9  32  1   
 19  10  11  2   
 20  10  12  am  
 21  12  13  1   
 22  12  14  1   
 23  13  15  1   
 24  13  33  1   
 25  13  34  1   
 26  14  16  1   
 27  14  35  1   
 28  14  36  1   
 29  15  16  1   
 30  15  17  1   
 31  15  37  1   
 32  16  18  1   
 33  16  38  1   
 34  17  39  1   
 35  18  19  1   
 36  18  40  1   
 37  18  41  1   
 38  19  20  2   
 39  19  21  1   
 40  20  22  1   
 41  21  23  2   
 42  21  42  1   
 43  22  23  1   
 44  22  43  1   
 45  23  24  1   
 46  24  44  1   
 47  24  45  1   
 48  24  46  1   
@<TRIPOS>SUBSTRUCTURE
  1 ****  12 GROUP 4 **** **** 0

# MOE 2024.06 (io_trps.svl 2023.06)
