@<TRIPOS>MOLECULE
NONAME
43 45 1 0 0 
SMALL
USER_CHARGES


@<TRIPOS>ATOM
  1 S       -0.7940    -0.1100     0.7450 S.3   1 <1>  -0.0800 
  2 C       -1.3100     1.2830    -0.1440 C.2   1 <1>   0.1980 
  3 C       -1.3720    -1.0630    -0.5760 C.2   1 <1>   0.1980 
  4 N       -1.8410     0.9830    -1.2620 N.2   1 <1>  -0.3380 
  5 C       -1.1110     2.6540     0.4960 C.3   1 <1>   0.2900 
  6 N       -1.8720    -0.3640    -1.5110 N.2   1 <1>  -0.3380 
  7 C       -1.2290    -2.5650    -0.4890 C.3   1 <1>  -0.0600 
  8 N        0.1230     3.3770     0.0800 N.3   1 <1>  -0.8100 
  9 C        0.2880     4.6750     0.8000 C.3   1 <1>   0.3700 
 10 C        1.3380     2.5460     0.1720 C.3   1 <1>   0.1100 
 11 C       -0.9800     5.5450     0.8290 C.2   1 <1>   0.2980 
 12 C        1.4640     5.4520     0.1850 C.3   1 <1>  -0.1600 
 13 C        2.5380     3.2800    -0.4340 C.3   1 <1>  -0.1600 
 14 O       -1.7940     5.3820     1.8440 O.3   1 <1>  -0.0190 
 15 N       -1.3490     6.4250    -0.0200 N.2   1 <1>  -0.5650 
 16 C        2.7650     4.6430     0.2260 C.3   1 <1>  -0.1600 
 17 N       -2.7630     6.2120     1.6140 N.2   1 <1>  -0.4100 
 18 C       -2.4930     6.8100     0.5240 C.2   1 <1>   0.3350 
 19 C       -3.3610     7.8640    -0.1300 C.3   1 <1>   0.0210 
 20 C       -2.6220     9.1970    -0.1930 C.3   1 <1>   0.1200 
 21 O       -3.4720    10.1440    -0.7580 O.3   1 <1>  -0.5600 
 22 C       -2.8990    11.4050    -0.8890 C.3   1 <1>   0.0400 
 23 H       -1.1210     2.5390     1.5660 H     1 <1>   0.0800 
 24 H       -1.9670     3.2440     0.2200 H     1 <1>   0.0800 
 25 H       -1.7650    -2.9340     0.3660 H     1 <1>   0.0800 
 26 H       -0.1920    -2.8300    -0.4000 H     1 <1>   0.0800 
 27 H       -1.6310    -3.0190    -1.3760 H     1 <1>   0.0800 
 28 H        0.5420     4.4610     1.8250 H     1 <1>   0.0800 
 29 H        1.2030     1.6340    -0.3850 H     1 <1>   0.0800 
 30 H        1.5370     2.2930     1.2000 H     1 <1>   0.0800 
 31 H        1.5990     6.3770     0.7170 H     1 <1>   0.0800 
 32 H        1.2210     5.6950    -0.8360 H     1 <1>   0.0800 
 33 H        2.3600     3.4130    -1.4870 H     1 <1>   0.0800 
 34 H        3.4190     2.6730    -0.3250 H     1 <1>   0.0800 
 35 H        3.0730     4.5020     1.2480 H     1 <1>   0.0800 
 36 H        3.5450     5.1750    -0.2900 H     1 <1>   0.0800 
 37 H       -4.2650     7.9810     0.4390 H     1 <1>   0.0800 
 38 H       -3.6090     7.5410    -1.1240 H     1 <1>   0.0800 
 39 H       -1.7410     9.1080    -0.8060 H     1 <1>   0.0800 
 40 H       -2.3500     9.5220     0.7970 H     1 <1>   0.0800 
 41 H       -3.6300    12.0600    -1.3300 H     1 <1>   0.0800 
 42 H       -2.0380    11.3390    -1.5310 H     1 <1>   0.0800 
 43 H       -2.6220    11.7730     0.0830 H     1 <1>   0.0800 
@<TRIPOS>BOND
  1   1   2  1   
  2   1   3  1   
  3   2   4  2   
  4   2   5  1   
  5   3   6  2   
  6   3   7  1   
  7   4   6  1   
  8   5   8  1   
  9   5  23  1   
 10   5  24  1   
 11   7  25  1   
 12   7  26  1   
 13   7  27  1   
 14   8   9  1   
 15   8  10  1   
 16   9  11  1   
 17   9  12  1   
 18   9  28  1   
 19  10  13  1   
 20  10  29  1   
 21  10  30  1   
 22  11  14  1   
 23  11  15  2   
 24  12  16  1   
 25  12  31  1   
 26  12  32  1   
 27  13  16  1   
 28  13  33  1   
 29  13  34  1   
 30  14  17  1   
 31  15  18  1   
 32  16  35  1   
 33  16  36  1   
 34  17  18  2   
 35  18  19  1   
 36  19  20  1   
 37  19  37  1   
 38  19  38  1   
 39  20  21  1   
 40  20  39  1   
 41  20  40  1   
 42  21  22  1   
 43  22  41  1   
 44  22  42  1   
 45  22  43  1   
@<TRIPOS>SUBSTRUCTURE
  1 ****   8 GROUP 4 **** **** 0

# MOE 2024.06 (io_trps.svl 2023.06)
