@<TRIPOS>MOLECULE
NONAME
39 39 1 0 0 
SMALL
USER_CHARGES


@<TRIPOS>ATOM
  1 S        0.3270     0.1750    -0.8910 S.3   1 <1>  -0.0800 
  2 C        1.2950    -0.4230     0.4530 C.2   1 <1>   0.4620 
  3 C       -0.3930    -1.3930    -1.0580 C.2   1 <1>  -0.1100 
  4 N        1.0760    -1.6610     0.7190 N.2   1 <1>  -0.5650 
  5 N        2.1790     0.4130     1.1080 N.pl3 1 <1>  -0.8220 
  6 C        0.1170    -2.2320    -0.1320 C.2   1 <1>   0.1410 
  7 C        2.3660     1.8680     0.7820 C.3   1 <1>   0.2090 
  8 C        2.7960    -0.0580     2.3810 C.3   1 <1>   0.1290 
  9 C       -0.2610    -3.6300     0.0200 C.2   1 <1>   0.7160 
 10 C        3.6420     2.1930    -0.0530 C.3   1 <1>   0.0000 
 11 O       -1.0870    -4.1570    -0.6960 O.2   1 <1>  -0.5700 
 12 N        0.3030    -4.4040     0.9750 N.am  1 <1>  -0.8000 
 13 C        4.9120     1.8080     0.7480 C.3   1 <1>   0.1200 
 14 C        3.6250     1.3720    -1.3750 C.3   1 <1>  -0.1600 
 15 C        3.6810     3.7250    -0.3380 C.3   1 <1>  -0.1600 
 16 O        4.9800     2.4810     1.9640 O.3   1 <1>  -0.6800 
 17 C        4.7830     1.6300    -2.3560 C.3   1 <1>  -0.2400 
 18 C        2.5780     4.2740    -1.2610 C.3   1 <1>  -0.2400 
 19 H       -1.1270    -1.5430    -1.8280 H     1 <1>   0.1500 
 20 H        2.3970     2.4250     1.7020 H     1 <1>   0.0800 
 21 H        1.5010     2.2210     0.2550 H     1 <1>   0.0800 
 22 H        3.5870    -0.7530     2.1610 H     1 <1>   0.0800 
 23 H        2.0560    -0.5550     2.9840 H     1 <1>   0.0800 
 24 H        3.2000     0.7660     2.9430 H     1 <1>   0.0800 
 25 H        0.0390    -5.3810     1.0740 H     1 <1>   0.3700 
 26 H        1.0090    -4.0120     1.5980 H     1 <1>   0.3700 
 27 H        5.8030     2.0510     0.1980 H     1 <1>   0.0800 
 28 H        4.9230     0.7520     0.9520 H     1 <1>   0.0800 
 29 H        2.7010     1.5530    -1.8940 H     1 <1>   0.0800 
 30 H        3.6350     0.3230    -1.1310 H     1 <1>   0.0800 
 31 H        4.6330     3.9810    -0.7690 H     1 <1>   0.0800 
 32 H        3.6120     4.2570     0.5950 H     1 <1>   0.0800 
 33 H        5.1180     3.4360     1.8140 H     1 <1>   0.4000 
 34 H        4.8050     2.6560    -2.6770 H     1 <1>   0.0800 
 35 H        4.6520     1.0150    -3.2290 H     1 <1>   0.0800 
 36 H        5.7310     1.3780    -1.9180 H     1 <1>   0.0800 
 37 H        2.6360     3.8380    -2.2420 H     1 <1>   0.0800 
 38 H        2.6980     5.3380    -1.3690 H     1 <1>   0.0800 
 39 H        1.5980     4.0940    -0.8580 H     1 <1>   0.0800 
@<TRIPOS>BOND
  1   1   2  1   
  2   1   3  1   
  3   2   4  2   
  4   2   5  1   
  5   3   6  2   
  6   3  19  1   
  7   4   6  1   
  8   5   7  1   
  9   5   8  1   
 10   6   9  1   
 11   7  10  1   
 12   7  20  1   
 13   7  21  1   
 14   8  22  1   
 15   8  23  1   
 16   8  24  1   
 17   9  11  2   
 18   9  12  am  
 19  10  13  1   
 20  10  14  1   
 21  10  15  1   
 22  12  25  1   
 23  12  26  1   
 24  13  16  1   
 25  13  27  1   
 26  13  28  1   
 27  14  17  1   
 28  14  29  1   
 29  14  30  1   
 30  15  18  1   
 31  15  31  1   
 32  15  32  1   
 33  16  33  1   
 34  17  34  1   
 35  17  35  1   
 36  17  36  1   
 37  18  37  1   
 38  18  38  1   
 39  18  39  1   
@<TRIPOS>SUBSTRUCTURE
  1 ****   2 GROUP 4 **** **** 0

# MOE 2024.06 (io_trps.svl 2023.06)
