@<TRIPOS>MOLECULE
NONAME
57 61 1 0 0 
SMALL
USER_CHARGES


@<TRIPOS>ATOM
  1 F       -0.8640     0.9140     0.1110 F     1 <1>  -0.1900 
  2 C       -2.1790     0.9700     0.1770 C.ar  1 <1>   0.1900 
  3 C       -2.8700     2.1800     0.2300 C.ar  1 <1>   0.4100 
  4 C       -2.8810    -0.2010     0.1820 C.ar  1 <1>   0.1600 
  5 N       -4.1880     2.1600     0.2670 N.ar  1 <1>  -0.6200 
  6 N       -2.2720     3.4420     0.2330 N.pl3 1 <1>  -0.8380 
  7 N       -4.1970    -0.2190     0.2290 N.ar  1 <1>  -0.6200 
  8 C       -4.7910     0.9750     0.2670 C.ar  1 <1>   0.7200 
  9 C       -0.9270     3.6990     0.8000 C.3   1 <1>   0.2090 
 10 C       -3.0800     4.6850     0.2360 C.3   1 <1>   0.2090 
 11 N       -6.1710     0.9770     0.3040 N.pl3 1 <1>  -0.8380 
 12 C       -0.9760     5.1350     1.3110 C.3   1 <1>  -0.1600 
 13 C       -2.0760     5.8000     0.4910 C.3   1 <1>  -0.1600 
 14 C       -6.9750     2.2250     0.5040 C.3   1 <1>   0.2090 
 15 C       -6.9590    -0.2400    -0.0600 C.3   1 <1>   0.2090 
 16 C       -7.7520     2.5910    -0.7800 C.3   1 <1>   0.1430 
 17 C       -8.3820     0.1150    -0.5280 C.3   1 <1>  -0.1600 
 18 C       -8.7890     3.6290    -0.3870 C.ar  1 <1>   0.1670 
 19 C       -8.3730     1.3390    -1.4600 C.3   1 <1>  -0.1600 
 20 C       -6.8650     3.3880    -1.7740 C.3   1 <1>  -0.1600 
 21 N       -9.9040     3.3850     0.2560 N.ar  1 <1>  -0.6200 
 22 C       -8.4130     4.8820    -0.7670 C.ar  1 <1>  -0.1430 
 23 C       -7.0790     4.8790    -1.4690 C.3   1 <1>  -0.0170 
 24 C      -10.6630     4.4530     0.5090 C.ar  1 <1>   0.7200 
 25 C       -9.2580     5.9200    -0.4670 C.ar  1 <1>   0.1600 
 26 N      -10.3870     5.7170     0.1700 N.ar  1 <1>  -0.6200 
 27 N      -11.8460     4.2300     1.1870 N.pl3 1 <1>  -0.8380 
 28 C      -12.4080     2.8630     1.3650 C.3   1 <1>   0.1290 
 29 C      -12.6460     5.3420     1.7700 C.3   1 <1>   0.1290 
 30 H       -2.3580    -1.1400     0.1440 H     1 <1>   0.1500 
 31 H       -0.1930     3.6040     0.0170 H     1 <1>   0.0800 
 32 H       -0.6990     3.0130     1.5980 H     1 <1>   0.0800 
 33 H       -3.8000     4.6410     1.0360 H     1 <1>   0.0800 
 34 H       -3.5890     4.8110    -0.7040 H     1 <1>   0.0800 
 35 H       -0.0270     5.6290     1.2040 H     1 <1>   0.0800 
 36 H       -1.2510     5.1230     2.3510 H     1 <1>   0.0800 
 37 H       -2.5240     6.6330     1.0020 H     1 <1>   0.0800 
 38 H       -1.6810     6.1340    -0.4520 H     1 <1>   0.0800 
 39 H       -6.3640     3.0530     0.8160 H     1 <1>   0.0800 
 40 H       -7.6760     2.0450     1.3010 H     1 <1>   0.0800 
 41 H       -7.0030    -0.9020     0.7890 H     1 <1>   0.0800 
 42 H       -6.4540    -0.7560    -0.8590 H     1 <1>   0.0800 
 43 H       -9.0010     0.3170     0.3290 H     1 <1>   0.0800 
 44 H       -8.8060    -0.7310    -1.0370 H     1 <1>   0.0800 
 45 H       -7.7930     1.0740    -2.3270 H     1 <1>   0.0800 
 46 H       -9.3730     1.5560    -1.7920 H     1 <1>   0.0800 
 47 H       -7.2040     3.2100    -2.7800 H     1 <1>   0.0800 
 48 H       -5.8290     3.1060    -1.7130 H     1 <1>   0.0800 
 49 H       -7.0940     5.4700    -2.3680 H     1 <1>   0.0800 
 50 H       -6.3160     5.2410    -0.8010 H     1 <1>   0.0800 
 51 H       -9.0050     6.9270    -0.7500 H     1 <1>   0.1500 
 52 H      -12.1320     2.2310     0.5380 H     1 <1>   0.0800 
 53 H      -13.4810     2.9060     1.4130 H     1 <1>   0.0800 
 54 H      -12.0260     2.4340     2.2740 H     1 <1>   0.0800 
 55 H      -12.0070     6.1620     2.0500 H     1 <1>   0.0800 
 56 H      -13.1650     5.0040     2.6500 H     1 <1>   0.0800 
 57 H      -13.3610     5.6890     1.0450 H     1 <1>   0.0800 
@<TRIPOS>BOND
  1   1   2  1   
  2   2   3  ar  
  3   2   4  ar  
  4   3   5  ar  
  5   3   6  1   
  6   4   7  ar  
  7   4  30  1   
  8   5   8  ar  
  9   6   9  1   
 10   6  10  1   
 11   7   8  ar  
 12   8  11  1   
 13   9  12  1   
 14   9  31  1   
 15   9  32  1   
 16  10  13  1   
 17  10  33  1   
 18  10  34  1   
 19  11  14  1   
 20  11  15  1   
 21  12  13  1   
 22  12  35  1   
 23  12  36  1   
 24  13  37  1   
 25  13  38  1   
 26  14  16  1   
 27  14  39  1   
 28  14  40  1   
 29  15  17  1   
 30  15  41  1   
 31  15  42  1   
 32  16  18  1   
 33  16  19  1   
 34  16  20  1   
 35  17  19  1   
 36  17  43  1   
 37  17  44  1   
 38  18  21  ar  
 39  18  22  ar  
 40  19  45  1   
 41  19  46  1   
 42  20  23  1   
 43  20  47  1   
 44  20  48  1   
 45  21  24  ar  
 46  22  23  1   
 47  22  25  ar  
 48  23  49  1   
 49  23  50  1   
 50  24  26  ar  
 51  24  27  1   
 52  25  26  ar  
 53  25  51  1   
 54  27  28  1   
 55  27  29  1   
 56  28  52  1   
 57  28  53  1   
 58  28  54  1   
 59  29  55  1   
 60  29  56  1   
 61  29  57  1   
@<TRIPOS>SUBSTRUCTURE
  1 ****  14 GROUP 4 **** **** 0

# MOE 2024.06 (io_trps.svl 2023.06)
