@<TRIPOS>MOLECULE
NONAME
56 58 1 0 0 
SMALL
USER_CHARGES


@<TRIPOS>ATOM
  1 O        0.5490    -1.1320     0.5400 O.2   1 <1>  -0.5700 
  2 C        1.7260    -1.4250     0.4550 C.2   1 <1>   0.5440 
  3 N        2.6580    -0.4680     0.7080 N.am  1 <1>  -0.7300 
  4 C        2.1170    -2.7730     0.0780 C.ar  1 <1>   0.0860 
  5 C        2.3890     0.9630     0.9330 C.3   1 <1>   0.3640 
  6 C        1.2300    -3.5900    -0.6240 C.ar  1 <1>  -0.1500 
  7 C        3.3630    -3.3140     0.3990 C.ar  1 <1>  -0.1500 
  8 C        3.3510     1.7790     0.0570 C.ar  1 <1>   0.1670 
  9 C        2.5720     1.2540     2.4300 C.3   1 <1>  -0.1600 
 10 C        1.5520    -4.8890    -0.9810 C.ar  1 <1>  -0.1440 
 11 C        3.7030    -4.6040     0.0360 C.ar  1 <1>  -0.1500 
 12 N        4.6230     1.3840     0.0020 N.ar  1 <1>  -0.6200 
 13 C        2.8590     2.8750    -0.6390 C.ar  1 <1>  -0.1500 
 14 C        2.2390     2.7060     2.8100 C.3   1 <1>  -0.2400 
 15 C        2.8000    -5.3940    -0.6530 C.ar  1 <1>  -0.1500 
 16 C        0.5350    -5.7450    -1.7130 C.3   1 <1>   0.4860 
 17 C        5.4200     2.1120    -0.7640 C.ar  1 <1>   0.1600 
 18 C        3.7020     3.6210    -1.4330 C.ar  1 <1>  -0.1500 
 19 N       -0.6110    -6.0020    -0.7990 N.4   1 <1>  -0.9590 
 20 C        5.0190     3.2200    -1.4890 C.ar  1 <1>  -0.1500 
 21 C       -0.1850    -6.8400     0.3590 C.3   1 <1>   0.3430 
 22 C       -1.7790    -6.5330    -1.5530 C.3   1 <1>   0.3430 
 23 C       -1.2620    -6.9280     1.4420 C.3   1 <1>  -0.1600 
 24 C       -3.0760    -6.1210    -0.8560 C.3   1 <1>  -0.1600 
 25 C       -2.4550    -7.8080     1.0410 C.3   1 <1>  -0.1600 
 26 C       -3.5500    -7.0720     0.2560 C.3   1 <1>  -0.1600 
 27 H        3.6390    -0.6040     0.4460 H     1 <1>   0.3700 
 28 H        1.3730     1.1840     0.6530 H     1 <1>   0.0800 
 29 H        0.2720    -3.1730    -0.8860 H     1 <1>   0.1500 
 30 H        4.0750    -2.7200     0.9450 H     1 <1>   0.1500 
 31 H        3.5900     1.0440     2.7080 H     1 <1>   0.0800 
 32 H        1.9260     0.5980     2.9870 H     1 <1>   0.0800 
 33 H        4.6750    -4.9930     0.2930 H     1 <1>   0.1500 
 34 H        1.8210     3.1450    -0.5610 H     1 <1>   0.1500 
 35 H        2.9100     3.3900     2.3200 H     1 <1>   0.0800 
 36 H        2.3410     2.8370     3.8730 H     1 <1>   0.0800 
 37 H        1.2280     2.9460     2.5320 H     1 <1>   0.0800 
 38 H        3.0880    -6.3970    -0.9260 H     1 <1>   0.1500 
 39 H        0.9830    -6.6740    -2.0250 H     1 <1>   0.0800 
 40 H        0.2000    -5.2140    -2.5890 H     1 <1>   0.0800 
 41 H        6.4520     1.8090    -0.8180 H     1 <1>   0.1500 
 42 H        3.3490     4.4770    -1.9830 H     1 <1>   0.1500 
 43 H       -0.8770    -5.0880    -0.4110 H     1 <1>   0.4500 
 44 H        5.7290     3.7590    -2.0890 H     1 <1>   0.1500 
 45 H        0.6980    -6.4080     0.8030 H     1 <1>   0.0800 
 46 H        0.0670    -7.8330     0.0230 H     1 <1>   0.0800 
 47 H       -1.7230    -7.6060    -1.6480 H     1 <1>   0.0800 
 48 H       -1.7850    -6.1070    -2.5440 H     1 <1>   0.0800 
 49 H       -1.5840    -5.9480     1.7490 H     1 <1>   0.0800 
 50 H       -0.8010    -7.3850     2.3010 H     1 <1>   0.0800 
 51 H       -3.8550    -6.0830    -1.5980 H     1 <1>   0.0800 
 52 H       -2.9780    -5.1230    -0.4670 H     1 <1>   0.0800 
 53 H       -2.9090    -8.2000     1.9370 H     1 <1>   0.0800 
 54 H       -2.1090    -8.6580     0.4780 H     1 <1>   0.0800 
 55 H       -4.2000    -7.8160    -0.1740 H     1 <1>   0.0800 
 56 H       -4.1520    -6.5050     0.9470 H     1 <1>   0.0800 
@<TRIPOS>BOND
  1   1   2  2   
  2   2   3  am  
  3   2   4  1   
  4   3   5  1   
  5   3  27  1   
  6   4   6  ar  
  7   4   7  ar  
  8   5   8  1   
  9   5   9  1   
 10   5  28  1   
 11   6  10  ar  
 12   6  29  1   
 13   7  11  ar  
 14   7  30  1   
 15   8  12  ar  
 16   8  13  ar  
 17   9  14  1   
 18   9  31  1   
 19   9  32  1   
 20  10  15  ar  
 21  10  16  1   
 22  11  15  ar  
 23  11  33  1   
 24  12  17  ar  
 25  13  18  ar  
 26  13  34  1   
 27  14  35  1   
 28  14  36  1   
 29  14  37  1   
 30  15  38  1   
 31  16  19  1   
 32  16  39  1   
 33  16  40  1   
 34  17  20  ar  
 35  17  41  1   
 36  18  20  ar  
 37  18  42  1   
 38  19  21  1   
 39  19  22  1   
 40  19  43  1   
 41  20  44  1   
 42  21  23  1   
 43  21  45  1   
 44  21  46  1   
 45  22  24  1   
 46  22  47  1   
 47  22  48  1   
 48  23  25  1   
 49  23  49  1   
 50  23  50  1   
 51  24  26  1   
 52  24  51  1   
 53  24  52  1   
 54  25  26  1   
 55  25  53  1   
 56  25  54  1   
 57  26  55  1   
 58  26  56  1   
@<TRIPOS>SUBSTRUCTURE
  1 ****   4 GROUP 4 **** **** 0

# MOE 2024.06 (io_trps.svl 2023.06)
