@<TRIPOS>MOLECULE
NONAME
52 55 1 0 0 
SMALL
USER_CHARGES


@<TRIPOS>ATOM
  1 O       -0.4890    -0.1620     0.1800 O.2   1 <1>  -0.5700 
  2 C       -1.4140     0.5730    -0.0850 C.2   1 <1>   0.5770 
  3 N       -2.6050     0.0050    -0.4880 N.am  1 <1>  -0.6600 
  4 C       -1.1630     2.0890     0.0710 C.3   1 <1>   0.0530 
  5 C       -3.8960     0.6330    -0.8890 C.3   1 <1>   0.1400 
  6 C       -2.7550    -1.4770    -0.5350 C.3   1 <1>   0.1400 
  7 C       -1.6860     2.9950    -1.0860 C.3   1 <1>   0.0000 
  8 C       -2.1450     2.7930     1.0540 C.3   1 <1>   0.0000 
  9 C        0.3190     2.3770     0.4170 C.3   1 <1>   0.1200 
 10 C       -4.9390    -0.4530    -0.6480 C.3   1 <1>   0.2000 
 11 C       -4.1930    -1.7430    -1.0020 C.3   1 <1>  -0.0800 
 12 C       -2.4740     3.8370    -0.0470 C.3   1 <1>   0.0000 
 13 O        0.5610     3.7460     0.5710 O.3   1 <1>  -0.5600 
 14 O       -5.2590    -0.4480     0.7020 O.3   1 <1>  -0.6800 
 15 C       -4.8210    -3.0260    -0.4150 C.3   1 <1>  -0.0170 
 16 C        1.8790     4.0500     0.8900 C.3   1 <1>   0.0400 
 17 C       -4.2140    -4.3610    -0.8640 C.ar  1 <1>  -0.1440 
 18 C       -4.6320    -5.5640    -0.2390 C.ar  1 <1>   0.0000 
 19 C       -3.2830    -4.4750    -1.8590 C.ar  1 <1>  -0.1500 
 20 C       -4.0440    -6.7790    -0.6710 C.ar  1 <1>   0.3100 
 21 C       -5.6050    -5.6340     0.7870 C.ar  1 <1>  -0.1500 
 22 C       -2.7680    -5.7280    -2.2120 C.ar  1 <1>   0.1600 
 23 N       -3.1140    -6.8430    -1.6560 N.ar  1 <1>  -0.6200 
 24 C       -4.4360    -7.9820    -0.0620 C.ar  1 <1>  -0.1500 
 25 C       -5.9660    -6.8240     1.3580 C.ar  1 <1>  -0.1500 
 26 C       -5.3750    -8.0150     0.9320 C.ar  1 <1>  -0.1500 
 27 H       -4.1320     1.5230    -0.3370 H     1 <1>   0.0800 
 28 H       -3.8610     0.8620    -1.9390 H     1 <1>   0.0800 
 29 H       -2.0300    -1.9040    -1.2060 H     1 <1>   0.0800 
 30 H       -2.5920    -1.8760     0.4530 H     1 <1>   0.0800 
 31 H       -0.9170     3.5620    -1.5800 H     1 <1>   0.0000 
 32 H       -2.3250     2.5030    -1.7920 H     1 <1>   0.0000 
 33 H       -2.9920     2.1930     1.3320 H     1 <1>   0.0000 
 34 H       -1.6680     3.2300     1.9130 H     1 <1>   0.0000 
 35 H        0.9530     2.0080    -0.3700 H     1 <1>   0.0800 
 36 H        0.5790     1.8840     1.3390 H     1 <1>   0.0800 
 37 H       -5.8420    -0.3090    -1.2160 H     1 <1>   0.0800 
 38 H       -4.1910    -1.8160    -2.0740 H     1 <1>   0.0800 
 39 H       -3.5250     3.9060    -0.2660 H     1 <1>   0.0000 
 40 H       -2.0160     4.7920     0.1420 H     1 <1>   0.0000 
 41 H       -4.4280    -0.4220     1.2200 H     1 <1>   0.4000 
 42 H       -5.8680    -3.0360    -0.6690 H     1 <1>   0.0800 
 43 H       -4.7510    -2.9720     0.6570 H     1 <1>   0.0800 
 44 H        1.9620     5.1180     0.9850 H     1 <1>   0.0800 
 45 H        2.5250     3.7040     0.1020 H     1 <1>   0.0800 
 46 H        2.1360     3.5810     1.8250 H     1 <1>   0.0800 
 47 H       -2.9100    -3.6340    -2.4090 H     1 <1>   0.1500 
 48 H       -6.0800    -4.7350     1.1310 H     1 <1>   0.1500 
 49 H       -2.0330    -5.7650    -2.9990 H     1 <1>   0.1500 
 50 H       -3.9680    -8.8850    -0.4090 H     1 <1>   0.1500 
 51 H       -6.7070    -6.8580     2.1390 H     1 <1>   0.1500 
 52 H       -5.6660    -8.9450     1.3890 H     1 <1>   0.1500 
@<TRIPOS>BOND
  1   1   2  2   
  2   2   3  am  
  3   2   4  1   
  4   3   5  1   
  5   3   6  1   
  6   4   7  1   
  7   4   8  1   
  8   4   9  1   
  9   5  10  1   
 10   5  27  1   
 11   5  28  1   
 12   6  11  1   
 13   6  29  1   
 14   6  30  1   
 15   7  12  1   
 16   7  31  1   
 17   7  32  1   
 18   8  12  1   
 19   8  33  1   
 20   8  34  1   
 21   9  13  1   
 22   9  35  1   
 23   9  36  1   
 24  10  11  1   
 25  10  14  1   
 26  10  37  1   
 27  11  15  1   
 28  11  38  1   
 29  12  39  1   
 30  12  40  1   
 31  13  16  1   
 32  14  41  1   
 33  15  17  1   
 34  15  42  1   
 35  15  43  1   
 36  16  44  1   
 37  16  45  1   
 38  16  46  1   
 39  17  18  ar  
 40  17  19  ar  
 41  18  20  ar  
 42  18  21  ar  
 43  19  22  ar  
 44  19  47  1   
 45  20  23  ar  
 46  20  24  ar  
 47  21  25  ar  
 48  21  48  1   
 49  22  23  ar  
 50  22  49  1   
 51  24  26  ar  
 52  24  50  1   
 53  25  26  ar  
 54  25  51  1   
 55  26  52  1   
@<TRIPOS>SUBSTRUCTURE
  1 ****   6 GROUP 4 **** **** 0

# MOE 2024.06 (io_trps.svl 2023.06)
