@<TRIPOS>MOLECULE
NONAME
40 41 1 0 0 
SMALL
USER_CHARGES


@<TRIPOS>ATOM
  1 CL      -1.2130    -1.8280    -2.2800 Cl    1 <1>  -0.1770 
  2 C       -2.3210    -2.1750    -0.9700 C.ar  1 <1>   0.1770 
  3 C       -3.2910    -1.2540    -0.6000 C.ar  1 <1>   0.0820 
  4 C       -2.2150    -3.3850    -0.3140 C.ar  1 <1>  -0.1500 
  5 O       -3.4240    -0.0880    -1.2700 O.3   1 <1>  -0.3630 
  6 C       -4.1360    -1.5480     0.4600 C.ar  1 <1>  -0.1500 
  7 C       -3.0930    -3.6780     0.7190 C.ar  1 <1>  -0.1500 
  8 C       -4.6360     0.0830    -1.9750 C.3   1 <1>   0.1200 
  9 C       -4.0720    -2.7710     1.1210 C.ar  1 <1>  -0.0090 
 10 C       -4.5280     1.3580    -2.8050 C.3   1 <1>  -0.2400 
 11 S       -5.2440    -3.1900     2.4480 S.o2  1 <1>   1.4470 
 12 O       -5.4290    -2.0220     3.2850 O.2   1 <1>  -0.6500 
 13 O       -4.8160    -4.4270     3.0690 O.2   1 <1>  -0.6500 
 14 N       -6.7400    -3.5110     1.7140 N.am  1 <1>  -0.8490 
 15 C       -6.7600    -4.6740     0.7890 C.3   1 <1>   0.1960 
 16 C       -7.4530    -2.3160     1.2420 C.3   1 <1>   0.1960 
 17 C       -6.9900    -4.3010    -0.6930 C.3   1 <1>   0.2000 
 18 C       -8.6820    -2.7140     0.4280 C.3   1 <1>  -0.1600 
 19 O       -5.8650    -3.6290    -1.1390 O.3   1 <1>  -0.6800 
 20 C       -8.2660    -3.4410    -0.8740 C.3   1 <1>  -0.1860 
 21 C       -8.1560    -2.4660    -2.0340 C.2   1 <1>   0.9060 
 22 O       -8.9830    -2.5220    -2.9420 O.co2 1 <1>  -0.9000 
 23 O       -7.2310    -1.6400    -2.0210 O.co2 1 <1>  -0.9000 
 24 H       -1.4630    -4.0910    -0.6150 H     1 <1>   0.1500 
 25 H       -4.8600    -0.8140     0.7620 H     1 <1>   0.1500 
 26 H       -3.0200    -4.6300     1.2170 H     1 <1>   0.1500 
 27 H       -4.7910    -0.7740    -2.6100 H     1 <1>   0.0800 
 28 H       -5.4490     0.1520    -1.2730 H     1 <1>   0.0800 
 29 H       -3.7150     1.2750    -3.5030 H     1 <1>   0.0800 
 30 H       -4.3740     2.2060    -2.1620 H     1 <1>   0.0800 
 31 H       -5.4420     1.5010    -3.3530 H     1 <1>   0.0800 
 32 H       -5.8560    -5.2510     0.8760 H     1 <1>   0.0800 
 33 H       -7.5690    -5.3140     1.0940 H     1 <1>   0.0800 
 34 H       -7.7500    -1.7210     2.0900 H     1 <1>   0.0800 
 35 H       -6.8160    -1.7180     0.6160 H     1 <1>   0.0800 
 36 H       -7.0700    -5.1920    -1.2910 H     1 <1>   0.0800 
 37 H       -9.3080    -3.3490     1.0300 H     1 <1>   0.0800 
 38 H       -9.2510    -1.8340     0.1830 H     1 <1>   0.0800 
 39 H       -6.1790    -2.7710    -1.5630 H     1 <1>   0.4000 
 40 H       -9.0710    -4.1070    -1.1230 H     1 <1>   0.0800 
@<TRIPOS>BOND
  1   1   2  1   
  2   2   3  ar  
  3   2   4  ar  
  4   3   5  1   
  5   3   6  ar  
  6   4   7  ar  
  7   4  24  1   
  8   5   8  1   
  9   6   9  ar  
 10   6  25  1   
 11   7   9  ar  
 12   7  26  1   
 13   8  10  1   
 14   8  27  1   
 15   8  28  1   
 16   9  11  1   
 17  10  29  1   
 18  10  30  1   
 19  10  31  1   
 20  11  12  2   
 21  11  13  2   
 22  11  14  am  
 23  14  15  1   
 24  14  16  1   
 25  15  17  1   
 26  15  32  1   
 27  15  33  1   
 28  16  18  1   
 29  16  34  1   
 30  16  35  1   
 31  17  19  1   
 32  17  20  1   
 33  17  36  1   
 34  18  20  1   
 35  18  37  1   
 36  18  38  1   
 37  19  39  1   
 38  20  21  1   
 39  20  40  1   
 40  21  22  ar  
 41  21  23  ar  
@<TRIPOS>SUBSTRUCTURE
  1 ****  19 GROUP 4 **** **** 0

# MOE 2024.06 (io_trps.svl 2023.06)
