@<TRIPOS>MOLECULE
NONAME
52 55 1 0 0 
SMALL
USER_CHARGES


@<TRIPOS>ATOM
  1 O       -2.7600     0.8360    -1.8760 O.2   1 <1>  -0.5700 
  2 C       -2.5720    -0.1830    -1.2510 C.2   1 <1>   0.5690 
  3 N       -2.2020    -0.1710     0.0680 N.am  1 <1>  -0.6600 
  4 C       -2.7060    -1.5010    -1.9940 C.3   1 <1>  -0.0190 
  5 C       -1.9930    -1.4470     0.8210 C.3   1 <1>   0.2200 
  6 C       -2.1290     1.0870     0.8590 C.3   1 <1>   0.0600 
  7 C       -1.3570    -2.2340    -2.0490 C.3   1 <1>   0.1200 
  8 C       -3.8650    -2.3840    -1.4900 C.3   1 <1>   0.1100 
  9 C       -0.7900    -2.2280     0.2520 C.3   1 <1>   0.1200 
 10 C       -3.2740    -2.3190     0.9210 C.3   1 <1>   0.1100 
 11 O       -1.1060    -2.9690    -0.8910 O.3   1 <1>  -0.5600 
 12 N       -4.3090    -2.0750    -0.1160 N.3   1 <1>  -0.8100 
 13 C       -5.6140    -2.6700     0.2150 C.3   1 <1>   0.2530 
 14 C       -5.5860    -4.1900     0.2050 C.ar  1 <1>  -0.1440 
 15 C       -5.2800    -4.9180     1.3300 C.ar  1 <1>   0.1600 
 16 C       -5.8810    -4.9100    -0.9280 C.ar  1 <1>   0.1600 
 17 N       -5.2550    -6.2270     1.3360 N.ar  1 <1>  -0.6200 
 18 N       -5.8670    -6.2190    -0.9540 N.ar  1 <1>  -0.6200 
 19 C       -5.5500    -6.8330     0.1860 C.ar  1 <1>   0.7200 
 20 N       -5.5250    -8.2130     0.1740 N.pl3 1 <1>  -0.8380 
 21 C       -4.7790    -9.0130     1.1860 C.3   1 <1>   0.2090 
 22 C       -6.1550    -9.0210    -0.9070 C.3   1 <1>   0.2090 
 23 C       -5.7190   -10.0440     1.8190 C.3   1 <1>  -0.1600 
 24 C       -7.0940   -10.0640    -0.2900 C.3   1 <1>  -0.1600 
 25 C       -6.3830   -10.9320     0.7570 C.3   1 <1>  -0.1600 
 26 H       -2.9340    -1.2490    -3.0130 H     1 <1>   0.0800 
 27 H       -1.7150    -1.1870     1.8270 H     1 <1>   0.0800 
 28 H       -1.1570     1.1800     1.3100 H     1 <1>   0.0800 
 29 H       -2.8830     1.0740     1.6270 H     1 <1>   0.0800 
 30 H       -2.2990     1.9430     0.2290 H     1 <1>   0.0800 
 31 H       -0.5460    -1.5460    -2.2150 H     1 <1>   0.0800 
 32 H       -1.3720    -2.9400    -2.8610 H     1 <1>   0.0800 
 33 H       -3.5870    -3.4230    -1.5610 H     1 <1>   0.0800 
 34 H       -4.6990    -2.2240    -2.1520 H     1 <1>   0.0800 
 35 H       -0.4590    -2.9380     0.9880 H     1 <1>   0.0800 
 36 H        0.0290    -1.5660     0.0310 H     1 <1>   0.0800 
 37 H       -3.7120    -2.1180     1.8830 H     1 <1>   0.0800 
 38 H       -2.9950    -3.3590     0.9140 H     1 <1>   0.0800 
 39 H       -5.9240    -2.3200     1.1840 H     1 <1>   0.0800 
 40 H       -6.3450    -2.3200    -0.4940 H     1 <1>   0.0800 
 41 H       -5.0480    -4.4120     2.2500 H     1 <1>   0.1500 
 42 H       -6.1340    -4.3980    -1.8390 H     1 <1>   0.1500 
 43 H       -3.9650    -9.5170     0.6950 H     1 <1>   0.0800 
 44 H       -4.3610    -8.3890     1.9560 H     1 <1>   0.0800 
 45 H       -6.7210    -8.4020    -1.5810 H     1 <1>   0.0800 
 46 H       -5.3810    -9.5100    -1.4730 H     1 <1>   0.0800 
 47 H       -5.1630   -10.6540     2.5080 H     1 <1>   0.0800 
 48 H       -6.4730    -9.5180     2.3780 H     1 <1>   0.0800 
 49 H       -7.9190    -9.5480     0.1690 H     1 <1>   0.0800 
 50 H       -7.4910   -10.6890    -1.0700 H     1 <1>   0.0800 
 51 H       -7.0920   -11.5930     1.2260 H     1 <1>   0.0800 
 52 H       -5.6320   -11.5340     0.2740 H     1 <1>   0.0800 
@<TRIPOS>BOND
  1   1   2  2   
  2   2   3  am  
  3   2   4  1   
  4   3   5  1   
  5   3   6  1   
  6   4   7  1   
  7   4   8  1   
  8   4  26  1   
  9   5   9  1   
 10   5  10  1   
 11   5  27  1   
 12   6  28  1   
 13   6  29  1   
 14   6  30  1   
 15   7  11  1   
 16   7  31  1   
 17   7  32  1   
 18   8  12  1   
 19   8  33  1   
 20   8  34  1   
 21   9  11  1   
 22   9  35  1   
 23   9  36  1   
 24  10  12  1   
 25  10  37  1   
 26  10  38  1   
 27  12  13  1   
 28  13  14  1   
 29  13  39  1   
 30  13  40  1   
 31  14  15  ar  
 32  14  16  ar  
 33  15  17  ar  
 34  15  41  1   
 35  16  18  ar  
 36  16  42  1   
 37  17  19  ar  
 38  18  19  ar  
 39  19  20  1   
 40  20  21  1   
 41  20  22  1   
 42  21  23  1   
 43  21  43  1   
 44  21  44  1   
 45  22  24  1   
 46  22  45  1   
 47  22  46  1   
 48  23  25  1   
 49  23  47  1   
 50  23  48  1   
 51  24  25  1   
 52  24  49  1   
 53  24  50  1   
 54  25  51  1   
 55  25  52  1   
@<TRIPOS>SUBSTRUCTURE
  1 ****  14 GROUP 4 **** **** 0

# MOE 2024.06 (io_trps.svl 2023.06)
