@<TRIPOS>MOLECULE
NONAME
60 63 1 0 0 
SMALL
USER_CHARGES


@<TRIPOS>ATOM
  1 O       -1.2880    -0.1780     0.8920 O.2   1 <1>  -0.5700 
  2 C       -0.9890     0.7730     1.5760 C.2   1 <1>   0.5690 
  3 N       -1.9530     1.4040     2.3310 N.am  1 <1>  -0.6600 
  4 C        0.4180     1.3360     1.4230 C.3   1 <1>   0.1810 
  5 C       -3.3530     0.8620     2.3340 C.3   1 <1>   0.1400 
  6 C       -1.8550     2.8280     2.7500 C.3   1 <1>   0.1400 
  7 O        0.3450     2.4870     0.5940 O.3   1 <1>  -0.3620 
  8 C       -4.1770     1.3230     1.0990 C.3   1 <1>   0.4230 
  9 C       -2.7320     3.7370     1.8630 C.3   1 <1>  -0.0800 
 10 C        1.4000     2.7120    -0.2170 C.ar  1 <1>   0.0820 
 11 N       -3.2930     1.9680     0.0490 N.4   1 <1>  -0.9590 
 12 C       -5.4000     2.1900     1.4860 C.3   1 <1>   0.1200 
 13 C       -4.1430     3.9630     2.4490 C.3   1 <1>   0.1200 
 14 C       -2.7650     3.3470     0.3660 C.3   1 <1>   0.3430 
 15 C        2.3760     3.6350     0.1610 C.ar  1 <1>  -0.1440 
 16 C        1.4840     2.0240    -1.4250 C.ar  1 <1>  -0.1440 
 17 C       -3.9180     1.9520    -1.3030 C.3   1 <1>   0.5240 
 18 O       -5.1240     3.5640     1.5440 O.3   1 <1>  -0.5600 
 19 C        3.4680     3.8420    -0.6760 C.ar  1 <1>  -0.1440 
 20 C        2.2600     4.4040     1.4770 C.3   1 <1>  -0.0970 
 21 C        2.5740     2.2490    -2.2450 C.ar  1 <1>  -0.1500 
 22 C        0.4190     1.0320    -1.8730 C.3   1 <1>  -0.0970 
 23 C       -4.2190     0.5270    -1.7530 C.2   1 <1>   0.0460 
 24 C        3.5560     3.1480    -1.8720 C.ar  1 <1>  -0.1500 
 25 C        4.5860     4.8150    -0.3220 C.3   1 <1>  -0.0970 
 26 N       -5.3480    -0.1020    -1.3670 N.2   1 <1>  -0.5650 
 27 C       -3.4700    -0.2760    -2.5420 C.2   1 <1>  -0.3020 
 28 C       -5.2640    -1.2660    -1.9280 C.2   1 <1>   0.0360 
 29 N       -4.1420    -1.4370    -2.6570 N.pl3 1 <1>   0.0330 
 30 H        1.0570     0.6030     0.9620 H     1 <1>   0.0800 
 31 H        0.8300     1.6200     2.3730 H     1 <1>   0.0800 
 32 H       -3.3130    -0.2140     2.3260 H     1 <1>   0.0800 
 33 H       -3.8470     1.1380     3.2490 H     1 <1>   0.0800 
 34 H       -2.1450     2.9160     3.7840 H     1 <1>   0.0800 
 35 H       -0.8360     3.1650     2.6920 H     1 <1>   0.0800 
 36 H       -4.5800     0.4100     0.7000 H     1 <1>   0.0800 
 37 H       -2.2620     4.7040     1.9070 H     1 <1>   0.0800 
 38 H       -2.4860     1.3220     0.0130 H     1 <1>   0.4500 
 39 H       -5.8160     1.8810     2.4290 H     1 <1>   0.0800 
 40 H       -6.1650     2.0580     0.7400 H     1 <1>   0.0800 
 41 H       -4.2960     5.0150     2.6210 H     1 <1>   0.0800 
 42 H       -4.2960     3.4520     3.3850 H     1 <1>   0.0800 
 43 H       -1.7700     3.4400    -0.0400 H     1 <1>   0.0800 
 44 H       -3.3840     4.0740    -0.1340 H     1 <1>   0.0800 
 45 H       -4.8330     2.5210    -1.2940 H     1 <1>   0.0800 
 46 H       -3.2460     2.4010    -2.0150 H     1 <1>   0.0800 
 47 H        2.5250     5.4360     1.3340 H     1 <1>   0.0800 
 48 H        2.9200     3.9740     2.2070 H     1 <1>   0.0800 
 49 H        1.2590     4.3850     1.8650 H     1 <1>   0.0800 
 50 H        2.6710     1.7280    -3.1810 H     1 <1>   0.1500 
 51 H        0.4790     0.8630    -2.9330 H     1 <1>   0.0800 
 52 H       -0.5610     1.4080    -1.6480 H     1 <1>   0.0800 
 53 H        0.5570     0.0920    -1.3700 H     1 <1>   0.0800 
 54 H        4.3950     3.3030    -2.5270 H     1 <1>   0.1500 
 55 H        5.4120     4.7170    -1.0030 H     1 <1>   0.0800 
 56 H        4.9490     4.6210     0.6700 H     1 <1>   0.0800 
 57 H        4.2230     5.8250    -0.3750 H     1 <1>   0.0800 
 58 H       -2.5210    -0.1030    -3.0200 H     1 <1>   0.1500 
 59 H       -6.0070    -2.0410    -1.8370 H     1 <1>   0.1500 
 60 H       -3.8700    -2.2750    -3.1830 H     1 <1>   0.2700 
@<TRIPOS>BOND
  1   1   2  2   
  2   2   3  am  
  3   2   4  1   
  4   3   5  1   
  5   3   6  1   
  6   4   7  1   
  7   4  30  1   
  8   4  31  1   
  9   5   8  1   
 10   5  32  1   
 11   5  33  1   
 12   6   9  1   
 13   6  34  1   
 14   6  35  1   
 15   7  10  1   
 16   8  11  1   
 17   8  12  1   
 18   8  36  1   
 19   9  13  1   
 20   9  14  1   
 21   9  37  1   
 22  10  15  ar  
 23  10  16  ar  
 24  11  14  1   
 25  11  17  1   
 26  11  38  1   
 27  12  18  1   
 28  12  39  1   
 29  12  40  1   
 30  13  18  1   
 31  13  41  1   
 32  13  42  1   
 33  14  43  1   
 34  14  44  1   
 35  15  19  ar  
 36  15  20  1   
 37  16  21  ar  
 38  16  22  1   
 39  17  23  1   
 40  17  45  1   
 41  17  46  1   
 42  19  24  ar  
 43  19  25  1   
 44  20  47  1   
 45  20  48  1   
 46  20  49  1   
 47  21  24  ar  
 48  21  50  1   
 49  22  51  1   
 50  22  52  1   
 51  22  53  1   
 52  23  26  1   
 53  23  27  2   
 54  24  54  1   
 55  25  55  1   
 56  25  56  1   
 57  25  57  1   
 58  26  28  2   
 59  27  29  1   
 60  27  58  1   
 61  28  29  1   
 62  28  59  1   
 63  29  60  1   
@<TRIPOS>SUBSTRUCTURE
  1 ****   7 GROUP 4 **** **** 0

# MOE 2024.06 (io_trps.svl 2023.06)
