@<TRIPOS>MOLECULE
NONAME
58 60 1 0 0 
SMALL
USER_CHARGES


@<TRIPOS>ATOM
  1 O        0.2240     1.1970     0.8590 O.2   1 <1>  -0.5700 
  2 C        0.0650     2.3330     0.4920 C.2   1 <1>   0.5690 
  3 N       -0.7060     3.1870     1.1960 N.am  1 <1>  -0.7300 
  4 C        0.7070     2.8210    -0.8050 C.3   1 <1>   0.1810 
  5 C       -1.0270     4.5690     0.7570 C.3   1 <1>   0.3640 
  6 O        0.8480     4.2230    -0.8340 O.3   1 <1>  -0.5600 
  7 C       -2.5490     4.6870     0.6660 C.ar  1 <1>  -0.1440 
  8 C       -0.3530     4.9550    -0.5920 C.3   1 <1>   0.2610 
  9 C       -3.1940     5.7800     1.2290 C.ar  1 <1>  -0.1500 
 10 C       -3.3100     3.7170     0.0240 C.ar  1 <1>  -0.1500 
 11 C       -0.0510     6.4600    -0.6380 C.2   1 <1>   0.5690 
 12 C       -4.5700     5.9020     1.1520 C.ar  1 <1>  -0.1500 
 13 C       -4.6860     3.8390    -0.0530 C.ar  1 <1>  -0.1500 
 14 O       -0.8210     7.2610    -0.1590 O.2   1 <1>  -0.5700 
 15 N        1.1100     6.8760    -1.2130 N.am  1 <1>  -0.7300 
 16 C       -5.3180     4.9320     0.5110 C.ar  1 <1>  -0.1500 
 17 C        1.5260     8.2880    -1.3670 C.3   1 <1>   0.1400 
 18 C        2.0880     8.8130    -0.0400 C.3   1 <1>   0.1100 
 19 N        2.3910    10.2590    -0.1000 N.3   1 <1>  -0.8100 
 20 C        1.1490    11.0780    -0.0550 C.3   1 <1>   0.1100 
 21 C        3.2880    10.6490     1.0150 C.3   1 <1>   0.1100 
 22 C        1.4330    12.5990     0.0120 C.3   1 <1>   0.3430 
 23 C        3.6530    12.1540     0.9820 C.3   1 <1>   0.3430 
 24 N        2.9050    12.8750    -0.1010 N.4   1 <1>  -0.9590 
 25 C        3.3100    14.2910    -0.2590 C.3   1 <1>   0.4230 
 26 C        2.7700    15.1530     0.8820 C.3   1 <1>  -0.2400 
 27 C        2.8240    14.8020    -1.6110 C.3   1 <1>  -0.2400 
 28 H       -1.1870     2.8430     2.0280 H     1 <1>   0.3700 
 29 H        0.1060     2.5180    -1.6440 H     1 <1>   0.0800 
 30 H        1.6860     2.3900    -0.9020 H     1 <1>   0.0800 
 31 H       -0.6710     5.2410     1.5200 H     1 <1>   0.0800 
 32 H       -1.0290     4.7340    -1.3980 H     1 <1>   0.0800 
 33 H       -2.6280     6.5500     1.7250 H     1 <1>   0.1500 
 34 H       -2.8390     2.8560    -0.4190 H     1 <1>   0.1500 
 35 H       -5.0580     6.7560     1.5900 H     1 <1>   0.1500 
 36 H       -5.2670     3.0820    -0.5510 H     1 <1>   0.1500 
 37 H        1.7620     6.1480    -1.5260 H     1 <1>   0.3700 
 38 H       -6.3880     5.0280     0.4520 H     1 <1>   0.1500 
 39 H        2.2730     8.3600    -2.1390 H     1 <1>   0.0800 
 40 H        0.6650     8.8610    -1.6610 H     1 <1>   0.0800 
 41 H        2.9920     8.2660     0.1720 H     1 <1>   0.0800 
 42 H        1.3830     8.6210     0.7520 H     1 <1>   0.0800 
 43 H        0.5570    10.8860    -0.9340 H     1 <1>   0.0800 
 44 H        0.5520    10.7980     0.7970 H     1 <1>   0.0800 
 45 H        2.8180    10.4220     1.9570 H     1 <1>   0.0800 
 46 H        4.1980    10.0740     0.9630 H     1 <1>   0.0800 
 47 H        1.0570    12.9880     0.9430 H     1 <1>   0.0800 
 48 H        0.8990    13.0870    -0.7860 H     1 <1>   0.0800 
 49 H        4.7130    12.2500     0.8160 H     1 <1>   0.0800 
 50 H        3.4310    12.5910     1.9410 H     1 <1>   0.0800 
 51 H        3.1740    12.3590    -0.9520 H     1 <1>   0.4500 
 52 H        4.3880    14.3450    -0.2500 H     1 <1>   0.0800 
 53 H        1.6960    15.1940     0.8750 H     1 <1>   0.0800 
 54 H        3.1340    16.1590     0.7680 H     1 <1>   0.0800 
 55 H        3.1110    14.7930     1.8350 H     1 <1>   0.0800 
 56 H        1.7510    14.8490    -1.6570 H     1 <1>   0.0800 
 57 H        3.1920    14.1790    -2.4060 H     1 <1>   0.0800 
 58 H        3.2020    15.7960    -1.7730 H     1 <1>   0.0800 
@<TRIPOS>BOND
  1   1   2  2   
  2   2   3  am  
  3   2   4  1   
  4   3   5  1   
  5   3  28  1   
  6   4   6  1   
  7   4  29  1   
  8   4  30  1   
  9   5   7  1   
 10   5   8  1   
 11   5  31  1   
 12   6   8  1   
 13   7   9  ar  
 14   7  10  ar  
 15   8  11  1   
 16   8  32  1   
 17   9  12  ar  
 18   9  33  1   
 19  10  13  ar  
 20  10  34  1   
 21  11  14  2   
 22  11  15  am  
 23  12  16  ar  
 24  12  35  1   
 25  13  16  ar  
 26  13  36  1   
 27  15  17  1   
 28  15  37  1   
 29  16  38  1   
 30  17  18  1   
 31  17  39  1   
 32  17  40  1   
 33  18  19  1   
 34  18  41  1   
 35  18  42  1   
 36  19  20  1   
 37  19  21  1   
 38  20  22  1   
 39  20  43  1   
 40  20  44  1   
 41  21  23  1   
 42  21  45  1   
 43  21  46  1   
 44  22  24  1   
 45  22  47  1   
 46  22  48  1   
 47  23  24  1   
 48  23  49  1   
 49  23  50  1   
 50  24  25  1   
 51  24  51  1   
 52  25  26  1   
 53  25  27  1   
 54  25  52  1   
 55  26  53  1   
 56  26  54  1   
 57  26  55  1   
 58  27  56  1   
 59  27  57  1   
 60  27  58  1   
@<TRIPOS>SUBSTRUCTURE
  1 ****  14 GROUP 4 **** **** 0

# MOE 2024.06 (io_trps.svl 2023.06)
