@<TRIPOS>MOLECULE
NONAME
56 58 1 0 0 
SMALL
USER_CHARGES


@<TRIPOS>ATOM
  1 O        3.5320    -2.2150     0.2200 O.co2 1 <1>  -0.9000 
  2 C        2.6890    -1.5310     0.8120 C.2   1 <1>   0.9060 
  3 O        2.0210    -1.9830     1.7410 O.co2 1 <1>  -0.9000 
  4 C        2.5360    -0.0470     0.4400 C.3   1 <1>  -0.1060 
  5 C        3.2190     0.1330    -0.9510 C.3   1 <1>   0.2000 
  6 C        3.3040     0.7490     1.5430 C.3   1 <1>  -0.1600 
  7 C        1.0040     0.2630     0.4400 C.3   1 <1>  -0.0160 
  8 O        2.8600     1.3270    -1.5840 O.3   1 <1>  -0.6800 
  9 C        4.7510     0.1580    -0.7560 C.3   1 <1>   0.3430 
 10 C        4.1540     1.8860     0.9820 C.3   1 <1>   0.3430 
 11 C        0.5690     1.6550    -0.0230 C.ar  1 <1>  -0.1440 
 12 N        5.2030     1.3660     0.0390 N.4   1 <1>  -0.9590 
 13 C        0.0020     1.8150    -1.2800 C.ar  1 <1>  -0.1500 
 14 C        0.7220     2.7680     0.7910 C.ar  1 <1>  -0.1500 
 15 C        5.6280     2.4420    -0.8960 C.3   1 <1>   0.4860 
 16 C       -0.3670     3.0700    -1.7300 C.ar  1 <1>  -0.1500 
 17 C        0.3540     4.0240     0.3430 C.ar  1 <1>  -0.1500 
 18 C        6.0240     3.6930    -0.1210 C.ar  1 <1>  -0.1430 
 19 C       -0.1860     4.1770    -0.9210 C.ar  1 <1>  -0.1500 
 20 C        7.1810     3.7110     0.6570 C.ar  1 <1>  -0.1430 
 21 C        5.2140     4.8270    -0.1850 C.ar  1 <1>  -0.1430 
 22 C        7.4960     4.8470     1.3840 C.ar  1 <1>  -0.1500 
 23 C        8.1410     2.5290     0.7490 C.3   1 <1>  -0.0970 
 24 C        5.5540     5.9510     0.5500 C.ar  1 <1>  -0.1500 
 25 C        3.9590     4.8920    -1.0540 C.3   1 <1>  -0.0970 
 26 C        6.6870     5.9660     1.3400 C.ar  1 <1>  -0.1430 
 27 C        7.0460     7.2050     2.1400 C.3   1 <1>  -0.0970 
 28 H        2.9380    -0.6740    -1.6090 H     1 <1>   0.0800 
 29 H        3.9650     0.0900     2.0820 H     1 <1>   0.0800 
 30 H        2.6190     1.1280     2.2760 H     1 <1>   0.0800 
 31 H        0.5150    -0.4730    -0.1750 H     1 <1>   0.0800 
 32 H        0.6170     0.1110     1.4340 H     1 <1>   0.0800 
 33 H        1.9150     1.5270    -1.3790 H     1 <1>   0.4000 
 34 H        5.2300     0.1330    -1.7190 H     1 <1>   0.0800 
 35 H        5.0430    -0.7370    -0.2320 H     1 <1>   0.0800 
 36 H        4.6210     2.4380     1.7820 H     1 <1>   0.0800 
 37 H        3.4990     2.5570     0.4550 H     1 <1>   0.0800 
 38 H        6.0140     1.0980     0.6010 H     1 <1>   0.4500 
 39 H       -0.1550     0.9610    -1.9190 H     1 <1>   0.1500 
 40 H        1.1180     2.6670     1.7850 H     1 <1>   0.1500 
 41 H        6.4630     2.1090    -1.4870 H     1 <1>   0.0800 
 42 H        4.8190     2.6690    -1.5700 H     1 <1>   0.0800 
 43 H       -0.8000     3.1850    -2.7090 H     1 <1>   0.1500 
 44 H        0.4790     4.8820     0.9810 H     1 <1>   0.1500 
 45 H       -0.4740     5.1530    -1.2710 H     1 <1>   0.1500 
 46 H        8.3840     4.8700     1.9920 H     1 <1>   0.1500 
 47 H        9.1140     2.8620     1.0630 H     1 <1>   0.0800 
 48 H        8.2600     2.0480    -0.2040 H     1 <1>   0.0800 
 49 H        7.7850     1.8160     1.4710 H     1 <1>   0.0800 
 50 H        4.9360     6.8310     0.5070 H     1 <1>   0.1500 
 51 H        3.4810     5.8510    -0.9670 H     1 <1>   0.0800 
 52 H        3.2440     4.1450    -0.7660 H     1 <1>   0.0800 
 53 H        4.2160     4.7480    -2.0880 H     1 <1>   0.0800 
 54 H        7.5760     6.9350     3.0370 H     1 <1>   0.0800 
 55 H        6.1590     7.7440     2.4210 H     1 <1>   0.0800 
 56 H        7.6710     7.8500     1.5490 H     1 <1>   0.0800 
@<TRIPOS>BOND
  1   1   2  ar  
  2   2   3  ar  
  3   2   4  1   
  4   4   5  1   
  5   4   6  1   
  6   4   7  1   
  7   5   8  1   
  8   5   9  1   
  9   5  28  1   
 10   6  10  1   
 11   6  29  1   
 12   6  30  1   
 13   7  11  1   
 14   7  31  1   
 15   7  32  1   
 16   8  33  1   
 17   9  12  1   
 18   9  34  1   
 19   9  35  1   
 20  10  12  1   
 21  10  36  1   
 22  10  37  1   
 23  11  13  ar  
 24  11  14  ar  
 25  12  15  1   
 26  12  38  1   
 27  13  16  ar  
 28  13  39  1   
 29  14  17  ar  
 30  14  40  1   
 31  15  18  1   
 32  15  41  1   
 33  15  42  1   
 34  16  19  ar  
 35  16  43  1   
 36  17  19  ar  
 37  17  44  1   
 38  18  20  ar  
 39  18  21  ar  
 40  19  45  1   
 41  20  22  ar  
 42  20  23  1   
 43  21  24  ar  
 44  21  25  1   
 45  22  26  ar  
 46  22  46  1   
 47  23  47  1   
 48  23  48  1   
 49  23  49  1   
 50  24  26  ar  
 51  24  50  1   
 52  25  51  1   
 53  25  52  1   
 54  25  53  1   
 55  26  27  1   
 56  27  54  1   
 57  27  55  1   
 58  27  56  1   
@<TRIPOS>SUBSTRUCTURE
  1 ****  10 GROUP 4 **** **** 0

# MOE 2024.06 (io_trps.svl 2023.06)
