@<TRIPOS>MOLECULE
NONAME
47 50 1 0 0 
SMALL
USER_CHARGES


@<TRIPOS>ATOM
  1 O       -0.5010    -2.8730    -1.1960 O.2   1 <1>  -0.5700 
  2 C        0.5430    -2.6010    -0.6470 C.2   1 <1>   0.6900 
  3 N        0.7980    -2.7710     0.6820 N.am  1 <1>  -0.4200 
  4 N        1.6180    -2.1040    -1.2910 N.am  1 <1>  -0.7300 
  5 C        2.0910    -2.4340     0.9490 C.2   1 <1>   0.5690 
  6 C       -0.0800    -3.5260     1.6080 C.3   1 <1>   0.2010 
  7 C        2.7600    -2.0010    -0.3470 C.3   1 <1>   0.2010 
  8 O        2.6290    -2.4520     2.0280 O.2   1 <1>  -0.5700 
  9 C       -0.1520    -5.0080     1.2390 C.2   1 <1>   0.5690 
 10 O        0.8540    -5.6670     1.3670 O.2   1 <1>  -0.5700 
 11 N       -1.3140    -5.5770     0.7860 N.am  1 <1>  -0.6600 
 12 C       -2.5900    -4.8800     0.4760 C.3   1 <1>   0.1400 
 13 C       -1.3690    -6.9870     0.3310 C.3   1 <1>   0.1400 
 14 C       -3.4440    -5.9140    -0.2600 C.3   1 <1>   0.2000 
 15 C       -2.8530    -7.2750     0.0990 C.3   1 <1>  -0.0800 
 16 O       -4.7710    -5.8560     0.1420 O.3   1 <1>  -0.6800 
 17 C       -3.1180    -8.3390    -0.9790 C.3   1 <1>  -0.0170 
 18 C       -2.5350    -9.6840    -0.5820 C.ar  1 <1>   0.1670 
 19 N       -1.3000    -9.9190    -0.9040 N.ar  1 <1>  -0.6200 
 20 C       -3.3440   -10.5960     0.1150 C.ar  1 <1>  -0.1500 
 21 C       -0.7670   -11.1130    -0.5380 C.ar  1 <1>   0.3100 
 22 C       -2.8360   -11.8020     0.4910 C.ar  1 <1>  -0.1500 
 23 C       -1.5010   -12.0920     0.1650 C.ar  1 <1>   0.0000 
 24 C        0.5700   -11.3890    -0.8670 C.ar  1 <1>  -0.1500 
 25 C       -0.8720   -13.3060     0.5090 C.ar  1 <1>  -0.1500 
 26 C        1.1640   -12.5740    -0.5240 C.ar  1 <1>  -0.1500 
 27 C        0.4330   -13.5430     0.1720 C.ar  1 <1>  -0.1500 
 28 H        1.7110    -2.1610    -2.3060 H     1 <1>   0.3700 
 29 H        0.3120    -3.4490     2.6060 H     1 <1>   0.0800 
 30 H       -1.0570    -3.0840     1.5990 H     1 <1>   0.0800 
 31 H        3.5490    -2.6820    -0.6130 H     1 <1>   0.0800 
 32 H        3.1190    -0.9900    -0.2760 H     1 <1>   0.0800 
 33 H       -3.0620    -4.5760     1.3930 H     1 <1>   0.0800 
 34 H       -2.4180    -4.0270    -0.1550 H     1 <1>   0.0800 
 35 H       -0.8110    -7.0810    -0.5860 H     1 <1>   0.0800 
 36 H       -0.9460    -7.6490     1.0680 H     1 <1>   0.0800 
 37 H       -3.4000    -5.7310    -1.3210 H     1 <1>   0.0800 
 38 H       -3.2600    -7.6090     1.0370 H     1 <1>   0.0800 
 39 H       -4.8450    -6.0500     1.0960 H     1 <1>   0.4000 
 40 H       -2.6820    -8.0300    -1.9130 H     1 <1>   0.0800 
 41 H       -4.1770    -8.4380    -1.1350 H     1 <1>   0.0800 
 42 H       -4.3590   -10.3280     0.3440 H     1 <1>   0.1500 
 43 H       -3.4250   -12.5260     1.0260 H     1 <1>   0.1500 
 44 H        1.1140   -10.6310    -1.4000 H     1 <1>   0.1500 
 45 H       -1.4390   -14.0460     1.0440 H     1 <1>   0.1500 
 46 H        2.1900   -12.7720    -0.7820 H     1 <1>   0.1500 
 47 H        0.9130   -14.4700     0.4360 H     1 <1>   0.1500 
@<TRIPOS>BOND
  1   1   2  2   
  2   2   3  am  
  3   2   4  am  
  4   3   5  am  
  5   3   6  1   
  6   4   7  1   
  7   4  28  1   
  8   5   7  1   
  9   5   8  2   
 10   6   9  1   
 11   6  29  1   
 12   6  30  1   
 13   7  31  1   
 14   7  32  1   
 15   9  10  2   
 16   9  11  am  
 17  11  12  1   
 18  11  13  1   
 19  12  14  1   
 20  12  33  1   
 21  12  34  1   
 22  13  15  1   
 23  13  35  1   
 24  13  36  1   
 25  14  15  1   
 26  14  16  1   
 27  14  37  1   
 28  15  17  1   
 29  15  38  1   
 30  16  39  1   
 31  17  18  1   
 32  17  40  1   
 33  17  41  1   
 34  18  19  ar  
 35  18  20  ar  
 36  19  21  ar  
 37  20  22  ar  
 38  20  42  1   
 39  21  23  ar  
 40  21  24  ar  
 41  22  23  ar  
 42  22  43  1   
 43  23  25  ar  
 44  24  26  ar  
 45  24  44  1   
 46  25  27  ar  
 47  25  45  1   
 48  26  27  ar  
 49  26  46  1   
 50  27  47  1   
@<TRIPOS>SUBSTRUCTURE
  1 ****  13 GROUP 4 **** **** 0

# MOE 2024.06 (io_trps.svl 2023.06)
