@<TRIPOS>MOLECULE
NONAME
49 51 1 0 0 
SMALL
USER_CHARGES


@<TRIPOS>ATOM
  1 O       -4.8500     2.6090    -2.2270 O.2   1 <1>  -0.5700 
  2 C       -3.6600     2.4560    -2.1020 C.2   1 <1>   0.5690 
  3 N       -3.0560     1.2720    -2.3690 N.am  1 <1>  -0.7300 
  4 C       -2.8000     3.6020    -1.5960 C.3   1 <1>   0.0440 
  5 C       -3.7290    -0.0180    -2.6260 C.3   1 <1>   0.2200 
  6 C       -1.8350     3.1050    -0.5230 C.ar  1 <1>  -0.1440 
  7 C       -3.5410    -0.9630    -1.4440 C.3   1 <1>  -0.0800 
  8 C       -2.9450    -0.7640    -3.6970 C.3   1 <1>   0.1200 
  9 C       -2.2550     3.0210     0.7950 C.ar  1 <1>  -0.1500 
 10 C       -0.5560     2.6880    -0.8590 C.ar  1 <1>  -0.1500 
 11 C       -2.1440    -1.5430    -1.6910 C.3   1 <1>   0.1200 
 12 C       -3.7260    -0.3470    -0.0430 C.3   1 <1>  -0.0160 
 13 O       -1.8400    -1.3050    -3.0360 O.3   1 <1>  -0.5600 
 14 C       -1.4150     2.4970     1.7610 C.ar  1 <1>  -0.1500 
 15 C        0.2860     2.1610     0.1050 C.ar  1 <1>  -0.1500 
 16 C       -3.4090    -1.3490     1.0560 C.ar  1 <1>  -0.1440 
 17 C       -0.1480     2.0500     1.4230 C.ar  1 <1>   0.0820 
 18 C       -2.2630    -1.2470     1.8180 C.ar  1 <1>  -0.1500 
 19 C       -4.2450    -2.4060     1.3510 C.ar  1 <1>  -0.1500 
 20 O        0.5930     1.5100     2.4210 O.3   1 <1>  -0.3620 
 21 C       -2.0120    -2.1830     2.8070 C.ar  1 <1>   0.1600 
 22 C       -3.9000    -3.2890     2.3610 C.ar  1 <1>   0.1600 
 23 C        1.8750     0.9820     2.1780 C.3   1 <1>   0.1200 
 24 N       -2.8020    -3.2060     3.0940 N.ar  1 <1>  -0.6200 
 25 C        2.4000     0.4020     3.4870 C.3   1 <1>  -0.2400 
 26 H       -2.0540     1.1750    -2.1880 H     1 <1>   0.3700 
 27 H       -2.2600     4.0230    -2.4240 H     1 <1>   0.0800 
 28 H       -3.4360     4.3680    -1.1920 H     1 <1>   0.0800 
 29 H       -4.7620     0.1320    -2.8920 H     1 <1>   0.0800 
 30 H       -4.2440    -1.7700    -1.5490 H     1 <1>   0.0800 
 31 H       -2.6150    -0.1210    -4.4950 H     1 <1>   0.0800 
 32 H       -3.5230    -1.5790    -4.0960 H     1 <1>   0.0800 
 33 H       -3.2420     3.3500     1.0750 H     1 <1>   0.1500 
 34 H       -0.2090     2.7620    -1.8760 H     1 <1>   0.1500 
 35 H       -2.1100    -2.6030    -1.5040 H     1 <1>   0.0800 
 36 H       -1.3980    -1.0450    -1.0960 H     1 <1>   0.0800 
 37 H       -4.7370     0.0030     0.0670 H     1 <1>   0.0800 
 38 H       -3.0790     0.5010     0.0800 H     1 <1>   0.0800 
 39 H       -1.7410     2.4230     2.7830 H     1 <1>   0.1500 
 40 H        1.2680     1.8420    -0.1880 H     1 <1>   0.1500 
 41 H       -1.5600    -0.4490     1.6570 H     1 <1>   0.1500 
 42 H       -5.1610    -2.5500     0.8080 H     1 <1>   0.1500 
 43 H       -1.1130    -2.0840     3.3910 H     1 <1>   0.1500 
 44 H       -4.5640    -4.1090     2.5770 H     1 <1>   0.1500 
 45 H        1.7940     0.2140     1.4290 H     1 <1>   0.0800 
 46 H        2.5110     1.7780     1.8310 H     1 <1>   0.0800 
 47 H        1.7490    -0.3810     3.8330 H     1 <1>   0.0800 
 48 H        2.4640     1.1730     4.2330 H     1 <1>   0.0800 
 49 H        3.3810    -0.0110     3.3350 H     1 <1>   0.0800 
@<TRIPOS>BOND
  1   1   2  2   
  2   2   3  am  
  3   2   4  1   
  4   3   5  1   
  5   3  26  1   
  6   4   6  1   
  7   4  27  1   
  8   4  28  1   
  9   5   7  1   
 10   5   8  1   
 11   5  29  1   
 12   6   9  ar  
 13   6  10  ar  
 14   7  11  1   
 15   7  12  1   
 16   7  30  1   
 17   8  13  1   
 18   8  31  1   
 19   8  32  1   
 20   9  14  ar  
 21   9  33  1   
 22  10  15  ar  
 23  10  34  1   
 24  11  13  1   
 25  11  35  1   
 26  11  36  1   
 27  12  16  1   
 28  12  37  1   
 29  12  38  1   
 30  14  17  ar  
 31  14  39  1   
 32  15  17  ar  
 33  15  40  1   
 34  16  18  ar  
 35  16  19  ar  
 36  17  20  1   
 37  18  21  ar  
 38  18  41  1   
 39  19  22  ar  
 40  19  42  1   
 41  20  23  1   
 42  21  24  ar  
 43  21  43  1   
 44  22  24  ar  
 45  22  44  1   
 46  23  25  1   
 47  23  45  1   
 48  23  46  1   
 49  25  47  1   
 50  25  48  1   
 51  25  49  1   
@<TRIPOS>SUBSTRUCTURE
  1 ****  12 GROUP 4 **** **** 0

# MOE 2024.06 (io_trps.svl 2023.06)
