@<TRIPOS>MOLECULE
NONAME
43 46 1 0 0 
SMALL
USER_CHARGES


@<TRIPOS>ATOM
  1 F       -1.2180    -1.4860     1.9930 F     1 <1>  -0.3400 
  2 C       -1.4060    -0.7930     0.8780 C.3   1 <1>   1.1640 
  3 F       -0.6450    -1.3630    -0.0490 F     1 <1>  -0.3400 
  4 F       -0.8910     0.4100     1.0960 F     1 <1>  -0.3400 
  5 C       -2.8780    -0.7230     0.4900 C.ar  1 <1>  -0.1440 
  6 C       -3.7680    -0.1470     1.3820 C.ar  1 <1>   0.1600 
  7 C       -3.3730    -1.2060    -0.7130 C.ar  1 <1>  -0.1500 
  8 N       -5.0670    -0.0170     1.1840 N.ar  1 <1>  -0.6200 
  9 C       -4.7250    -1.0750    -0.9290 C.ar  1 <1>  -0.1500 
 10 C       -5.5370    -0.4830     0.0330 C.ar  1 <1>   0.4100 
 11 N       -6.8930    -0.3660    -0.1950 N.pl3 1 <1>  -0.8380 
 12 C       -7.6290     0.7780     0.4370 C.3   1 <1>   0.2090 
 13 C       -7.6950    -1.6140    -0.2380 C.3   1 <1>   0.2090 
 14 C       -8.9250     1.0900    -0.3340 C.3   1 <1>   0.1430 
 15 C       -8.9920    -1.3660    -1.0200 C.3   1 <1>  -0.1600 
 16 C       -9.6420     2.2280     0.3680 C.ar  1 <1>   0.1670 
 17 C       -9.7920    -0.1850    -0.4370 C.3   1 <1>  -0.1600 
 18 C       -8.6170     1.6990    -1.7290 C.3   1 <1>  -0.1600 
 19 N      -10.2990     2.1360     1.5000 N.ar  1 <1>  -0.6200 
 20 C       -9.5130     3.4000    -0.3210 C.ar  1 <1>  -0.1430 
 21 C       -8.6970     3.2280    -1.5770 C.3   1 <1>  -0.0170 
 22 C      -10.8190     3.2800     1.9160 C.ar  1 <1>   0.7200 
 23 C      -10.1080     4.5210     0.2050 C.ar  1 <1>   0.1600 
 24 N      -10.7780     4.4710     1.3350 N.ar  1 <1>  -0.6200 
 25 N      -11.4980     3.2210     3.0620 N.pl3 1 <1>  -0.9000 
 26 H       -3.3960     0.2340     2.3190 H     1 <1>   0.1500 
 27 H       -2.7380    -1.6630    -1.4540 H     1 <1>   0.1500 
 28 H       -5.1740    -1.4190    -1.8410 H     1 <1>   0.1500 
 29 H       -6.9980     1.6500     0.4540 H     1 <1>   0.0800 
 30 H       -7.8670     0.5230     1.4560 H     1 <1>   0.0800 
 31 H       -7.9260    -1.9170     0.7690 H     1 <1>   0.0800 
 32 H       -7.1310    -2.4020    -0.7060 H     1 <1>   0.0800 
 33 H       -9.5950    -2.2560    -0.9930 H     1 <1>   0.0800 
 34 H       -8.7420    -1.1710    -2.0480 H     1 <1>   0.0800 
 35 H      -10.6650     0.0060    -1.0350 H     1 <1>   0.0800 
 36 H      -10.1290    -0.4530     0.5490 H     1 <1>   0.0800 
 37 H       -9.3730     1.3920    -2.4300 H     1 <1>   0.0800 
 38 H       -7.6590     1.3870    -2.1080 H     1 <1>   0.0800 
 39 H       -9.1700     3.6860    -2.4290 H     1 <1>   0.0800 
 40 H       -7.7160     3.6460    -1.4320 H     1 <1>   0.0800 
 41 H      -10.0340     5.4660    -0.3050 H     1 <1>   0.1500 
 42 H      -12.1450     3.9880     3.2180 H     1 <1>   0.4000 
 43 H      -11.8030     2.2930     3.3350 H     1 <1>   0.4000 
@<TRIPOS>BOND
  1   1   2  1   
  2   2   3  1   
  3   2   4  1   
  4   2   5  1   
  5   5   6  ar  
  6   5   7  ar  
  7   6   8  ar  
  8   6  26  1   
  9   7   9  ar  
 10   7  27  1   
 11   8  10  ar  
 12   9  10  ar  
 13   9  28  1   
 14  10  11  1   
 15  11  12  1   
 16  11  13  1   
 17  12  14  1   
 18  12  29  1   
 19  12  30  1   
 20  13  15  1   
 21  13  31  1   
 22  13  32  1   
 23  14  16  1   
 24  14  17  1   
 25  14  18  1   
 26  15  17  1   
 27  15  33  1   
 28  15  34  1   
 29  16  19  ar  
 30  16  20  ar  
 31  17  35  1   
 32  17  36  1   
 33  18  21  1   
 34  18  37  1   
 35  18  38  1   
 36  19  22  ar  
 37  20  21  1   
 38  20  23  ar  
 39  21  39  1   
 40  21  40  1   
 41  22  24  ar  
 42  22  25  1   
 43  23  24  ar  
 44  23  41  1   
 45  25  42  1   
 46  25  43  1   
@<TRIPOS>SUBSTRUCTURE
  1 ****  12 GROUP 4 **** **** 0

# MOE 2024.06 (io_trps.svl 2023.06)
