@<TRIPOS>MOLECULE
NONAME
34 35 1 0 0 
SMALL
USER_CHARGES


@<TRIPOS>ATOM
  1 O        0.2920    -0.0030    -2.6670 O.2   1 <1>  -0.5700 
  2 C        0.9340    -0.6860    -1.9070 C.2   1 <1>   0.5690 
  3 N        1.8500    -0.1930    -1.0300 N.am  1 <1>  -0.4930 
  4 C        0.6990    -2.1850    -1.9210 C.3   1 <1>  -0.0990 
  5 C        2.2390     1.1510    -0.8070 C.2   1 <1>   0.0630 
  6 C       -0.0530    -2.6580    -0.6670 C.3   1 <1>  -0.1600 
  7 C        3.1080     1.5890     0.1310 C.2   1 <1>  -0.3320 
  8 C        1.8310     2.3050    -1.4780 C.2   1 <1>   0.1390 
  9 C       -0.3350    -4.1670    -0.7130 C.3   1 <1>   0.0960 
 10 N        3.1820     2.9370    -0.0120 N.pl3 1 <1>   0.3140 
 11 C        3.8880     0.8070     1.1780 C.3   1 <1>  -0.0600 
 12 N        2.3950     3.3760    -1.0060 N.2   1 <1>  -0.7070 
 13 N       -0.9190    -4.6240     0.5620 N.pl3 1 <1>   0.3140 
 14 C        3.9940     3.8730     0.7750 C.3   1 <1>   0.0160 
 15 N       -0.1890    -4.8150     1.6520 N.2   1 <1>  -0.7070 
 16 C       -2.1940    -4.9060     0.8460 C.2   1 <1>   0.0360 
 17 C       -1.0740    -5.1990     2.5130 C.2   1 <1>   0.3660 
 18 N       -2.3350    -5.2740     2.0680 N.2   1 <1>  -0.5650 
 19 H        2.3140    -0.8640    -0.4240 H     1 <1>   0.3700 
 20 H        1.6480    -2.6830    -1.9990 H     1 <1>   0.0800 
 21 H        0.1270    -2.4280    -2.8000 H     1 <1>   0.0800 
 22 H       -0.9850    -2.1230    -0.5890 H     1 <1>   0.0800 
 23 H        0.5360    -2.4370     0.2070 H     1 <1>   0.0800 
 24 H        1.1300     2.3130    -2.2950 H     1 <1>   0.1500 
 25 H        0.5800    -4.7100    -0.8670 H     1 <1>   0.0800 
 26 H       -1.0140    -4.4000    -1.5120 H     1 <1>   0.0800 
 27 H        3.6740    -0.2440     1.1100 H     1 <1>   0.0800 
 28 H        3.6230     1.1430     2.1650 H     1 <1>   0.0800 
 29 H        4.9450     0.9480     1.0340 H     1 <1>   0.0800 
 30 H        3.7030     3.8110     1.8060 H     1 <1>   0.0800 
 31 H        3.8290     4.8710     0.4140 H     1 <1>   0.0800 
 32 H        5.0310     3.6190     0.6670 H     1 <1>   0.0800 
 33 H       -2.9890    -4.8280     0.1270 H     1 <1>   0.1500 
 34 H       -0.8360    -5.4500     3.5350 H     1 <1>   0.1500 
@<TRIPOS>BOND
  1   1   2  2   
  2   2   3  am  
  3   2   4  1   
  4   3   5  1   
  5   3  19  1   
  6   4   6  1   
  7   4  20  1   
  8   4  21  1   
  9   5   7  2   
 10   5   8  1   
 11   6   9  1   
 12   6  22  1   
 13   6  23  1   
 14   7  10  1   
 15   7  11  1   
 16   8  12  2   
 17   8  24  1   
 18   9  13  1   
 19   9  25  1   
 20   9  26  1   
 21  10  12  1   
 22  10  14  1   
 23  11  27  1   
 24  11  28  1   
 25  11  29  1   
 26  13  15  1   
 27  13  16  1   
 28  14  30  1   
 29  14  31  1   
 30  14  32  1   
 31  15  17  2   
 32  16  18  2   
 33  16  33  1   
 34  17  18  1   
 35  17  34  1   
@<TRIPOS>SUBSTRUCTURE
  1 ****   3 GROUP 4 **** **** 0

# MOE 2024.06 (io_trps.svl 2023.06)
