@<TRIPOS>MOLECULE
NONAME
50 52 1 0 0 
SMALL
USER_CHARGES


@<TRIPOS>ATOM
  1 O        1.3000    -2.1270    -2.0500 O.2   1 <1>  -0.5700 
  2 C        1.5400    -1.1600    -1.3430 C.2   1 <1>   0.5440 
  3 N        0.5000    -0.3300    -0.9930 N.am  1 <1>  -0.6600 
  4 C        2.8880    -0.8770    -0.9230 C.ar  1 <1>   0.0860 
  5 C       -0.9020    -0.5650    -1.3950 C.3   1 <1>   0.1400 
  6 C        0.5910     0.7340     0.0310 C.3   1 <1>   0.1400 
  7 C        3.3780    -1.2450     0.3480 C.ar  1 <1>   0.4100 
  8 C        3.7390    -0.1910    -1.7780 C.ar  1 <1>  -0.1500 
  9 C       -1.6770     0.6010    -0.7930 C.3   1 <1>  -0.1600 
 10 C       -0.8540     1.0180     0.4230 C.3   1 <1>  -0.1600 
 11 N        4.5960    -0.9190     0.7830 N.ar  1 <1>  -0.6200 
 12 N        2.6220    -1.9970     1.2370 N.pl3 1 <1>  -0.8380 
 13 C        5.0020     0.1190    -1.3310 C.ar  1 <1>  -0.1500 
 14 C        5.3720    -0.2600    -0.0530 C.ar  1 <1>   0.1600 
 15 C        2.2940    -3.3920     0.8420 C.3   1 <1>   0.2090 
 16 C        2.7660    -1.7800     2.7030 C.3   1 <1>   0.1290 
 17 C        0.7720    -3.5690     0.8230 C.3   1 <1>  -0.1600 
 18 C        0.2970    -4.7630    -0.0130 C.3   1 <1>   0.3430 
 19 O        0.9370    -4.7560    -1.2390 O.3   1 <1>  -0.6800 
 20 C       -1.2190    -4.7170    -0.2090 C.ar  1 <1>  -0.1440 
 21 C       -2.0400    -5.2630     0.7680 C.ar  1 <1>  -0.1500 
 22 C       -1.8070    -4.1330    -1.3260 C.ar  1 <1>  -0.1500 
 23 C       -3.4180    -5.2250     0.6360 C.ar  1 <1>  -0.1500 
 24 C       -3.1840    -4.0940    -1.4600 C.ar  1 <1>  -0.1500 
 25 C       -3.9910    -4.6390    -0.4780 C.ar  1 <1>  -0.1500 
 26 H       -1.2380    -1.4940    -0.9690 H     1 <1>   0.0800 
 27 H       -0.9940    -0.6020    -2.4670 H     1 <1>   0.0800 
 28 H        1.0430     1.6070    -0.4080 H     1 <1>   0.0800 
 29 H        1.1690     0.4090     0.8800 H     1 <1>   0.0800 
 30 H        3.4070     0.0890    -2.7620 H     1 <1>   0.1500 
 31 H       -2.6820     0.3190    -0.5330 H     1 <1>   0.0800 
 32 H       -1.7090     1.4040    -1.5080 H     1 <1>   0.0800 
 33 H       -1.0020     2.0500     0.6870 H     1 <1>   0.0800 
 34 H       -1.1120     0.4000     1.2660 H     1 <1>   0.0800 
 35 H        5.6950     0.6500    -1.9590 H     1 <1>   0.1500 
 36 H        6.3590    -0.0080     0.2950 H     1 <1>   0.1500 
 37 H        2.7430    -4.0900     1.5280 H     1 <1>   0.0800 
 38 H        2.7170    -3.5810    -0.1300 H     1 <1>   0.0800 
 39 H        2.9670    -0.7410     2.9020 H     1 <1>   0.0800 
 40 H        3.5840    -2.3680     3.0800 H     1 <1>   0.0800 
 41 H        1.8580    -2.0600     3.2070 H     1 <1>   0.0800 
 42 H        0.3030    -2.6850     0.4390 H     1 <1>   0.0800 
 43 H        0.4210    -3.6950     1.8300 H     1 <1>   0.0800 
 44 H        0.5710    -5.6850     0.4710 H     1 <1>   0.0800 
 45 H        0.9340    -3.8360    -1.6070 H     1 <1>   0.4000 
 46 H       -1.6090    -5.7220     1.6400 H     1 <1>   0.1500 
 47 H       -1.1950    -3.7060    -2.1020 H     1 <1>   0.1500 
 48 H       -4.0440    -5.6530     1.4000 H     1 <1>   0.1500 
 49 H       -3.6250    -3.6420    -2.3300 H     1 <1>   0.1500 
 50 H       -5.0610    -4.6100    -0.5820 H     1 <1>   0.1500 
@<TRIPOS>BOND
  1   1   2  2   
  2   2   3  am  
  3   2   4  1   
  4   3   5  1   
  5   3   6  1   
  6   4   7  ar  
  7   4   8  ar  
  8   5   9  1   
  9   5  26  1   
 10   5  27  1   
 11   6  10  1   
 12   6  28  1   
 13   6  29  1   
 14   7  11  ar  
 15   7  12  1   
 16   8  13  ar  
 17   8  30  1   
 18   9  10  1   
 19   9  31  1   
 20   9  32  1   
 21  10  33  1   
 22  10  34  1   
 23  11  14  ar  
 24  12  15  1   
 25  12  16  1   
 26  13  14  ar  
 27  13  35  1   
 28  14  36  1   
 29  15  17  1   
 30  15  37  1   
 31  15  38  1   
 32  16  39  1   
 33  16  40  1   
 34  16  41  1   
 35  17  18  1   
 36  17  42  1   
 37  17  43  1   
 38  18  19  1   
 39  18  20  1   
 40  18  44  1   
 41  19  45  1   
 42  20  21  ar  
 43  20  22  ar  
 44  21  23  ar  
 45  21  46  1   
 46  22  24  ar  
 47  22  47  1   
 48  23  25  ar  
 49  23  48  1   
 50  24  25  ar  
 51  24  49  1   
 52  25  50  1   
@<TRIPOS>SUBSTRUCTURE
  1 ****   2 GROUP 4 **** **** 0

# MOE 2024.06 (io_trps.svl 2023.06)
