@<TRIPOS>MOLECULE
NONAME
38 41 1 0 0 
SMALL
USER_CHARGES


@<TRIPOS>ATOM
  1 S       -0.1490     0.2600    -1.9150 S.3   1 <1>  -0.0800 
  2 C       -1.1390     1.0090    -0.6720 C.2   1 <1>  -0.1400 
  3 C       -1.3790    -0.9650    -2.2010 C.2   1 <1>  -0.1100 
  4 C       -2.3000     0.3550    -0.5330 C.2   1 <1>  -0.1810 
  5 C       -0.6910     2.2360     0.1130 C.3   1 <1>   0.4600 
  6 C       -2.4430    -0.7760    -1.3970 C.2   1 <1>  -0.1500 
  7 C       -3.3140     0.8430     0.4760 C.3   1 <1>   0.0210 
  8 O       -1.6390     2.4910     1.1330 O.3   1 <1>  -0.5600 
  9 C       -0.5820     3.4750    -0.7860 C.3   1 <1>  -0.1600 
 10 C        0.6430     1.9780     0.8200 C.3   1 <1>  -0.1600 
 11 C       -3.0040     2.3100     0.8310 C.3   1 <1>   0.1200 
 12 C       -0.1010     4.7000    -0.0060 C.3   1 <1>   0.1400 
 13 C        1.1190     3.2100     1.5910 C.3   1 <1>   0.1400 
 14 N        1.1870     4.3800     0.6700 N.am  1 <1>  -0.6600 
 15 C        2.3870     4.9980     0.3630 C.2   1 <1>   0.7150 
 16 O        3.4240     4.4140     0.6290 O.2   1 <1>  -0.5700 
 17 C        2.4290     6.3140    -0.2400 C.2   1 <1>   0.0550 
 18 O        3.2900     6.5980    -1.2150 O.3   1 <1>  -0.2800 
 19 C        1.6950     7.4350     0.0170 C.2   1 <1>  -0.1500 
 20 C        3.1240     7.8480    -1.5810 C.2   1 <1>  -0.0100 
 21 C        2.1460     8.4270    -0.8540 C.2   1 <1>  -0.1500 
 22 H       -1.1710    -1.7070    -2.9510 H     1 <1>   0.1500 
 23 H       -3.3280    -1.3880    -1.3750 H     1 <1>   0.1500 
 24 H       -3.2690     0.2340     1.3610 H     1 <1>   0.0800 
 25 H       -4.3060     0.7780     0.0670 H     1 <1>   0.0800 
 26 H       -1.5280     3.6790    -1.2500 H     1 <1>   0.0800 
 27 H        0.1210     3.2750    -1.5740 H     1 <1>   0.0800 
 28 H        1.3950     1.7190     0.0970 H     1 <1>   0.0800 
 29 H        0.5350     1.1440     1.4890 H     1 <1>   0.0800 
 30 H       -3.5720     2.6110     1.6940 H     1 <1>   0.0800 
 31 H       -3.2590     2.9550     0.0090 H     1 <1>   0.0800 
 32 H       -0.8310     4.9740     0.7380 H     1 <1>   0.0800 
 33 H        0.0140     5.5230    -0.6880 H     1 <1>   0.0800 
 34 H        2.0810     3.0120     2.0330 H     1 <1>   0.0800 
 35 H        0.4300     3.4300     2.3890 H     1 <1>   0.0800 
 36 H        0.9190     7.5550     0.7520 H     1 <1>   0.1500 
 37 H        3.7440     8.2490    -2.3650 H     1 <1>   0.1500 
 38 H        1.7750     9.4350    -0.9100 H     1 <1>   0.1500 
@<TRIPOS>BOND
  1   1   2  1   
  2   1   3  1   
  3   2   4  2   
  4   2   5  1   
  5   3   6  2   
  6   3  22  1   
  7   4   6  1   
  8   4   7  1   
  9   5   8  1   
 10   5   9  1   
 11   5  10  1   
 12   6  23  1   
 13   7  11  1   
 14   7  24  1   
 15   7  25  1   
 16   8  11  1   
 17   9  12  1   
 18   9  26  1   
 19   9  27  1   
 20  10  13  1   
 21  10  28  1   
 22  10  29  1   
 23  11  30  1   
 24  11  31  1   
 25  12  14  1   
 26  12  32  1   
 27  12  33  1   
 28  13  14  1   
 29  13  34  1   
 30  13  35  1   
 31  14  15  am  
 32  15  16  2   
 33  15  17  1   
 34  17  18  1   
 35  17  19  2   
 36  18  20  1   
 37  19  21  1   
 38  19  36  1   
 39  20  21  2   
 40  20  37  1   
 41  21  38  1   
@<TRIPOS>SUBSTRUCTURE
  1 ****   9 GROUP 4 **** **** 0

# MOE 2024.06 (io_trps.svl 2023.06)
