@<TRIPOS>MOLECULE
NONAME
38 40 1 0 0 
SMALL
USER_CHARGES


@<TRIPOS>ATOM
  1 O       -0.2200     0.6660    -0.4250 O.2   1 <1>  -0.5700 
  2 C       -0.1240     1.8720    -0.2840 C.2   1 <1>   0.7160 
  3 N       -1.1910     2.6720    -0.6380 N.am  1 <1>  -0.6600 
  4 C        1.0960     2.4220     0.2530 C.2   1 <1>  -0.0860 
  5 C       -2.2630     2.1850    -1.5520 C.3   1 <1>   0.1400 
  6 C       -1.4840     3.9880    -0.0050 C.3   1 <1>   0.1400 
  7 C        1.7090     3.6200    -0.1290 C.2   1 <1>   0.1390 
  8 C        1.9410     1.9350     1.2040 C.2   1 <1>  -0.3020 
  9 C       -3.5860     2.0920    -0.7900 C.3   1 <1>  -0.1600 
 10 C       -2.8020     3.8980     0.7660 C.3   1 <1>  -0.1600 
 11 N        2.8010     3.8650     0.5240 N.2   1 <1>  -0.7070 
 12 N        2.9450     2.8120     1.3480 N.pl3 1 <1>   0.3000 
 13 C       -3.9540     3.4230    -0.1300 C.3   1 <1>   0.4180 
 14 O       -4.1400     4.3450    -1.1770 O.3   1 <1>  -0.5600 
 15 C       -5.2420     3.2600     0.6730 C.2   1 <1>  -0.2880 
 16 C       -4.8870     5.4970    -0.8990 C.3   1 <1>   0.1200 
 17 C       -6.3330     4.0110     0.5020 C.2   1 <1>  -0.2760 
 18 C       -6.3290     5.1300    -0.5230 C.3   1 <1>  -0.0220 
 19 C       -7.6310     3.8300     1.2670 C.3   1 <1>  -0.1020 
 20 H       -2.0090     1.2220    -1.9600 H     1 <1>   0.0800 
 21 H       -2.3640     2.8750    -2.3730 H     1 <1>   0.0800 
 22 H       -1.5570     4.7410    -0.7730 H     1 <1>   0.0800 
 23 H       -0.7020     4.2710     0.6770 H     1 <1>   0.0800 
 24 H        1.3180     4.2730    -0.8910 H     1 <1>   0.1500 
 25 H        1.8610     1.0180     1.7590 H     1 <1>   0.1500 
 26 H       -3.4960     1.3270    -0.0410 H     1 <1>   0.0800 
 27 H       -4.3740     1.8010    -1.4610 H     1 <1>   0.0800 
 28 H       -3.0410     4.8490     1.2030 H     1 <1>   0.0800 
 29 H       -2.6780     3.2020     1.5740 H     1 <1>   0.0800 
 30 H        3.7450     2.7250     1.9890 H     1 <1>   0.2700 
 31 H       -5.1850     2.4630     1.3920 H     1 <1>   0.1500 
 32 H       -4.8760     6.1160    -1.7780 H     1 <1>   0.0800 
 33 H       -4.4120     6.0290    -0.0940 H     1 <1>   0.0800 
 34 H       -6.8670     4.8220    -1.4010 H     1 <1>   0.0800 
 35 H       -6.8110     6.0040    -0.1230 H     1 <1>   0.0800 
 36 H       -8.4360     3.6230     0.5840 H     1 <1>   0.0800 
 37 H       -7.8650     4.7210     1.8220 H     1 <1>   0.0800 
 38 H       -7.5510     3.0090     1.9570 H     1 <1>   0.0800 
@<TRIPOS>BOND
  1   1   2  2   
  2   2   3  am  
  3   2   4  1   
  4   3   5  1   
  5   3   6  1   
  6   4   7  1   
  7   4   8  2   
  8   5   9  1   
  9   5  20  1   
 10   5  21  1   
 11   6  10  1   
 12   6  22  1   
 13   6  23  1   
 14   7  11  2   
 15   7  24  1   
 16   8  12  1   
 17   8  25  1   
 18   9  13  1   
 19   9  26  1   
 20   9  27  1   
 21  10  13  1   
 22  10  28  1   
 23  10  29  1   
 24  11  12  1   
 25  12  30  1   
 26  13  14  1   
 27  13  15  1   
 28  14  16  1   
 29  15  17  2   
 30  15  31  1   
 31  16  18  1   
 32  16  32  1   
 33  16  33  1   
 34  17  18  1   
 35  17  19  1   
 36  18  34  1   
 37  18  35  1   
 38  19  36  1   
 39  19  37  1   
 40  19  38  1   
@<TRIPOS>SUBSTRUCTURE
  1 ****   6 GROUP 4 **** **** 0

# MOE 2024.06 (io_trps.svl 2023.06)
