@<TRIPOS>MOLECULE
NONAME
39 40 1 0 0 
SMALL
USER_CHARGES


@<TRIPOS>ATOM
  1 S        0.3040     0.6530    -0.3880 S.3   1 <1>  -0.0800 
  2 C        1.8880     0.2250     0.2420 C.2   1 <1>  -0.1400 
  3 C       -0.4900    -0.0330     1.0180 C.2   1 <1>  -0.1100 
  4 C        1.7690    -0.3930     1.4310 C.2   1 <1>  -0.1500 
  5 C        3.1010     0.5840    -0.5950 C.3   1 <1>   0.0200 
  6 C        0.4150    -0.5400     1.8740 C.2   1 <1>  -0.1500 
  7 C        3.2920     2.1050    -0.6580 C.3   1 <1>  -0.1600 
  8 C        4.5750     2.4860    -1.4170 C.3   1 <1>  -0.0990 
  9 C        4.7490     3.9880    -1.5440 C.2   1 <1>   0.5690 
 10 O        4.6960     4.4820    -2.6440 O.2   1 <1>  -0.5700 
 11 N        4.9660     4.7060    -0.4070 N.am  1 <1>  -0.4930 
 12 C        5.1600     6.1030    -0.2660 C.2   1 <1>   0.0630 
 13 C        5.1690     7.1000    -1.2430 C.2   1 <1>   0.1390 
 14 C        5.3870     6.7600     0.8900 C.2   1 <1>  -0.3020 
 15 N        5.3850     8.2810    -0.7420 N.2   1 <1>  -0.7070 
 16 N        5.5180     8.0700     0.5840 N.pl3 1 <1>   0.3140 
 17 C        5.7900     9.1720     1.5170 C.3   1 <1>   0.1570 
 18 C        7.2590     9.5280     1.4850 C.2   1 <1>   0.5690 
 19 O        7.8260     9.7140     2.5350 O.2   1 <1>  -0.5700 
 20 N        7.8970     9.6410     0.2880 N.am  1 <1>  -0.7300 
 21 C        9.3260     9.9790     0.0860 C.3   1 <1>   0.0600 
 22 H       -1.5640     0.0160     1.0530 H     1 <1>   0.1500 
 23 H        2.5830    -0.7620     2.0300 H     1 <1>   0.1500 
 24 H        2.9760     0.1850    -1.5870 H     1 <1>   0.0800 
 25 H        3.9710     0.1270    -0.1570 H     1 <1>   0.0800 
 26 H        0.1900    -1.0180     2.8110 H     1 <1>   0.1500 
 27 H        3.3270     2.4940     0.3440 H     1 <1>   0.0800 
 28 H        2.4450     2.5490    -1.1540 H     1 <1>   0.0800 
 29 H        4.5410     2.0670    -2.4080 H     1 <1>   0.0800 
 30 H        5.4370     2.0800    -0.9200 H     1 <1>   0.0800 
 31 H        4.9820     4.1830     0.4650 H     1 <1>   0.3700 
 32 H        5.0140     6.9170    -2.2940 H     1 <1>   0.1500 
 33 H        5.4640     6.3810     1.8910 H     1 <1>   0.1500 
 34 H        5.5100     8.8750     2.5090 H     1 <1>   0.0800 
 35 H        5.2110    10.0260     1.2250 H     1 <1>   0.0800 
 36 H        7.3610     9.3810    -0.5560 H     1 <1>   0.3700 
 37 H        9.7950    10.2000     1.0300 H     1 <1>   0.0800 
 38 H        9.4090    10.8400    -0.5540 H     1 <1>   0.0800 
 39 H        9.8350     9.1470    -0.3700 H     1 <1>   0.0800 
@<TRIPOS>BOND
  1   1   2  1   
  2   1   3  1   
  3   2   4  2   
  4   2   5  1   
  5   3   6  2   
  6   3  22  1   
  7   4   6  1   
  8   4  23  1   
  9   5   7  1   
 10   5  24  1   
 11   5  25  1   
 12   6  26  1   
 13   7   8  1   
 14   7  27  1   
 15   7  28  1   
 16   8   9  1   
 17   8  29  1   
 18   8  30  1   
 19   9  10  2   
 20   9  11  am  
 21  11  12  1   
 22  11  31  1   
 23  12  13  1   
 24  12  14  2   
 25  13  15  2   
 26  13  32  1   
 27  14  16  1   
 28  14  33  1   
 29  15  16  1   
 30  16  17  1   
 31  17  18  1   
 32  17  34  1   
 33  17  35  1   
 34  18  19  2   
 35  18  20  am  
 36  20  21  1   
 37  20  36  1   
 38  21  37  1   
 39  21  38  1   
 40  21  39  1   
@<TRIPOS>SUBSTRUCTURE
  1 ****  11 GROUP 4 **** **** 0

# MOE 2024.06 (io_trps.svl 2023.06)
