@<TRIPOS>MOLECULE
NONAME
36 37 1 0 0 
SMALL
USER_CHARGES


@<TRIPOS>ATOM
  1 CL       0.4800     0.6730    -0.6140 Cl    1 <1>  -0.1770 
  2 C        1.8450    -0.3850    -0.3220 C.ar  1 <1>   0.1770 
  3 C        3.1340     0.1290    -0.4480 C.ar  1 <1>   0.0860 
  4 C        1.5990    -1.7080     0.0310 C.ar  1 <1>  -0.1440 
  5 C        4.1710    -0.7600    -0.1870 C.ar  1 <1>   0.1900 
  6 C        3.3830     1.4950    -0.8250 C.2   1 <1>   0.5440 
  7 C        2.6720    -2.5560     0.2720 C.ar  1 <1>  -0.1500 
  8 C        0.1780    -2.2410     0.1530 C.3   1 <1>  -0.0970 
  9 F        5.4050    -0.3410    -0.2570 F     1 <1>  -0.1900 
 10 C        3.9670    -2.0800     0.1640 C.ar  1 <1>  -0.1500 
 11 O        3.8870     1.7600    -1.8970 O.2   1 <1>  -0.5700 
 12 N        3.0620     2.5200     0.0190 N.am  1 <1>  -0.7300 
 13 C        3.1890     3.9510    -0.3270 C.3   1 <1>   0.2200 
 14 C        4.6620     4.3900    -0.2450 C.3   1 <1>   0.1400 
 15 C        2.3100     4.7590     0.6260 C.3   1 <1>  -0.1600 
 16 N        4.8400     5.8740    -0.1690 N.am  1 <1>  -0.6600 
 17 C        2.3970     6.2490     0.2660 C.3   1 <1>  -0.0990 
 18 C        3.8230     6.7520     0.1140 C.2   1 <1>   0.5690 
 19 C        6.2430     6.3360    -0.3590 C.3   1 <1>   0.0600 
 20 O        4.0070     7.9380     0.2410 O.2   1 <1>  -0.5700 
 21 H        2.5060    -3.5860     0.5440 H     1 <1>   0.1500 
 22 H       -0.3600    -1.6920     0.9050 H     1 <1>   0.0800 
 23 H        0.1740    -3.2810     0.4250 H     1 <1>   0.0800 
 24 H       -0.3370    -2.1360    -0.7860 H     1 <1>   0.0800 
 25 H        4.8090    -2.7230     0.3510 H     1 <1>   0.1500 
 26 H        2.5860     2.3220     0.8990 H     1 <1>   0.3700 
 27 H        2.8460     4.0920    -1.3400 H     1 <1>   0.0800 
 28 H        5.1790     4.0140    -1.1120 H     1 <1>   0.0800 
 29 H        5.1100     3.9560     0.6310 H     1 <1>   0.0800 
 30 H        2.6540     4.6230     1.6370 H     1 <1>   0.0800 
 31 H        1.2870     4.4340     0.5540 H     1 <1>   0.0800 
 32 H        1.9050     6.8320     1.0230 H     1 <1>   0.0800 
 33 H        1.8910     6.4250    -0.6650 H     1 <1>   0.0800 
 34 H        6.5980     6.0310    -1.3270 H     1 <1>   0.0800 
 35 H        6.8720     5.9090     0.4020 H     1 <1>   0.0800 
 36 H        6.3060     7.4090    -0.2940 H     1 <1>   0.0800 
@<TRIPOS>BOND
  1   1   2  1   
  2   2   3  ar  
  3   2   4  ar  
  4   3   5  ar  
  5   3   6  1   
  6   4   7  ar  
  7   4   8  1   
  8   5   9  1   
  9   5  10  ar  
 10   6  11  2   
 11   6  12  am  
 12   7  10  ar  
 13   7  21  1   
 14   8  22  1   
 15   8  23  1   
 16   8  24  1   
 17  10  25  1   
 18  12  13  1   
 19  12  26  1   
 20  13  14  1   
 21  13  15  1   
 22  13  27  1   
 23  14  16  1   
 24  14  28  1   
 25  14  29  1   
 26  15  17  1   
 27  15  30  1   
 28  15  31  1   
 29  16  18  am  
 30  16  19  1   
 31  17  18  1   
 32  17  32  1   
 33  17  33  1   
 34  18  20  2   
 35  19  34  1   
 36  19  35  1   
 37  19  36  1   
@<TRIPOS>SUBSTRUCTURE
  1 ****  12 GROUP 4 **** **** 0

# MOE 2024.06 (io_trps.svl 2023.06)
