@<TRIPOS>MOLECULE
NONAME
48 50 1 0 0 
SMALL
USER_CHARGES


@<TRIPOS>ATOM
  1 O        0.2010     1.1940    -2.2460 O.2   1 <1>  -0.5700 
  2 C       -0.0300     2.3660    -2.0640 C.2   1 <1>   0.5690 
  3 N       -0.8250     2.8110    -1.0420 N.am  1 <1>  -0.6600 
  4 C        0.5830     3.3810    -3.0270 C.3   1 <1>   0.1810 
  5 C       -1.1310     4.2710    -0.8610 C.3   1 <1>   0.3640 
  6 C       -1.4210     1.8820    -0.0380 C.3   1 <1>   0.0600 
  7 O        0.7310     4.6480    -2.4370 O.3   1 <1>  -0.5600 
  8 C       -2.6550     4.4560    -0.8340 C.ar  1 <1>  -0.1440 
  9 C       -0.4830     5.1900    -1.9330 C.3   1 <1>   0.2610 
 10 C       -3.3230     5.0560     0.2340 C.ar  1 <1>  -0.1440 
 11 C       -3.3960     3.9980    -1.9190 C.ar  1 <1>  -0.1500 
 12 C       -0.2250     6.5760    -1.3340 C.2   1 <1>   0.5690 
 13 C       -4.7030     5.1920     0.1880 C.ar  1 <1>  -0.1500 
 14 C       -2.5970     5.5790     1.4670 C.3   1 <1>  -0.0960 
 15 C       -4.7700     4.1370    -1.9550 C.ar  1 <1>  -0.1500 
 16 O       -1.1490     7.3290    -1.1390 O.2   1 <1>  -0.5700 
 17 N        1.0510     6.9270    -1.0210 N.am  1 <1>  -0.7300 
 18 C       -5.4260     4.7370    -0.8980 C.ar  1 <1>  -0.1500 
 19 C        1.4830     8.2280    -0.4530 C.3   1 <1>   0.1400 
 20 C        1.9560     8.0640     1.0010 C.3   1 <1>   0.0000 
 21 C        3.3520     7.4330     1.1280 C.3   1 <1>   0.2580 
 22 C        2.6920     9.3100     1.5210 C.3   1 <1>   0.2580 
 23 C        0.9000     7.5040     1.9740 C.3   1 <1>  -0.2400 
 24 O        3.8890     8.7440     0.9980 O.3   1 <1>  -0.5160 
 25 H       -0.0370     3.4750    -3.9000 H     1 <1>   0.0800 
 26 H        1.5580     3.0430    -3.3250 H     1 <1>   0.0800 
 27 H       -0.7150     4.5550     0.0870 H     1 <1>   0.0800 
 28 H       -1.2130     2.2340     0.9570 H     1 <1>   0.0800 
 29 H       -1.0130     0.8920    -0.1450 H     1 <1>   0.0800 
 30 H       -2.4880     1.8280    -0.1760 H     1 <1>   0.0800 
 31 H       -1.1540     5.3120    -2.7640 H     1 <1>   0.0800 
 32 H       -2.9050     3.5190    -2.7470 H     1 <1>   0.1500 
 33 H       -5.2310     5.6570     1.0020 H     1 <1>   0.1500 
 34 H       -3.2930     5.9680     2.1880 H     1 <1>   0.0800 
 35 H       -1.9300     6.3750     1.1920 H     1 <1>   0.0800 
 36 H       -2.0390     4.7890     1.9360 H     1 <1>   0.0800 
 37 H       -5.3290     3.7780    -2.8010 H     1 <1>   0.1500 
 38 H        1.7920     6.2760    -1.3060 H     1 <1>   0.3700 
 39 H       -6.4960     4.8500    -0.9200 H     1 <1>   0.1500 
 40 H        2.2750     8.6300    -1.0620 H     1 <1>   0.0800 
 41 H        0.6610     8.9240    -0.4820 H     1 <1>   0.0800 
 42 H        3.6590     6.8160     0.3020 H     1 <1>   0.0000 
 43 H        3.5880     7.0340     2.1000 H     1 <1>   0.0000 
 44 H        2.7630     9.3890     2.5930 H     1 <1>   0.0000 
 45 H        2.4580    10.2300     1.0160 H     1 <1>   0.0000 
 46 H        0.6320     6.5010     1.6940 H     1 <1>   0.0800 
 47 H        0.0150     8.1150     1.9470 H     1 <1>   0.0800 
 48 H        1.2770     7.4870     2.9820 H     1 <1>   0.0800 
@<TRIPOS>BOND
  1   1   2  2   
  2   2   3  am  
  3   2   4  1   
  4   3   5  1   
  5   3   6  1   
  6   4   7  1   
  7   4  25  1   
  8   4  26  1   
  9   5   8  1   
 10   5   9  1   
 11   5  27  1   
 12   6  28  1   
 13   6  29  1   
 14   6  30  1   
 15   7   9  1   
 16   8  10  ar  
 17   8  11  ar  
 18   9  12  1   
 19   9  31  1   
 20  10  13  ar  
 21  10  14  1   
 22  11  15  ar  
 23  11  32  1   
 24  12  16  2   
 25  12  17  am  
 26  13  18  ar  
 27  13  33  1   
 28  14  34  1   
 29  14  35  1   
 30  14  36  1   
 31  15  18  ar  
 32  15  37  1   
 33  17  19  1   
 34  17  38  1   
 35  18  39  1   
 36  19  20  1   
 37  19  40  1   
 38  19  41  1   
 39  20  21  1   
 40  20  22  1   
 41  20  23  1   
 42  21  24  1   
 43  21  42  1   
 44  21  43  1   
 45  22  24  1   
 46  22  44  1   
 47  22  45  1   
 48  23  46  1   
 49  23  47  1   
 50  23  48  1   
@<TRIPOS>SUBSTRUCTURE
  1 ****   5 GROUP 4 **** **** 0

# MOE 2024.06 (io_trps.svl 2023.06)
