@<TRIPOS>MOLECULE
NONAME
54 57 1 0 0 
SMALL
USER_CHARGES


@<TRIPOS>ATOM
  1 O        0.0500     0.9670     0.5170 O.2   1 <1>  -0.5700 
  2 C       -0.6520     1.9430     0.6550 C.2   1 <1>   0.5690 
  3 N       -2.0180     1.8520     0.5810 N.am  1 <1>  -0.6600 
  4 C        0.0130     3.2840     0.9150 C.3   1 <1>  -0.0990 
  5 C       -2.9720     2.9930     0.7510 C.3   1 <1>   0.1400 
  6 C       -2.6620     0.5260     0.3250 C.3   1 <1>   0.1400 
  7 C        1.5370     3.2050     0.8930 C.3   1 <1>   0.1200 
  8 C       -3.8430     3.1860    -0.5120 C.3   1 <1>   0.1440 
  9 C       -4.1180     0.6660    -0.1550 C.3   1 <1>  -0.1600 
 10 O        2.0290     4.4910     1.0890 O.3   1 <1>  -0.5600 
 11 C       -5.0330     4.0410    -0.1100 C.ar  1 <1>   0.1670 
 12 C       -4.2630     1.8320    -1.1450 C.3   1 <1>  -0.1600 
 13 C       -3.1370     4.0930    -1.5550 C.3   1 <1>  -0.1600 
 14 C        3.4150     4.5630     1.1010 C.3   1 <1>   0.1200 
 15 N       -6.0710     3.6270     0.5770 N.ar  1 <1>  -0.6200 
 16 C       -4.8950     5.3260    -0.5340 C.ar  1 <1>  -0.1440 
 17 C       -3.6040     5.5340    -1.2850 C.3   1 <1>  -0.0170 
 18 C        3.7970     6.0210     1.3180 C.3   1 <1>  -0.2400 
 19 C       -7.0110     4.5460     0.8330 C.ar  1 <1>   0.6200 
 20 C       -5.8960     6.2100    -0.2300 C.ar  1 <1>   0.1600 
 21 N       -6.9540     5.8310     0.4510 N.ar  1 <1>  -0.6200 
 22 C       -8.1820     4.1160     1.5860 C.ar  1 <1>   0.0000 
 23 C       -8.9280     5.0100     2.3610 C.ar  1 <1>  -0.1500 
 24 C       -8.6170     2.7860     1.5710 C.ar  1 <1>  -0.1500 
 25 C      -10.0400     4.6040     3.0770 C.ar  1 <1>  -0.1500 
 26 C       -9.7270     2.3730     2.2850 C.ar  1 <1>  -0.1500 
 27 C      -10.4420     3.2820     3.0410 C.ar  1 <1>  -0.1500 
 28 H       -0.2990     3.6400     1.8790 H     1 <1>   0.0800 
 29 H       -0.3000     3.9770     0.1590 H     1 <1>   0.0800 
 30 H       -2.4650     3.9090     0.9890 H     1 <1>   0.0800 
 31 H       -3.6130     2.7640     1.5870 H     1 <1>   0.0800 
 32 H       -2.6260    -0.0650     1.2230 H     1 <1>   0.0800 
 33 H       -2.0940     0.0110    -0.4320 H     1 <1>   0.0800 
 34 H        1.8840     2.8400    -0.0600 H     1 <1>   0.0800 
 35 H        1.8950     2.5650     1.6820 H     1 <1>   0.0800 
 36 H       -4.7630     0.8270     0.6920 H     1 <1>   0.0800 
 37 H       -4.4250    -0.2530    -0.6210 H     1 <1>   0.0800 
 38 H       -3.6320     1.6150    -1.9890 H     1 <1>   0.0800 
 39 H       -5.2770     1.8890    -1.5030 H     1 <1>   0.0800 
 40 H       -3.4690     3.8260    -2.5430 H     1 <1>   0.0800 
 41 H       -2.0660     3.9980    -1.5240 H     1 <1>   0.0800 
 42 H        3.7900     4.2080     0.1550 H     1 <1>   0.0800 
 43 H        3.7890     3.9480     1.9020 H     1 <1>   0.0800 
 44 H       -3.7550     6.0790    -2.2010 H     1 <1>   0.0800 
 45 H       -2.8980     6.0540    -0.6600 H     1 <1>   0.0800 
 46 H        3.4070     6.6270     0.5200 H     1 <1>   0.0800 
 47 H        4.8670     6.1190     1.3330 H     1 <1>   0.0800 
 48 H        3.4060     6.3680     2.2570 H     1 <1>   0.0800 
 49 H       -5.8320     7.2380    -0.5450 H     1 <1>   0.1500 
 50 H       -8.6320     6.0440     2.4030 H     1 <1>   0.1500 
 51 H       -8.0750     2.0620     0.9870 H     1 <1>   0.1500 
 52 H      -10.5920     5.3180     3.6630 H     1 <1>   0.1500 
 53 H      -10.0340     1.3420     2.2520 H     1 <1>   0.1500 
 54 H      -11.3060     2.9630     3.5970 H     1 <1>   0.1500 
@<TRIPOS>BOND
  1   1   2  2   
  2   2   3  am  
  3   2   4  1   
  4   3   5  1   
  5   3   6  1   
  6   4   7  1   
  7   4  28  1   
  8   4  29  1   
  9   5   8  1   
 10   5  30  1   
 11   5  31  1   
 12   6   9  1   
 13   6  32  1   
 14   6  33  1   
 15   7  10  1   
 16   7  34  1   
 17   7  35  1   
 18   8  11  1   
 19   8  12  1   
 20   8  13  1   
 21   9  12  1   
 22   9  36  1   
 23   9  37  1   
 24  10  14  1   
 25  11  15  ar  
 26  11  16  ar  
 27  12  38  1   
 28  12  39  1   
 29  13  17  1   
 30  13  40  1   
 31  13  41  1   
 32  14  18  1   
 33  14  42  1   
 34  14  43  1   
 35  15  19  ar  
 36  16  17  1   
 37  16  20  ar  
 38  17  44  1   
 39  17  45  1   
 40  18  46  1   
 41  18  47  1   
 42  18  48  1   
 43  19  21  ar  
 44  19  22  1   
 45  20  21  ar  
 46  20  49  1   
 47  22  23  ar  
 48  22  24  ar  
 49  23  25  ar  
 50  23  50  1   
 51  24  26  ar  
 52  24  51  1   
 53  25  27  ar  
 54  25  52  1   
 55  26  27  ar  
 56  26  53  1   
 57  27  54  1   
@<TRIPOS>SUBSTRUCTURE
  1 ****   5 GROUP 4 **** **** 0

# MOE 2024.06 (io_trps.svl 2023.06)
