@<TRIPOS>MOLECULE
NONAME
51 53 1 0 0 
SMALL
USER_CHARGES


@<TRIPOS>ATOM
  1 O       -0.0130     0.0460    -0.6610 O.2   1 <1>  -0.5700 
  2 C        0.9440    -0.4850    -0.1300 C.2   1 <1>   0.5440 
  3 N        1.8970     0.3120     0.4440 N.am  1 <1>  -0.7300 
  4 C        1.0710    -1.9290    -0.0900 C.ar  1 <1>   0.0860 
  5 C        1.8860     1.7890     0.4450 C.3   1 <1>   0.1400 
  6 C       -0.0530    -2.7470    -0.0110 C.ar  1 <1>  -0.1500 
  7 C        2.3140    -2.5600    -0.1270 C.ar  1 <1>  -0.1500 
  8 C        3.2930     2.2970     0.1380 C.3   1 <1>  -0.1600 
  9 C        0.0250    -4.1290     0.0450 C.ar  1 <1>   0.1000 
 10 C        2.4270    -3.9380    -0.0750 C.ar  1 <1>  -0.1500 
 11 C        3.3310     3.8290     0.0740 C.3   1 <1>  -0.0170 
 12 N       -1.1860    -4.8290     0.1280 N.pl3 1 <1>  -0.8380 
 13 C        1.2930    -4.7370     0.0120 C.ar  1 <1>   0.0830 
 14 C        4.7430     4.3130    -0.2150 C.ar  1 <1>  -0.1430 
 15 C       -1.5430    -5.6480    -1.0660 C.3   1 <1>   0.2090 
 16 C       -1.4180    -5.5990     1.3840 C.3   1 <1>   0.2090 
 17 O        1.3680    -6.0990     0.0630 O.3   1 <1>  -0.3630 
 18 C        5.2040     4.4150    -1.5210 C.ar  1 <1>   0.1600 
 19 C        5.5930     4.6580     0.8160 C.ar  1 <1>  -0.1500 
 20 C       -2.9680    -6.2140    -0.9280 C.3   1 <1>   0.1200 
 21 C       -2.8490    -6.1650     1.4140 C.3   1 <1>   0.1200 
 22 C        2.5970    -6.7870    -0.0110 C.3   1 <1>   0.0400 
 23 N        6.4130     4.8230    -1.8710 N.ar  1 <1>  -0.6200 
 24 C        6.8570     5.0870     0.4710 C.ar  1 <1>  -0.1500 
 25 O       -3.1170    -6.9300     0.2690 O.3   1 <1>  -0.5600 
 26 C        7.2100     5.1490    -0.8660 C.ar  1 <1>   0.1600 
 27 H        2.6260    -0.1250     1.0090 H     1 <1>   0.3700 
 28 H        1.5600     2.1400     1.4100 H     1 <1>   0.0800 
 29 H        1.1940     2.1500    -0.2990 H     1 <1>   0.0800 
 30 H       -1.0280    -2.2930     0.0080 H     1 <1>   0.1500 
 31 H        3.2060    -1.9650    -0.2080 H     1 <1>   0.1500 
 32 H        3.6130     1.8980    -0.8090 H     1 <1>   0.0800 
 33 H        3.9720     1.9600     0.9010 H     1 <1>   0.0800 
 34 H        3.4100    -4.3670    -0.1080 H     1 <1>   0.1500 
 35 H        2.9920     4.2430     1.0080 H     1 <1>   0.0800 
 36 H        2.6670     4.1780    -0.6980 H     1 <1>   0.0800 
 37 H       -0.8480    -6.4620    -1.1730 H     1 <1>   0.0800 
 38 H       -1.4810    -5.0350    -1.9480 H     1 <1>   0.0800 
 39 H       -1.2670    -4.9520     2.2290 H     1 <1>   0.0800 
 40 H       -0.7160    -6.4120     1.4520 H     1 <1>   0.0800 
 41 H        4.5400     4.1440    -2.3240 H     1 <1>   0.1500 
 42 H        5.2890     4.5980     1.8470 H     1 <1>   0.1500 
 43 H       -3.1810    -6.8840    -1.7410 H     1 <1>   0.0800 
 44 H       -3.6870    -5.4130    -0.9400 H     1 <1>   0.0800 
 45 H       -3.5640    -5.3630     1.4650 H     1 <1>   0.0800 
 46 H       -2.9780    -6.8010     2.2710 H     1 <1>   0.0800 
 47 H        2.3910    -7.8410     0.0320 H     1 <1>   0.0800 
 48 H        3.2090    -6.5000     0.8250 H     1 <1>   0.0800 
 49 H        3.0760    -6.5460    -0.9440 H     1 <1>   0.0800 
 50 H        7.5650     5.3700     1.2280 H     1 <1>   0.1500 
 51 H        8.2000     5.4860    -1.1230 H     1 <1>   0.1500 
@<TRIPOS>BOND
  1   1   2  2   
  2   2   3  am  
  3   2   4  1   
  4   3   5  1   
  5   3  27  1   
  6   4   6  ar  
  7   4   7  ar  
  8   5   8  1   
  9   5  28  1   
 10   5  29  1   
 11   6   9  ar  
 12   6  30  1   
 13   7  10  ar  
 14   7  31  1   
 15   8  11  1   
 16   8  32  1   
 17   8  33  1   
 18   9  12  1   
 19   9  13  ar  
 20  10  13  ar  
 21  10  34  1   
 22  11  14  1   
 23  11  35  1   
 24  11  36  1   
 25  12  15  1   
 26  12  16  1   
 27  13  17  1   
 28  14  18  ar  
 29  14  19  ar  
 30  15  20  1   
 31  15  37  1   
 32  15  38  1   
 33  16  21  1   
 34  16  39  1   
 35  16  40  1   
 36  17  22  1   
 37  18  23  ar  
 38  18  41  1   
 39  19  24  ar  
 40  19  42  1   
 41  20  25  1   
 42  20  43  1   
 43  20  44  1   
 44  21  25  1   
 45  21  45  1   
 46  21  46  1   
 47  22  47  1   
 48  22  48  1   
 49  22  49  1   
 50  23  26  ar  
 51  24  26  ar  
 52  24  50  1   
 53  26  51  1   
@<TRIPOS>SUBSTRUCTURE
  1 ****   4 GROUP 4 **** **** 0

# MOE 2024.06 (io_trps.svl 2023.06)
