@<TRIPOS>MOLECULE
NONAME
45 47 1 0 0 
SMALL
USER_CHARGES


@<TRIPOS>ATOM
  1 S       -2.1610     0.0620    -1.7920 S.3   1 <1>  -0.0800 
  2 C       -2.0950     0.3350    -0.0560 C.2   1 <1>  -0.1400 
  3 C       -0.5270     0.6690    -1.9940 C.2   1 <1>  -0.1100 
  4 C       -0.9020     0.8510     0.2930 C.2   1 <1>  -0.1500 
  5 C       -3.3210    -0.0230     0.7600 C.3   1 <1>   0.0200 
  6 C       -0.0090     1.0400    -0.8090 C.2   1 <1>  -0.1500 
  7 C       -3.4950    -1.5440     0.8400 C.3   1 <1>  -0.1600 
  8 C       -4.7620    -1.9350     1.6190 C.3   1 <1>  -0.0990 
  9 C       -4.9290    -3.4420     1.7180 C.2   1 <1>   0.5690 
 10 O       -4.6080    -3.9790     2.7500 O.2   1 <1>  -0.5700 
 11 N       -5.4240    -4.1630     0.6670 N.am  1 <1>  -0.6600 
 12 C       -5.8530    -3.6530    -0.6610 C.3   1 <1>   0.1400 
 13 C       -5.5590    -5.6390     0.7190 C.3   1 <1>   0.1400 
 14 C       -6.6680    -4.7990    -1.2580 C.3   1 <1>   0.2000 
 15 C       -5.9960    -6.0540    -0.6920 C.3   1 <1>  -0.0800 
 16 O       -7.9630    -4.7050    -0.7700 O.3   1 <1>  -0.6800 
 17 C       -6.8610    -7.3280    -0.7300 C.3   1 <1>   0.0200 
 18 C       -6.1080    -8.5750    -0.2970 C.2   1 <1>  -0.0400 
 19 O       -6.7720    -9.6940    -0.1710 O.3   1 <1>  -0.0190 
 20 C       -4.8250    -8.8270     0.0080 C.2   1 <1>  -0.1500 
 21 N       -6.0060   -10.6770     0.2040 N.2   1 <1>  -0.4100 
 22 C       -4.8260   -10.1840     0.3210 C.2   1 <1>   0.1080 
 23 C       -3.6100   -10.9780     0.7420 C.3   1 <1>  -0.0590 
 24 H       -0.1230     0.6830    -2.9910 H     1 <1>   0.1500 
 25 H       -0.6020     1.1120     1.2930 H     1 <1>   0.1500 
 26 H       -3.2130     0.3790     1.7520 H     1 <1>   0.0800 
 27 H       -4.1860     0.4300     0.3080 H     1 <1>   0.0800 
 28 H        0.9770     1.4450    -0.6570 H     1 <1>   0.1500 
 29 H       -3.5440    -1.9500    -0.1540 H     1 <1>   0.0800 
 30 H       -2.6340    -1.9720     1.3250 H     1 <1>   0.0800 
 31 H       -5.6340    -1.5080     1.1600 H     1 <1>   0.0800 
 32 H       -4.6990    -1.5410     2.6180 H     1 <1>   0.0800 
 33 H       -6.4360    -2.7520    -0.5860 H     1 <1>   0.0800 
 34 H       -4.9820    -3.4740    -1.2670 H     1 <1>   0.0800 
 35 H       -4.6230    -6.0930     1.0000 H     1 <1>   0.0800 
 36 H       -6.3080    -5.8970     1.4490 H     1 <1>   0.0800 
 37 H       -6.7050    -4.7780    -2.3340 H     1 <1>   0.0800 
 38 H       -5.1060    -6.2310    -1.2710 H     1 <1>   0.0800 
 39 H       -7.9260    -4.5850     0.2010 H     1 <1>   0.4000 
 40 H       -7.2250    -7.4820    -1.7300 H     1 <1>   0.0800 
 41 H       -7.7180    -7.2110    -0.0890 H     1 <1>   0.0800 
 42 H       -3.9680    -8.1800     0.0220 H     1 <1>   0.1500 
 43 H       -3.1850   -10.5510     1.6310 H     1 <1>   0.0800 
 44 H       -2.8780   -10.9680    -0.0440 H     1 <1>   0.0800 
 45 H       -3.8900   -11.9960     0.9450 H     1 <1>   0.0800 
@<TRIPOS>BOND
  1   1   2  1   
  2   1   3  1   
  3   2   4  2   
  4   2   5  1   
  5   3   6  2   
  6   3  24  1   
  7   4   6  1   
  8   4  25  1   
  9   5   7  1   
 10   5  26  1   
 11   5  27  1   
 12   6  28  1   
 13   7   8  1   
 14   7  29  1   
 15   7  30  1   
 16   8   9  1   
 17   8  31  1   
 18   8  32  1   
 19   9  10  2   
 20   9  11  am  
 21  11  12  1   
 22  11  13  1   
 23  12  14  1   
 24  12  33  1   
 25  12  34  1   
 26  13  15  1   
 27  13  35  1   
 28  13  36  1   
 29  14  15  1   
 30  14  16  1   
 31  14  37  1   
 32  15  17  1   
 33  15  38  1   
 34  16  39  1   
 35  17  18  1   
 36  17  40  1   
 37  17  41  1   
 38  18  19  1   
 39  18  20  2   
 40  19  21  1   
 41  20  22  1   
 42  20  42  1   
 43  21  22  2   
 44  22  23  1   
 45  23  43  1   
 46  23  44  1   
 47  23  45  1   
@<TRIPOS>SUBSTRUCTURE
  1 ****  11 GROUP 4 **** **** 0

# MOE 2024.06 (io_trps.svl 2023.06)
