@<TRIPOS>MOLECULE
NONAME
45 48 1 0 0 
SMALL
USER_CHARGES


@<TRIPOS>ATOM
  1 O        1.8210    -0.4810     2.4730 O.2   1 <1>  -0.5700 
  2 C        1.9670    -0.8540     1.3240 C.2   1 <1>   0.5440 
  3 N        2.4090     0.0630     0.3810 N.am  1 <1>  -0.6600 
  4 C        1.7110    -2.2380     0.9940 C.ar  1 <1>   0.0860 
  5 C        2.7460     1.4550     0.8260 C.3   1 <1>   0.1400 
  6 C        2.8850    -0.3710    -0.9720 C.3   1 <1>   0.1400 
  7 C        0.5460    -2.6140     0.2740 C.ar  1 <1>   0.0000 
  8 C        2.6210    -3.2070     1.3620 C.ar  1 <1>  -0.1500 
  9 C        4.2610     1.6800     1.0810 C.3   1 <1>   0.4230 
 10 C        4.3660    -0.0410    -1.2670 C.3   1 <1>  -0.0800 
 11 C        0.3650    -3.9700    -0.0860 C.ar  1 <1>   0.3100 
 12 C       -0.4590    -1.7050    -0.1110 C.ar  1 <1>  -0.1500 
 13 C        2.4330    -4.5460     1.0240 C.ar  1 <1>  -0.1500 
 14 N        5.0120     2.1380    -0.1470 N.4   1 <1>  -0.9590 
 15 C        4.9980     0.4780     1.7350 C.3   1 <1>   0.1200 
 16 C        5.4010    -0.7320    -0.3510 C.3   1 <1>   0.1200 
 17 C        4.5900     1.4660    -1.4120 C.3   1 <1>   0.3430 
 18 N       -0.7010    -4.4070    -0.8030 N.ar  1 <1>  -0.6200 
 19 C        1.3250    -4.9110     0.3090 C.ar  1 <1>  -0.1500 
 20 C       -1.5250    -2.1710    -0.8190 C.ar  1 <1>  -0.1500 
 21 C        4.9620     3.6250    -0.2990 C.3   1 <1>   0.2630 
 22 O        5.0290    -0.7180     0.9920 O.3   1 <1>  -0.5600 
 23 C       -1.5970    -3.5320    -1.1420 C.ar  1 <1>   0.1600 
 24 H        2.3760     2.1610     0.1060 H     1 <1>   0.0800 
 25 H        2.2270     1.6710     1.7430 H     1 <1>   0.0800 
 26 H        2.7570    -1.4330    -1.0880 H     1 <1>   0.0800 
 27 H        2.2580     0.0960    -1.7130 H     1 <1>   0.0800 
 28 H        3.4990    -2.9260     1.9200 H     1 <1>   0.1500 
 29 H        4.3210     2.4800     1.7990 H     1 <1>   0.0800 
 30 H        4.5440    -0.4370    -2.2510 H     1 <1>   0.0800 
 31 H       -0.3860    -0.6650     0.1560 H     1 <1>   0.1500 
 32 H        3.1620    -5.2780     1.3280 H     1 <1>   0.1500 
 33 H        5.9900     1.8650     0.0200 H     1 <1>   0.4500 
 34 H        4.5060     0.2410     2.6630 H     1 <1>   0.0800 
 35 H        6.0130     0.7460     1.9680 H     1 <1>   0.0800 
 36 H        6.3840    -0.3020    -0.4470 H     1 <1>   0.0800 
 37 H        5.4690    -1.7710    -0.6260 H     1 <1>   0.0800 
 38 H        3.6810     1.9150    -1.7780 H     1 <1>   0.0800 
 39 H        5.3520     1.6290    -2.1580 H     1 <1>   0.0800 
 40 H        1.1590    -5.9370     0.0330 H     1 <1>   0.1500 
 41 H       -2.3190    -1.5190    -1.1350 H     1 <1>   0.1500 
 42 H        3.9480     3.9520    -0.4670 H     1 <1>   0.0800 
 43 H        5.5670     3.9370    -1.1350 H     1 <1>   0.0800 
 44 H        5.3360     4.1060     0.5910 H     1 <1>   0.0800 
 45 H       -2.4490    -3.8710    -1.7050 H     1 <1>   0.1500 
@<TRIPOS>BOND
  1   1   2  2   
  2   2   3  am  
  3   2   4  1   
  4   3   5  1   
  5   3   6  1   
  6   4   7  ar  
  7   4   8  ar  
  8   5   9  1   
  9   5  24  1   
 10   5  25  1   
 11   6  10  1   
 12   6  26  1   
 13   6  27  1   
 14   7  11  ar  
 15   7  12  ar  
 16   8  13  ar  
 17   8  28  1   
 18   9  14  1   
 19   9  15  1   
 20   9  29  1   
 21  10  16  1   
 22  10  17  1   
 23  10  30  1   
 24  11  18  ar  
 25  11  19  ar  
 26  12  20  ar  
 27  12  31  1   
 28  13  19  ar  
 29  13  32  1   
 30  14  17  1   
 31  14  21  1   
 32  14  33  1   
 33  15  22  1   
 34  15  34  1   
 35  15  35  1   
 36  16  22  1   
 37  16  36  1   
 38  16  37  1   
 39  17  38  1   
 40  17  39  1   
 41  18  23  ar  
 42  19  40  1   
 43  20  23  ar  
 44  20  41  1   
 45  21  42  1   
 46  21  43  1   
 47  21  44  1   
 48  23  45  1   
@<TRIPOS>SUBSTRUCTURE
  1 ****   3 GROUP 4 **** **** 0

# MOE 2024.06 (io_trps.svl 2023.06)
