@<TRIPOS>MOLECULE
NONAME
51 54 1 0 0 
SMALL
USER_CHARGES


@<TRIPOS>ATOM
  1 O       -0.5200    -0.0710     1.4590 O.2   1 <1>  -0.5700 
  2 C       -1.4930     0.6600     1.4980 C.2   1 <1>   0.7150 
  3 N       -2.7490     0.1000     1.4730 N.am  1 <1>  -0.6600 
  4 C       -1.3210     2.0820     1.5500 C.2   1 <1>  -0.2370 
  5 C       -2.9590    -1.3800     1.5380 C.3   1 <1>   0.1400 
  6 C       -3.9520     0.8200     0.9610 C.3   1 <1>   0.1400 
  7 N       -0.5040     2.7600     0.6880 N.pl3 1 <1>   0.2940 
  8 C       -1.8900     2.9970     2.4020 C.2   1 <1>  -0.1500 
  9 C       -3.4940    -1.9150     0.1980 C.3   1 <1>   0.3440 
 10 C       -4.4270     0.1840    -0.3640 C.3   1 <1>   0.2000 
 11 C       -0.5670     4.0770     1.0060 C.2   1 <1>  -0.3020 
 12 C        0.2790     2.1830    -0.4310 C.3   1 <1>  -0.0910 
 13 C       -1.4120     4.2570     2.0560 C.2   1 <1>  -0.1500 
 14 O       -4.6350    -1.1920    -0.1890 O.3   1 <1>  -0.5600 
 15 C       -3.8390    -3.3980     0.3080 C.ar  1 <1>  -0.1440 
 16 C       -5.7170     0.8280    -0.9230 C.3   1 <1>  -0.0800 
 17 C        0.3280     2.8710    -1.7640 C.3   1 <1>  -0.2000 
 18 C       -0.4530     1.6050    -1.6060 C.3   1 <1>  -0.2000 
 19 C       -2.8690    -4.3480     0.0220 C.ar  1 <1>  -0.1500 
 20 C       -5.1010    -3.8220     0.7030 C.ar  1 <1>  -0.1500 
 21 C       -6.9460     0.6300    -0.0170 C.3   1 <1>  -0.2400 
 22 C       -6.0300     0.2860    -2.3270 C.3   1 <1>  -0.2400 
 23 C       -3.1550    -5.6980     0.1290 C.ar  1 <1>  -0.1500 
 24 C       -5.3880    -5.1710     0.8100 C.ar  1 <1>  -0.1500 
 25 C       -4.4150    -6.1110     0.5230 C.ar  1 <1>  -0.1500 
 26 H       -2.0430    -1.8890     1.7830 H     1 <1>   0.0800 
 27 H       -3.6710    -1.6040     2.3130 H     1 <1>   0.0800 
 28 H       -4.7310     0.7600     1.6990 H     1 <1>   0.0800 
 29 H       -3.7360     1.8590     0.7890 H     1 <1>   0.0800 
 30 H       -2.5790     2.7920     3.2040 H     1 <1>   0.1500 
 31 H       -2.7460    -1.7830    -0.5650 H     1 <1>   0.0800 
 32 H       -3.6480     0.3050    -1.0960 H     1 <1>   0.0800 
 33 H       -0.0070     4.8190     0.4670 H     1 <1>   0.1500 
 34 H        1.1530     1.6650    -0.0760 H     1 <1>   0.1000 
 35 H       -1.6720     5.1830     2.5430 H     1 <1>   0.1500 
 36 H       -5.5410     1.8860    -1.0190 H     1 <1>   0.0800 
 37 H       -0.2110     3.7920    -1.9040 H     1 <1>   0.1000 
 38 H        1.2400     2.8350    -2.3340 H     1 <1>   0.1000 
 39 H       -0.0700     0.7060    -2.0570 H     1 <1>   0.1000 
 40 H       -1.5280     1.6560    -1.6300 H     1 <1>   0.1000 
 41 H       -1.8840    -4.0420    -0.2840 H     1 <1>   0.1500 
 42 H       -5.8660    -3.0970     0.9250 H     1 <1>   0.1500 
 43 H       -7.1380    -0.4180     0.1310 H     1 <1>   0.0800 
 44 H       -7.8160     1.0730    -0.4680 H     1 <1>   0.0800 
 45 H       -6.8000     1.0920     0.9420 H     1 <1>   0.0800 
 46 H       -6.2310    -0.7700    -2.2860 H     1 <1>   0.0800 
 47 H       -5.1960     0.4480    -2.9870 H     1 <1>   0.0800 
 48 H       -6.8900     0.7820    -2.7400 H     1 <1>   0.0800 
 49 H       -2.3960    -6.4280    -0.0960 H     1 <1>   0.1500 
 50 H       -6.3700    -5.4880     1.1150 H     1 <1>   0.1500 
 51 H       -4.6380    -7.1600     0.6050 H     1 <1>   0.1500 
@<TRIPOS>BOND
  1   1   2  2   
  2   2   3  am  
  3   2   4  1   
  4   3   5  1   
  5   3   6  1   
  6   4   7  1   
  7   4   8  2   
  8   5   9  1   
  9   5  26  1   
 10   5  27  1   
 11   6  10  1   
 12   6  28  1   
 13   6  29  1   
 14   7  11  1   
 15   7  12  1   
 16   8  13  1   
 17   8  30  1   
 18   9  14  1   
 19   9  15  1   
 20   9  31  1   
 21  10  14  1   
 22  10  16  1   
 23  10  32  1   
 24  11  13  2   
 25  11  33  1   
 26  12  17  1   
 27  12  18  1   
 28  12  34  1   
 29  13  35  1   
 30  15  19  ar  
 31  15  20  ar  
 32  16  21  1   
 33  16  22  1   
 34  16  36  1   
 35  17  18  1   
 36  17  37  1   
 37  17  38  1   
 38  18  39  1   
 39  18  40  1   
 40  19  23  ar  
 41  19  41  1   
 42  20  24  ar  
 43  20  42  1   
 44  21  43  1   
 45  21  44  1   
 46  21  45  1   
 47  22  46  1   
 48  22  47  1   
 49  22  48  1   
 50  23  25  ar  
 51  23  49  1   
 52  24  25  ar  
 53  24  50  1   
 54  25  51  1   
@<TRIPOS>SUBSTRUCTURE
  1 ****   3 GROUP 4 **** **** 0

# MOE 2024.06 (io_trps.svl 2023.06)
