@<TRIPOS>MOLECULE
NONAME
42 43 1 0 0 
SMALL
USER_CHARGES


@<TRIPOS>ATOM
  1 F       -0.0390    -1.0810    -2.6780 F     1 <1>  -0.3400 
  2 C        1.0630    -1.8140    -2.7730 C.3   1 <1>   1.1640 
  3 F        2.0460    -0.9690    -3.0570 F     1 <1>  -0.3400 
  4 F        0.9120    -2.5830    -3.8440 F     1 <1>  -0.3400 
  5 C        1.3370    -2.5970    -1.4780 C.ar  1 <1>  -0.1440 
  6 C        1.2610    -3.9830    -1.4370 C.ar  1 <1>  -0.1500 
  7 C        1.6650    -1.9160    -0.3100 C.ar  1 <1>  -0.1500 
  8 C        1.4960    -4.7000    -0.2680 C.ar  1 <1>   0.0860 
  9 C        1.9170    -2.5970     0.8780 C.ar  1 <1>  -0.1440 
 10 C        1.3980    -6.1460    -0.2540 C.2   1 <1>   0.5440 
 11 C        1.8360    -3.9830     0.8760 C.ar  1 <1>  -0.1500 
 12 C        2.2840    -1.8630     2.1780 C.3   1 <1>   1.1630 
 13 O        2.1480    -6.7830    -0.9700 O.2   1 <1>  -0.5700 
 14 N        0.5040    -6.8150     0.5530 N.am  1 <1>  -0.6600 
 15 F        2.1240    -0.5480     2.1010 F     1 <1>  -0.3400 
 16 F        1.5410    -2.2680     3.2000 F     1 <1>  -0.3400 
 17 F        3.5460    -2.0690     2.5280 F     1 <1>  -0.3400 
 18 C        0.5340    -8.3110     0.6520 C.3   1 <1>   0.3210 
 19 C       -0.6270    -6.1620     1.2910 C.3   1 <1>   0.1400 
 20 C       -0.7690    -8.9370     0.1660 C.2   1 <1>   0.0460 
 21 C       -1.8390    -5.8440     0.3930 C.3   1 <1>   0.1200 
 22 N       -1.7710    -9.2240     1.0260 N.2   1 <1>  -0.5650 
 23 C       -1.1130    -9.2670    -1.1010 C.2   1 <1>  -0.3320 
 24 O       -1.5750    -4.7870    -0.4720 O.3   1 <1>  -0.6800 
 25 C       -2.6930    -9.7230     0.2690 C.2   1 <1>   0.0360 
 26 N       -2.3550    -9.7770    -1.0360 N.pl3 1 <1>   0.0330 
 27 C       -0.3420    -9.1150    -2.4020 C.3   1 <1>  -0.0600 
 28 H        1.0060    -4.5490    -2.3190 H     1 <1>   0.1500 
 29 H        1.7250    -0.8380    -0.3350 H     1 <1>   0.1500 
 30 H        2.0410    -4.5380     1.7770 H     1 <1>   0.1500 
 31 H        0.6960    -8.5940     1.6770 H     1 <1>   0.0800 
 32 H        1.3460    -8.7180     0.0770 H     1 <1>   0.0800 
 33 H       -0.2930    -5.2650     1.7770 H     1 <1>   0.0800 
 34 H       -0.9570    -6.8310     2.0670 H     1 <1>   0.0800 
 35 H       -2.6830    -5.5680     1.0000 H     1 <1>   0.0800 
 36 H       -2.1100    -6.7000    -0.1980 H     1 <1>   0.0800 
 37 H       -1.3890    -3.9690     0.0250 H     1 <1>   0.4000 
 38 H       -3.6470   -10.0690     0.6260 H     1 <1>   0.1500 
 39 H       -2.9260   -10.1250    -1.8100 H     1 <1>   0.2700 
 40 H        0.6180    -8.6640    -2.2220 H     1 <1>   0.0800 
 41 H       -0.8850    -8.4840    -3.0820 H     1 <1>   0.0800 
 42 H       -0.1870   -10.0750    -2.8590 H     1 <1>   0.0800 
@<TRIPOS>BOND
  1   1   2  1   
  2   2   3  1   
  3   2   4  1   
  4   2   5  1   
  5   5   6  ar  
  6   5   7  ar  
  7   6   8  ar  
  8   6  28  1   
  9   7   9  ar  
 10   7  29  1   
 11   8  10  1   
 12   8  11  ar  
 13   9  11  ar  
 14   9  12  1   
 15  10  13  2   
 16  10  14  am  
 17  11  30  1   
 18  12  15  1   
 19  12  16  1   
 20  12  17  1   
 21  14  18  1   
 22  14  19  1   
 23  18  20  1   
 24  18  31  1   
 25  18  32  1   
 26  19  21  1   
 27  19  33  1   
 28  19  34  1   
 29  20  22  1   
 30  20  23  2   
 31  21  24  1   
 32  21  35  1   
 33  21  36  1   
 34  22  25  2   
 35  23  26  1   
 36  23  27  1   
 37  24  37  1   
 38  25  26  1   
 39  25  38  1   
 40  26  39  1   
 41  27  40  1   
 42  27  41  1   
 43  27  42  1   
@<TRIPOS>SUBSTRUCTURE
  1 ****   8 GROUP 4 **** **** 0

# MOE 2024.06 (io_trps.svl 2023.06)
