@<TRIPOS>MOLECULE
NONAME
43 46 1 0 0 
SMALL
USER_CHARGES


@<TRIPOS>ATOM
  1 O        0.2510    -0.2560     0.9630 O.2   1 <1>  -0.5700 
  2 C        1.2540    -0.8530     0.6280 C.2   1 <1>   0.5440 
  3 N        2.3720    -0.1630     0.2270 N.am  1 <1>  -0.4940 
  4 C        1.2690    -2.3020     0.6080 C.ar  1 <1>   0.0860 
  5 C        2.6570     1.2050     0.3010 C.2   1 <1>   0.2040 
  6 C        2.4190    -3.0360     0.9040 C.ar  1 <1>  -0.1500 
  7 C        0.1240    -3.0280     0.2860 C.ar  1 <1>  -0.1500 
  8 O        1.9280     2.0390     1.0040 O.3   1 <1>  -0.0190 
  9 C        3.6600     1.9120    -0.2570 C.2   1 <1>  -0.1810 
 10 C        2.4240    -4.4170     0.8570 C.ar  1 <1>  -0.1500 
 11 C        0.1310    -4.4090     0.2400 C.ar  1 <1>  -0.1500 
 12 N        2.3920     3.2610     0.9470 N.2   1 <1>  -0.4100 
 13 C        3.4320     3.2120     0.1940 C.2   1 <1>   0.1080 
 14 C        4.7880     1.4500    -1.1650 C.3   1 <1>  -0.0590 
 15 C        1.2830    -5.1460     0.5180 C.ar  1 <1>   0.0540 
 16 C        4.2730     4.4340    -0.1350 C.3   1 <1>   0.0210 
 17 C        1.3000    -6.5970     0.4650 C.2   1 <1>   0.4620 
 18 C        5.4600     4.5680     0.8250 C.3   1 <1>  -0.2400 
 19 N        2.3190    -7.3430     0.7060 N.2   1 <1>  -0.4100 
 20 N        0.2220    -7.3190     0.1460 N.2   1 <1>  -0.5650 
 21 O        1.9510    -8.5770     0.5580 O.3   1 <1>  -0.0190 
 22 C        0.6900    -8.4960     0.2250 C.2   1 <1>   0.3930 
 23 C       -0.0730    -9.7860    -0.0320 C.3   1 <1>  -0.0150 
 24 C       -1.5520    -9.8850     0.1940 C.3   1 <1>  -0.2000 
 25 C       -0.6030   -10.5950     1.1120 C.3   1 <1>  -0.2000 
 26 H        3.0860    -0.7240    -0.2260 H     1 <1>   0.3700 
 27 H        3.3210    -2.5230     1.1870 H     1 <1>   0.1500 
 28 H       -0.7850    -2.4920     0.0690 H     1 <1>   0.1500 
 29 H        3.3320    -4.9480     1.0910 H     1 <1>   0.1500 
 30 H       -0.7780    -4.9280    -0.0170 H     1 <1>   0.1500 
 31 H        4.7120     0.3970    -1.3610 H     1 <1>   0.0800 
 32 H        5.7370     1.6470    -0.7010 H     1 <1>   0.0800 
 33 H        4.7420     1.9760    -2.1020 H     1 <1>   0.0800 
 34 H        3.6540     5.3100    -0.0600 H     1 <1>   0.0800 
 35 H        4.6260     4.3670    -1.1480 H     1 <1>   0.0800 
 36 H        5.1030     4.6500     1.8370 H     1 <1>   0.0800 
 37 H        6.0320     5.4470     0.5880 H     1 <1>   0.0800 
 38 H        6.1000     3.7070     0.7550 H     1 <1>   0.0800 
 39 H        0.3300   -10.3230    -0.8720 H     1 <1>   0.1000 
 40 H       -2.1400   -10.4620    -0.4980 H     1 <1>   0.1000 
 41 H       -2.0760    -9.0170     0.5580 H     1 <1>   0.1000 
 42 H       -0.4810   -10.2190     2.1140 H     1 <1>   0.1000 
 43 H       -0.5340   -11.6680     1.0620 H     1 <1>   0.1000 
@<TRIPOS>BOND
  1   1   2  2   
  2   2   3  am  
  3   2   4  1   
  4   3   5  1   
  5   3  26  1   
  6   4   6  ar  
  7   4   7  ar  
  8   5   8  1   
  9   5   9  2   
 10   6  10  ar  
 11   6  27  1   
 12   7  11  ar  
 13   7  28  1   
 14   8  12  1   
 15   9  13  1   
 16   9  14  1   
 17  10  15  ar  
 18  10  29  1   
 19  11  15  ar  
 20  11  30  1   
 21  12  13  2   
 22  13  16  1   
 23  14  31  1   
 24  14  32  1   
 25  14  33  1   
 26  15  17  1   
 27  16  18  1   
 28  16  34  1   
 29  16  35  1   
 30  17  19  2   
 31  17  20  1   
 32  18  36  1   
 33  18  37  1   
 34  18  38  1   
 35  19  21  1   
 36  20  22  2   
 37  21  22  1   
 38  22  23  1   
 39  23  24  1   
 40  23  25  1   
 41  23  39  1   
 42  24  25  1   
 43  24  40  1   
 44  24  41  1   
 45  25  42  1   
 46  25  43  1   
@<TRIPOS>SUBSTRUCTURE
  1 ****   4 GROUP 4 **** **** 0

# MOE 2024.06 (io_trps.svl 2023.06)
