@<TRIPOS>MOLECULE
NONAME
52 55 1 0 0 
SMALL
USER_CHARGES


@<TRIPOS>ATOM
  1 O       -0.3380    -0.4430     0.1200 O.2   1 <1>  -0.5700 
  2 C       -1.3070     0.2800     0.2440 C.2   1 <1>   0.7160 
  3 N       -2.4700    -0.2710     0.6830 N.am  1 <1>  -0.7300 
  4 C       -1.2570     1.6790    -0.0670 C.2   1 <1>  -0.0860 
  5 C       -2.7620    -1.6990     0.9250 C.3   1 <1>   0.1400 
  6 C       -2.3650     2.5300    -0.1990 C.2   1 <1>   0.3720 
  7 C       -0.2040     2.5040    -0.3290 C.2   1 <1>   0.0870 
  8 C       -3.6190    -2.2600    -0.2200 C.3   1 <1>  -0.0800 
  9 N       -2.0050     3.7230    -0.5150 N.2   1 <1>  -0.4100 
 10 N       -3.7090     2.1640    -0.0200 N.pl3 1 <1>  -0.8210 
 11 O       -0.7030     3.6860    -0.5920 O.3   1 <1>  -0.0190 
 12 C        1.2260     2.3280    -0.3590 C.ar  1 <1>   0.0530 
 13 C       -4.9910    -1.6000    -0.2790 C.3   1 <1>   0.1200 
 14 C       -4.0020    -3.7100     0.0400 C.3   1 <1>  -0.1600 
 15 C       -4.3510     2.7940     1.1670 C.3   1 <1>   0.2090 
 16 C       -4.5720     2.4150    -1.2100 C.3   1 <1>   0.2090 
 17 C        2.0000     2.9730    -1.3250 C.ar  1 <1>  -0.1500 
 18 C        1.8990     1.5360     0.5730 C.ar  1 <1>  -0.1500 
 19 O       -5.7540    -2.2810     0.6620 O.3   1 <1>  -0.5600 
 20 C       -5.3620    -3.6170     0.7320 C.3   1 <1>   0.1200 
 21 C       -5.7850     3.0830     0.7530 C.3   1 <1>  -0.1600 
 22 C       -5.6850     3.3420    -0.7420 C.3   1 <1>  -0.1600 
 23 C        3.3740     2.8280    -1.3630 C.ar  1 <1>  -0.1500 
 24 C        3.2720     1.3820     0.5400 C.ar  1 <1>  -0.1500 
 25 C        4.0240     2.0310    -0.4350 C.ar  1 <1>   0.0830 
 26 O        5.3700     1.9360    -0.5400 O.3   1 <1>  -0.3630 
 27 C        6.1200     1.1140     0.3260 C.3   1 <1>   0.0400 
 28 H       -3.2790     0.3660     0.6470 H     1 <1>   0.3700 
 29 H       -3.2830    -1.7980     1.8620 H     1 <1>   0.0800 
 30 H       -1.8380    -2.2500     0.9920 H     1 <1>   0.0800 
 31 H       -3.0870    -2.1540    -1.1490 H     1 <1>   0.0800 
 32 H       -5.4470    -1.7480    -1.2430 H     1 <1>   0.0800 
 33 H       -4.9820    -0.5520    -0.0360 H     1 <1>   0.0800 
 34 H       -3.2820    -4.2380     0.6400 H     1 <1>   0.0800 
 35 H       -4.1210    -4.2340    -0.8920 H     1 <1>   0.0800 
 36 H       -3.8490     3.7150     1.4160 H     1 <1>   0.0800 
 37 H       -4.3170     2.1310     2.0150 H     1 <1>   0.0800 
 38 H       -4.9870     1.4780    -1.5390 H     1 <1>   0.0800 
 39 H       -4.0190     2.8550    -2.0230 H     1 <1>   0.0800 
 40 H        1.5160     3.5960    -2.0560 H     1 <1>   0.1500 
 41 H        1.3350     1.0310     1.3360 H     1 <1>   0.1500 
 42 H       -5.3000    -3.8900     1.7720 H     1 <1>   0.0800 
 43 H       -6.1030    -4.2190     0.2360 H     1 <1>   0.0800 
 44 H       -6.1960     3.9200     1.2890 H     1 <1>   0.0800 
 45 H       -6.3880     2.2110     0.9380 H     1 <1>   0.0800 
 46 H       -6.6090     3.1530    -1.2580 H     1 <1>   0.0800 
 47 H       -5.3840     4.3600    -0.9180 H     1 <1>   0.0800 
 48 H        3.9550     3.3300    -2.1150 H     1 <1>   0.1500 
 49 H        3.7380     0.7570     1.2770 H     1 <1>   0.1500 
 50 H        7.1540     1.1850     0.0430 H     1 <1>   0.0800 
 51 H        5.7810     0.0980     0.2230 H     1 <1>   0.0800 
 52 H        5.9910     1.4630     1.3350 H     1 <1>   0.0800 
@<TRIPOS>BOND
  1   1   2  2   
  2   2   3  am  
  3   2   4  1   
  4   3   5  1   
  5   3  28  1   
  6   4   6  1   
  7   4   7  2   
  8   5   8  1   
  9   5  29  1   
 10   5  30  1   
 11   6   9  2   
 12   6  10  1   
 13   7  11  1   
 14   7  12  1   
 15   8  13  1   
 16   8  14  1   
 17   8  31  1   
 18   9  11  1   
 19  10  15  1   
 20  10  16  1   
 21  12  17  ar  
 22  12  18  ar  
 23  13  19  1   
 24  13  32  1   
 25  13  33  1   
 26  14  20  1   
 27  14  34  1   
 28  14  35  1   
 29  15  21  1   
 30  15  36  1   
 31  15  37  1   
 32  16  22  1   
 33  16  38  1   
 34  16  39  1   
 35  17  23  ar  
 36  17  40  1   
 37  18  24  ar  
 38  18  41  1   
 39  19  20  1   
 40  20  42  1   
 41  20  43  1   
 42  21  22  1   
 43  21  44  1   
 44  21  45  1   
 45  22  46  1   
 46  22  47  1   
 47  23  25  ar  
 48  23  48  1   
 49  24  25  ar  
 50  24  49  1   
 51  25  26  1   
 52  26  27  1   
 53  27  50  1   
 54  27  51  1   
 55  27  52  1   
@<TRIPOS>SUBSTRUCTURE
  1 ****   4 GROUP 4 **** **** 0

# MOE 2024.06 (io_trps.svl 2023.06)
