@<TRIPOS>MOLECULE
NONAME
45 46 1 0 0 
SMALL
USER_CHARGES


@<TRIPOS>ATOM
  1 S       -1.0010     0.4990     1.3260 S.o2  1 <1>   1.4470 
  2 O       -1.0400    -0.4180     2.4440 O.2   1 <1>  -0.6500 
  3 O       -1.4790     1.8490     1.5420 O.2   1 <1>  -0.6500 
  4 N       -1.9570    -0.1300     0.0720 N.am  1 <1>  -0.8490 
  5 C        0.6760     0.5850     0.6360 C.ar  1 <1>  -0.0090 
  6 C       -1.4460    -1.2730    -0.7170 C.3   1 <1>   0.1960 
  7 C       -3.3960    -0.1920     0.3690 C.3   1 <1>   0.1960 
  8 C        1.7220    -0.1480     1.1840 C.ar  1 <1>  -0.1500 
  9 C        0.9530     1.3760    -0.4720 C.ar  1 <1>  -0.1500 
 10 C       -1.6970    -2.6890    -0.1200 C.3   1 <1>  -0.1060 
 11 C       -3.9610    -1.6200     0.3590 C.3   1 <1>  -0.1600 
 12 C        2.9960    -0.0960     0.6460 C.ar  1 <1>  -0.1500 
 13 C        2.2240     1.4330    -1.0160 C.ar  1 <1>  -0.1500 
 14 C       -1.9790    -3.6030    -1.3330 C.2   1 <1>   0.9060 
 15 C       -2.9040    -2.5980     0.8580 C.3   1 <1>   0.2000 
 16 C       -0.4760    -3.2370     0.6820 C.3   1 <1>  -0.1600 
 17 C        3.2550     0.6970    -0.4580 C.ar  1 <1>  -0.1440 
 18 O       -2.7840    -4.5420    -1.2430 O.co2 1 <1>  -0.9000 
 19 O       -1.3920    -3.3860    -2.4010 O.co2 1 <1>  -0.9000 
 20 O       -3.5020    -3.8220     1.0700 O.3   1 <1>  -0.6800 
 21 C        0.8300    -3.4290    -0.1120 C.3   1 <1>  -0.1600 
 22 C        4.6500     0.7510    -1.0540 C.3   1 <1>  -0.0970 
 23 C        1.9400    -3.9780     0.7880 C.3   1 <1>  -0.2400 
 24 H       -1.9630    -1.2130    -1.6610 H     1 <1>   0.0800 
 25 H       -0.4100    -1.1380    -0.9600 H     1 <1>   0.0800 
 26 H       -3.5810     0.2450     1.3380 H     1 <1>   0.0800 
 27 H       -3.9260     0.4020    -0.3560 H     1 <1>   0.0800 
 28 H        1.5340    -0.7720     2.0420 H     1 <1>   0.1500 
 29 H        0.1560     1.9510    -0.9150 H     1 <1>   0.1500 
 30 H       -4.2570    -1.8860    -0.6410 H     1 <1>   0.0800 
 31 H       -4.8290    -1.6590     0.9910 H     1 <1>   0.0800 
 32 H        3.7830    -0.6800     1.0910 H     1 <1>   0.1500 
 33 H        2.4050     2.0520    -1.8770 H     1 <1>   0.1500 
 34 H       -2.5700    -2.2620     1.8240 H     1 <1>   0.0800 
 35 H       -0.2780    -2.5970     1.5200 H     1 <1>   0.0800 
 36 H       -0.7580    -4.1960     1.0830 H     1 <1>   0.0800 
 37 H       -3.3960    -4.3290     0.2020 H     1 <1>   0.4000 
 38 H        0.6650    -4.1210    -0.9220 H     1 <1>   0.0800 
 39 H        1.1600    -2.5000    -0.5400 H     1 <1>   0.0800 
 40 H        5.3910     0.6170    -0.2870 H     1 <1>   0.0800 
 41 H        4.8200     1.7010    -1.5270 H     1 <1>   0.0800 
 42 H        4.7610    -0.0280    -1.7860 H     1 <1>   0.0800 
 43 H        1.6510    -4.9310     1.1940 H     1 <1>   0.0800 
 44 H        2.1390    -3.3000     1.5980 H     1 <1>   0.0800 
 45 H        2.8420    -4.1080     0.2170 H     1 <1>   0.0800 
@<TRIPOS>BOND
  1   1   2  2   
  2   1   3  2   
  3   1   4  am  
  4   1   5  1   
  5   4   6  1   
  6   4   7  1   
  7   5   8  ar  
  8   5   9  ar  
  9   6  10  1   
 10   6  24  1   
 11   6  25  1   
 12   7  11  1   
 13   7  26  1   
 14   7  27  1   
 15   8  12  ar  
 16   8  28  1   
 17   9  13  ar  
 18   9  29  1   
 19  10  14  1   
 20  10  15  1   
 21  10  16  1   
 22  11  15  1   
 23  11  30  1   
 24  11  31  1   
 25  12  17  ar  
 26  12  32  1   
 27  13  17  ar  
 28  13  33  1   
 29  14  18  ar  
 30  14  19  ar  
 31  15  20  1   
 32  15  34  1   
 33  16  21  1   
 34  16  35  1   
 35  16  36  1   
 36  17  22  1   
 37  20  37  1   
 38  21  23  1   
 39  21  38  1   
 40  21  39  1   
 41  22  40  1   
 42  22  41  1   
 43  22  42  1   
 44  23  43  1   
 45  23  44  1   
 46  23  45  1   
@<TRIPOS>SUBSTRUCTURE
  1 ****   6 GROUP 4 **** **** 0

# MOE 2024.06 (io_trps.svl 2023.06)
