@<TRIPOS>MOLECULE
NONAME
63 64 1 0 0 
SMALL
USER_CHARGES


@<TRIPOS>ATOM
  1 O       -0.2280     1.3590     1.1960 O.2   1 <1>  -0.5700 
  2 C        0.1480     1.8050     0.1130 C.2   1 <1>   0.5690 
  3 N       -0.6350     1.6530    -0.9940 N.am  1 <1>  -0.7300 
  4 C        1.5420     2.4760    -0.0270 C.3   1 <1>   0.2810 
  5 C       -2.0620     1.2520    -1.0060 C.3   1 <1>   0.1400 
  6 N        2.5920     1.4540    -0.0940 N.am  1 <1>  -0.7300 
  7 C        1.8410     3.5090     1.0950 C.3   1 <1>  -0.0800 
  8 C       -2.1930    -0.2690    -1.1420 C.3   1 <1>  -0.1600 
  9 C        3.6620     1.4910    -0.8970 C.2   1 <1>   0.5690 
 10 C        0.7090     4.5420     1.2540 C.3   1 <1>  -0.2400 
 11 C        3.1590     4.2770     0.8850 C.3   1 <1>  -0.2400 
 12 C       -1.8570    -0.9740     0.1730 C.3   1 <1>   0.3430 
 13 O        3.8480     2.4300    -1.6620 O.2   1 <1>  -0.5700 
 14 C        4.6540     0.2920    -0.8430 C.3   1 <1>   0.2810 
 15 N       -1.6430    -2.4300    -0.0750 N.4   1 <1>  -0.9590 
 16 N        4.0550    -0.9150    -0.2560 N.am  1 <1>  -0.7300 
 17 C        5.8960     0.6300    -0.0130 C.3   1 <1>  -0.2400 
 18 C       -0.2730    -2.8680     0.3410 C.3   1 <1>   0.3430 
 19 C       -2.7100    -3.2450     0.5730 C.3   1 <1>   0.4860 
 20 C        3.1730    -1.6730    -0.9530 C.2   1 <1>   0.5690 
 21 C        0.7790    -2.1700    -0.5230 C.3   1 <1>  -0.1600 
 22 C       -2.5750    -4.6900     0.1420 C.ar  1 <1>  -0.1430 
 23 O        3.0470    -1.5710    -2.1460 O.2   1 <1>  -0.5700 
 24 C        2.2260    -2.5940    -0.2090 C.3   1 <1>  -0.0990 
 25 C       -2.9820    -5.0770    -1.1260 C.ar  1 <1>   0.1600 
 26 C       -2.0500    -5.6440     0.9940 C.ar  1 <1>  -0.1500 
 27 N       -2.8880    -6.3020    -1.6060 N.ar  1 <1>  -0.6200 
 28 C       -1.9550    -6.9310     0.5080 C.ar  1 <1>  -0.1500 
 29 C       -2.3800    -7.2040    -0.7810 C.ar  1 <1>   0.1600 
 30 H       -0.2580     1.9600    -1.8980 H     1 <1>   0.3700 
 31 H        1.5310     3.0250    -0.9700 H     1 <1>   0.0800 
 32 H       -2.5420     1.5950    -0.1030 H     1 <1>   0.0800 
 33 H       -2.5450     1.7350    -1.8400 H     1 <1>   0.0800 
 34 H        2.5040     0.6610     0.5160 H     1 <1>   0.3700 
 35 H        1.9190     2.9630     2.0370 H     1 <1>   0.0800 
 36 H       -1.5440    -0.5970    -1.9350 H     1 <1>   0.0800 
 37 H       -3.2080    -0.5000    -1.4100 H     1 <1>   0.0800 
 38 H        0.5660     5.0920     0.3220 H     1 <1>   0.0800 
 39 H        0.9600     5.2500     2.0450 H     1 <1>   0.0800 
 40 H       -0.2260     4.0540     1.5320 H     1 <1>   0.0800 
 41 H        3.1490     4.7840    -0.0820 H     1 <1>   0.0800 
 42 H        4.0060     3.5920     0.9130 H     1 <1>   0.0800 
 43 H        3.2970     5.0160     1.6750 H     1 <1>   0.0800 
 44 H       -2.6460    -0.8130     0.8910 H     1 <1>   0.0800 
 45 H       -0.9590    -0.5540     0.5850 H     1 <1>   0.0800 
 46 H        4.9680     0.0830    -1.8680 H     1 <1>   0.0800 
 47 H       -1.7040    -2.5930    -1.0880 H     1 <1>   0.4500 
 48 H        4.2770    -1.1280     0.7000 H     1 <1>   0.3700 
 49 H        5.6120     0.8630     1.0130 H     1 <1>   0.0800 
 50 H        6.3890     1.5000    -0.4490 H     1 <1>   0.0800 
 51 H        6.5890    -0.2110    -0.0250 H     1 <1>   0.0800 
 52 H       -0.1090    -2.6340     1.3810 H     1 <1>   0.0800 
 53 H       -0.1740    -3.9340     0.2120 H     1 <1>   0.0800 
 54 H       -2.6300    -3.1750     1.6460 H     1 <1>   0.0800 
 55 H       -3.6820    -2.8790     0.2830 H     1 <1>   0.0800 
 56 H        0.5840    -2.3810    -1.5610 H     1 <1>   0.0800 
 57 H        0.7230    -1.1050    -0.3840 H     1 <1>   0.0800 
 58 H        2.4000    -3.6050    -0.5320 H     1 <1>   0.0800 
 59 H        2.4170    -2.5310     0.8470 H     1 <1>   0.0800 
 60 H       -3.4100    -4.3480    -1.7940 H     1 <1>   0.1500 
 61 H       -1.7280    -5.4160     1.9960 H     1 <1>   0.1500 
 62 H       -1.5580    -7.7230     1.1180 H     1 <1>   0.1500 
 63 H       -2.3000    -8.2130    -1.1520 H     1 <1>   0.1500 
@<TRIPOS>BOND
  1   1   2  2   
  2   2   3  am  
  3   2   4  1   
  4   3   5  1   
  5   3  30  1   
  6   4   6  1   
  7   4   7  1   
  8   4  31  1   
  9   5   8  1   
 10   5  32  1   
 11   5  33  1   
 12   6   9  am  
 13   6  34  1   
 14   7  10  1   
 15   7  11  1   
 16   7  35  1   
 17   8  12  1   
 18   8  36  1   
 19   8  37  1   
 20   9  13  2   
 21   9  14  1   
 22  10  38  1   
 23  10  39  1   
 24  10  40  1   
 25  11  41  1   
 26  11  42  1   
 27  11  43  1   
 28  12  15  1   
 29  12  44  1   
 30  12  45  1   
 31  14  16  1   
 32  14  17  1   
 33  14  46  1   
 34  15  18  1   
 35  15  19  1   
 36  15  47  1   
 37  16  20  am  
 38  16  48  1   
 39  17  49  1   
 40  17  50  1   
 41  17  51  1   
 42  18  21  1   
 43  18  52  1   
 44  18  53  1   
 45  19  22  1   
 46  19  54  1   
 47  19  55  1   
 48  20  23  2   
 49  20  24  1   
 50  21  24  1   
 51  21  56  1   
 52  21  57  1   
 53  22  25  ar  
 54  22  26  ar  
 55  24  58  1   
 56  24  59  1   
 57  25  27  ar  
 58  25  60  1   
 59  26  28  ar  
 60  26  61  1   
 61  27  29  ar  
 62  28  29  ar  
 63  28  62  1   
 64  29  63  1   
@<TRIPOS>SUBSTRUCTURE
  1 ****  21 GROUP 4 **** **** 0

# MOE 2024.06 (io_trps.svl 2023.06)
