@<TRIPOS>MOLECULE
NONAME
50 54 1 0 0 
SMALL
USER_CHARGES


@<TRIPOS>ATOM
  1 O       -3.7210     2.6550     3.2290 O.2   1 <1>  -0.5700 
  2 C       -3.5520     3.0180     2.0910 C.2   1 <1>   0.5690 
  3 N       -4.4940     2.7550     1.1240 N.am  1 <1>  -0.6600 
  4 C       -2.2200     3.6720     1.7510 C.3   1 <1>   0.0440 
  5 C       -5.6040     1.7890     1.3960 C.3   1 <1>   0.1400 
  6 C       -4.3340     3.0130    -0.3400 C.3   1 <1>   0.1400 
  7 C       -1.3620     2.7120     0.9300 C.ar  1 <1>  -0.1440 
  8 C       -5.3750     0.4480     0.6490 C.3   1 <1>   0.4230 
  9 C       -4.0630     1.6990    -1.1110 C.3   1 <1>   0.3430 
 10 C       -0.9470     3.0470    -0.3560 C.ar  1 <1>  -0.1500 
 11 C       -1.0020     1.4810     1.4810 C.ar  1 <1>  -0.1500 
 12 N       -4.1380     0.4690    -0.2370 N.4   1 <1>  -0.9590 
 13 C       -6.6280     0.0510    -0.1630 C.3   1 <1>   0.1200 
 14 C       -0.2100     2.1190    -1.0630 C.ar  1 <1>   0.0830 
 15 C       -0.2460     0.5680     0.7590 C.ar  1 <1>  -0.1500 
 16 C       -4.0130    -0.8250    -0.9850 C.3   1 <1>   0.5180 
 17 O       -6.4170    -1.1560    -0.8390 O.3   1 <1>  -0.5600 
 18 O        0.2600     2.2120    -2.3100 O.3   1 <1>  -0.3620 
 19 C        0.1340     0.9160    -0.5210 C.ar  1 <1>   0.0830 
 20 C       -2.7700    -0.7810    -1.8950 C.3   1 <1>  -0.1950 
 21 C       -5.3300    -1.1640    -1.7250 C.3   1 <1>   0.1200 
 22 C        1.0290     1.0310    -2.5460 C.3   1 <1>   0.4000 
 23 O        0.8400     0.2010    -1.4010 O.3   1 <1>  -0.3620 
 24 C       -2.7320    -0.1960    -3.2770 C.3   1 <1>  -0.2000 
 25 C       -2.5780    -1.6770    -3.0810 C.3   1 <1>  -0.2000 
 26 H       -2.3910     4.5940     1.2290 H     1 <1>   0.0800 
 27 H       -1.7050     3.9100     2.6640 H     1 <1>   0.0800 
 28 H       -5.6930     1.5900     2.4510 H     1 <1>   0.0800 
 29 H       -6.5350     2.2370     1.0910 H     1 <1>   0.0800 
 30 H       -5.2400     3.4570    -0.7140 H     1 <1>   0.0800 
 31 H       -3.5480     3.7190    -0.5320 H     1 <1>   0.0800 
 32 H       -5.2430    -0.3120     1.4020 H     1 <1>   0.0800 
 33 H       -3.0810     1.7620    -1.5530 H     1 <1>   0.0800 
 34 H       -4.7710     1.6190    -1.9190 H     1 <1>   0.0800 
 35 H       -1.1750     3.9960    -0.8070 H     1 <1>   0.1500 
 36 H       -1.3030     1.2340     2.4870 H     1 <1>   0.1500 
 37 H       -3.3320     0.5440     0.4000 H     1 <1>   0.4500 
 38 H       -6.8870     0.8070    -0.8830 H     1 <1>   0.0800 
 39 H       -7.4660    -0.0930     0.4970 H     1 <1>   0.0800 
 40 H        0.0500    -0.3800     1.1740 H     1 <1>   0.1500 
 41 H       -3.8530    -1.6170    -0.2720 H     1 <1>   0.0800 
 42 H       -1.8850    -0.6810    -1.2940 H     1 <1>   0.1000 
 43 H       -5.2720    -2.1530    -2.1450 H     1 <1>   0.0800 
 44 H       -5.5280    -0.4680    -2.5200 H     1 <1>   0.0800 
 45 H        0.6690     0.5280    -3.4260 H     1 <1>   0.0800 
 46 H        2.0690     1.2910    -2.6330 H     1 <1>   0.0800 
 47 H       -3.6240     0.1380    -3.7790 H     1 <1>   0.1000 
 48 H       -1.8660     0.3690    -3.5790 H     1 <1>   0.1000 
 49 H       -1.6070    -2.1150    -3.2460 H     1 <1>   0.1000 
 50 H       -3.3680    -2.3150    -3.4410 H     1 <1>   0.1000 
@<TRIPOS>BOND
  1   1   2  2   
  2   2   3  am  
  3   2   4  1   
  4   3   5  1   
  5   3   6  1   
  6   4   7  1   
  7   4  26  1   
  8   4  27  1   
  9   5   8  1   
 10   5  28  1   
 11   5  29  1   
 12   6   9  1   
 13   6  30  1   
 14   6  31  1   
 15   7  10  ar  
 16   7  11  ar  
 17   8  12  1   
 18   8  13  1   
 19   8  32  1   
 20   9  12  1   
 21   9  33  1   
 22   9  34  1   
 23  10  14  ar  
 24  10  35  1   
 25  11  15  ar  
 26  11  36  1   
 27  12  16  1   
 28  12  37  1   
 29  13  17  1   
 30  13  38  1   
 31  13  39  1   
 32  14  18  1   
 33  14  19  ar  
 34  15  19  ar  
 35  15  40  1   
 36  16  20  1   
 37  16  21  1   
 38  16  41  1   
 39  17  21  1   
 40  18  22  1   
 41  19  23  1   
 42  20  24  1   
 43  20  25  1   
 44  20  42  1   
 45  21  43  1   
 46  21  44  1   
 47  22  23  1   
 48  22  45  1   
 49  22  46  1   
 50  24  25  1   
 51  24  47  1   
 52  24  48  1   
 53  25  49  1   
 54  25  50  1   
@<TRIPOS>SUBSTRUCTURE
  1 ****  12 GROUP 4 **** **** 0

# MOE 2024.06 (io_trps.svl 2023.06)
