@<TRIPOS>MOLECULE
NONAME
39 40 1 0 0 
SMALL
USER_CHARGES


@<TRIPOS>ATOM
  1 O       -1.4000    -0.9770    -1.8390 O.3   1 <1>  -0.8500 
  2 C       -0.8740    -1.7690    -1.0410 C.2   1 <1>  -0.1500 
  3 C       -1.4590    -2.1940     0.1550 C.2   1 <1>  -0.1240 
  4 C        0.4010    -2.2910    -1.3810 C.2   1 <1>  -0.1500 
  5 C       -0.7890    -3.1230     0.9670 C.2   1 <1>   0.6160 
  6 C       -2.8350    -1.6930     0.6160 C.3   1 <1>   0.2020 
  7 C        1.0590    -3.1700    -0.5870 C.2   1 <1>  -0.0290 
  8 O       -1.2910    -3.5800     2.0170 O.2   1 <1>  -0.5700 
  9 N        0.4920    -3.5910     0.6150 N.am  1 <1>  -0.4690 
 10 C       -3.9540    -2.5770     0.0660 C.ar  1 <1>  -0.1440 
 11 C       -3.1490    -0.2100     0.3550 C.3   1 <1>  -0.0990 
 12 C        2.4170    -3.7080    -1.0080 C.3   1 <1>  -0.1020 
 13 C        1.1820    -4.5550     1.5190 C.3   1 <1>   0.0600 
 14 C       -4.1450    -2.7240    -1.3030 C.ar  1 <1>   0.1600 
 15 C       -4.8000    -3.2490     0.9280 C.ar  1 <1>  -0.1500 
 16 C       -2.0880     0.7000     0.9280 C.2   1 <1>   0.6590 
 17 N       -5.1100    -3.4510    -1.8600 N.ar  1 <1>  -0.6200 
 18 C       -5.7970    -4.0150     0.3660 C.ar  1 <1>  -0.1500 
 19 O       -1.6600     0.5520     2.0480 O.2   1 <1>  -0.5700 
 20 O       -1.7140     1.7250     0.1710 O.3   1 <1>  -0.4300 
 21 C       -5.9050    -4.0770    -1.0120 C.ar  1 <1>   0.1600 
 22 C       -0.6510     2.5690     0.5450 C.3   1 <1>   0.0400 
 23 H        0.7970    -1.9380    -2.3140 H     1 <1>   0.1500 
 24 H       -2.8590    -1.7840     1.6870 H     1 <1>   0.0800 
 25 H       -4.0840     0.0370     0.8160 H     1 <1>   0.0800 
 26 H       -3.2500    -0.0220    -0.6960 H     1 <1>   0.0800 
 27 H        3.1720    -3.3830    -0.3170 H     1 <1>   0.0800 
 28 H        2.6740    -3.3440    -1.9860 H     1 <1>   0.0800 
 29 H        2.3930    -4.7820    -1.0430 H     1 <1>   0.0800 
 30 H        0.8860    -4.3890     2.5400 H     1 <1>   0.0800 
 31 H        2.2470    -4.4330     1.4670 H     1 <1>   0.0800 
 32 H        0.9170    -5.5570     1.2360 H     1 <1>   0.0800 
 33 H       -3.4670    -2.2130    -1.9700 H     1 <1>   0.1500 
 34 H       -4.6810    -3.1820     1.9960 H     1 <1>   0.1500 
 35 H       -6.4810    -4.5600     0.9880 H     1 <1>   0.1500 
 36 H       -6.6880    -4.6770    -1.4410 H     1 <1>   0.1500 
 37 H       -0.5170     3.3050    -0.2270 H     1 <1>   0.0800 
 38 H        0.2380     1.9690     0.6430 H     1 <1>   0.0800 
 39 H       -0.8920     3.0400     1.4810 H     1 <1>   0.0800 
@<TRIPOS>BOND
  1   1   2  1   
  2   2   3  2   
  3   2   4  1   
  4   3   5  1   
  5   3   6  1   
  6   4   7  2   
  7   4  23  1   
  8   5   8  2   
  9   5   9  am  
 10   6  10  1   
 11   6  11  1   
 12   6  24  1   
 13   7   9  1   
 14   7  12  1   
 15   9  13  1   
 16  10  14  ar  
 17  10  15  ar  
 18  11  16  1   
 19  11  25  1   
 20  11  26  1   
 21  12  27  1   
 22  12  28  1   
 23  12  29  1   
 24  13  30  1   
 25  13  31  1   
 26  13  32  1   
 27  14  17  ar  
 28  14  33  1   
 29  15  18  ar  
 30  15  34  1   
 31  16  19  2   
 32  16  20  1   
 33  17  21  ar  
 34  18  21  ar  
 35  18  35  1   
 36  20  22  1   
 37  21  36  1   
 38  22  37  1   
 39  22  38  1   
 40  22  39  1   
@<TRIPOS>SUBSTRUCTURE
  1 ****   3 GROUP 4 **** **** 0

# MOE 2024.06 (io_trps.svl 2023.06)
