@<TRIPOS>MOLECULE
NONAME
47 49 1 0 0 
SMALL
USER_CHARGES


@<TRIPOS>ATOM
  1 S        1.2780    -0.3800    -0.7780 S.o2  1 <1>   1.3330 
  2 O        2.3130    -1.0320    -0.0070 O.2   1 <1>  -0.6500 
  3 O        1.2470    -0.5450    -2.2140 O.2   1 <1>  -0.6500 
  4 N       -0.2250    -0.9090    -0.1870 N.am  1 <1>  -0.8490 
  5 C        1.2750     1.3790    -0.3960 C.3   1 <1>  -0.0550 
  6 C       -0.1980    -2.3210     0.2110 C.3   1 <1>   0.1160 
  7 C       -1.3330    -0.6840    -1.1230 C.3   1 <1>   0.1160 
  8 C        1.6430     1.7940     1.0460 C.3   1 <1>  -0.0800 
  9 C        3.1110     1.5400     1.3980 C.3   1 <1>   0.2200 
 10 C        0.8720     1.1150     2.1820 C.3   1 <1>   0.1200 
 11 N        3.8060     2.8340     1.5660 N.am  1 <1>  -0.7300 
 12 C        3.0310     0.7780     2.7210 C.3   1 <1>   0.1200 
 13 O        1.7720     1.0660     3.2380 O.3   1 <1>  -0.5600 
 14 C        4.3960     3.5550     0.5700 C.2   1 <1>   0.7150 
 15 O        4.3500     3.1080    -0.5640 O.2   1 <1>  -0.5700 
 16 C        5.0310     4.8170     0.8750 C.2   1 <1>   0.1020 
 17 N        5.0740     5.3730     2.0590 N.2   1 <1>  -0.3380 
 18 N        5.6730     5.5980    -0.0140 N.pl3 1 <1>   0.0480 
 19 N        5.7480     6.5090     1.9530 N.2   1 <1>  -0.3380 
 20 C        6.0980     6.6220     0.7180 C.2   1 <1>   0.0060 
 21 C        5.9510     5.3980    -1.4590 C.3   1 <1>   0.0960 
 22 C        6.8960     7.7760     0.1360 C.3   1 <1>   0.0200 
 23 C        6.4910     6.6840    -2.1110 C.3   1 <1>  -0.1600 
 24 C        7.5230     7.3890    -1.2140 C.3   1 <1>  -0.1600 
 25 H        1.9740     1.8620    -1.0520 H     1 <1>   0.0800 
 26 H        0.3080     1.7790    -0.6300 H     1 <1>   0.0800 
 27 H       -1.1610    -2.6220     0.5870 H     1 <1>   0.0800 
 28 H        0.5280    -2.4710     0.9930 H     1 <1>   0.0800 
 29 H        0.0660    -2.9420    -0.6290 H     1 <1>   0.0800 
 30 H       -2.2680    -0.9500    -0.6600 H     1 <1>   0.0800 
 31 H       -1.2030    -1.2790    -2.0130 H     1 <1>   0.0800 
 32 H       -1.3780     0.3530    -1.4070 H     1 <1>   0.0800 
 33 H        1.4420     2.8480     1.1310 H     1 <1>   0.0800 
 34 H        3.6300     0.9500     0.6620 H     1 <1>   0.0800 
 35 H        0.5950     0.1020     1.9570 H     1 <1>   0.0800 
 36 H        0.0030     1.6740     2.4850 H     1 <1>   0.0800 
 37 H        3.7590     3.2640     2.4950 H     1 <1>   0.3700 
 38 H        3.7890     1.0720     3.4250 H     1 <1>   0.0800 
 39 H        3.0790    -0.2830     2.5450 H     1 <1>   0.0800 
 40 H        6.6760     4.6090    -1.5500 H     1 <1>   0.0800 
 41 H        5.0480     5.0900    -1.9570 H     1 <1>   0.0800 
 42 H        6.2310     8.6100     0.0010 H     1 <1>   0.0800 
 43 H        7.6630     8.0710     0.8310 H     1 <1>   0.0800 
 44 H        6.9360     6.4400    -3.0600 H     1 <1>   0.0800 
 45 H        5.6680     7.3520    -2.3030 H     1 <1>   0.0800 
 46 H        7.8970     8.2720    -1.7030 H     1 <1>   0.0800 
 47 H        8.3550     6.7280    -1.0400 H     1 <1>   0.0800 
@<TRIPOS>BOND
  1   1   2  2   
  2   1   3  2   
  3   1   4  am  
  4   1   5  1   
  5   4   6  1   
  6   4   7  1   
  7   5   8  1   
  8   5  25  1   
  9   5  26  1   
 10   6  27  1   
 11   6  28  1   
 12   6  29  1   
 13   7  30  1   
 14   7  31  1   
 15   7  32  1   
 16   8   9  1   
 17   8  10  1   
 18   8  33  1   
 19   9  11  1   
 20   9  12  1   
 21   9  34  1   
 22  10  13  1   
 23  10  35  1   
 24  10  36  1   
 25  11  14  am  
 26  11  37  1   
 27  12  13  1   
 28  12  38  1   
 29  12  39  1   
 30  14  15  2   
 31  14  16  1   
 32  16  17  2   
 33  16  18  1   
 34  17  19  1   
 35  18  20  1   
 36  18  21  1   
 37  19  20  2   
 38  20  22  1   
 39  21  23  1   
 40  21  40  1   
 41  21  41  1   
 42  22  24  1   
 43  22  42  1   
 44  22  43  1   
 45  23  24  1   
 46  23  44  1   
 47  23  45  1   
 48  24  46  1   
 49  24  47  1   
@<TRIPOS>SUBSTRUCTURE
  1 ****  14 GROUP 4 **** **** 0

# MOE 2024.06 (io_trps.svl 2023.06)
