@<TRIPOS>MOLECULE
NONAME
45 47 1 0 0 
SMALL
USER_CHARGES


@<TRIPOS>ATOM
  1 O       -3.5100    -0.6740     1.0670 O.2   1 <1>  -0.5700 
  2 C       -3.2740     0.2270     0.2630 C.2   1 <1>   0.6160 
  3 N       -3.0640     1.5210     0.7490 N.am  1 <1>  -0.4690 
  4 C       -3.2300    -0.0120    -1.1530 C.2   1 <1>   0.0290 
  5 C       -2.8830     2.5760    -0.1250 C.2   1 <1>  -0.0290 
  6 C       -3.0670     1.7560     2.2280 C.3   1 <1>   0.0600 
  7 C       -3.3950    -1.3440    -1.6810 C.2   1 <1>   0.6160 
  8 C       -3.0380     1.0620    -1.9860 C.2   1 <1>  -0.1500 
  9 C       -2.8700     2.3570    -1.4680 C.2   1 <1>  -0.1500 
 10 C       -2.7050     3.9890     0.4160 C.3   1 <1>  -0.1020 
 11 O       -3.7700    -1.5070    -2.8280 O.2   1 <1>  -0.5700 
 12 N       -3.1400    -2.4620    -0.9430 N.am  1 <1>  -0.7300 
 13 C       -3.4700    -3.8540    -1.3230 C.3   1 <1>   0.2200 
 14 C       -4.7100    -4.3380    -0.5850 C.3   1 <1>  -0.0800 
 15 C       -2.4150    -4.7940    -0.7540 C.3   1 <1>   0.1200 
 16 C       -4.1450    -4.7780     0.7670 C.3   1 <1>   0.1200 
 17 C       -5.8720    -3.3310    -0.4810 C.3   1 <1>  -0.0170 
 18 O       -2.7830    -5.0310     0.5730 O.3   1 <1>  -0.5600 
 19 C       -7.0600    -3.9440     0.2420 C.ar  1 <1>  -0.1430 
 20 C       -7.9500    -4.7830    -0.3970 C.ar  1 <1>  -0.1500 
 21 C       -7.3090    -3.6930     1.5770 C.ar  1 <1>  -0.1500 
 22 C       -9.0130    -5.3200     0.3110 C.ar  1 <1>   0.1600 
 23 C       -8.4020    -4.2820     2.1910 C.ar  1 <1>   0.1600 
 24 N       -9.2590    -5.0910     1.5900 N.ar  1 <1>  -0.6200 
 25 H       -3.9850     2.2390     2.5120 H     1 <1>   0.0800 
 26 H       -2.2350     2.3760     2.5060 H     1 <1>   0.0800 
 27 H       -2.9800     0.8340     2.7760 H     1 <1>   0.0800 
 28 H       -3.0130     0.9310    -3.0560 H     1 <1>   0.1500 
 29 H       -2.7310     3.1640    -2.1670 H     1 <1>   0.1500 
 30 H       -1.8030     4.0540     0.9970 H     1 <1>   0.0800 
 31 H       -3.5450     4.2620     1.0290 H     1 <1>   0.0800 
 32 H       -2.6350     4.6990    -0.3880 H     1 <1>   0.0800 
 33 H       -2.9790    -2.3290     0.0660 H     1 <1>   0.3700 
 34 H       -3.5580    -3.9460    -2.3930 H     1 <1>   0.0800 
 35 H       -5.0710    -5.2190    -1.0850 H     1 <1>   0.0800 
 36 H       -1.4250    -4.3750    -0.7860 H     1 <1>   0.0800 
 37 H       -2.4320    -5.7370    -1.2700 H     1 <1>   0.0800 
 38 H       -4.6220    -5.6700     1.1350 H     1 <1>   0.0800 
 39 H       -4.2240    -3.9930     1.4990 H     1 <1>   0.0800 
 40 H       -6.1710    -3.0260    -1.4690 H     1 <1>   0.0800 
 41 H       -5.5610    -2.4480     0.0480 H     1 <1>   0.0800 
 42 H       -7.8270    -5.0230    -1.4370 H     1 <1>   0.1500 
 43 H       -6.6640    -3.0460     2.1430 H     1 <1>   0.1500 
 44 H       -9.6970    -5.9720    -0.2040 H     1 <1>   0.1500 
 45 H       -8.5800    -4.0750     3.2320 H     1 <1>   0.1500 
@<TRIPOS>BOND
  1   1   2  2   
  2   2   3  am  
  3   2   4  1   
  4   3   5  1   
  5   3   6  1   
  6   4   7  1   
  7   4   8  2   
  8   5   9  2   
  9   5  10  1   
 10   6  25  1   
 11   6  26  1   
 12   6  27  1   
 13   7  11  2   
 14   7  12  am  
 15   8   9  1   
 16   8  28  1   
 17   9  29  1   
 18  10  30  1   
 19  10  31  1   
 20  10  32  1   
 21  12  13  1   
 22  12  33  1   
 23  13  14  1   
 24  13  15  1   
 25  13  34  1   
 26  14  16  1   
 27  14  17  1   
 28  14  35  1   
 29  15  18  1   
 30  15  36  1   
 31  15  37  1   
 32  16  18  1   
 33  16  38  1   
 34  16  39  1   
 35  17  19  1   
 36  17  40  1   
 37  17  41  1   
 38  19  20  ar  
 39  19  21  ar  
 40  20  22  ar  
 41  20  42  1   
 42  21  23  ar  
 43  21  43  1   
 44  22  24  ar  
 45  22  44  1   
 46  23  24  ar  
 47  23  45  1   
@<TRIPOS>SUBSTRUCTURE
  1 ****  12 GROUP 4 **** **** 0

# MOE 2024.06 (io_trps.svl 2023.06)
