@<TRIPOS>MOLECULE
NONAME
63 67 1 0 0 
SMALL
USER_CHARGES


@<TRIPOS>ATOM
  1 O       -0.6320     0.4700    -0.2150 O.2   1 <1>  -0.5700 
  2 C       -1.7030     0.9190    -0.5550 C.2   1 <1>   0.5690 
  3 N       -2.7880     0.0860    -0.6960 N.am  1 <1>  -0.6600 
  4 C       -1.7580     2.4370    -0.8240 C.3   1 <1>   0.0610 
  5 C       -2.7520    -1.3180    -0.1700 C.3   1 <1>   0.1400 
  6 C       -4.0720     0.3580    -1.4230 C.3   1 <1>   0.1400 
  7 C       -0.6570     3.1760    -0.0160 C.3   1 <1>   0.4230 
  8 C       -3.0200     3.1790    -0.2880 C.3   1 <1>  -0.1600 
  9 C       -1.5980     2.7070    -2.3530 C.3   1 <1>  -0.1600 
 10 C       -3.9600    -1.6010     0.7410 C.3   1 <1>   0.2090 
 11 C       -5.2900     0.0920    -0.5220 C.3   1 <1>   0.2090 
 12 N       -1.1740     4.5490    -0.0820 N.4   1 <1>  -0.9590 
 13 C       -0.7390     2.9230     1.5090 C.3   1 <1>  -0.1600 
 14 C       -2.4500     4.3030     0.5880 C.3   1 <1>   0.4230 
 15 C       -0.2490     2.2650    -2.9420 C.3   1 <1>  -0.2400 
 16 N       -5.2510    -1.2810     0.0620 N.pl3 1 <1>  -0.8380 
 17 C       -0.3580     5.6790     0.4310 C.3   1 <1>   0.5230 
 18 C       -2.0010     3.6950     1.9200 C.3   1 <1>  -0.1600 
 19 C       -6.3830    -1.7010     0.7300 C.ar  1 <1>   0.4100 
 20 C       -0.8820     6.9410    -0.2410 C.2   1 <1>   0.0070 
 21 N       -7.0020    -0.8080     1.4940 N.ar  1 <1>  -0.6200 
 22 C       -6.8100    -3.0180     0.5900 C.ar  1 <1>  -0.1500 
 23 N       -1.6870     6.9150    -1.2630 N.2   1 <1>  -0.5650 
 24 N       -0.5520     8.1950     0.1590 N.pl3 1 <1>   0.0480 
 25 C       -8.0750    -1.2450     2.1330 C.ar  1 <1>   0.1600 
 26 C       -7.9270    -3.4580     1.2610 C.ar  1 <1>  -0.1500 
 27 C       -1.8940     8.2140    -1.5430 C.2   1 <1>   0.0770 
 28 C       -1.2120     9.0040    -0.6880 C.2   1 <1>  -0.3020 
 29 C        0.3300     8.6410     1.2570 C.3   1 <1>   0.0160 
 30 C       -8.5730    -2.5330     2.0550 C.ar  1 <1>  -0.1500 
 31 H       -2.7660    -2.0060    -0.9960 H     1 <1>   0.0800 
 32 H       -1.8500    -1.4950     0.3890 H     1 <1>   0.0800 
 33 H       -4.1170     1.3640    -1.7890 H     1 <1>   0.0800 
 34 H       -4.1330    -0.2970    -2.2750 H     1 <1>   0.0800 
 35 H        0.3310     3.0480    -0.4260 H     1 <1>   0.0800 
 36 H       -3.6570     2.5410     0.2980 H     1 <1>   0.0800 
 37 H       -3.6080     3.6030    -1.0820 H     1 <1>   0.0800 
 38 H       -2.3700     2.1830    -2.8870 H     1 <1>   0.0800 
 39 H       -1.7300     3.7520    -2.5760 H     1 <1>   0.0800 
 40 H       -3.8770    -1.0110     1.6370 H     1 <1>   0.0800 
 41 H       -3.9530    -2.6380     1.0260 H     1 <1>   0.0800 
 42 H       -6.1940     0.2010    -1.0970 H     1 <1>   0.0800 
 43 H       -5.3160     0.8160     0.2730 H     1 <1>   0.0800 
 44 H       -1.3940     4.8360    -1.0500 H     1 <1>   0.4500 
 45 H       -0.8100     1.8830     1.7720 H     1 <1>   0.0800 
 46 H        0.1330     3.3220     1.9950 H     1 <1>   0.0800 
 47 H       -3.0870     5.1710     0.6720 H     1 <1>   0.0800 
 48 H       -0.0820     1.2130    -2.7830 H     1 <1>   0.0800 
 49 H        0.5720     2.8130    -2.5170 H     1 <1>   0.0800 
 50 H       -0.2440     2.4390    -4.0050 H     1 <1>   0.0800 
 51 H       -0.4350     5.7550     1.5010 H     1 <1>   0.0800 
 52 H        0.6740     5.5400     0.1570 H     1 <1>   0.0800 
 53 H       -1.7780     4.4640     2.6390 H     1 <1>   0.0800 
 54 H       -2.7540     3.0490     2.3390 H     1 <1>   0.0800 
 55 H       -6.2540    -3.6740    -0.0510 H     1 <1>   0.1500 
 56 H       -8.5890    -0.5330     2.7560 H     1 <1>   0.1500 
 57 H       -8.2810    -4.4700     1.1700 H     1 <1>   0.1500 
 58 H       -2.5300     8.5230    -2.3580 H     1 <1>   0.1500 
 59 H       -1.1650    10.0780    -0.6450 H     1 <1>   0.1500 
 60 H        0.3680     9.7160     1.2710 H     1 <1>   0.0800 
 61 H        1.3230     8.2590     1.1010 H     1 <1>   0.0800 
 62 H       -0.0560     8.2910     2.1970 H     1 <1>   0.0800 
 63 H       -9.4540    -2.8080     2.6080 H     1 <1>   0.1500 
@<TRIPOS>BOND
  1   1   2  2   
  2   2   3  am  
  3   2   4  1   
  4   3   5  1   
  5   3   6  1   
  6   4   7  1   
  7   4   8  1   
  8   4   9  1   
  9   5  10  1   
 10   5  31  1   
 11   5  32  1   
 12   6  11  1   
 13   6  33  1   
 14   6  34  1   
 15   7  12  1   
 16   7  13  1   
 17   7  35  1   
 18   8  14  1   
 19   8  36  1   
 20   8  37  1   
 21   9  15  1   
 22   9  38  1   
 23   9  39  1   
 24  10  16  1   
 25  10  40  1   
 26  10  41  1   
 27  11  16  1   
 28  11  42  1   
 29  11  43  1   
 30  12  14  1   
 31  12  17  1   
 32  12  44  1   
 33  13  18  1   
 34  13  45  1   
 35  13  46  1   
 36  14  18  1   
 37  14  47  1   
 38  15  48  1   
 39  15  49  1   
 40  15  50  1   
 41  16  19  1   
 42  17  20  1   
 43  17  51  1   
 44  17  52  1   
 45  18  53  1   
 46  18  54  1   
 47  19  21  ar  
 48  19  22  ar  
 49  20  23  2   
 50  20  24  1   
 51  21  25  ar  
 52  22  26  ar  
 53  22  55  1   
 54  23  27  1   
 55  24  28  1   
 56  24  29  1   
 57  25  30  ar  
 58  25  56  1   
 59  26  30  ar  
 60  26  57  1   
 61  27  28  2   
 62  27  58  1   
 63  28  59  1   
 64  29  60  1   
 65  29  61  1   
 66  29  62  1   
 67  30  63  1   
@<TRIPOS>SUBSTRUCTURE
  1 ****   8 GROUP 4 **** **** 0

# MOE 2024.06 (io_trps.svl 2023.06)
