@<TRIPOS>MOLECULE
NONAME
32 33 1 0 0 
SMALL
USER_CHARGES


@<TRIPOS>ATOM
  1 O       -8.4410     1.3560    -2.3820 O.3   1 <1>  -0.6800 
  2 C       -9.2710     1.4530    -1.2720 C.3   1 <1>   0.2640 
  3 C       -9.0830     0.2420    -0.3580 C.ar  1 <1>  -0.1430 
  4 C       -7.8680    -0.1140     0.2400 C.ar  1 <1>  -0.1430 
  5 C      -10.2090    -0.5350    -0.1190 C.ar  1 <1>  -0.1500 
  6 C       -7.8230    -1.2470     1.0450 C.ar  1 <1>  -0.1500 
  7 C       -6.5850     0.6870     0.0030 C.3   1 <1>   0.0630 
  8 C      -10.1510    -1.6500     0.6930 C.ar  1 <1>  -0.1500 
  9 C       -8.9530    -2.0080     1.2760 C.ar  1 <1>  -0.1500 
 10 C       -5.6800    -0.0650    -0.9800 C.3   1 <1>  -0.1600 
 11 C       -5.8160     1.0200     1.2920 C.3   1 <1>  -0.1600 
 12 C       -4.4070     0.7240    -1.2670 C.3   1 <1>   0.3430 
 13 C       -4.5400     1.7980     0.9730 C.3   1 <1>   0.3430 
 14 N       -3.7050     1.0190     0.0140 N.4   1 <1>  -0.9060 
 15 H       -8.8250     1.8550    -3.1290 H     1 <1>   0.4000 
 16 H      -10.2860     1.5050    -1.6260 H     1 <1>   0.0800 
 17 H       -9.0410     2.3660    -0.7500 H     1 <1>   0.0800 
 18 H      -11.1530    -0.2790    -0.5680 H     1 <1>   0.1500 
 19 H       -6.9070    -1.5670     1.5040 H     1 <1>   0.1500 
 20 H       -6.8350     1.6320    -0.4420 H     1 <1>   0.0800 
 21 H      -11.0340    -2.2400     0.8680 H     1 <1>   0.1500 
 22 H       -8.9020    -2.8800     1.9050 H     1 <1>   0.1500 
 23 H       -6.2150    -0.2140    -1.9030 H     1 <1>   0.0800 
 24 H       -5.4320    -1.0380    -0.5950 H     1 <1>   0.0800 
 25 H       -5.5540     0.1300     1.8340 H     1 <1>   0.0800 
 26 H       -6.4440     1.6140     1.9320 H     1 <1>   0.0800 
 27 H       -4.6650     1.6460    -1.7650 H     1 <1>   0.0800 
 28 H       -3.7670     0.1530    -1.9210 H     1 <1>   0.0800 
 29 H       -3.9900     1.9800     1.8830 H     1 <1>   0.0800 
 30 H       -4.8010     2.7500     0.5380 H     1 <1>   0.0800 
 31 H       -2.8320     1.5260    -0.1790 H     1 <1>   0.4500 
 32 H       -3.4430     0.1280     0.4540 H     1 <1>   0.4500 
@<TRIPOS>BOND
  1   1   2  1   
  2   1  15  1   
  3   2   3  1   
  4   2  16  1   
  5   2  17  1   
  6   3   4  ar  
  7   3   5  ar  
  8   4   6  ar  
  9   4   7  1   
 10   5   8  ar  
 11   5  18  1   
 12   6   9  ar  
 13   6  19  1   
 14   7  10  1   
 15   7  11  1   
 16   7  20  1   
 17   8   9  ar  
 18   8  21  1   
 19   9  22  1   
 20  10  12  1   
 21  10  23  1   
 22  10  24  1   
 23  11  13  1   
 24  11  25  1   
 25  11  26  1   
 26  12  14  1   
 27  12  27  1   
 28  12  28  1   
 29  13  14  1   
 30  13  29  1   
 31  13  30  1   
 32  14  31  1   
 33  14  32  1   
@<TRIPOS>SUBSTRUCTURE
  1 ****   4 GROUP 4 **** **** 0

# MOE 2024.06 (io_trps.svl 2023.06)
