@<TRIPOS>MOLECULE
NONAME
63 65 1 0 0 
SMALL
USER_CHARGES


@<TRIPOS>ATOM
  1 O       -1.2850    -0.0080    -2.5440 O.2   1 <1>  -0.5700 
  2 C       -1.6310     1.0420    -2.0360 C.2   1 <1>   0.5440 
  3 N       -2.8550     1.0610    -1.3830 N.am  1 <1>  -0.6600 
  4 C       -0.7460     2.2020    -2.1130 C.ar  1 <1>   0.3960 
  5 C       -3.4100    -0.1790    -0.7660 C.3   1 <1>   0.1400 
  6 C       -3.5040     2.3050    -0.8730 C.3   1 <1>   0.1400 
  7 N       -0.5850     2.9850    -1.0320 N.ar  1 <1>  -0.6200 
  8 C       -0.0910     2.4620    -3.3180 C.ar  1 <1>   0.1600 
  9 C       -3.2420    -0.1070     0.7650 C.3   1 <1>   0.3430 
 10 C       -3.3070     2.3950     0.6520 C.3   1 <1>   0.3430 
 11 C        0.2050     4.0240    -1.2430 C.ar  1 <1>   0.4100 
 12 N        0.7110     3.4930    -3.5460 N.ar  1 <1>  -0.6200 
 13 N       -3.8240     1.1590     1.3570 N.4   1 <1>  -0.9590 
 14 N        0.3620     4.8670    -0.1580 N.pl3 1 <1>  -0.8380 
 15 C        0.8330     4.2560    -2.4790 C.ar  1 <1>   0.1600 
 16 C       -3.5440     1.2380     2.8220 C.3   1 <1>   0.2630 
 17 C        0.4440     6.3540    -0.3030 C.3   1 <1>   0.2090 
 18 C        1.0580     4.3620     1.0650 C.3   1 <1>   0.2090 
 19 C        1.8870     6.8760    -0.1460 C.3   1 <1>   0.1100 
 20 C        2.4910     4.9200     1.1680 C.3   1 <1>   0.1100 
 21 N        2.5250     6.3960     1.0990 N.3   1 <1>  -0.8100 
 22 C        3.9150     6.9080     1.2980 C.3   1 <1>   0.1710 
 23 C        4.0890     8.4340     1.3130 C.2   1 <1>   0.5690 
 24 O        4.1220     9.0080     2.3760 O.2   1 <1>  -0.5700 
 25 N        4.2400     9.0810     0.1190 N.am  1 <1>  -0.7300 
 26 C        4.3890    10.5160    -0.1360 C.3   1 <1>   0.3000 
 27 C        4.4770    10.6800    -1.6520 C.3   1 <1>  -0.2400 
 28 C        5.6760    11.0250     0.5100 C.3   1 <1>  -0.2400 
 29 C        3.1630    11.2640     0.3890 C.3   1 <1>  -0.2400 
 30 H       -2.9000    -1.0520    -1.1370 H     1 <1>   0.0800 
 31 H       -4.4490    -0.2770    -1.0250 H     1 <1>   0.0800 
 32 H       -4.5540     2.2830    -1.1060 H     1 <1>   0.0800 
 33 H       -3.0920     3.1780    -1.3480 H     1 <1>   0.0800 
 34 H       -0.2470     1.7770    -4.1350 H     1 <1>   0.1500 
 35 H       -2.1880    -0.1540     0.9860 H     1 <1>   0.0800 
 36 H       -3.7100    -0.9690     1.2110 H     1 <1>   0.0800 
 37 H       -3.8140     3.2710     1.0240 H     1 <1>   0.0800 
 38 H       -2.2540     2.5170     0.8490 H     1 <1>   0.0800 
 39 H       -4.8430     1.1270     1.2140 H     1 <1>   0.4500 
 40 H        1.4670     5.1160    -2.5650 H     1 <1>   0.1500 
 41 H       -2.4810     1.2740     2.9970 H     1 <1>   0.0800 
 42 H       -3.9490     0.3760     3.3280 H     1 <1>   0.0800 
 43 H       -3.9920     2.1240     3.2420 H     1 <1>   0.0800 
 44 H       -0.1680     6.8090     0.4570 H     1 <1>   0.0800 
 45 H        0.0500     6.6550    -1.2590 H     1 <1>   0.0800 
 46 H        1.0960     3.2870     1.0490 H     1 <1>   0.0800 
 47 H        0.5030     4.6640     1.9350 H     1 <1>   0.0800 
 48 H        1.8460     7.9510    -0.1350 H     1 <1>   0.0800 
 49 H        2.4710     6.5690    -0.9950 H     1 <1>   0.0800 
 50 H        3.0860     4.5020     0.3740 H     1 <1>   0.0800 
 51 H        2.9150     4.6000     2.1050 H     1 <1>   0.0800 
 52 H        4.5550     6.5040     0.5350 H     1 <1>   0.0800 
 53 H        4.2750     6.5460     2.2450 H     1 <1>   0.0800 
 54 H        4.2350     8.5250    -0.7320 H     1 <1>   0.3700 
 55 H        5.3280    10.1510    -2.0430 H     1 <1>   0.0800 
 56 H        4.5880    11.7200    -1.9030 H     1 <1>   0.0800 
 57 H        3.5820    10.3170    -2.1260 H     1 <1>   0.0800 
 58 H        6.5230    10.4610     0.1640 H     1 <1>   0.0800 
 59 H        5.6190    10.9470     1.5810 H     1 <1>   0.0800 
 60 H        5.8310    12.0600     0.2630 H     1 <1>   0.0800 
 61 H        2.2630    10.8630    -0.0370 H     1 <1>   0.0800 
 62 H        3.2280    12.3060     0.1340 H     1 <1>   0.0800 
 63 H        3.1050    11.1910     1.4600 H     1 <1>   0.0800 
@<TRIPOS>BOND
  1   1   2  2   
  2   2   3  am  
  3   2   4  1   
  4   3   5  1   
  5   3   6  1   
  6   4   7  ar  
  7   4   8  ar  
  8   5   9  1   
  9   5  30  1   
 10   5  31  1   
 11   6  10  1   
 12   6  32  1   
 13   6  33  1   
 14   7  11  ar  
 15   8  12  ar  
 16   8  34  1   
 17   9  13  1   
 18   9  35  1   
 19   9  36  1   
 20  10  13  1   
 21  10  37  1   
 22  10  38  1   
 23  11  14  1   
 24  11  15  ar  
 25  12  15  ar  
 26  13  16  1   
 27  13  39  1   
 28  14  17  1   
 29  14  18  1   
 30  15  40  1   
 31  16  41  1   
 32  16  42  1   
 33  16  43  1   
 34  17  19  1   
 35  17  44  1   
 36  17  45  1   
 37  18  20  1   
 38  18  46  1   
 39  18  47  1   
 40  19  21  1   
 41  19  48  1   
 42  19  49  1   
 43  20  21  1   
 44  20  50  1   
 45  20  51  1   
 46  21  22  1   
 47  22  23  1   
 48  22  52  1   
 49  22  53  1   
 50  23  24  2   
 51  23  25  am  
 52  25  26  1   
 53  25  54  1   
 54  26  27  1   
 55  26  28  1   
 56  26  29  1   
 57  27  55  1   
 58  27  56  1   
 59  27  57  1   
 60  28  58  1   
 61  28  59  1   
 62  28  60  1   
 63  29  61  1   
 64  29  62  1   
 65  29  63  1   
@<TRIPOS>SUBSTRUCTURE
  1 ****  14 GROUP 4 **** **** 0

# MOE 2024.06 (io_trps.svl 2023.06)
