@<TRIPOS>MOLECULE
NONAME
59 63 1 0 0 
SMALL
USER_CHARGES


@<TRIPOS>ATOM
  1 O       -0.2840     0.5620     0.3850 O.2   1 <1>  -0.5700 
  2 C        0.0840     1.6870     0.0990 C.2   1 <1>   0.6900 
  3 N       -0.8130     2.7240     0.0500 N.am  1 <1>  -0.6600 
  4 N        1.3900     1.9430    -0.1640 N.am  1 <1>  -0.7300 
  5 C       -2.2040     2.5650     0.5760 C.3   1 <1>   0.1400 
  6 C       -0.5880     4.0070    -0.6680 C.3   1 <1>   0.1400 
  7 C        2.5320     1.0160    -0.1790 C.3   1 <1>   0.3000 
  8 C       -3.2470     2.6590    -0.5660 C.3   1 <1>   0.0000 
  9 C       -1.5900     4.1390    -1.8210 C.3   1 <1>  -0.1600 
 10 C        2.7560     0.3960     1.2140 C.3   1 <1>  -0.1600 
 11 C        2.3280    -0.0990    -1.2230 C.3   1 <1>  -0.1600 
 12 C        3.7800     1.8320    -0.5650 C.3   1 <1>  -0.1600 
 13 C       -4.6820     2.5390    -0.0230 C.3   1 <1>   0.2000 
 14 C       -3.0430     3.9790    -1.3410 C.3   1 <1>  -0.1600 
 15 C       -3.1600     1.4230    -1.4800 C.3   1 <1>  -0.1600 
 16 C        3.9910    -0.5270     1.1870 C.3   1 <1>  -0.0800 
 17 C        3.5610    -1.0220    -1.2570 C.3   1 <1>  -0.0800 
 18 C        5.0260     0.9250    -0.6000 C.3   1 <1>  -0.0800 
 19 O       -4.8400     3.2480     1.1710 O.3   1 <1>  -0.5600 
 20 C       -4.9250     1.0390     0.1780 C.3   1 <1>  -0.1600 
 21 C       -3.9380     0.3220    -0.7530 C.3   1 <1>  -0.1600 
 22 C        3.7680    -1.6380     0.1420 C.3   1 <1>  -0.1600 
 23 C        5.2310     0.2970     0.7920 C.3   1 <1>  -0.1600 
 24 C        4.8040    -0.1950    -1.6340 C.3   1 <1>  -0.1600 
 25 C       -6.1600     3.4380     1.5700 C.3   1 <1>   0.0400 
 26 H        1.6500     2.9200    -0.1750 H     1 <1>   0.3700 
 27 H       -2.3070     1.6310     1.0980 H     1 <1>   0.0800 
 28 H       -2.3820     3.3490     1.2910 H     1 <1>   0.0800 
 29 H       -0.7220     4.8190     0.0260 H     1 <1>   0.0800 
 30 H        0.4100     4.0620    -1.0630 H     1 <1>   0.0800 
 31 H       -1.4700     5.1030    -2.2830 H     1 <1>   0.0800 
 32 H       -1.3650     3.3930    -2.5620 H     1 <1>   0.0800 
 33 H        2.8970     1.1730     1.9430 H     1 <1>   0.0800 
 34 H        1.8960    -0.1810     1.5010 H     1 <1>   0.0800 
 35 H        1.4610    -0.6840    -0.9720 H     1 <1>   0.0800 
 36 H        2.1680     0.3350    -2.1930 H     1 <1>   0.0800 
 37 H        3.6380     2.2760    -1.5340 H     1 <1>   0.0800 
 38 H        3.9370     2.6190     0.1510 H     1 <1>   0.0800 
 39 H       -5.3690     2.9260    -0.7560 H     1 <1>   0.0800 
 40 H       -3.7090     4.0240    -2.1840 H     1 <1>   0.0800 
 41 H       -3.2870     4.8010    -0.6890 H     1 <1>   0.0800 
 42 H       -3.6450     1.6300    -2.4180 H     1 <1>   0.0800 
 43 H       -2.1460     1.1220    -1.6800 H     1 <1>   0.0800 
 44 H        4.1370    -0.9660     2.1590 H     1 <1>   0.0800 
 45 H        3.4090    -1.8050    -1.9800 H     1 <1>   0.0800 
 46 H        5.8930     1.5040    -0.8700 H     1 <1>   0.0800 
 47 H       -4.7190     0.7610     1.1980 H     1 <1>   0.0800 
 48 H       -5.9390     0.7840    -0.0700 H     1 <1>   0.0800 
 49 H       -3.2540    -0.2710    -0.1680 H     1 <1>   0.0800 
 50 H       -4.4420    -0.3210    -1.4530 H     1 <1>   0.0800 
 51 H        2.9050    -2.2220     0.4120 H     1 <1>   0.0800 
 52 H        4.6170    -2.2990     0.1260 H     1 <1>   0.0800 
 53 H        6.1000    -0.3380     0.7800 H     1 <1>   0.0800 
 54 H        5.4020     1.0700     1.5210 H     1 <1>   0.0800 
 55 H        4.6740     0.2320    -2.6130 H     1 <1>   0.0800 
 56 H        5.6690    -0.8340    -1.6700 H     1 <1>   0.0800 
 57 H       -6.1530     4.0100     2.4810 H     1 <1>   0.0800 
 58 H       -6.6230     2.4830     1.7490 H     1 <1>   0.0800 
 59 H       -6.6880     3.9810     0.8060 H     1 <1>   0.0800 
@<TRIPOS>BOND
  1   1   2  2   
  2   2   3  am  
  3   2   4  am  
  4   3   5  1   
  5   3   6  1   
  6   4   7  1   
  7   4  26  1   
  8   5   8  1   
  9   5  27  1   
 10   5  28  1   
 11   6   9  1   
 12   6  29  1   
 13   6  30  1   
 14   7  10  1   
 15   7  11  1   
 16   7  12  1   
 17   8  13  1   
 18   8  14  1   
 19   8  15  1   
 20   9  14  1   
 21   9  31  1   
 22   9  32  1   
 23  10  16  1   
 24  10  33  1   
 25  10  34  1   
 26  11  17  1   
 27  11  35  1   
 28  11  36  1   
 29  12  18  1   
 30  12  37  1   
 31  12  38  1   
 32  13  19  1   
 33  13  20  1   
 34  13  39  1   
 35  14  40  1   
 36  14  41  1   
 37  15  21  1   
 38  15  42  1   
 39  15  43  1   
 40  16  22  1   
 41  16  23  1   
 42  16  44  1   
 43  17  22  1   
 44  17  24  1   
 45  17  45  1   
 46  18  23  1   
 47  18  24  1   
 48  18  46  1   
 49  19  25  1   
 50  20  21  1   
 51  20  47  1   
 52  20  48  1   
 53  21  49  1   
 54  21  50  1   
 55  22  51  1   
 56  22  52  1   
 57  23  53  1   
 58  23  54  1   
 59  24  55  1   
 60  24  56  1   
 61  25  57  1   
 62  25  58  1   
 63  25  59  1   
@<TRIPOS>SUBSTRUCTURE
  1 ****   2 GROUP 4 **** **** 0

# MOE 2024.06 (io_trps.svl 2023.06)
