@<TRIPOS>MOLECULE
NONAME
47 50 1 0 0 
SMALL
USER_CHARGES


@<TRIPOS>ATOM
  1 S        0.9300     0.3840    -0.8550 S.3   1 <1>  -0.0800 
  2 C       -0.0470    -1.0410    -0.9590 C.2   1 <1>  -0.1400 
  3 C       -0.5490     1.2870    -0.5080 C.2   1 <1>   0.1980 
  4 C       -1.3080    -0.7320    -0.7390 C.2   1 <1>   0.0460 
  5 C        0.2470    -2.4800    -1.2380 C.3   1 <1>   0.0200 
  6 N       -1.6180     0.5870    -0.4790 N.2   1 <1>  -0.5650 
  7 C       -0.4130     2.7740    -0.2730 C.3   1 <1>   0.0200 
  8 C       -2.1940    -1.9400    -0.8220 C.3   1 <1>   0.0210 
  9 C       -1.1830    -3.0850    -1.1400 C.3   1 <1>  -0.1600 
 10 C        0.0430     3.0310     1.1600 C.3   1 <1>   0.2090 
 11 N        0.1120     4.4940     1.4210 N.pl3 1 <1>  -0.8690 
 12 C        1.2340     5.2530     1.2130 C.ar  1 <1>   0.4100 
 13 N        2.2210     4.7120     0.5110 N.ar  1 <1>  -0.6200 
 14 C        1.3000     6.5440     1.7320 C.ar  1 <1>  -0.1500 
 15 C        3.2910     5.4660     0.3270 C.ar  1 <1>   0.1600 
 16 C        2.4180     7.3150     1.5250 C.ar  1 <1>  -0.1500 
 17 C        3.4630     6.7700     0.7830 C.ar  1 <1>   0.0860 
 18 C        4.6830     7.4880     0.4960 C.2   1 <1>   0.5440 
 19 O        5.7440     6.8950     0.5460 O.2   1 <1>  -0.5700 
 20 N        4.6880     8.8240     0.1510 N.am  1 <1>  -0.6600 
 21 C        5.9440     9.6360     0.1610 C.3   1 <1>   0.1400 
 22 C        3.5600     9.5040    -0.5550 C.3   1 <1>   0.1400 
 23 C        6.2640    10.1550    -1.2500 C.3   1 <1>   0.1200 
 24 C        4.0210    10.0450    -1.9210 C.3   1 <1>   0.1200 
 25 O        5.1650    10.8390    -1.7820 O.3   1 <1>  -0.5600 
 26 H        0.9060    -2.8870    -0.4920 H     1 <1>   0.0800 
 27 H        0.6650    -2.6000    -2.2220 H     1 <1>   0.0800 
 28 H       -1.3670     3.2400    -0.4350 H     1 <1>   0.0800 
 29 H        0.2990     3.1850    -0.9650 H     1 <1>   0.0800 
 30 H       -2.9150    -1.8160    -1.6100 H     1 <1>   0.0800 
 31 H       -2.6930    -2.0990     0.1170 H     1 <1>   0.0800 
 32 H       -1.2130    -3.8240    -0.3590 H     1 <1>   0.0800 
 33 H       -1.4460    -3.5570    -2.0700 H     1 <1>   0.0800 
 34 H        1.0090     2.5830     1.3210 H     1 <1>   0.0800 
 35 H       -0.6530     2.5790     1.8460 H     1 <1>   0.0800 
 36 H       -0.6040     4.8560     2.0520 H     1 <1>   0.4000 
 37 H        0.4700     6.9230     2.2950 H     1 <1>   0.1500 
 38 H        4.1010     5.0250    -0.2290 H     1 <1>   0.1500 
 39 H        2.4960     8.3110     1.9250 H     1 <1>   0.1500 
 40 H        6.7730     9.0540     0.5240 H     1 <1>   0.0800 
 41 H        5.8180    10.4740     0.8240 H     1 <1>   0.0800 
 42 H        3.2070    10.3230     0.0470 H     1 <1>   0.0800 
 43 H        2.7430     8.8240    -0.7120 H     1 <1>   0.0800 
 44 H        6.5160     9.3370    -1.9030 H     1 <1>   0.0800 
 45 H        7.0930    10.8390    -1.2150 H     1 <1>   0.0800 
 46 H        3.2500    10.6540    -2.3590 H     1 <1>   0.0800 
 47 H        4.2440     9.2350    -2.5930 H     1 <1>   0.0800 
@<TRIPOS>BOND
  1   1   2  1   
  2   1   3  1   
  3   2   4  2   
  4   2   5  1   
  5   3   6  2   
  6   3   7  1   
  7   4   6  1   
  8   4   8  1   
  9   5   9  1   
 10   5  26  1   
 11   5  27  1   
 12   7  10  1   
 13   7  28  1   
 14   7  29  1   
 15   8   9  1   
 16   8  30  1   
 17   8  31  1   
 18   9  32  1   
 19   9  33  1   
 20  10  11  1   
 21  10  34  1   
 22  10  35  1   
 23  11  12  1   
 24  11  36  1   
 25  12  13  ar  
 26  12  14  ar  
 27  13  15  ar  
 28  14  16  ar  
 29  14  37  1   
 30  15  17  ar  
 31  15  38  1   
 32  16  17  ar  
 33  16  39  1   
 34  17  18  1   
 35  18  19  2   
 36  18  20  am  
 37  20  21  1   
 38  20  22  1   
 39  21  23  1   
 40  21  40  1   
 41  21  41  1   
 42  22  24  1   
 43  22  42  1   
 44  22  43  1   
 45  23  25  1   
 46  23  44  1   
 47  23  45  1   
 48  24  25  1   
 49  24  46  1   
 50  24  47  1   
@<TRIPOS>SUBSTRUCTURE
  1 ****  13 GROUP 4 **** **** 0

# MOE 2024.06 (io_trps.svl 2023.06)
