@<TRIPOS>MOLECULE
NONAME
64 65 1 0 0 
SMALL
USER_CHARGES


@<TRIPOS>ATOM
  1 O       -0.2870     1.4600     1.0330 O.2   1 <1>  -0.5700 
  2 C        0.1190     1.8530    -0.0600 C.2   1 <1>   0.5690 
  3 N       -0.6310     1.6440    -1.1790 N.am  1 <1>  -0.7300 
  4 C        1.5160     2.5190    -0.1940 C.3   1 <1>   0.2810 
  5 C       -2.0560     1.2360    -1.2120 C.3   1 <1>   0.1400 
  6 N        2.5680     1.4970    -0.1850 N.am  1 <1>  -0.7300 
  7 C        1.7850     3.6040     0.8860 C.3   1 <1>  -0.0800 
  8 C       -2.1780    -0.2900    -1.2720 C.3   1 <1>  -0.1600 
  9 C        3.6580     1.4970    -0.9610 C.2   1 <1>   0.5690 
 10 C        0.6480     4.6420     0.9650 C.3   1 <1>  -0.2400 
 11 C        3.1080     4.3640     0.6750 C.3   1 <1>  -0.2400 
 12 C       -1.9000    -0.9250     0.0910 C.3   1 <1>   0.3430 
 13 O        3.8680     2.4020    -1.7610 O.2   1 <1>  -0.5700 
 14 C        4.6450     0.2990    -0.8300 C.3   1 <1>   0.2810 
 15 N       -1.6720    -2.3890    -0.0720 N.4   1 <1>  -0.9590 
 16 N        4.0260    -0.8800    -0.2070 N.am  1 <1>  -0.7300 
 17 C        5.8670     0.6700     0.0140 C.3   1 <1>  -0.2400 
 18 C       -0.3100    -2.8060     0.3860 C.3   1 <1>   0.3430 
 19 C       -2.7410    -3.1790     0.5990 C.3   1 <1>   0.4860 
 20 C        3.1610    -1.6670    -0.8910 C.2   1 <1>   0.5690 
 21 C        0.7570    -2.1350    -0.4800 C.3   1 <1>  -0.1600 
 22 C       -2.5930    -4.6340     0.2010 C.ar  1 <1>  -0.1430 
 23 O        3.0620    -1.6150    -2.0890 O.2   1 <1>  -0.5700 
 24 C        2.1970    -2.5570    -0.1300 C.3   1 <1>  -0.0990 
 25 C       -2.1160    -5.5630     1.1160 C.ar  1 <1>  -0.1500 
 26 C       -2.9280    -5.0480    -1.0810 C.ar  1 <1>  -0.1500 
 27 C       -1.9650    -6.8880     0.7490 C.ar  1 <1>  -0.1500 
 28 C       -2.7750    -6.3740    -1.4460 C.ar  1 <1>  -0.1500 
 29 C       -2.2920    -7.2940    -0.5320 C.ar  1 <1>  -0.1500 
 30 H       -0.2300     1.9060    -2.0860 H     1 <1>   0.3700 
 31 H        1.5300     3.0240    -1.1610 H     1 <1>   0.0800 
 32 H       -2.5640     1.6230    -0.3430 H     1 <1>   0.0800 
 33 H       -2.5150     1.6720    -2.0840 H     1 <1>   0.0800 
 34 H        2.4610     0.7310     0.4540 H     1 <1>   0.3700 
 35 H        1.8390     3.1030     1.8540 H     1 <1>   0.0800 
 36 H       -1.4960    -0.6580    -2.0190 H     1 <1>   0.0800 
 37 H       -3.1810    -0.5400    -1.5700 H     1 <1>   0.0800 
 38 H        0.5310     5.1480     0.0060 H     1 <1>   0.0800 
 39 H        0.8780     5.3870     1.7290 H     1 <1>   0.0800 
 40 H       -0.2930     4.1660     1.2410 H     1 <1>   0.0800 
 41 H        3.1240     4.8250    -0.3140 H     1 <1>   0.0800 
 42 H        3.9540     3.6830     0.7580 H     1 <1>   0.0800 
 43 H        3.2240     5.1390     1.4330 H     1 <1>   0.0800 
 44 H       -2.7210    -0.7310     0.7620 H     1 <1>   0.0800 
 45 H       -1.0220    -0.4800     0.5220 H     1 <1>   0.0800 
 46 H        4.9830     0.0440    -1.8370 H     1 <1>   0.0800 
 47 H       -1.7270    -2.6220    -1.0700 H     1 <1>   0.4500 
 48 H        4.2220    -1.0510     0.7640 H     1 <1>   0.3700 
 49 H        5.5580     0.9480     1.0220 H     1 <1>   0.0800 
 50 H        6.3740     1.5190    -0.4460 H     1 <1>   0.0800 
 51 H        6.5570    -0.1730     0.0570 H     1 <1>   0.0800 
 52 H       -0.1680    -2.5350     1.4200 H     1 <1>   0.0800 
 53 H       -0.2080    -3.8760     0.2980 H     1 <1>   0.0800 
 54 H       -2.6650    -3.0780     1.6700 H     1 <1>   0.0800 
 55 H       -3.7120    -2.8270     0.2910 H     1 <1>   0.0800 
 56 H        0.5780    -2.3760    -1.5150 H     1 <1>   0.0800 
 57 H        0.7020    -1.0680    -0.3710 H     1 <1>   0.0800 
 58 H        2.3700    -3.5790    -0.4160 H     1 <1>   0.0800 
 59 H        2.3730    -2.4590     0.9260 H     1 <1>   0.0800 
 60 H       -1.8610    -5.2720     2.1210 H     1 <1>   0.1500 
 61 H       -3.3140    -4.3550    -1.8080 H     1 <1>   0.1500 
 62 H       -1.5960    -7.6090     1.4590 H     1 <1>   0.1500 
 63 H       -3.0350    -6.6970    -2.4400 H     1 <1>   0.1500 
 64 H       -2.1760    -8.3260    -0.8170 H     1 <1>   0.1500 
@<TRIPOS>BOND
  1   1   2  2   
  2   2   3  am  
  3   2   4  1   
  4   3   5  1   
  5   3  30  1   
  6   4   6  1   
  7   4   7  1   
  8   4  31  1   
  9   5   8  1   
 10   5  32  1   
 11   5  33  1   
 12   6   9  am  
 13   6  34  1   
 14   7  10  1   
 15   7  11  1   
 16   7  35  1   
 17   8  12  1   
 18   8  36  1   
 19   8  37  1   
 20   9  13  2   
 21   9  14  1   
 22  10  38  1   
 23  10  39  1   
 24  10  40  1   
 25  11  41  1   
 26  11  42  1   
 27  11  43  1   
 28  12  15  1   
 29  12  44  1   
 30  12  45  1   
 31  14  16  1   
 32  14  17  1   
 33  14  46  1   
 34  15  18  1   
 35  15  19  1   
 36  15  47  1   
 37  16  20  am  
 38  16  48  1   
 39  17  49  1   
 40  17  50  1   
 41  17  51  1   
 42  18  21  1   
 43  18  52  1   
 44  18  53  1   
 45  19  22  1   
 46  19  54  1   
 47  19  55  1   
 48  20  23  2   
 49  20  24  1   
 50  21  24  1   
 51  21  56  1   
 52  21  57  1   
 53  22  25  ar  
 54  22  26  ar  
 55  24  58  1   
 56  24  59  1   
 57  25  27  ar  
 58  25  60  1   
 59  26  28  ar  
 60  26  61  1   
 61  27  29  ar  
 62  27  62  1   
 63  28  29  ar  
 64  28  63  1   
 65  29  64  1   
@<TRIPOS>SUBSTRUCTURE
  1 ****  21 GROUP 4 **** **** 0

# MOE 2024.06 (io_trps.svl 2023.06)
