@<TRIPOS>MOLECULE
NONAME
50 52 1 0 0 
SMALL
USER_CHARGES


@<TRIPOS>ATOM
  1 CL      -0.8700    -0.8350    -1.4090 Cl    1 <1>  -0.1770 
  2 C       -1.7370     0.2380    -0.3260 C.ar  1 <1>   0.1770 
  3 C       -1.5450     1.6060    -0.4260 C.ar  1 <1>   0.1900 
  4 C       -2.6050    -0.2690     0.6330 C.ar  1 <1>  -0.1440 
  5 F       -0.7300     2.0870    -1.3300 F     1 <1>  -0.1900 
  6 C       -2.1930     2.4950     0.4100 C.ar  1 <1>  -0.1500 
  7 C       -3.2560     0.6230     1.4810 C.ar  1 <1>  -0.1500 
  8 C       -2.8500    -1.7660     0.7710 C.3   1 <1>   0.2540 
  9 C       -3.0540     1.9920     1.3720 C.ar  1 <1>  -0.1500 
 10 N       -3.7590    -2.2660    -0.2800 N.3   1 <1>  -0.8100 
 11 C       -3.9220    -3.7460    -0.2040 C.3   1 <1>   0.3330 
 12 C       -5.0670    -1.5870    -0.2660 C.3   1 <1>   0.1100 
 13 C       -2.5600    -4.3940    -0.4690 C.ar  1 <1>  -0.1430 
 14 C       -4.9930    -4.2800    -1.2070 C.3   1 <1>   0.2000 
 15 C       -5.9770    -2.1480    -1.3630 C.3   1 <1>   0.1200 
 16 C       -2.0110    -5.2710     0.4560 C.ar  1 <1>  -0.1500 
 17 C       -1.8540    -4.1120    -1.6310 C.ar  1 <1>  -0.1500 
 18 O       -6.1710    -3.5130    -1.1580 O.3   1 <1>  -0.5600 
 19 C       -5.4490    -5.7320    -0.9580 C.3   1 <1>   0.1200 
 20 C       -0.7850    -5.8690     0.2240 C.ar  1 <1>   0.0830 
 21 C       -0.6210    -4.6960    -1.8670 C.ar  1 <1>  -0.1500 
 22 O       -4.3970    -6.6390    -0.8820 O.3   1 <1>  -0.6800 
 23 O       -0.3290    -6.7440     1.1520 O.3   1 <1>  -0.3630 
 24 C       -0.0730    -5.5660    -0.9410 C.ar  1 <1>   0.0830 
 25 C       -0.3250    -8.0990     0.7630 C.3   1 <1>   0.0400 
 26 O        1.1480    -6.0880    -1.2130 O.3   1 <1>  -0.3630 
 27 C        2.1990    -5.6910    -0.3600 C.3   1 <1>   0.0400 
 28 H       -2.0240     3.5520     0.3100 H     1 <1>   0.1500 
 29 H       -3.9300     0.2520     2.2340 H     1 <1>   0.1500 
 30 H       -3.2660    -1.9820     1.7400 H     1 <1>   0.0800 
 31 H       -1.9000    -2.2680     0.7070 H     1 <1>   0.0800 
 32 H       -3.5680     2.6660     2.0360 H     1 <1>   0.1500 
 33 H       -4.2500    -4.0080     0.7870 H     1 <1>   0.0800 
 34 H       -5.5440    -1.7090     0.6910 H     1 <1>   0.0800 
 35 H       -4.9330    -0.5350    -0.4490 H     1 <1>   0.0800 
 36 H       -4.6090    -4.2060    -2.2080 H     1 <1>   0.0800 
 37 H       -5.5420    -1.9960    -2.3360 H     1 <1>   0.0800 
 38 H       -6.9400    -1.6710    -1.3300 H     1 <1>   0.0800 
 39 H       -2.5370    -5.5140     1.3620 H     1 <1>   0.1500 
 40 H       -2.2590    -3.4190    -2.3490 H     1 <1>   0.1500 
 41 H       -6.0920    -6.0470    -1.7610 H     1 <1>   0.0800 
 42 H       -5.9920    -5.7940    -0.0310 H     1 <1>   0.0800 
 43 H       -0.0750    -4.4680    -2.7640 H     1 <1>   0.1500 
 44 H       -3.6750    -6.4010    -1.5000 H     1 <1>   0.4000 
 45 H       -0.0090    -8.6900     1.6040 H     1 <1>   0.0800 
 46 H        0.3580    -8.2310    -0.0570 H     1 <1>   0.0800 
 47 H       -1.3210    -8.3780     0.4690 H     1 <1>   0.0800 
 48 H        3.1200    -6.0740    -0.7610 H     1 <1>   0.0800 
 49 H        2.0310    -6.0940     0.6220 H     1 <1>   0.0800 
 50 H        2.2290    -4.6170    -0.3240 H     1 <1>   0.0800 
@<TRIPOS>BOND
  1   1   2  1   
  2   2   3  ar  
  3   2   4  ar  
  4   3   5  1   
  5   3   6  ar  
  6   4   7  ar  
  7   4   8  1   
  8   6   9  ar  
  9   6  28  1   
 10   7   9  ar  
 11   7  29  1   
 12   8  10  1   
 13   8  30  1   
 14   8  31  1   
 15   9  32  1   
 16  10  11  1   
 17  10  12  1   
 18  11  13  1   
 19  11  14  1   
 20  11  33  1   
 21  12  15  1   
 22  12  34  1   
 23  12  35  1   
 24  13  16  ar  
 25  13  17  ar  
 26  14  18  1   
 27  14  19  1   
 28  14  36  1   
 29  15  18  1   
 30  15  37  1   
 31  15  38  1   
 32  16  20  ar  
 33  16  39  1   
 34  17  21  ar  
 35  17  40  1   
 36  19  22  1   
 37  19  41  1   
 38  19  42  1   
 39  20  23  1   
 40  20  24  ar  
 41  21  24  ar  
 42  21  43  1   
 43  22  44  1   
 44  23  25  1   
 45  24  26  1   
 46  25  45  1   
 47  25  46  1   
 48  25  47  1   
 49  26  27  1   
 50  27  48  1   
 51  27  49  1   
 52  27  50  1   
@<TRIPOS>SUBSTRUCTURE
  1 ****  13 GROUP 4 **** **** 0

# MOE 2024.06 (io_trps.svl 2023.06)
