@<TRIPOS>MOLECULE
NONAME
48 50 1 0 0 
SMALL
USER_CHARGES


@<TRIPOS>ATOM
  1 O       -0.0450     0.8080    -0.6120 O.2   1 <1>  -0.5700 
  2 C       -0.1990     1.9230    -0.1660 C.2   1 <1>   0.5690 
  3 N       -1.4530     2.3770     0.1730 N.am  1 <1>  -0.6600 
  4 C        1.0420     2.8110    -0.0010 C.3   1 <1>  -0.0190 
  5 C       -1.7710     3.7750     0.5960 C.3   1 <1>   0.1400 
  6 C       -2.6110     1.4370     0.0870 C.3   1 <1>   0.1400 
  7 C        1.3250     3.6240    -1.2760 C.3   1 <1>  -0.1600 
  8 C        2.3110     2.0180     0.3660 C.3   1 <1>  -0.1600 
  9 C       -3.1340     4.1800     0.0350 C.3   1 <1>  -0.1600 
 10 C       -3.7600     1.9050     0.9810 C.3   1 <1>  -0.1600 
 11 C        2.6010     4.4580    -1.1170 C.3   1 <1>   0.1200 
 12 C        3.5300     2.9430     0.4310 C.3   1 <1>   0.1200 
 13 C       -4.2860     3.3070     0.5960 C.3   1 <1>   0.2800 
 14 O        3.6650     3.6240    -0.7790 O.3   1 <1>  -0.5600 
 15 O       -4.7400     3.8560     1.8050 O.3   1 <1>  -0.5600 
 16 C       -5.4700     3.1750    -0.3920 C.3   1 <1>  -0.1600 
 17 C       -5.4910     5.0390     1.8030 C.3   1 <1>   0.1200 
 18 C       -6.3640     4.4130    -0.4850 C.3   1 <1>   0.2800 
 19 C       -6.7290     4.8890     0.9180 C.3   1 <1>  -0.1600 
 20 O       -5.6710     5.4150    -1.1170 O.3   1 <1>  -0.6800 
 21 C       -7.6070     4.1530    -1.3330 C.3   1 <1>  -0.2400 
 22 H        0.8660     3.4920     0.8100 H     1 <1>   0.0800 
 23 H       -1.0300     4.4600     0.2300 H     1 <1>   0.0800 
 24 H       -1.7880     3.8280     1.6720 H     1 <1>   0.0800 
 25 H       -2.2970     0.4530     0.3960 H     1 <1>   0.0800 
 26 H       -2.9380     1.3760    -0.9370 H     1 <1>   0.0800 
 27 H        0.4980     4.2720    -1.5000 H     1 <1>   0.0800 
 28 H        1.4500     2.9550    -2.1110 H     1 <1>   0.0800 
 29 H        2.4990     1.2570    -0.3720 H     1 <1>   0.0800 
 30 H        2.1750     1.5280     1.3130 H     1 <1>   0.0800 
 31 H       -3.0830     4.0660    -1.0340 H     1 <1>   0.0800 
 32 H       -3.2890     5.2210     0.2310 H     1 <1>   0.0800 
 33 H       -3.3940     1.9200     1.9930 H     1 <1>   0.0800 
 34 H       -4.5480     1.1760     0.9470 H     1 <1>   0.0800 
 35 H        2.4910     5.2030    -0.3470 H     1 <1>   0.0800 
 36 H        2.8500     4.9450    -2.0440 H     1 <1>   0.0800 
 37 H        4.4280     2.3710     0.5860 H     1 <1>   0.0800 
 38 H        3.4340     3.6670     1.2230 H     1 <1>   0.0800 
 39 H       -6.0950     2.3660    -0.0580 H     1 <1>   0.0800 
 40 H       -5.1150     2.9030    -1.3690 H     1 <1>   0.0800 
 41 H       -4.8740     5.8570     1.4790 H     1 <1>   0.0800 
 42 H       -5.7890     5.2300     2.8200 H     1 <1>   0.0800 
 43 H       -7.2600     5.8220     0.8650 H     1 <1>   0.0800 
 44 H       -7.3840     4.1720     1.3800 H     1 <1>   0.0800 
 45 H       -4.8510     5.5910    -0.6260 H     1 <1>   0.4000 
 46 H       -8.2060     3.3780    -0.8910 H     1 <1>   0.0800 
 47 H       -7.3240     3.8410    -2.3230 H     1 <1>   0.0800 
 48 H       -8.2030     5.0450    -1.4040 H     1 <1>   0.0800 
@<TRIPOS>BOND
  1   1   2  2   
  2   2   3  am  
  3   2   4  1   
  4   3   5  1   
  5   3   6  1   
  6   4   7  1   
  7   4   8  1   
  8   4  22  1   
  9   5   9  1   
 10   5  23  1   
 11   5  24  1   
 12   6  10  1   
 13   6  25  1   
 14   6  26  1   
 15   7  11  1   
 16   7  27  1   
 17   7  28  1   
 18   8  12  1   
 19   8  29  1   
 20   8  30  1   
 21   9  13  1   
 22   9  31  1   
 23   9  32  1   
 24  10  13  1   
 25  10  33  1   
 26  10  34  1   
 27  11  14  1   
 28  11  35  1   
 29  11  36  1   
 30  12  14  1   
 31  12  37  1   
 32  12  38  1   
 33  13  15  1   
 34  13  16  1   
 35  15  17  1   
 36  16  18  1   
 37  16  39  1   
 38  16  40  1   
 39  17  19  1   
 40  17  41  1   
 41  17  42  1   
 42  18  19  1   
 43  18  20  1   
 44  18  21  1   
 45  19  43  1   
 46  19  44  1   
 47  20  45  1   
 48  21  46  1   
 49  21  47  1   
 50  21  48  1   
@<TRIPOS>SUBSTRUCTURE
  1 ****   5 GROUP 4 **** **** 0

# MOE 2024.06 (io_trps.svl 2023.06)
