@<TRIPOS>MOLECULE
NONAME
50 52 1 0 0 
SMALL
USER_CHARGES


@<TRIPOS>ATOM
  1 S       -0.1740    -0.1300     2.1680 S.o2  1 <1>   1.4470 
  2 O        0.1370     1.0660     2.9230 O.2   1 <1>  -0.6500 
  3 O       -0.8970    -1.2030     2.8150 O.2   1 <1>  -0.6500 
  4 N       -1.1020     0.3630     0.8390 N.am  1 <1>  -0.8490 
  5 C        1.3270    -0.7970     1.3980 C.ar  1 <1>  -0.0090 
  6 C       -2.4940     0.6310     1.2350 C.3   1 <1>   0.1960 
  7 C       -0.5300     1.5330     0.1670 C.3   1 <1>   0.1960 
  8 C        2.5910    -0.3620     1.7780 C.ar  1 <1>  -0.1500 
  9 C        1.2490    -1.7620     0.4030 C.ar  1 <1>  -0.1500 
 10 C       -3.3980     0.9070     0.0060 C.3   1 <1>   0.0000 
 11 C       -1.3220     1.8540    -1.1050 C.3   1 <1>  -0.1600 
 12 C        3.7330    -0.8670     1.1820 C.ar  1 <1>  -0.1500 
 13 C        2.3870    -2.2710    -0.1970 C.ar  1 <1>  -0.1500 
 14 C       -4.8620     1.1750     0.4070 C.3   1 <1>   0.2000 
 15 C       -2.8090     2.0840    -0.7980 C.3   1 <1>  -0.1600 
 16 C       -3.5400    -0.3660    -0.8470 C.3   1 <1>  -0.1600 
 17 C        3.6440    -1.8270     0.1870 C.ar  1 <1>  -0.1430 
 18 O       -4.9820     1.8980     1.5820 O.3   1 <1>  -0.6800 
 19 C       -5.5400    -0.1890     0.5540 C.3   1 <1>  -0.1600 
 20 C       -4.6350    -1.1940    -0.1690 C.3   1 <1>  -0.1600 
 21 C        4.9130    -2.3760    -0.4610 C.3   1 <1>   0.0630 
 22 C        4.9390    -2.0650    -1.9610 C.3   1 <1>  -0.2400 
 23 C        5.0440    -3.8830    -0.2160 C.3   1 <1>  -0.2400 
 24 H       -2.8860    -0.2160     1.7720 H     1 <1>   0.0800 
 25 H       -2.5090     1.4790     1.9000 H     1 <1>   0.0800 
 26 H       -0.5460     2.3840     0.8290 H     1 <1>   0.0800 
 27 H        0.4950     1.3360    -0.1010 H     1 <1>   0.0800 
 28 H        2.6830     0.3840     2.5510 H     1 <1>   0.1500 
 29 H        0.2800    -2.1180     0.0940 H     1 <1>   0.1500 
 30 H       -0.9100     2.7360    -1.5640 H     1 <1>   0.0800 
 31 H       -1.2080     1.0410    -1.8000 H     1 <1>   0.0800 
 32 H        4.6960    -0.5060     1.5020 H     1 <1>   0.1500 
 33 H        2.2880    -3.0180    -0.9650 H     1 <1>   0.1500 
 34 H       -5.3530     1.7350    -0.3720 H     1 <1>   0.0800 
 35 H       -3.3540     2.2250    -1.7160 H     1 <1>   0.0800 
 36 H       -2.9100     2.9850    -0.2170 H     1 <1>   0.0800 
 37 H       -3.8710    -0.1040    -1.8370 H     1 <1>   0.0800 
 38 H       -2.6200    -0.9190    -0.9320 H     1 <1>   0.0800 
 39 H       -4.7810     1.3300     2.3490 H     1 <1>   0.4000 
 40 H       -5.6470    -0.4730     1.5870 H     1 <1>   0.0800 
 41 H       -6.5120    -0.1600     0.0930 H     1 <1>   0.0800 
 42 H       -4.1880    -1.8600     0.5510 H     1 <1>   0.0800 
 43 H       -5.1820    -1.7810    -0.8860 H     1 <1>   0.0800 
 44 H        5.7660    -1.8960    -0.0120 H     1 <1>   0.0800 
 45 H        4.1340    -2.5620    -2.4700 H     1 <1>   0.0800 
 46 H        5.8700    -2.3880    -2.3920 H     1 <1>   0.0800 
 47 H        4.8400    -1.0050    -2.1150 H     1 <1>   0.0800 
 48 H        4.2410    -4.4200    -0.6880 H     1 <1>   0.0800 
 49 H        5.0160    -4.0840     0.8400 H     1 <1>   0.0800 
 50 H        5.9770    -4.2440    -0.6080 H     1 <1>   0.0800 
@<TRIPOS>BOND
  1   1   2  2   
  2   1   3  2   
  3   1   4  am  
  4   1   5  1   
  5   4   6  1   
  6   4   7  1   
  7   5   8  ar  
  8   5   9  ar  
  9   6  10  1   
 10   6  24  1   
 11   6  25  1   
 12   7  11  1   
 13   7  26  1   
 14   7  27  1   
 15   8  12  ar  
 16   8  28  1   
 17   9  13  ar  
 18   9  29  1   
 19  10  14  1   
 20  10  15  1   
 21  10  16  1   
 22  11  15  1   
 23  11  30  1   
 24  11  31  1   
 25  12  17  ar  
 26  12  32  1   
 27  13  17  ar  
 28  13  33  1   
 29  14  18  1   
 30  14  19  1   
 31  14  34  1   
 32  15  35  1   
 33  15  36  1   
 34  16  20  1   
 35  16  37  1   
 36  16  38  1   
 37  17  21  1   
 38  18  39  1   
 39  19  20  1   
 40  19  40  1   
 41  19  41  1   
 42  20  42  1   
 43  20  43  1   
 44  21  22  1   
 45  21  23  1   
 46  21  44  1   
 47  22  45  1   
 48  22  46  1   
 49  22  47  1   
 50  23  48  1   
 51  23  49  1   
 52  23  50  1   
@<TRIPOS>SUBSTRUCTURE
  1 ****   4 GROUP 4 **** **** 0

# MOE 2024.06 (io_trps.svl 2023.06)
