@<TRIPOS>MOLECULE
NONAME
45 48 1 0 0 
SMALL
USER_CHARGES


@<TRIPOS>ATOM
  1 O       -2.3240     0.0770     3.0110 O.2   1 <1>  -0.5700 
  2 C       -2.5730     0.7010     1.9980 C.2   1 <1>   0.5440 
  3 N       -3.6350     0.3010     1.2190 N.am  1 <1>  -0.6600 
  4 C       -1.7710     1.8490     1.6460 C.ar  1 <1>   0.0860 
  5 C       -4.0280     0.9370    -0.0680 C.3   1 <1>   0.1400 
  6 C       -4.1700    -1.0810     1.2830 C.3   1 <1>   0.1400 
  7 C       -0.8040     1.7830     0.6410 C.ar  1 <1>   0.0830 
  8 C       -1.9470     3.0630     2.3110 C.ar  1 <1>  -0.1500 
  9 C       -4.9240    -0.0930    -0.7630 C.3   1 <1>   0.2000 
 10 C       -4.4860    -1.4370    -0.1740 C.3   1 <1>  -0.0800 
 11 O       -0.6200     0.6180    -0.0350 O.3   1 <1>  -0.3630 
 12 C       -0.0340     2.9070     0.3290 C.ar  1 <1>   0.0830 
 13 C       -1.1970     4.1790     1.9880 C.ar  1 <1>  -0.1500 
 14 O       -6.2380     0.1380    -0.3910 O.3   1 <1>  -0.6800 
 15 C       -3.2480    -1.9690    -0.9270 C.3   1 <1>  -0.0170 
 16 C        0.1960     0.6290    -1.1920 C.3   1 <1>   0.1200 
 17 O        0.9330     2.8540    -0.6210 O.3   1 <1>  -0.3630 
 18 C       -0.2380     4.1010     0.9930 C.ar  1 <1>  -0.1500 
 19 C       -2.6820    -3.2340    -0.3020 C.ar  1 <1>  -0.1430 
 20 C        1.3900     1.5700    -0.9940 C.3   1 <1>   0.1200 
 21 C       -1.6190    -3.1910     0.5780 C.ar  1 <1>  -0.1500 
 22 C       -3.1940    -4.4840    -0.5800 C.ar  1 <1>  -0.1500 
 23 C       -1.1340    -4.3680     1.1230 C.ar  1 <1>   0.1600 
 24 C       -2.6330    -5.6010     0.0170 C.ar  1 <1>   0.1600 
 25 N       -1.6140    -5.5730     0.8610 N.ar  1 <1>  -0.6200 
 26 H       -4.5420     1.8690     0.0950 H     1 <1>   0.0800 
 27 H       -3.1510     1.1120    -0.6650 H     1 <1>   0.0800 
 28 H       -3.4690    -1.7570     1.7400 H     1 <1>   0.0800 
 29 H       -5.0700    -1.0770     1.8730 H     1 <1>   0.0800 
 30 H       -2.6840     3.1200     3.0940 H     1 <1>   0.1500 
 31 H       -4.8670    -0.0480    -1.8380 H     1 <1>   0.0800 
 32 H       -5.2720    -2.1700    -0.2320 H     1 <1>   0.0800 
 33 H       -1.3530     5.1070     2.5120 H     1 <1>   0.1500 
 34 H       -6.2830     0.2310     0.5820 H     1 <1>   0.4000 
 35 H       -2.4750    -1.2220    -0.9450 H     1 <1>   0.0800 
 36 H       -3.5160    -2.1760    -1.9480 H     1 <1>   0.0800 
 37 H        0.5280    -0.3770    -1.3740 H     1 <1>   0.0800 
 38 H       -0.4040     0.9600    -2.0220 H     1 <1>   0.0800 
 39 H        0.3560     4.9600     0.7350 H     1 <1>   0.1500 
 40 H        1.9570     1.6680    -1.9020 H     1 <1>   0.0800 
 41 H        2.0330     1.2020    -0.2130 H     1 <1>   0.0800 
 42 H       -1.1680    -2.2520     0.8520 H     1 <1>   0.1500 
 43 H       -4.0230    -4.6010    -1.2540 H     1 <1>   0.1500 
 44 H       -0.3090    -4.3120     1.8130 H     1 <1>   0.1500 
 45 H       -3.0440    -6.5690    -0.2120 H     1 <1>   0.1500 
@<TRIPOS>BOND
  1   1   2  2   
  2   2   3  am  
  3   2   4  1   
  4   3   5  1   
  5   3   6  1   
  6   4   7  ar  
  7   4   8  ar  
  8   5   9  1   
  9   5  26  1   
 10   5  27  1   
 11   6  10  1   
 12   6  28  1   
 13   6  29  1   
 14   7  11  1   
 15   7  12  ar  
 16   8  13  ar  
 17   8  30  1   
 18   9  10  1   
 19   9  14  1   
 20   9  31  1   
 21  10  15  1   
 22  10  32  1   
 23  11  16  1   
 24  12  17  1   
 25  12  18  ar  
 26  13  18  ar  
 27  13  33  1   
 28  14  34  1   
 29  15  19  1   
 30  15  35  1   
 31  15  36  1   
 32  16  20  1   
 33  16  37  1   
 34  16  38  1   
 35  17  20  1   
 36  18  39  1   
 37  19  21  ar  
 38  19  22  ar  
 39  20  40  1   
 40  20  41  1   
 41  21  23  ar  
 42  21  42  1   
 43  22  24  ar  
 44  22  43  1   
 45  23  25  ar  
 46  23  44  1   
 47  24  25  ar  
 48  24  45  1   
@<TRIPOS>SUBSTRUCTURE
  1 ****  11 GROUP 4 **** **** 0

# MOE 2024.06 (io_trps.svl 2023.06)
