@<TRIPOS>MOLECULE
NONAME
27 26 1 0 0 
SMALL
USER_CHARGES


@<TRIPOS>ATOM
  1 O        0.3270    -0.8520    -0.7770 O.3   1 <1>  -0.5600 
  2 C       -0.3760    -1.8900    -0.1670 C.3   1 <1>   0.2800 
  3 C        1.2960    -0.1520    -0.0550 C.3   1 <1>   0.1200 
  4 C       -1.3350    -2.3980    -1.2420 C.3   1 <1>  -0.2400 
  5 C        0.5810    -3.0150     0.2390 C.3   1 <1>  -0.2400 
  6 C       -1.1780    -1.3630     1.0270 C.3   1 <1>  -0.2400 
  7 C        1.8910     0.9030    -0.9880 C.3   1 <1>  -0.1600 
  8 C        2.9010     1.8240    -0.2860 C.3   1 <1>  -0.1600 
  9 C        4.1510     1.0780     0.1980 C.3   1 <1>  -0.2400 
 10 H        2.0590    -0.8360     0.2690 H     1 <1>   0.0800 
 11 H        0.8340     0.3240     0.7910 H     1 <1>   0.0800 
 12 H       -0.7820    -2.7470    -2.0960 H     1 <1>   0.0800 
 13 H       -1.9940    -1.6070    -1.5530 H     1 <1>   0.0800 
 14 H       -1.9290    -3.2100    -0.8650 H     1 <1>   0.0800 
 15 H        1.1980    -3.2950    -0.5960 H     1 <1>   0.0800 
 16 H        0.0200    -3.8780     0.5500 H     1 <1>   0.0800 
 17 H        1.2030    -2.7190     1.0620 H     1 <1>   0.0800 
 18 H       -1.7660    -0.5130     0.7320 H     1 <1>   0.0800 
 19 H       -0.5310    -1.0880     1.8390 H     1 <1>   0.0800 
 20 H       -1.8420    -2.1270     1.3870 H     1 <1>   0.0800 
 21 H        1.0870     1.5070    -1.3730 H     1 <1>   0.0800 
 22 H        2.3670     0.4100    -1.8170 H     1 <1>   0.0800 
 23 H        2.4270     2.3120     0.5490 H     1 <1>   0.0800 
 24 H        3.2040     2.5890    -0.9800 H     1 <1>   0.0800 
 25 H        3.9040     0.3680     0.9660 H     1 <1>   0.0800 
 26 H        4.8590     1.7790     0.6030 H     1 <1>   0.0800 
 27 H        4.6180     0.5580    -0.6210 H     1 <1>   0.0800 
@<TRIPOS>BOND
  1   1   2  1   
  2   1   3  1   
  3   2   4  1   
  4   2   5  1   
  5   2   6  1   
  6   3   7  1   
  7   3  10  1   
  8   3  11  1   
  9   4  12  1   
 10   4  13  1   
 11   4  14  1   
 12   5  15  1   
 13   5  16  1   
 14   5  17  1   
 15   6  18  1   
 16   6  19  1   
 17   6  20  1   
 18   7   8  1   
 19   7  21  1   
 20   7  22  1   
 21   8   9  1   
 22   8  23  1   
 23   8  24  1   
 24   9  25  1   
 25   9  26  1   
 26   9  27  1   
@<TRIPOS>SUBSTRUCTURE
  1 ****   3 GROUP 4 **** **** 0

# MOE 2024.06 (io_trps.svl 2023.06)
