@<TRIPOS>MOLECULE
NONAME
47 49 1 0 0 
SMALL
USER_CHARGES


@<TRIPOS>ATOM
  1 O       -0.3830     0.7930    -1.8440 O.co2 1 <1>  -0.9000 
  2 C       -0.8020     0.9820    -0.6960 C.2   1 <1>   0.9060 
  3 O       -1.3910     0.0840    -0.0720 O.co2 1 <1>  -0.9000 
  4 C       -0.6570     2.3500    -0.0310 C.3   1 <1>  -0.1060 
  5 C       -2.0850     2.8140     0.3360 C.3   1 <1>   0.2000 
  6 C       -0.0960     3.3570    -1.0550 C.3   1 <1>   0.2090 
  7 C        0.2730     2.2470     1.2150 C.3   1 <1>  -0.0650 
  8 O       -2.6310     1.9800     1.2930 O.3   1 <1>  -0.6800 
  9 C       -2.1580     4.2500     0.8560 C.3   1 <1>  -0.1600 
 10 N       -0.1950     4.7680    -0.5430 N.pl3 1 <1>  -0.8380 
 11 C        1.6920     1.7390     0.9120 C.3   1 <1>  -0.1950 
 12 C       -1.5610     5.2120    -0.1680 C.3   1 <1>   0.2090 
 13 C        0.8850     5.6180    -0.5220 C.ar  1 <1>   0.7200 
 14 C        2.7770     1.8840     1.9320 C.3   1 <1>  -0.2000 
 15 C        2.8200     2.6900     0.6670 C.3   1 <1>  -0.2000 
 16 N        1.8320     5.4230    -1.4370 N.ar  1 <1>  -0.6200 
 17 N        0.8880     6.5680     0.4140 N.ar  1 <1>  -0.6200 
 18 C        2.8650     6.2250    -1.3860 C.ar  1 <1>   0.1600 
 19 C        1.9360     7.3530     0.4390 C.ar  1 <1>   0.1600 
 20 C        2.9770     7.2270    -0.4510 C.ar  1 <1>  -0.1440 
 21 C        4.1890     8.1430    -0.4020 C.3   1 <1>  -0.0170 
 22 C        5.2760     7.5450     0.4990 C.3   1 <1>  -0.1600 
 23 C        6.5120     8.4480     0.5640 C.3   1 <1>  -0.2400 
 24 H       -2.7060     2.7270    -0.5410 H     1 <1>   0.0800 
 25 H       -0.6580     3.2890    -1.9710 H     1 <1>   0.0800 
 26 H        0.9210     3.0990    -1.2920 H     1 <1>   0.0800 
 27 H        0.3440     3.2040     1.6980 H     1 <1>   0.0800 
 28 H       -0.1680     1.5640     1.9200 H     1 <1>   0.0800 
 29 H       -2.3680     1.0540     1.0120 H     1 <1>   0.4000 
 30 H       -3.1840     4.5140     1.0290 H     1 <1>   0.0800 
 31 H       -1.6220     4.3440     1.7810 H     1 <1>   0.0800 
 32 H        1.6880     0.8170     0.3520 H     1 <1>   0.1000 
 33 H       -1.5470     6.2090     0.2370 H     1 <1>   0.0800 
 34 H       -2.1720     5.2220    -1.0530 H     1 <1>   0.0800 
 35 H        2.5530     2.3860     2.8570 H     1 <1>   0.1000 
 36 H        3.4700     1.0710     2.0580 H     1 <1>   0.1000 
 37 H        3.5210     2.4390    -0.1090 H     1 <1>   0.1000 
 38 H        2.6250     3.7460     0.7200 H     1 <1>   0.1000 
 39 H        3.6450     6.0740    -2.1120 H     1 <1>   0.1500 
 40 H        1.9650     8.1190     1.1940 H     1 <1>   0.1500 
 41 H        4.5770     8.2810    -1.3970 H     1 <1>   0.0800 
 42 H        3.8970     9.1090    -0.0280 H     1 <1>   0.0800 
 43 H        4.8830     7.4080     1.4920 H     1 <1>   0.0800 
 44 H        5.5620     6.5770     0.1220 H     1 <1>   0.0800 
 45 H        6.2540     9.4140     0.9620 H     1 <1>   0.0800 
 46 H        6.9370     8.5780    -0.4160 H     1 <1>   0.0800 
 47 H        7.2560     8.0050     1.2020 H     1 <1>   0.0800 
@<TRIPOS>BOND
  1   1   2  ar  
  2   2   3  ar  
  3   2   4  1   
  4   4   5  1   
  5   4   6  1   
  6   4   7  1   
  7   5   8  1   
  8   5   9  1   
  9   5  24  1   
 10   6  10  1   
 11   6  25  1   
 12   6  26  1   
 13   7  11  1   
 14   7  27  1   
 15   7  28  1   
 16   8  29  1   
 17   9  12  1   
 18   9  30  1   
 19   9  31  1   
 20  10  12  1   
 21  10  13  1   
 22  11  14  1   
 23  11  15  1   
 24  11  32  1   
 25  12  33  1   
 26  12  34  1   
 27  13  16  ar  
 28  13  17  ar  
 29  14  15  1   
 30  14  35  1   
 31  14  36  1   
 32  15  37  1   
 33  15  38  1   
 34  16  18  ar  
 35  17  19  ar  
 36  18  20  ar  
 37  18  39  1   
 38  19  20  ar  
 39  19  40  1   
 40  20  21  1   
 41  21  22  1   
 42  21  41  1   
 43  21  42  1   
 44  22  23  1   
 45  22  43  1   
 46  22  44  1   
 47  23  45  1   
 48  23  46  1   
 49  23  47  1   
@<TRIPOS>SUBSTRUCTURE
  1 ****  10 GROUP 4 **** **** 0

# MOE 2024.06 (io_trps.svl 2023.06)
