@<TRIPOS>MOLECULE
NONAME
39 41 1 0 0 
SMALL
USER_CHARGES


@<TRIPOS>ATOM
  1 F       -0.8840    -0.3100     1.0770 F     1 <1>  -0.1900 
  2 C       -1.1900    -1.5620     0.8420 C.ar  1 <1>   0.1900 
  3 C       -0.2100    -2.5490     0.6890 C.ar  1 <1>   0.0820 
  4 C       -2.5360    -1.8600     0.7590 C.ar  1 <1>  -0.1500 
  5 O        1.1430    -2.3790     0.7480 O.3   1 <1>  -0.3630 
  6 C       -0.6370    -3.8450     0.4510 C.ar  1 <1>  -0.1500 
  7 C       -2.9250    -3.1660     0.5240 C.ar  1 <1>  -0.1500 
  8 C        1.7530    -1.1130     0.8740 C.3   1 <1>   0.0400 
  9 C       -1.9890    -4.1880     0.3620 C.ar  1 <1>   0.0530 
 10 C       -2.3840    -5.5580     0.1320 C.2   1 <1>   0.0870 
 11 O       -1.6470    -6.5210     0.6380 O.3   1 <1>  -0.0190 
 12 C       -3.4220    -6.1560    -0.5130 C.2   1 <1>  -0.2330 
 13 N       -2.1210    -7.7120     0.3880 N.2   1 <1>  -0.4100 
 14 C       -3.1860    -7.5140    -0.3050 C.2   1 <1>   0.3720 
 15 C       -4.5330    -5.6340    -1.2530 C.2   1 <1>   1.0330 
 16 N       -4.0040    -8.5270    -0.7800 N.pl3 1 <1>  -0.8520 
 17 O       -4.5370    -4.4630    -1.6650 O.co2 1 <1>  -0.9000 
 18 O       -5.5360    -6.3390    -1.4810 O.co2 1 <1>  -0.9000 
 19 C       -4.4830    -9.4940     0.2160 C.3   1 <1>   0.2890 
 20 C       -5.0150   -10.7180    -0.5170 C.3   1 <1>  -0.1600 
 21 C       -5.7230    -8.9350     0.9080 C.3   1 <1>  -0.1600 
 22 C       -6.4300   -10.3450    -0.9720 C.3   1 <1>  -0.1600 
 23 C       -6.8990    -9.2290    -0.0300 C.3   1 <1>  -0.1600 
 24 H       -3.2710    -1.0850     0.8730 H     1 <1>   0.1500 
 25 H        0.1040    -4.6140     0.3280 H     1 <1>   0.1500 
 26 H       -3.9740    -3.3980     0.4570 H     1 <1>   0.1500 
 27 H        2.8180    -1.2510     0.8350 H     1 <1>   0.0800 
 28 H        1.4760    -0.6830     1.8200 H     1 <1>   0.0800 
 29 H        1.4350    -0.4890     0.0570 H     1 <1>   0.0800 
 30 H       -4.8320    -8.0550    -1.2040 H     1 <1>   0.4000 
 31 H       -3.6980    -9.7450     0.9100 H     1 <1>   0.0800 
 32 H       -5.0710   -11.5350     0.1790 H     1 <1>   0.0800 
 33 H       -4.3770   -10.9980    -1.3370 H     1 <1>   0.0800 
 34 H       -5.6280    -7.8850     1.1240 H     1 <1>   0.0800 
 35 H       -5.8670    -9.4660     1.8310 H     1 <1>   0.0800 
 36 H       -7.0880   -11.1950    -0.9460 H     1 <1>   0.0800 
 37 H       -6.3910    -9.9610    -1.9780 H     1 <1>   0.0800 
 38 H       -7.1290    -8.3470    -0.6060 H     1 <1>   0.0800 
 39 H       -7.7730    -9.5180     0.5270 H     1 <1>   0.0800 
@<TRIPOS>BOND
  1   1   2  1   
  2   2   3  ar  
  3   2   4  ar  
  4   3   5  1   
  5   3   6  ar  
  6   4   7  ar  
  7   4  24  1   
  8   5   8  1   
  9   6   9  ar  
 10   6  25  1   
 11   7   9  ar  
 12   7  26  1   
 13   8  27  1   
 14   8  28  1   
 15   8  29  1   
 16   9  10  1   
 17  10  11  1   
 18  10  12  2   
 19  11  13  1   
 20  12  14  1   
 21  12  15  1   
 22  13  14  2   
 23  14  16  1   
 24  15  17  ar  
 25  15  18  ar  
 26  16  19  1   
 27  16  30  1   
 28  19  20  1   
 29  19  21  1   
 30  19  31  1   
 31  20  22  1   
 32  20  32  1   
 33  20  33  1   
 34  21  23  1   
 35  21  34  1   
 36  21  35  1   
 37  22  23  1   
 38  22  36  1   
 39  22  37  1   
 40  23  38  1   
 41  23  39  1   
@<TRIPOS>SUBSTRUCTURE
  1 ****  10 GROUP 4 **** **** 0

# MOE 2024.06 (io_trps.svl 2023.06)
