@<TRIPOS>MOLECULE
NONAME
55 58 1 0 0 
SMALL
USER_CHARGES


@<TRIPOS>ATOM
  1 O       -1.7130     0.9490    -0.4760 O.2   1 <1>  -0.5700 
  2 C       -1.1880     1.9940    -0.1820 C.2   1 <1>   0.5690 
  3 N       -1.8890     2.9280     0.5310 N.am  1 <1>  -0.6600 
  4 C        0.2240     2.2590    -0.6670 C.3   1 <1>  -0.0990 
  5 C       -2.9570     2.4830     1.4920 C.3   1 <1>   0.1400 
  6 C       -1.9750     4.3490     0.1060 C.3   1 <1>   0.1400 
  7 C        1.1930     2.4610     0.5050 C.3   1 <1>  -0.0160 
  8 C       -4.3760     2.4300     0.8700 C.3   1 <1>   0.4230 
  9 C       -3.2480     4.6180    -0.7330 C.3   1 <1>  -0.0800 
 10 C        2.5970     2.7310    -0.0090 C.ar  1 <1>  -0.1440 
 11 N       -4.2930     2.2410    -0.6240 N.4   1 <1>  -0.9590 
 12 C       -5.2580     3.6210     1.2990 C.3   1 <1>   0.1200 
 13 C       -4.3200     5.4010     0.0400 C.3   1 <1>   0.1200 
 14 C       -3.8500     3.4000    -1.4670 C.3   1 <1>   0.3430 
 15 C        3.4290     1.6820    -0.3770 C.ar  1 <1>   0.1600 
 16 C        3.0710     4.0230    -0.1210 C.ar  1 <1>  -0.1500 
 17 C       -5.4680     1.5300    -1.2110 C.3   1 <1>   0.5240 
 18 O       -4.5670     4.8330     1.2810 O.3   1 <1>  -0.5600 
 19 N        4.6610     1.8170    -0.8410 N.ar  1 <1>  -0.6200 
 20 C        4.3530     4.1810    -0.6010 C.ar  1 <1>  -0.1500 
 21 C       -5.8370     0.2960    -0.3940 C.2   1 <1>   0.0460 
 22 C        5.0940     3.0620    -0.9410 C.ar  1 <1>   0.1600 
 23 N       -4.8740    -0.5570     0.0100 N.2   1 <1>  -0.5650 
 24 C       -7.0540    -0.1130     0.0380 C.2   1 <1>  -0.3320 
 25 C       -5.5170    -1.4710     0.6600 C.2   1 <1>   0.0360 
 26 N       -6.8480    -1.2600     0.7150 N.pl3 1 <1>   0.0330 
 27 C       -8.4420     0.4840    -0.1380 C.3   1 <1>  -0.0600 
 28 H        0.5490     1.4130    -1.2460 H     1 <1>   0.0800 
 29 H        0.2410     3.1140    -1.3140 H     1 <1>   0.0800 
 30 H       -2.7150     1.4930     1.8390 H     1 <1>   0.0800 
 31 H       -2.9530     3.1220     2.3590 H     1 <1>   0.0800 
 32 H       -1.9600     4.9820     0.9790 H     1 <1>   0.0800 
 33 H       -1.1100     4.6040    -0.4790 H     1 <1>   0.0800 
 34 H        1.1990     1.5790     1.1240 H     1 <1>   0.0800 
 35 H        0.8670     3.2840     1.1170 H     1 <1>   0.0800 
 36 H       -4.8420     1.5570     1.2930 H     1 <1>   0.0800 
 37 H       -2.9410     5.2900    -1.5140 H     1 <1>   0.0800 
 38 H       -3.5230     1.5340    -0.6790 H     1 <1>   0.4500 
 39 H       -5.5620     3.4660     2.3190 H     1 <1>   0.0800 
 40 H       -6.1460     3.6990     0.6970 H     1 <1>   0.0800 
 41 H       -5.2460     5.4730    -0.5070 H     1 <1>   0.0800 
 42 H       -3.9680     6.4020     0.2280 H     1 <1>   0.0800 
 43 H       -3.1190     3.0390    -2.1720 H     1 <1>   0.0800 
 44 H       -4.6920     3.7520    -2.0390 H     1 <1>   0.0800 
 45 H        3.0610     0.6740    -0.2880 H     1 <1>   0.1500 
 46 H        2.4740     4.8760     0.1520 H     1 <1>   0.1500 
 47 H       -6.3170     2.1900    -1.2550 H     1 <1>   0.0800 
 48 H       -5.2300     1.2110    -2.2120 H     1 <1>   0.0800 
 49 H        4.7810     5.1620    -0.7110 H     1 <1>   0.1500 
 50 H        6.0940     3.1990    -1.3150 H     1 <1>   0.1500 
 51 H       -5.0540    -2.3290     1.1190 H     1 <1>   0.1500 
 52 H       -7.5440    -1.8610     1.1690 H     1 <1>   0.2700 
 53 H       -8.4040     1.3910    -0.7130 H     1 <1>   0.0800 
 54 H       -8.8770     0.7060     0.8210 H     1 <1>   0.0800 
 55 H       -9.0810    -0.2140    -0.6510 H     1 <1>   0.0800 
@<TRIPOS>BOND
  1   1   2  2   
  2   2   3  am  
  3   2   4  1   
  4   3   5  1   
  5   3   6  1   
  6   4   7  1   
  7   4  28  1   
  8   4  29  1   
  9   5   8  1   
 10   5  30  1   
 11   5  31  1   
 12   6   9  1   
 13   6  32  1   
 14   6  33  1   
 15   7  10  1   
 16   7  34  1   
 17   7  35  1   
 18   8  11  1   
 19   8  12  1   
 20   8  36  1   
 21   9  13  1   
 22   9  14  1   
 23   9  37  1   
 24  10  15  ar  
 25  10  16  ar  
 26  11  14  1   
 27  11  17  1   
 28  11  38  1   
 29  12  18  1   
 30  12  39  1   
 31  12  40  1   
 32  13  18  1   
 33  13  41  1   
 34  13  42  1   
 35  14  43  1   
 36  14  44  1   
 37  15  19  ar  
 38  15  45  1   
 39  16  20  ar  
 40  16  46  1   
 41  17  21  1   
 42  17  47  1   
 43  17  48  1   
 44  19  22  ar  
 45  20  22  ar  
 46  20  49  1   
 47  21  23  1   
 48  21  24  2   
 49  22  50  1   
 50  23  25  2   
 51  24  26  1   
 52  24  27  1   
 53  25  26  1   
 54  25  51  1   
 55  26  52  1   
 56  27  53  1   
 57  27  54  1   
 58  27  55  1   
@<TRIPOS>SUBSTRUCTURE
  1 ****   3 GROUP 4 **** **** 0

# MOE 2024.06 (io_trps.svl 2023.06)
