@<TRIPOS>MOLECULE
NONAME
50 51 1 0 0 
SMALL
USER_CHARGES


@<TRIPOS>ATOM
  1 O       -1.3220     0.0240     0.3310 O.2   1 <1>  -0.5700 
  2 C       -2.1640     0.8410     0.0400 C.2   1 <1>   0.6300 
  3 N       -3.2760     0.4740    -0.6720 N.am  1 <1>  -0.6600 
  4 C       -2.0300     2.2670     0.5740 C.3   1 <1>  -0.1000 
  5 C       -3.2840    -0.8230    -1.3960 C.3   1 <1>   0.3200 
  6 C       -4.6070     1.1190    -0.4780 C.3   1 <1>   0.1400 
  7 C       -2.0570     3.5010    -0.3080 C.3   1 <1>  -0.1900 
  8 C       -0.7840     3.0990     0.3750 C.3   1 <1>  -0.1900 
  9 C       -3.9690    -1.8170    -0.4910 C.2   1 <1>  -0.3320 
 10 C       -5.1040     0.8810     0.9660 C.3   1 <1>   0.3430 
 11 C       -2.1560     3.3910    -1.8400 C.3   1 <1>  -0.1450 
 12 C       -2.8440     4.7280     0.1810 C.3   1 <1>  -0.1450 
 13 C       -0.2520     3.8960     1.5780 C.3   1 <1>  -0.1450 
 14 C        0.4020     2.5360    -0.4280 C.3   1 <1>  -0.1450 
 15 N       -3.4150    -2.2330     0.6630 N.pl3 1 <1>   0.0330 
 16 C       -5.1670    -2.4290    -0.5890 C.2   1 <1>   0.0770 
 17 N       -6.5970     0.9370     1.1490 N.4   1 <1>  -0.9590 
 18 C       -4.3410    -3.0420     1.2190 C.2   1 <1>   0.0360 
 19 N       -5.4170    -3.1670     0.5070 N.2   1 <1>  -0.5650 
 20 C       -7.2470    -0.3150     0.6400 C.3   1 <1>   0.2630 
 21 C       -7.2310     2.1650     0.5740 C.3   1 <1>   0.2630 
 22 H       -2.4570     2.3320     1.5560 H     1 <1>   0.1000 
 23 H       -2.2790    -1.1450    -1.6180 H     1 <1>   0.0800 
 24 H       -3.8160    -0.7210    -2.3270 H     1 <1>   0.0800 
 25 H       -5.3030     0.6980    -1.1810 H     1 <1>   0.0800 
 26 H       -4.5270     2.1740    -0.6670 H     1 <1>   0.0800 
 27 H       -4.6400     1.6140     1.6050 H     1 <1>   0.0800 
 28 H       -4.7610    -0.0910     1.2820 H     1 <1>   0.0800 
 29 H       -1.7560     2.4660    -2.2110 H     1 <1>   0.0800 
 30 H       -1.6110     4.1990    -2.2950 H     1 <1>   0.0800 
 31 H       -3.1790     3.4530    -2.1610 H     1 <1>   0.0800 
 32 H       -2.9150     4.7630     1.2510 H     1 <1>   0.0800 
 33 H       -3.8430     4.7180    -0.2150 H     1 <1>   0.0800 
 34 H       -2.3560     5.6270    -0.1550 H     1 <1>   0.0800 
 35 H       -1.0340     4.1900     2.2520 H     1 <1>   0.0800 
 36 H        0.2540     4.7810     1.2350 H     1 <1>   0.0800 
 37 H        0.4470     3.2990     2.1360 H     1 <1>   0.0800 
 38 H        0.0940     1.8730    -1.2140 H     1 <1>   0.0800 
 39 H        1.0520     1.9760     0.2200 H     1 <1>   0.0800 
 40 H        0.9660     3.3410    -0.8650 H     1 <1>   0.0800 
 41 H       -2.4840    -1.9730     1.0220 H     1 <1>   0.2700 
 42 H       -5.8820    -2.3710    -1.3950 H     1 <1>   0.1500 
 43 H       -6.7650     0.9500     2.1690 H     1 <1>   0.4500 
 44 H       -4.1780    -3.5290     2.1660 H     1 <1>   0.1500 
 45 H       -7.1070    -0.4090    -0.4230 H     1 <1>   0.0800 
 46 H       -8.3050    -0.3020     0.8500 H     1 <1>   0.0800 
 47 H       -6.8170    -1.1810     1.1180 H     1 <1>   0.0800 
 48 H       -7.1210     2.1800    -0.4980 H     1 <1>   0.0800 
 49 H       -6.7710     3.0510     0.9820 H     1 <1>   0.0800 
 50 H       -8.2830     2.1870     0.8090 H     1 <1>   0.0800 
@<TRIPOS>BOND
  1   1   2  2   
  2   2   3  am  
  3   2   4  1   
  4   3   5  1   
  5   3   6  1   
  6   4   7  1   
  7   4   8  1   
  8   4  22  1   
  9   5   9  1   
 10   5  23  1   
 11   5  24  1   
 12   6  10  1   
 13   6  25  1   
 14   6  26  1   
 15   7   8  1   
 16   7  11  1   
 17   7  12  1   
 18   8  13  1   
 19   8  14  1   
 20   9  15  1   
 21   9  16  2   
 22  10  17  1   
 23  10  27  1   
 24  10  28  1   
 25  11  29  1   
 26  11  30  1   
 27  11  31  1   
 28  12  32  1   
 29  12  33  1   
 30  12  34  1   
 31  13  35  1   
 32  13  36  1   
 33  13  37  1   
 34  14  38  1   
 35  14  39  1   
 36  14  40  1   
 37  15  18  1   
 38  15  41  1   
 39  16  19  1   
 40  16  42  1   
 41  17  20  1   
 42  17  21  1   
 43  17  43  1   
 44  18  19  2   
 45  18  44  1   
 46  20  45  1   
 47  20  46  1   
 48  20  47  1   
 49  21  48  1   
 50  21  49  1   
 51  21  50  1   
@<TRIPOS>SUBSTRUCTURE
  1 ****   3 GROUP 4 **** **** 0

# MOE 2024.06 (io_trps.svl 2023.06)
