@<TRIPOS>MOLECULE
NONAME
42 44 1 0 0 
SMALL
USER_CHARGES


@<TRIPOS>ATOM
  1 F       -0.7200    -1.0360     1.6610 F     1 <1>  -0.1900 
  2 C       -1.8330    -1.3220     1.0370 C.ar  1 <1>   0.1900 
  3 C       -1.9970    -2.5760     0.4640 C.ar  1 <1>  -0.1440 
  4 C       -2.7980    -0.3360     0.9870 C.ar  1 <1>  -0.1500 
  5 C       -3.2130    -2.8600    -0.1770 C.ar  1 <1>   0.0860 
  6 C       -0.8660    -3.6040     0.5250 C.3   1 <1>  -0.0970 
  7 C       -3.9860    -0.6070     0.3360 C.ar  1 <1>  -0.1500 
  8 C       -3.5230    -4.1480    -0.7700 C.2   1 <1>   0.5440 
  9 C       -4.1800    -1.8520    -0.2360 C.ar  1 <1>  -0.1500 
 10 O       -3.9020    -4.2290    -1.9210 O.2   1 <1>  -0.5700 
 11 N       -3.4360    -5.2900    -0.0310 N.am  1 <1>  -0.7300 
 12 C       -3.7460    -6.6510    -0.5210 C.3   1 <1>   0.2200 
 13 C       -5.1150    -7.0630    -0.0100 C.3   1 <1>  -0.0800 
 14 C       -2.8390    -7.6610     0.1720 C.3   1 <1>   0.1200 
 15 C       -4.7920    -7.5960     1.3920 C.3   1 <1>   0.1200 
 16 C       -5.7550    -8.1340    -0.9120 C.3   1 <1>  -0.0170 
 17 O       -3.4310    -7.9230     1.4080 O.3   1 <1>  -0.5600 
 18 C       -7.1440    -8.5150    -0.4210 C.ar  1 <1>  -0.1430 
 19 C       -7.3940    -9.7090     0.2260 C.ar  1 <1>  -0.1500 
 20 C       -8.2280    -7.6800    -0.6000 C.ar  1 <1>  -0.1500 
 21 C       -8.6790    -9.9980     0.6550 C.ar  1 <1>   0.1600 
 22 C       -9.4740    -8.0650    -0.1330 C.ar  1 <1>   0.1600 
 23 N       -9.7250    -9.2040     0.4930 N.ar  1 <1>  -0.6200 
 24 H       -2.6190     0.6200     1.4460 H     1 <1>   0.1500 
 25 H       -0.8380    -4.1960    -0.3730 H     1 <1>   0.0800 
 26 H       -1.0050    -4.2560     1.3680 H     1 <1>   0.0800 
 27 H        0.0920    -3.1250     0.6200 H     1 <1>   0.0800 
 28 H       -4.7540     0.1450     0.2730 H     1 <1>   0.1500 
 29 H       -5.1060    -2.0590    -0.7460 H     1 <1>   0.1500 
 30 H       -3.2130    -5.2380     0.9650 H     1 <1>   0.3700 
 31 H       -3.6590    -6.6930    -1.5950 H     1 <1>   0.0800 
 32 H       -5.7780    -6.2170     0.0430 H     1 <1>   0.0800 
 33 H       -1.8400    -7.2900     0.3190 H     1 <1>   0.0800 
 34 H       -2.8070    -8.5840    -0.3780 H     1 <1>   0.0800 
 35 H       -5.3630    -8.4700     1.6530 H     1 <1>   0.0800 
 36 H       -4.9510    -6.8330     2.1340 H     1 <1>   0.0800 
 37 H       -5.1330    -9.0110    -0.9520 H     1 <1>   0.0800 
 38 H       -5.8400    -7.7500    -1.9140 H     1 <1>   0.0800 
 39 H       -6.6050   -10.4160     0.4020 H     1 <1>   0.1500 
 40 H       -8.1160    -6.7350    -1.0990 H     1 <1>   0.1500 
 41 H       -8.8560   -10.9330     1.1580 H     1 <1>   0.1500 
 42 H      -10.3080    -7.4010    -0.2820 H     1 <1>   0.1500 
@<TRIPOS>BOND
  1   1   2  1   
  2   2   3  ar  
  3   2   4  ar  
  4   3   5  ar  
  5   3   6  1   
  6   4   7  ar  
  7   4  24  1   
  8   5   8  1   
  9   5   9  ar  
 10   6  25  1   
 11   6  26  1   
 12   6  27  1   
 13   7   9  ar  
 14   7  28  1   
 15   8  10  2   
 16   8  11  am  
 17   9  29  1   
 18  11  12  1   
 19  11  30  1   
 20  12  13  1   
 21  12  14  1   
 22  12  31  1   
 23  13  15  1   
 24  13  16  1   
 25  13  32  1   
 26  14  17  1   
 27  14  33  1   
 28  14  34  1   
 29  15  17  1   
 30  15  35  1   
 31  15  36  1   
 32  16  18  1   
 33  16  37  1   
 34  16  38  1   
 35  18  19  ar  
 36  18  20  ar  
 37  19  21  ar  
 38  19  39  1   
 39  20  22  ar  
 40  20  40  1   
 41  21  23  ar  
 42  21  41  1   
 43  22  23  ar  
 44  22  42  1   
@<TRIPOS>SUBSTRUCTURE
  1 ****  11 GROUP 4 **** **** 0

# MOE 2024.06 (io_trps.svl 2023.06)
