@<TRIPOS>MOLECULE
NONAME
44 46 1 0 0 
SMALL
USER_CHARGES


@<TRIPOS>ATOM
  1 O       -0.7360     0.4910     1.3340 O.2   1 <1>  -0.5700 
  2 C       -1.5770     0.9050     0.5720 C.2   1 <1>   0.5690 
  3 N       -2.5520     0.0840     0.0840 N.am  1 <1>  -0.6600 
  4 C       -1.5500     2.3670     0.1530 C.3   1 <1>  -0.0990 
  5 C       -3.6760     0.4570    -0.8130 C.3   1 <1>   0.1400 
  6 C       -2.6360    -1.3530     0.4460 C.3   1 <1>   0.1400 
  7 C       -0.2780     3.1100     0.5870 C.3   1 <1>  -0.0160 
  8 C       -4.6930    -0.6670    -0.6280 C.3   1 <1>   0.2000 
  9 C       -3.8250    -1.9010    -0.3540 C.3   1 <1>  -0.0800 
 10 C       -0.3180     4.5500     0.1000 C.ar  1 <1>  -0.1440 
 11 O       -5.4540    -0.3760     0.4940 O.3   1 <1>  -0.6800 
 12 C       -4.5570    -3.0690     0.3350 C.3   1 <1>   0.0200 
 13 C        0.1960     4.8940    -1.1430 C.ar  1 <1>   0.1600 
 14 C       -0.8750     5.5400     0.8830 C.ar  1 <1>  -0.1500 
 15 C       -3.7050    -4.3220     0.4550 C.2   1 <1>  -0.0400 
 16 N        0.1930     6.1140    -1.6560 N.ar  1 <1>  -0.6200 
 17 C       -0.8830     6.8180     0.3670 C.ar  1 <1>  -0.1500 
 18 O       -4.1750    -5.3340     1.1340 O.3   1 <1>  -0.0190 
 19 C       -2.4920    -4.6690    -0.0050 C.2   1 <1>  -0.1500 
 20 C       -0.3450     7.0470    -0.8880 C.ar  1 <1>   0.1600 
 21 N       -3.3440    -6.3360     1.1550 N.2   1 <1>  -0.4100 
 22 C       -2.3200    -5.9630     0.4770 C.2   1 <1>   0.1080 
 23 C       -1.0980    -6.8220     0.2410 C.3   1 <1>  -0.0590 
 24 H       -1.6310     2.4180    -0.9170 H     1 <1>   0.0800 
 25 H       -2.4040     2.8570     0.5800 H     1 <1>   0.0800 
 26 H       -4.0960     1.4170    -0.5650 H     1 <1>   0.0800 
 27 H       -3.3230     0.4670    -1.8300 H     1 <1>   0.0800 
 28 H       -1.7180    -1.8570     0.1990 H     1 <1>   0.0800 
 29 H       -2.8100    -1.4370     1.5060 H     1 <1>   0.0800 
 30 H        0.5890     2.6130     0.1850 H     1 <1>   0.0800 
 31 H       -0.1930     3.0910     1.6600 H     1 <1>   0.0800 
 32 H       -5.3550    -0.7840    -1.4700 H     1 <1>   0.0800 
 33 H       -3.4500    -2.2470    -1.3010 H     1 <1>   0.0800 
 34 H       -4.8550    -0.1380     1.2310 H     1 <1>   0.4000 
 35 H       -5.4420    -3.3150    -0.2250 H     1 <1>   0.0800 
 36 H       -4.8700    -2.7770     1.3220 H     1 <1>   0.0800 
 37 H        0.6330     4.1210    -1.7520 H     1 <1>   0.1500 
 38 H       -1.2860     5.3300     1.8560 H     1 <1>   0.1500 
 39 H       -1.3010     7.6330     0.9300 H     1 <1>   0.1500 
 40 H       -1.7880    -4.1230    -0.6040 H     1 <1>   0.1500 
 41 H       -0.3570     8.0490    -1.2800 H     1 <1>   0.1500 
 42 H       -0.2270    -6.3340     0.6390 H     1 <1>   0.0800 
 43 H       -0.9640    -6.9860    -0.8120 H     1 <1>   0.0800 
 44 H       -1.2180    -7.7720     0.7300 H     1 <1>   0.0800 
@<TRIPOS>BOND
  1   1   2  2   
  2   2   3  am  
  3   2   4  1   
  4   3   5  1   
  5   3   6  1   
  6   4   7  1   
  7   4  24  1   
  8   4  25  1   
  9   5   8  1   
 10   5  26  1   
 11   5  27  1   
 12   6   9  1   
 13   6  28  1   
 14   6  29  1   
 15   7  10  1   
 16   7  30  1   
 17   7  31  1   
 18   8   9  1   
 19   8  11  1   
 20   8  32  1   
 21   9  12  1   
 22   9  33  1   
 23  10  13  ar  
 24  10  14  ar  
 25  11  34  1   
 26  12  15  1   
 27  12  35  1   
 28  12  36  1   
 29  13  16  ar  
 30  13  37  1   
 31  14  17  ar  
 32  14  38  1   
 33  15  18  1   
 34  15  19  2   
 35  16  20  ar  
 36  17  20  ar  
 37  17  39  1   
 38  18  21  1   
 39  19  22  1   
 40  19  40  1   
 41  20  41  1   
 42  21  22  2   
 43  22  23  1   
 44  23  42  1   
 45  23  43  1   
 46  23  44  1   
@<TRIPOS>SUBSTRUCTURE
  1 ****   3 GROUP 4 **** **** 0

# MOE 2024.06 (io_trps.svl 2023.06)
