@<TRIPOS>MOLECULE
NONAME
38 40 1 0 0 
SMALL
USER_CHARGES


@<TRIPOS>ATOM
  1 CL       0.2710     2.8580    -0.6430 Cl    1 <1>  -0.1770 
  2 C        2.0000     2.7260    -0.4170 C.ar  1 <1>   0.1770 
  3 C        2.7220     3.7600     0.1310 C.ar  1 <1>   0.1600 
  4 C        2.6800     1.5900    -0.7850 C.ar  1 <1>   0.1600 
  5 N        4.0250     3.6780     0.3060 N.ar  1 <1>  -0.6200 
  6 N        3.9820     1.4820    -0.6200 N.ar  1 <1>  -0.6200 
  7 C        4.5850     2.5260    -0.0610 C.ar  1 <1>   0.7200 
  8 N        5.9380     2.4400     0.1200 N.pl3 1 <1>  -0.8380 
  9 C        6.5770     3.0070     1.3700 C.3   1 <1>   0.2090 
 10 C        6.7960     2.0270    -1.0330 C.3   1 <1>   0.2090 
 11 C        7.2630     4.3820     1.1400 C.3   1 <1>   0.4230 
 12 C        8.0010     2.9580    -1.2840 C.3   1 <1>  -0.0800 
 13 N        6.8140     4.9120    -0.2020 N.4   1 <1>  -0.9590 
 14 C        8.8050     4.3090     1.3730 C.3   1 <1>   0.1200 
 15 C        9.1600     2.6450    -0.3200 C.3   1 <1>   0.1200 
 16 C        7.6560     4.4660    -1.3460 C.3   1 <1>   0.3430 
 17 C        6.5950     6.4210    -0.1820 C.3   1 <1>   0.2370 
 18 O        9.5830     3.8030     0.3140 O.3   1 <1>  -0.5600 
 19 C        7.6330     7.2720     0.5570 C.2   1 <1>   0.9060 
 20 O        7.6460     7.2160     1.7940 O.co2 1 <1>  -0.9000 
 21 O        8.4440     7.9200    -0.1050 O.co2 1 <1>  -0.9000 
 22 H        2.2130     4.6620     0.4250 H     1 <1>   0.1500 
 23 H        2.1440     0.7640    -1.2200 H     1 <1>   0.1500 
 24 H        5.8190     3.1420     2.1230 H     1 <1>   0.0800 
 25 H        7.2730     2.2950     1.7750 H     1 <1>   0.0800 
 26 H        7.1370     1.0190    -0.8670 H     1 <1>   0.0800 
 27 H        6.1920     2.0090    -1.9250 H     1 <1>   0.0800 
 28 H        6.8790     5.0350     1.9070 H     1 <1>   0.0800 
 29 H        8.3720     2.6980    -2.2590 H     1 <1>   0.0800 
 30 H        5.8950     4.4440    -0.3130 H     1 <1>   0.4500 
 31 H        9.0140     3.7180     2.2460 H     1 <1>   0.0800 
 32 H        9.1780     5.2980     1.5750 H     1 <1>   0.0800 
 33 H       10.0030     2.2740    -0.8790 H     1 <1>   0.0800 
 34 H        8.9100     1.9070     0.4220 H     1 <1>   0.0800 
 35 H        7.1310     4.6720    -2.2630 H     1 <1>   0.0800 
 36 H        8.5720     5.0390    -1.3570 H     1 <1>   0.0800 
 37 H        6.5380     6.7940    -1.1880 H     1 <1>   0.0800 
 38 H        5.6560     6.6250     0.2980 H     1 <1>   0.0800 
@<TRIPOS>BOND
  1   1   2  1   
  2   2   3  ar  
  3   2   4  ar  
  4   3   5  ar  
  5   3  22  1   
  6   4   6  ar  
  7   4  23  1   
  8   5   7  ar  
  9   6   7  ar  
 10   7   8  1   
 11   8   9  1   
 12   8  10  1   
 13   9  11  1   
 14   9  24  1   
 15   9  25  1   
 16  10  12  1   
 17  10  26  1   
 18  10  27  1   
 19  11  13  1   
 20  11  14  1   
 21  11  28  1   
 22  12  15  1   
 23  12  16  1   
 24  12  29  1   
 25  13  16  1   
 26  13  17  1   
 27  13  30  1   
 28  14  18  1   
 29  14  31  1   
 30  14  32  1   
 31  15  18  1   
 32  15  33  1   
 33  15  34  1   
 34  16  35  1   
 35  16  36  1   
 36  17  19  1   
 37  17  37  1   
 38  17  38  1   
 39  19  20  ar  
 40  19  21  ar  
@<TRIPOS>SUBSTRUCTURE
  1 ****  13 GROUP 4 **** **** 0

# MOE 2024.06 (io_trps.svl 2023.06)
