@<TRIPOS>MOLECULE
NONAME
53 55 1 0 0 
SMALL
USER_CHARGES


@<TRIPOS>ATOM
  1 O       -5.2830     2.0670     0.1710 O.2   1 <1>  -0.5700 
  2 C       -4.1360     1.6890     0.3060 C.2   1 <1>   0.5440 
  3 N       -3.8640     0.3420     0.2360 N.am  1 <1>  -0.6600 
  4 C       -3.0860     2.6680     0.4950 C.ar  1 <1>   0.0860 
  5 C       -2.4700    -0.2080     0.3840 C.3   1 <1>   0.3640 
  6 C       -4.9590    -0.6180    -0.1010 C.3   1 <1>   0.1400 
  7 C       -2.6580     3.4510    -0.5730 C.ar  1 <1>  -0.1500 
  8 C       -2.4560     2.8490     1.7250 C.ar  1 <1>  -0.1500 
  9 C       -1.5930     0.1630    -0.8200 C.ar  1 <1>  -0.1430 
 10 C       -2.3820    -1.7440     0.6630 C.3   1 <1>   0.2000 
 11 C       -4.4230    -1.9950    -0.4970 C.3   1 <1>   0.1200 
 12 C       -1.6150     4.3460    -0.4360 C.ar  1 <1>  -0.1500 
 13 C       -1.4090     3.7400     1.8700 C.ar  1 <1>  -0.1500 
 14 C       -0.2200     0.2720    -0.6340 C.ar  1 <1>  -0.1500 
 15 C       -2.1120     0.3880    -2.0900 C.ar  1 <1>  -0.1500 
 16 O       -3.5850    -2.4550     0.5120 O.3   1 <1>  -0.5600 
 17 C       -1.8940    -2.0240     2.0910 C.3   1 <1>   0.1200 
 18 C       -0.9710     4.4830     0.7840 C.ar  1 <1>  -0.1430 
 19 C        0.6170     0.5880    -1.6900 C.ar  1 <1>  -0.1500 
 20 C       -1.2780     0.7150    -3.1450 C.ar  1 <1>  -0.1500 
 21 O       -0.5930    -1.5560     2.2640 O.3   1 <1>  -0.6800 
 22 C        0.2120     5.4220     0.9140 C.3   1 <1>   0.4860 
 23 C        0.0870     0.8130    -2.9480 C.ar  1 <1>  -0.1500 
 24 N        1.4640     4.6080     0.8940 N.4   1 <1>  -0.9590 
 25 C        2.6660     5.4460     1.1850 C.3   1 <1>   0.2630 
 26 C        1.6190     3.8600    -0.3960 C.3   1 <1>   0.2630 
 27 H       -2.0300     0.2840     1.2320 H     1 <1>   0.0800 
 28 H       -5.6050    -0.7220     0.7530 H     1 <1>   0.0800 
 29 H       -5.5470    -0.2200    -0.9100 H     1 <1>   0.0800 
 30 H       -3.1540     3.3390    -1.5230 H     1 <1>   0.1500 
 31 H       -2.7980     2.2750     2.5700 H     1 <1>   0.1500 
 32 H       -1.6820    -2.1870    -0.0240 H     1 <1>   0.0800 
 33 H       -3.8780    -1.9570    -1.4250 H     1 <1>   0.0800 
 34 H       -5.2350    -2.6930    -0.5970 H     1 <1>   0.0800 
 35 H       -1.3150     4.9250    -1.2940 H     1 <1>   0.1500 
 36 H       -0.9470     3.8440     2.8380 H     1 <1>   0.1500 
 37 H        0.2060     0.0980     0.3390 H     1 <1>   0.1500 
 38 H       -3.1700     0.3140    -2.2700 H     1 <1>   0.1500 
 39 H       -1.9010    -3.0810     2.2940 H     1 <1>   0.0800 
 40 H       -2.5270    -1.5190     2.8010 H     1 <1>   0.0800 
 41 H        1.6800     0.6450    -1.5390 H     1 <1>   0.1500 
 42 H       -1.6940     0.8860    -4.1230 H     1 <1>   0.1500 
 43 H        0.0500    -2.2480     2.0070 H     1 <1>   0.4000 
 44 H        0.1350     5.9660     1.8420 H     1 <1>   0.0800 
 45 H        0.2120     6.1300     0.1010 H     1 <1>   0.0800 
 46 H        0.7320     1.0540    -3.7750 H     1 <1>   0.1500 
 47 H        1.3530     3.9050     1.6400 H     1 <1>   0.4500 
 48 H        2.7970     6.1940     0.4200 H     1 <1>   0.0800 
 49 H        3.5500     4.8310     1.2200 H     1 <1>   0.0800 
 50 H        2.5570     5.9410     2.1370 H     1 <1>   0.0800 
 51 H        1.6800     4.5460    -1.2250 H     1 <1>   0.0800 
 52 H        0.7780     3.2030    -0.5540 H     1 <1>   0.0800 
 53 H        2.5160     3.2620    -0.3760 H     1 <1>   0.0800 
@<TRIPOS>BOND
  1   1   2  2   
  2   2   3  am  
  3   2   4  1   
  4   3   5  1   
  5   3   6  1   
  6   4   7  ar  
  7   4   8  ar  
  8   5   9  1   
  9   5  10  1   
 10   5  27  1   
 11   6  11  1   
 12   6  28  1   
 13   6  29  1   
 14   7  12  ar  
 15   7  30  1   
 16   8  13  ar  
 17   8  31  1   
 18   9  14  ar  
 19   9  15  ar  
 20  10  16  1   
 21  10  17  1   
 22  10  32  1   
 23  11  16  1   
 24  11  33  1   
 25  11  34  1   
 26  12  18  ar  
 27  12  35  1   
 28  13  18  ar  
 29  13  36  1   
 30  14  19  ar  
 31  14  37  1   
 32  15  20  ar  
 33  15  38  1   
 34  17  21  1   
 35  17  39  1   
 36  17  40  1   
 37  18  22  1   
 38  19  23  ar  
 39  19  41  1   
 40  20  23  ar  
 41  20  42  1   
 42  21  43  1   
 43  22  24  1   
 44  22  44  1   
 45  22  45  1   
 46  23  46  1   
 47  24  25  1   
 48  24  26  1   
 49  24  47  1   
 50  25  48  1   
 51  25  49  1   
 52  25  50  1   
 53  26  51  1   
 54  26  52  1   
 55  26  53  1   
@<TRIPOS>SUBSTRUCTURE
  1 ****   9 GROUP 4 **** **** 0

# MOE 2024.06 (io_trps.svl 2023.06)
