@<TRIPOS>MOLECULE
NONAME
42 43 1 0 0 
SMALL
USER_CHARGES


@<TRIPOS>ATOM
  1 CL       3.3750     4.8100     2.1160 Cl    1 <1>  -0.1770 
  2 C        1.9330     3.9910     1.5610 C.ar  1 <1>   0.1770 
  3 C        2.0180     2.8550     0.7640 C.ar  1 <1>  -0.1440 
  4 C        0.7130     4.5140     1.9470 C.ar  1 <1>  -0.1500 
  5 C        0.8340     2.2480     0.3610 C.ar  1 <1>  -0.1500 
  6 C        3.3700     2.2930     0.3300 C.3   1 <1>   0.3640 
  7 C       -0.4560     3.8980     1.5370 C.ar  1 <1>  -0.1500 
  8 C       -0.3920     2.7650     0.7450 C.ar  1 <1>  -0.1500 
  9 N        3.3820     0.8330     0.5890 N.am  1 <1>  -0.7300 
 10 C        3.6760     2.6050    -1.1560 C.3   1 <1>   0.2610 
 11 C        3.9050    -0.0730    -0.2670 C.2   1 <1>   0.5690 
 12 O        4.7410     1.7890    -1.6290 O.3   1 <1>  -0.5600 
 13 C        4.0220     4.0860    -1.3080 C.2   1 <1>   0.5690 
 14 O        3.9160    -1.2440     0.0110 O.2   1 <1>  -0.5700 
 15 C        4.4610     0.4050    -1.6120 C.3   1 <1>   0.1810 
 16 O        3.1340     4.8980    -1.4070 O.2   1 <1>  -0.5700 
 17 N        5.3280     4.4650    -1.3100 N.am  1 <1>  -0.7300 
 18 C        5.8060     5.8670    -1.3750 C.3   1 <1>   0.1400 
 19 C        5.7430     6.5100     0.0140 C.3   1 <1>   0.1960 
 20 N        6.3400     7.8420    -0.0140 N.am  1 <1>  -0.9140 
 21 S        6.3380     8.5870     1.4850 S.o2  1 <1>   1.3330 
 22 O        5.2110     9.4830     1.4370 O.2   1 <1>  -0.6500 
 23 O        6.4570     7.5730     2.5050 O.2   1 <1>  -0.6500 
 24 C        7.8430     9.5340     1.4400 C.3   1 <1>  -0.1350 
 25 H        0.6820     5.3970     2.5600 H     1 <1>   0.1500 
 26 H        0.8570     1.3650    -0.2560 H     1 <1>   0.1500 
 27 H        4.1550     2.7230     0.9250 H     1 <1>   0.0800 
 28 H       -1.4100     4.3000     1.8310 H     1 <1>   0.1500 
 29 H       -1.3010     2.2840     0.4250 H     1 <1>   0.1500 
 30 H        3.0180     0.5080     1.4860 H     1 <1>   0.3700 
 31 H        2.8090     2.4020    -1.7590 H     1 <1>   0.0800 
 32 H        3.7510     0.1920    -2.3900 H     1 <1>   0.0800 
 33 H        5.3760    -0.1180    -1.8250 H     1 <1>   0.0800 
 34 H        6.0380     3.7260    -1.3260 H     1 <1>   0.3700 
 35 H        6.8190     5.8780    -1.7360 H     1 <1>   0.0800 
 36 H        5.1840     6.4220    -2.0570 H     1 <1>   0.0800 
 37 H        6.2860     5.8870     0.7060 H     1 <1>   0.0800 
 38 H        4.7160     6.5780     0.3370 H     1 <1>   0.0800 
 39 H        5.7110     8.4350    -0.5580 H     1 <1>   0.4200 
 40 H        7.8260    10.2200     0.6160 H     1 <1>   0.0800 
 41 H        8.6860     8.8800     1.3310 H     1 <1>   0.0800 
 42 H        7.9540    10.0900     2.3500 H     1 <1>   0.0800 
@<TRIPOS>BOND
  1   1   2  1   
  2   2   3  ar  
  3   2   4  ar  
  4   3   5  ar  
  5   3   6  1   
  6   4   7  ar  
  7   4  25  1   
  8   5   8  ar  
  9   5  26  1   
 10   6   9  1   
 11   6  10  1   
 12   6  27  1   
 13   7   8  ar  
 14   7  28  1   
 15   8  29  1   
 16   9  11  am  
 17   9  30  1   
 18  10  12  1   
 19  10  13  1   
 20  10  31  1   
 21  11  14  2   
 22  11  15  1   
 23  12  15  1   
 24  13  16  2   
 25  13  17  am  
 26  15  32  1   
 27  15  33  1   
 28  17  18  1   
 29  17  34  1   
 30  18  19  1   
 31  18  35  1   
 32  18  36  1   
 33  19  20  1   
 34  19  37  1   
 35  19  38  1   
 36  20  21  am  
 37  20  39  1   
 38  21  22  2   
 39  21  23  2   
 40  21  24  1   
 41  24  40  1   
 42  24  41  1   
 43  24  42  1   
@<TRIPOS>SUBSTRUCTURE
  1 ****  13 GROUP 4 **** **** 0

# MOE 2024.06 (io_trps.svl 2023.06)
