@<TRIPOS>MOLECULE
NONAME
41 42 1 0 0 
SMALL
USER_CHARGES


@<TRIPOS>ATOM
  1 CL      -2.5520     0.2770    -3.4130 Cl    1 <1>  -0.1230 
  2 C       -3.1020     0.3190    -1.7460 C.2   1 <1>   0.1230 
  3 C       -3.3560    -0.7700    -0.9070 C.2   1 <1>   0.2030 
  4 C       -3.3520     1.4340    -1.0410 C.2   1 <1>  -0.3020 
  5 N       -3.7520    -0.3190     0.2780 N.2   1 <1>  -0.7070 
  6 C       -3.2160    -2.1740    -1.2510 C.2   1 <1>   0.7160 
  7 N       -3.7430     1.0210     0.1790 N.pl3 1 <1>   0.3140 
  8 O       -2.9720    -2.5670    -2.3780 O.2   1 <1>  -0.5700 
  9 N       -3.3870    -3.1130    -0.2760 N.am  1 <1>  -0.7300 
 10 C       -4.1190     1.8870     1.3030 C.3   1 <1>   0.0160 
 11 C       -3.2460    -4.5800    -0.4190 C.3   1 <1>   0.2200 
 12 C       -4.6090    -5.2550    -0.4320 C.3   1 <1>  -0.0800 
 13 C       -2.6610    -5.1510     0.8650 C.3   1 <1>   0.1200 
 14 C       -4.9360    -5.3820     1.0610 C.3   1 <1>   0.1200 
 15 C       -5.6810    -4.5350    -1.2790 C.3   1 <1>  -0.0550 
 16 O       -3.7320    -5.2280     1.7560 O.3   1 <1>  -0.5600 
 17 S       -7.2200    -5.4420    -1.4470 S.o2  1 <1>   1.3330 
 18 O       -6.8980    -6.8150    -1.7670 O.2   1 <1>  -0.6500 
 19 O       -8.1200    -4.7010    -2.3020 O.2   1 <1>  -0.6500 
 20 N       -7.8840    -5.4170     0.1170 N.am  1 <1>  -0.8490 
 21 C       -8.7980    -6.5400     0.3450 C.3   1 <1>   0.1160 
 22 C       -8.5600    -4.1560     0.4410 C.3   1 <1>   0.1160 
 23 H       -3.2740     2.4650    -1.3320 H     1 <1>   0.1500 
 24 H       -3.6060    -2.7690     0.6650 H     1 <1>   0.3700 
 25 H       -3.2920     2.5270     1.5490 H     1 <1>   0.0800 
 26 H       -4.3660     1.2780     2.1530 H     1 <1>   0.0800 
 27 H       -4.9700     2.4790     1.0240 H     1 <1>   0.0800 
 28 H       -2.6510    -4.8240    -1.2830 H     1 <1>   0.0800 
 29 H       -4.4790    -6.2500    -0.8210 H     1 <1>   0.0800 
 30 H       -1.8840    -4.5340     1.2820 H     1 <1>   0.0800 
 31 H       -2.2930    -6.1490     0.7060 H     1 <1>   0.0800 
 32 H       -5.3590    -6.3440     1.2990 H     1 <1>   0.0800 
 33 H       -5.6000    -4.6030     1.3920 H     1 <1>   0.0800 
 34 H       -5.2760    -4.3790    -2.2600 H     1 <1>   0.0800 
 35 H       -5.8850    -3.5680    -0.8630 H     1 <1>   0.0800 
 36 H       -9.1900    -6.5050     1.3470 H     1 <1>   0.0800 
 37 H       -8.2730    -7.4730     0.2230 H     1 <1>   0.0800 
 38 H       -9.6130    -6.5080    -0.3580 H     1 <1>   0.0800 
 39 H       -8.8850    -4.1630     1.4670 H     1 <1>   0.0800 
 40 H       -9.4180    -4.0120    -0.1970 H     1 <1>   0.0800 
 41 H       -7.8880    -3.3260     0.3060 H     1 <1>   0.0800 
@<TRIPOS>BOND
  1   1   2  1   
  2   2   3  1   
  3   2   4  2   
  4   3   5  2   
  5   3   6  1   
  6   4   7  1   
  7   4  23  1   
  8   5   7  1   
  9   6   8  2   
 10   6   9  am  
 11   7  10  1   
 12   9  11  1   
 13   9  24  1   
 14  10  25  1   
 15  10  26  1   
 16  10  27  1   
 17  11  12  1   
 18  11  13  1   
 19  11  28  1   
 20  12  14  1   
 21  12  15  1   
 22  12  29  1   
 23  13  16  1   
 24  13  30  1   
 25  13  31  1   
 26  14  16  1   
 27  14  32  1   
 28  14  33  1   
 29  15  17  1   
 30  15  34  1   
 31  15  35  1   
 32  17  18  2   
 33  17  19  2   
 34  17  20  am  
 35  20  21  1   
 36  20  22  1   
 37  21  36  1   
 38  21  37  1   
 39  21  38  1   
 40  22  39  1   
 41  22  40  1   
 42  22  41  1   
@<TRIPOS>SUBSTRUCTURE
  1 ****   9 GROUP 4 **** **** 0

# MOE 2024.06 (io_trps.svl 2023.06)
