@<TRIPOS>MOLECULE
NONAME
51 53 1 0 0 
SMALL
USER_CHARGES


@<TRIPOS>ATOM
  1 S        0.4150     0.3220    -1.1270 S.o2  1 <1>   1.3330 
  2 O        0.7100    -1.0020    -1.6270 O.2   1 <1>  -0.6500 
  3 O       -0.5970     1.1250    -1.7740 O.2   1 <1>  -0.6500 
  4 N       -0.0310     0.1740     0.5060 N.am  1 <1>  -0.8490 
  5 C        1.9530     1.2450    -1.0660 C.3   1 <1>  -0.0550 
  6 C       -0.7210     1.3580     1.0300 C.3   1 <1>   0.1160 
  7 C       -0.8470    -1.0200     0.7500 C.3   1 <1>   0.1160 
  8 C        3.1360     0.4660    -0.4500 C.3   1 <1>  -0.0800 
  9 C        4.4840     1.1620    -0.5570 C.3   1 <1>   0.2200 
 10 C        3.0210     0.1790     1.0530 C.3   1 <1>   0.1200 
 11 N        4.3590     2.6050    -0.2440 N.am  1 <1>  -0.7300 
 12 C        5.2400     0.4800     0.5730 C.3   1 <1>   0.1200 
 13 O        4.3010     0.3390     1.5940 O.3   1 <1>  -0.5600 
 14 C        4.3290     3.5980    -1.1630 C.2   1 <1>   0.5690 
 15 O        4.3530     3.3690    -2.3460 O.2   1 <1>  -0.5700 
 16 C        4.2500     5.0280    -0.6840 C.3   1 <1>  -0.0990 
 17 C        5.6490     5.6070    -0.4570 C.3   1 <1>   0.0210 
 18 C        5.6090     7.0220     0.0990 C.2   1 <1>  -0.1810 
 19 C        6.7710     7.7380     0.4670 C.ar  1 <1>   0.0000 
 20 C        4.5440     7.8260     0.3370 C.2   1 <1>  -0.3020 
 21 C        6.3430     8.9780     0.9280 C.ar  1 <1>  -0.1520 
 22 C        8.1400     7.4460     0.4500 C.ar  1 <1>  -0.1500 
 23 N        4.9760     9.0200     0.8420 N.pl3 1 <1>   0.0330 
 24 C        7.2570     9.9360     1.3760 C.ar  1 <1>  -0.1500 
 25 C        9.0400     8.3890     0.8910 C.ar  1 <1>  -0.1500 
 26 C        8.5990     9.6340     1.3550 C.ar  1 <1>  -0.1500 
 27 H        2.2220     1.5120    -2.0700 H     1 <1>   0.0800 
 28 H        1.7960     2.1570    -0.5260 H     1 <1>   0.0800 
 29 H       -0.8970     1.2470     2.0860 H     1 <1>   0.0800 
 30 H       -1.6670     1.4960     0.5300 H     1 <1>   0.0800 
 31 H       -0.1200     2.2380     0.8770 H     1 <1>   0.0800 
 32 H       -1.1040    -1.0920     1.7920 H     1 <1>   0.0800 
 33 H       -0.2960    -1.9050     0.4790 H     1 <1>   0.0800 
 34 H       -1.7490    -0.9820     0.1620 H     1 <1>   0.0800 
 35 H        3.2170    -0.4820    -0.9540 H     1 <1>   0.0800 
 36 H        4.9550     1.0180    -1.5160 H     1 <1>   0.0800 
 37 H        2.6810    -0.8250     1.2440 H     1 <1>   0.0800 
 38 H        2.3720     0.8810     1.5480 H     1 <1>   0.0800 
 39 H        4.3180     2.8090     0.7580 H     1 <1>   0.3700 
 40 H        6.0800     1.0530     0.9240 H     1 <1>   0.0800 
 41 H        5.5610    -0.5050     0.2800 H     1 <1>   0.0800 
 42 H        3.7350     5.6140    -1.4250 H     1 <1>   0.0800 
 43 H        3.6860     5.0670     0.2290 H     1 <1>   0.0800 
 44 H        6.1880     5.6140    -1.3900 H     1 <1>   0.0800 
 45 H        6.1870     4.9830     0.2340 H     1 <1>   0.0800 
 46 H        3.4980     7.6320     0.1800 H     1 <1>   0.1500 
 47 H        8.4680     6.4890     0.0910 H     1 <1>   0.1500 
 48 H        4.3930     9.8190     1.1080 H     1 <1>   0.2700 
 49 H        6.9090    10.8900     1.7290 H     1 <1>   0.1500 
 50 H       10.0950     8.1770     0.8830 H     1 <1>   0.1500 
 51 H        9.3240    10.3540     1.6940 H     1 <1>   0.1500 
@<TRIPOS>BOND
  1   1   2  2   
  2   1   3  2   
  3   1   4  am  
  4   1   5  1   
  5   4   6  1   
  6   4   7  1   
  7   5   8  1   
  8   5  27  1   
  9   5  28  1   
 10   6  29  1   
 11   6  30  1   
 12   6  31  1   
 13   7  32  1   
 14   7  33  1   
 15   7  34  1   
 16   8   9  1   
 17   8  10  1   
 18   8  35  1   
 19   9  11  1   
 20   9  12  1   
 21   9  36  1   
 22  10  13  1   
 23  10  37  1   
 24  10  38  1   
 25  11  14  am  
 26  11  39  1   
 27  12  13  1   
 28  12  40  1   
 29  12  41  1   
 30  14  15  2   
 31  14  16  1   
 32  16  17  1   
 33  16  42  1   
 34  16  43  1   
 35  17  18  1   
 36  17  44  1   
 37  17  45  1   
 38  18  19  1   
 39  18  20  2   
 40  19  21  ar  
 41  19  22  ar  
 42  20  23  1   
 43  20  46  1   
 44  21  23  1   
 45  21  24  ar  
 46  22  25  ar  
 47  22  47  1   
 48  23  48  1   
 49  24  26  ar  
 50  24  49  1   
 51  25  26  ar  
 52  25  50  1   
 53  26  51  1   
@<TRIPOS>SUBSTRUCTURE
  1 ****  14 GROUP 4 **** **** 0

# MOE 2024.06 (io_trps.svl 2023.06)
