@<TRIPOS>MOLECULE
NONAME
41 41 1 0 0 
SMALL
USER_CHARGES


@<TRIPOS>ATOM
  1 S        0.2300    -0.3060     1.1220 S.o2  1 <1>   1.3330 
  2 O       -0.2150    -0.7730     2.4150 O.2   1 <1>  -0.6500 
  3 O        1.5370     0.2860     0.9600 O.2   1 <1>  -0.6500 
  4 N       -0.9310     0.7720     0.5100 N.am  1 <1>  -0.8490 
  5 C        0.0890    -1.7030     0.0000 C.3   1 <1>  -0.0550 
  6 C       -0.4050     1.6460    -0.5470 C.3   1 <1>   0.1160 
  7 C       -1.5240     1.5990     1.5690 C.3   1 <1>   0.1160 
  8 C       -1.2990    -2.3740     0.0390 C.3   1 <1>  -0.1600 
  9 C       -1.3560    -3.6080    -0.8610 C.3   1 <1>   0.3430 
 10 N       -2.6500    -4.3190    -0.6760 N.4   1 <1>  -0.9590 
 11 C       -2.5840    -5.7050    -1.2220 C.3   1 <1>   0.5230 
 12 C       -3.8150    -3.5640    -1.2440 C.3   1 <1>   0.2630 
 13 C       -3.7460    -6.5030    -0.6750 C.2   1 <1>  -0.1400 
 14 S       -5.1820    -6.5920    -1.6860 S.3   1 <1>  -0.0800 
 15 C       -3.9240    -7.2020     0.4650 C.2   1 <1>  -0.1810 
 16 C       -6.0070    -7.5870    -0.5050 C.2   1 <1>  -0.1100 
 17 C       -5.2150    -7.8140     0.5580 C.2   1 <1>  -0.1500 
 18 C       -2.9300    -7.3970     1.5970 C.3   1 <1>  -0.0590 
 19 H        0.8380    -2.4230     0.2700 H     1 <1>   0.0800 
 20 H        0.3020    -1.3700    -0.9980 H     1 <1>   0.0800 
 21 H        0.0210     1.0590    -1.3420 H     1 <1>   0.0800 
 22 H        0.3610     2.2960    -0.1530 H     1 <1>   0.0800 
 23 H       -1.1960     2.2510    -0.9570 H     1 <1>   0.0800 
 24 H       -2.0120     0.9750     2.2980 H     1 <1>   0.0800 
 25 H       -2.2580     2.2690     1.1550 H     1 <1>   0.0800 
 26 H       -0.7600     2.1750     2.0660 H     1 <1>   0.0800 
 27 H       -2.0330    -1.6510    -0.2680 H     1 <1>   0.0800 
 28 H       -1.5070    -2.6630     1.0550 H     1 <1>   0.0800 
 29 H       -0.5430    -4.2660    -0.5960 H     1 <1>   0.0800 
 30 H       -1.2330    -3.3200    -1.8930 H     1 <1>   0.0800 
 31 H       -2.8240    -4.4370     0.3330 H     1 <1>   0.4500 
 32 H       -1.6680    -6.1770    -0.9060 H     1 <1>   0.0800 
 33 H       -2.6120    -5.6980    -2.3000 H     1 <1>   0.0800 
 34 H       -3.7220    -3.4750    -2.3140 H     1 <1>   0.0800 
 35 H       -3.8710    -2.5760    -0.8170 H     1 <1>   0.0800 
 36 H       -4.7380    -4.0760    -1.0200 H     1 <1>   0.0800 
 37 H       -7.0110    -7.9040    -0.7320 H     1 <1>   0.1500 
 38 H       -5.4930    -8.4010     1.4180 H     1 <1>   0.1500 
 39 H       -1.9960    -6.9080     1.3910 H     1 <1>   0.0800 
 40 H       -2.7410    -8.4480     1.7360 H     1 <1>   0.0800 
 41 H       -3.3340    -7.0010     2.5120 H     1 <1>   0.0800 
@<TRIPOS>BOND
  1   1   2  2   
  2   1   3  2   
  3   1   4  am  
  4   1   5  1   
  5   4   6  1   
  6   4   7  1   
  7   5   8  1   
  8   5  19  1   
  9   5  20  1   
 10   6  21  1   
 11   6  22  1   
 12   6  23  1   
 13   7  24  1   
 14   7  25  1   
 15   7  26  1   
 16   8   9  1   
 17   8  27  1   
 18   8  28  1   
 19   9  10  1   
 20   9  29  1   
 21   9  30  1   
 22  10  11  1   
 23  10  12  1   
 24  10  31  1   
 25  11  13  1   
 26  11  32  1   
 27  11  33  1   
 28  12  34  1   
 29  12  35  1   
 30  12  36  1   
 31  13  14  1   
 32  13  15  2   
 33  14  16  1   
 34  15  17  1   
 35  15  18  1   
 36  16  17  2   
 37  16  37  1   
 38  17  38  1   
 39  18  39  1   
 40  18  40  1   
 41  18  41  1   
@<TRIPOS>SUBSTRUCTURE
  1 ****  10 GROUP 4 **** **** 0

# MOE 2024.06 (io_trps.svl 2023.06)
