@<TRIPOS>MOLECULE
NONAME
52 55 1 0 0 
SMALL
USER_CHARGES


@<TRIPOS>ATOM
  1 S       -2.5350     1.1450    -2.4500 S.3   1 <1>  -0.0800 
  2 C       -3.0830    -0.4890    -2.1180 C.2   1 <1>  -0.1100 
  3 C       -3.0740     1.6890    -0.8730 C.2   1 <1>  -0.1100 
  4 C       -3.6340    -0.5710    -0.8920 C.2   1 <1>  -0.1810 
  5 C       -3.6250     0.6740    -0.1820 C.2   1 <1>  -0.1500 
  6 C       -4.2190    -1.8280    -0.2710 C.3   1 <1>   0.0210 
  7 C       -5.7520    -1.7540    -0.2560 C.3   1 <1>  -0.0990 
  8 C       -6.4210    -2.9790     0.3510 C.2   1 <1>   0.5690 
  9 O       -5.7170    -3.8360     0.8320 O.2   1 <1>  -0.5700 
 10 N       -7.7890    -3.0880     0.3510 N.am  1 <1>  -0.6600 
 11 C       -8.7420    -2.0640    -0.1880 C.3   1 <1>   0.1400 
 12 C       -8.4690    -4.2920     0.9110 C.3   1 <1>   0.1400 
 13 C       -9.7280    -1.5980     0.9010 C.3   1 <1>   0.1440 
 14 C       -9.4580    -3.8770     2.0070 C.3   1 <1>  -0.1600 
 15 C      -10.6870    -0.6020     0.2770 C.ar  1 <1>   0.1670 
 16 C      -10.4560    -2.8190     1.5030 C.3   1 <1>  -0.1600 
 17 C       -9.0240    -0.7450     1.9920 C.3   1 <1>  -0.1600 
 18 N      -11.6440    -0.9010    -0.5660 N.ar  1 <1>  -0.6200 
 19 C      -10.4220     0.6710     0.6790 C.ar  1 <1>  -0.1430 
 20 C       -9.2530     0.7330     1.6290 C.3   1 <1>  -0.0170 
 21 C      -12.3650     0.1360    -1.0000 C.ar  1 <1>   0.7200 
 22 C      -11.2140     1.6740     0.1800 C.ar  1 <1>   0.1600 
 23 N      -12.1880     1.4180    -0.6600 N.ar  1 <1>  -0.6200 
 24 N      -13.3860    -0.1420    -1.8880 N.pl3 1 <1>  -0.8380 
 25 C      -14.0720     0.9270    -2.6630 C.3   1 <1>   0.1290 
 26 C      -13.9090    -1.5220    -2.0860 C.3   1 <1>   0.1290 
 27 H       -2.9330    -1.2240    -2.8880 H     1 <1>   0.1500 
 28 H       -2.9160     2.7240    -0.6270 H     1 <1>   0.1500 
 29 H       -4.0270     0.7490     0.8130 H     1 <1>   0.1500 
 30 H       -3.8410    -1.9430     0.7300 H     1 <1>   0.0800 
 31 H       -3.9090    -2.6880    -0.8400 H     1 <1>   0.0800 
 32 H       -6.0940    -1.6440    -1.2690 H     1 <1>   0.0800 
 33 H       -6.0550    -0.8900     0.3030 H     1 <1>   0.0800 
 34 H       -9.3000    -2.5050    -0.9960 H     1 <1>   0.0800 
 35 H       -8.2250    -1.2100    -0.5830 H     1 <1>   0.0800 
 36 H       -7.7510    -4.9830     1.3200 H     1 <1>   0.0800 
 37 H       -8.9950    -4.7950     0.1170 H     1 <1>   0.0800 
 38 H       -8.9040    -3.4960     2.8470 H     1 <1>   0.0800 
 39 H       -9.9960    -4.7460     2.3430 H     1 <1>   0.0800 
 40 H      -11.0750    -3.2640     0.7420 H     1 <1>   0.0800 
 41 H      -11.1060    -2.5080     2.3020 H     1 <1>   0.0800 
 42 H       -7.9780    -0.9760     2.0870 H     1 <1>   0.0800 
 43 H       -9.4910    -0.9280     2.9440 H     1 <1>   0.0800 
 44 H       -8.3950     1.1390     1.1220 H     1 <1>   0.0800 
 45 H       -9.4780     1.3230     2.5000 H     1 <1>   0.0800 
 46 H      -11.0460     2.6970     0.4700 H     1 <1>   0.1500 
 47 H      -13.4010     1.7480    -2.8520 H     1 <1>   0.0800 
 48 H      -14.9180     1.2890    -2.1050 H     1 <1>   0.0800 
 49 H      -14.4070     0.5420    -3.6100 H     1 <1>   0.0800 
 50 H      -13.7560    -2.1160    -1.2020 H     1 <1>   0.0800 
 51 H      -13.3970    -1.9850    -2.9110 H     1 <1>   0.0800 
 52 H      -14.9640    -1.4920    -2.2930 H     1 <1>   0.0800 
@<TRIPOS>BOND
  1   1   2  1   
  2   1   3  1   
  3   2   4  2   
  4   2  27  1   
  5   3   5  2   
  6   3  28  1   
  7   4   5  1   
  8   4   6  1   
  9   5  29  1   
 10   6   7  1   
 11   6  30  1   
 12   6  31  1   
 13   7   8  1   
 14   7  32  1   
 15   7  33  1   
 16   8   9  2   
 17   8  10  am  
 18  10  11  1   
 19  10  12  1   
 20  11  13  1   
 21  11  34  1   
 22  11  35  1   
 23  12  14  1   
 24  12  36  1   
 25  12  37  1   
 26  13  15  1   
 27  13  16  1   
 28  13  17  1   
 29  14  16  1   
 30  14  38  1   
 31  14  39  1   
 32  15  18  ar  
 33  15  19  ar  
 34  16  40  1   
 35  16  41  1   
 36  17  20  1   
 37  17  42  1   
 38  17  43  1   
 39  18  21  ar  
 40  19  20  1   
 41  19  22  ar  
 42  20  44  1   
 43  20  45  1   
 44  21  23  ar  
 45  21  24  1   
 46  22  23  ar  
 47  22  46  1   
 48  24  25  1   
 49  24  26  1   
 50  25  47  1   
 51  25  48  1   
 52  25  49  1   
 53  26  50  1   
 54  26  51  1   
 55  26  52  1   
@<TRIPOS>SUBSTRUCTURE
  1 ****  11 GROUP 4 **** **** 0

# MOE 2024.06 (io_trps.svl 2023.06)
