@<TRIPOS>MOLECULE
NONAME
53 54 1 0 0 
SMALL
USER_CHARGES


@<TRIPOS>ATOM
  1 O       -0.0050    -1.3640    -1.1090 O.3   1 <1>  -0.6800 
  2 C       -0.2460    -1.3220     0.2570 C.3   1 <1>   0.1200 
  3 C       -1.3700    -2.3090     0.5920 C.3   1 <1>  -0.1600 
  4 C       -1.0830    -3.8230     0.4760 C.3   1 <1>   0.4230 
  5 N       -0.3830    -4.1180    -0.8290 N.4   1 <1>  -0.9590 
  6 C       -2.4230    -4.5790     0.7140 C.3   1 <1>   0.1100 
  7 C       -0.8300    -5.3330    -1.6050 C.3   1 <1>   0.3430 
  8 C        1.1040    -4.1660    -0.6650 C.3   1 <1>   0.3430 
  9 N       -2.4850    -5.9220     0.1150 N.3   1 <1>  -0.8100 
 10 C       -2.2720    -5.7840    -1.3340 C.3   1 <1>   0.1100 
 11 C        1.5830    -5.2900     0.2800 C.3   1 <1>  -0.0800 
 12 C       -3.7550    -6.5880     0.4420 C.3   1 <1>   0.1100 
 13 C        2.2480    -4.6990     1.5320 C.3   1 <1>  -0.2400 
 14 C        2.5770    -6.2090    -0.4420 C.3   1 <1>  -0.2400 
 15 C       -3.6300    -8.1000     0.2350 C.3   1 <1>  -0.1600 
 16 C       -4.8690    -8.8310     0.7640 C.3   1 <1>   0.0960 
 17 N       -4.7540   -10.2790     0.5100 N.pl3 1 <1>   0.0480 
 18 C       -5.2380   -10.9500    -0.5700 C.2   1 <1>  -0.3020 
 19 C       -4.1360   -11.1930     1.3040 C.2   1 <1>  -0.3020 
 20 C       -4.9310   -12.2690    -0.4600 C.2   1 <1>  -0.1500 
 21 C       -4.2270   -12.4240     0.7370 C.2   1 <1>  -0.1500 
 22 H        0.4600    -0.5470    -1.3970 H     1 <1>   0.4000 
 23 H       -0.5520    -0.3190     0.5070 H     1 <1>   0.0800 
 24 H        0.6660    -1.5530     0.7840 H     1 <1>   0.0800 
 25 H       -2.2190    -2.0530    -0.0180 H     1 <1>   0.0800 
 26 H       -1.6640    -2.1210     1.6100 H     1 <1>   0.0800 
 27 H       -0.4260    -4.1040     1.2800 H     1 <1>   0.0800 
 28 H       -0.5620    -3.2660    -1.3940 H     1 <1>   0.4500 
 29 H       -3.2410    -3.9960     0.3270 H     1 <1>   0.0800 
 30 H       -2.5710    -4.6600     1.7780 H     1 <1>   0.0800 
 31 H       -0.1980    -6.1660    -1.3480 H     1 <1>   0.0800 
 32 H       -0.7070    -5.1540    -2.6600 H     1 <1>   0.0800 
 33 H        1.4550    -3.2210    -0.2880 H     1 <1>   0.0800 
 34 H        1.5590    -4.3050    -1.6320 H     1 <1>   0.0800 
 35 H       -2.4190    -6.7300    -1.8240 H     1 <1>   0.0800 
 36 H       -2.9680    -5.0800    -1.7560 H     1 <1>   0.0800 
 37 H        0.7510    -5.8960     0.5990 H     1 <1>   0.0800 
 38 H       -4.5580    -6.1870    -0.1550 H     1 <1>   0.0800 
 39 H       -3.9870    -6.4120     1.4800 H     1 <1>   0.0800 
 40 H        3.1160    -4.1190     1.2680 H     1 <1>   0.0800 
 41 H        2.5620    -5.4900     2.1930 H     1 <1>   0.0800 
 42 H        1.5660    -4.0680     2.0730 H     1 <1>   0.0800 
 43 H        3.4480    -5.6630    -0.7590 H     1 <1>   0.0800 
 44 H        2.1210    -6.6610    -1.3060 H     1 <1>   0.0800 
 45 H        2.8960    -7.0010     0.2150 H     1 <1>   0.0800 
 46 H       -2.7630    -8.4570     0.7630 H     1 <1>   0.0800 
 47 H       -3.5230    -8.3240    -0.8100 H     1 <1>   0.0800 
 48 H       -5.7560    -8.4690     0.2760 H     1 <1>   0.0800 
 49 H       -4.9720    -8.6780     1.8240 H     1 <1>   0.0800 
 50 H       -5.7750   -10.4590    -1.3610 H     1 <1>   0.1500 
 51 H       -3.6620   -10.9230     2.2310 H     1 <1>   0.1500 
 52 H       -5.1710   -13.0640    -1.1460 H     1 <1>   0.1500 
 53 H       -3.8420   -13.3570     1.1130 H     1 <1>   0.1500 
@<TRIPOS>BOND
  1   1   2  1   
  2   1  22  1   
  3   2   3  1   
  4   2  23  1   
  5   2  24  1   
  6   3   4  1   
  7   3  25  1   
  8   3  26  1   
  9   4   5  1   
 10   4   6  1   
 11   4  27  1   
 12   5   7  1   
 13   5   8  1   
 14   5  28  1   
 15   6   9  1   
 16   6  29  1   
 17   6  30  1   
 18   7  10  1   
 19   7  31  1   
 20   7  32  1   
 21   8  11  1   
 22   8  33  1   
 23   8  34  1   
 24   9  10  1   
 25   9  12  1   
 26  10  35  1   
 27  10  36  1   
 28  11  13  1   
 29  11  14  1   
 30  11  37  1   
 31  12  15  1   
 32  12  38  1   
 33  12  39  1   
 34  13  40  1   
 35  13  41  1   
 36  13  42  1   
 37  14  43  1   
 38  14  44  1   
 39  14  45  1   
 40  15  16  1   
 41  15  46  1   
 42  15  47  1   
 43  16  17  1   
 44  16  48  1   
 45  16  49  1   
 46  17  18  1   
 47  17  19  1   
 48  18  20  2   
 49  18  50  1   
 50  19  21  2   
 51  19  51  1   
 52  20  21  1   
 53  20  52  1   
 54  21  53  1   
@<TRIPOS>SUBSTRUCTURE
  1 ****   9 GROUP 4 **** **** 0

# MOE 2024.06 (io_trps.svl 2023.06)
