@<TRIPOS>MOLECULE
NONAME
44 46 1 0 0 
SMALL
USER_CHARGES


@<TRIPOS>ATOM
  1 CL       2.7680     0.3010     2.9500 Cl    1 <1>  -0.1770 
  2 C        2.5520    -0.6370     1.4890 C.ar  1 <1>   0.1770 
  3 C        2.4540    -0.0030     0.2560 C.ar  1 <1>   0.0820 
  4 C        2.4770    -2.0120     1.5960 C.ar  1 <1>  -0.1500 
  5 O        2.5400     1.3400     0.1470 O.3   1 <1>  -0.3630 
  6 C        2.2900    -0.7990    -0.8700 C.ar  1 <1>   0.1770 
  7 C        2.2960    -2.8120     0.4660 C.ar  1 <1>   0.0860 
  8 C        1.3510     2.0760     0.3200 C.3   1 <1>   0.0400 
  9 CL       2.1550    -0.0710    -2.4550 Cl    1 <1>  -0.1770 
 10 C        2.2190    -2.1750    -0.7730 C.ar  1 <1>  -0.1500 
 11 C        2.1930    -4.2520     0.5830 C.2   1 <1>   0.5440 
 12 O        3.0840    -4.8550     1.1500 O.2   1 <1>  -0.5700 
 13 N        1.1140    -4.9560     0.0840 N.am  1 <1>  -0.6600 
 14 C       -0.1940    -4.2950    -0.2070 C.3   1 <1>   0.2200 
 15 C        1.1830    -6.4480     0.0120 C.3   1 <1>   0.0600 
 16 C       -1.3890    -4.9150     0.5150 C.3   1 <1>  -0.1600 
 17 C       -0.5790    -4.3460    -1.6830 C.3   1 <1>  -0.1600 
 18 C       -2.6060    -4.4370    -0.2860 C.3   1 <1>  -0.0800 
 19 C       -2.0900    -4.0780    -1.6920 C.3   1 <1>  -0.0800 
 20 C       -3.2480    -3.1610     0.2790 C.3   1 <1>  -0.1600 
 21 C       -2.4450    -2.6010    -1.9210 C.3   1 <1>  -0.1600 
 22 C       -3.5760    -2.3210    -0.9450 C.3   1 <1>   0.2000 
 23 O       -3.5980    -0.9860    -0.6130 O.3   1 <1>  -0.6800 
 24 H        2.5620    -2.4780     2.5620 H     1 <1>   0.1500 
 25 H        1.5840     3.1200     0.2050 H     1 <1>   0.0800 
 26 H        0.9630     1.8930     1.3060 H     1 <1>   0.0800 
 27 H        0.6410     1.7740    -0.4300 H     1 <1>   0.0800 
 28 H        2.1070    -2.7640    -1.6660 H     1 <1>   0.1500 
 29 H       -0.1560    -3.2610     0.0880 H     1 <1>   0.0800 
 30 H        0.5770    -6.8230    -0.7930 H     1 <1>   0.0800 
 31 H        0.8420    -6.8700     0.9410 H     1 <1>   0.0800 
 32 H        2.1980    -6.7650    -0.1540 H     1 <1>   0.0800 
 33 H       -1.3560    -5.9880     0.4580 H     1 <1>   0.0800 
 34 H       -1.4290    -4.6190     1.5480 H     1 <1>   0.0800 
 35 H       -0.0350    -3.6290    -2.2700 H     1 <1>   0.0800 
 36 H       -0.4030    -5.3280    -2.0800 H     1 <1>   0.0800 
 37 H       -3.3480    -5.2160    -0.3510 H     1 <1>   0.0800 
 38 H       -2.5790    -4.6870    -2.4340 H     1 <1>   0.0800 
 39 H       -2.5470    -2.6360     0.9040 H     1 <1>   0.0800 
 40 H       -4.1350    -3.3870     0.8450 H     1 <1>   0.0800 
 41 H       -2.7550    -2.4260    -2.9360 H     1 <1>   0.0800 
 42 H       -1.6020    -1.9740    -1.6900 H     1 <1>   0.0800 
 43 H       -4.5300    -2.5980    -1.3640 H     1 <1>   0.0800 
 44 H       -2.7470    -0.7260    -0.2180 H     1 <1>   0.4000 
@<TRIPOS>BOND
  1   1   2  1   
  2   2   3  ar  
  3   2   4  ar  
  4   3   5  1   
  5   3   6  ar  
  6   4   7  ar  
  7   4  24  1   
  8   5   8  1   
  9   6   9  1   
 10   6  10  ar  
 11   7  10  ar  
 12   7  11  1   
 13   8  25  1   
 14   8  26  1   
 15   8  27  1   
 16  10  28  1   
 17  11  12  2   
 18  11  13  am  
 19  13  14  1   
 20  13  15  1   
 21  14  16  1   
 22  14  17  1   
 23  14  29  1   
 24  15  30  1   
 25  15  31  1   
 26  15  32  1   
 27  16  18  1   
 28  16  33  1   
 29  16  34  1   
 30  17  19  1   
 31  17  35  1   
 32  17  36  1   
 33  18  19  1   
 34  18  20  1   
 35  18  37  1   
 36  19  21  1   
 37  19  38  1   
 38  20  22  1   
 39  20  39  1   
 40  20  40  1   
 41  21  22  1   
 42  21  41  1   
 43  21  42  1   
 44  22  23  1   
 45  22  43  1   
 46  23  44  1   
@<TRIPOS>SUBSTRUCTURE
  1 ****  10 GROUP 4 **** **** 0

# MOE 2024.06 (io_trps.svl 2023.06)
