@<TRIPOS>MOLECULE
NONAME
39 41 1 0 0 
SMALL
USER_CHARGES


@<TRIPOS>ATOM
  1 O       -0.5050     1.7460     1.9510 O.2   1 <1>  -0.5700 
  2 C       -0.2860     2.4940     1.0110 C.2   1 <1>   0.7160 
  3 N       -1.3020     3.3510     0.6190 N.am  1 <1>  -0.6600 
  4 C        1.0240     2.4300     0.3710 C.2   1 <1>   0.2030 
  5 C       -2.7350     3.0760     0.9470 C.3   1 <1>   0.1400 
  6 C       -1.1250     4.5560    -0.2330 C.3   1 <1>   0.1400 
  7 N        1.3620     2.8010    -0.8320 N.2   1 <1>  -0.4100 
  8 C        2.1550     1.9070     0.9840 C.2   1 <1>  -0.1500 
  9 C       -3.5480     2.8350    -0.3520 C.3   1 <1>   0.0000 
 10 C       -1.8750     4.3540    -1.5530 C.3   1 <1>  -0.1600 
 11 O        2.6330     2.5680    -1.0490 O.3   1 <1>  -0.0190 
 12 C        3.1020     2.0260     0.0510 C.2   1 <1>  -0.0100 
 13 C       -5.0340     2.5870    -0.0410 C.3   1 <1>   0.2000 
 14 C       -3.3620     4.0330    -1.3110 C.3   1 <1>  -0.1600 
 15 C       -3.1410     1.5010    -1.0020 C.3   1 <1>  -0.1600 
 16 O       -5.4950     3.4330     0.9700 O.3   1 <1>  -0.5600 
 17 C       -5.1320     1.1150     0.3740 C.3   1 <1>  -0.1600 
 18 C       -3.9050     0.4200    -0.2330 C.3   1 <1>  -0.1600 
 19 C       -6.8800     3.4930     1.1020 C.3   1 <1>   0.0400 
 20 H       -2.8220     2.2260     1.6000 H     1 <1>   0.0800 
 21 H       -3.1310     3.9260     1.4730 H     1 <1>   0.0800 
 22 H       -1.5360     5.4060     0.2850 H     1 <1>   0.0800 
 23 H       -0.0870     4.7630    -0.4170 H     1 <1>   0.0800 
 24 H        2.1990     1.5070     1.9810 H     1 <1>   0.1500 
 25 H       -1.7930     5.2480    -2.1460 H     1 <1>   0.0800 
 26 H       -1.4060     3.5560    -2.1020 H     1 <1>   0.0800 
 27 H        4.1410     1.7490     0.0830 H     1 <1>   0.1500 
 28 H       -5.6140     2.7560    -0.9330 H     1 <1>   0.0800 
 29 H       -3.8460     3.8380    -2.2520 H     1 <1>   0.0800 
 30 H       -3.8350     4.8970    -0.8760 H     1 <1>   0.0800 
 31 H       -3.4640     1.4870    -2.0290 H     1 <1>   0.0800 
 32 H       -2.0790     1.3280    -0.9810 H     1 <1>   0.0800 
 33 H       -5.1000     1.0260     1.4460 H     1 <1>   0.0800 
 34 H       -6.0420     0.6780     0.0020 H     1 <1>   0.0800 
 35 H       -3.2840     0.0300     0.5570 H     1 <1>   0.0800 
 36 H       -4.1870    -0.3910    -0.8830 H     1 <1>   0.0800 
 37 H       -7.1090     4.1850     1.8920 H     1 <1>   0.0800 
 38 H       -7.2590     2.5180     1.3550 H     1 <1>   0.0800 
 39 H       -7.3100     3.8410     0.1790 H     1 <1>   0.0800 
@<TRIPOS>BOND
  1   1   2  2   
  2   2   3  am  
  3   2   4  1   
  4   3   5  1   
  5   3   6  1   
  6   4   7  2   
  7   4   8  1   
  8   5   9  1   
  9   5  20  1   
 10   5  21  1   
 11   6  10  1   
 12   6  22  1   
 13   6  23  1   
 14   7  11  1   
 15   8  12  2   
 16   8  24  1   
 17   9  13  1   
 18   9  14  1   
 19   9  15  1   
 20  10  14  1   
 21  10  25  1   
 22  10  26  1   
 23  11  12  1   
 24  12  27  1   
 25  13  16  1   
 26  13  17  1   
 27  13  28  1   
 28  14  29  1   
 29  14  30  1   
 30  15  18  1   
 31  15  31  1   
 32  15  32  1   
 33  16  19  1   
 34  17  18  1   
 35  17  33  1   
 36  17  34  1   
 37  18  35  1   
 38  18  36  1   
 39  19  37  1   
 40  19  38  1   
 41  19  39  1   
@<TRIPOS>SUBSTRUCTURE
  1 ****   3 GROUP 4 **** **** 0

# MOE 2024.06 (io_trps.svl 2023.06)
