@<TRIPOS>MOLECULE
NONAME
45 48 1 0 0 
SMALL
USER_CHARGES


@<TRIPOS>ATOM
  1 S        0.1280     0.6960     2.3720 S.3   1 <1>  -0.0800 
  2 C       -1.1040     1.2270     1.2390 C.2   1 <1>  -0.1400 
  3 C       -0.9360    -0.5650     2.9820 C.2   1 <1>  -0.1100 
  4 C       -2.2140     0.4890     1.3600 C.2   1 <1>  -0.1810 
  5 C       -0.8870     2.3750     0.2690 C.3   1 <1>   0.4600 
  6 C       -2.1250    -0.5410     2.3490 C.2   1 <1>  -0.1500 
  7 C       -3.4090     0.7910     0.4850 C.3   1 <1>   0.0210 
  8 O       -2.0020     2.4870    -0.5880 O.3   1 <1>  -0.5600 
  9 C       -0.7030     3.7090     0.9950 C.3   1 <1>  -0.1600 
 10 C        0.3080     2.0910    -0.6390 C.3   1 <1>  -0.1600 
 11 C       -3.2850     2.2310    -0.0530 C.3   1 <1>   0.1200 
 12 C       -0.4820     4.8350    -0.0110 C.3   1 <1>   0.3430 
 13 C        0.5010     3.2320    -1.6330 C.3   1 <1>   0.3430 
 14 N        0.6680     4.5270    -0.9130 N.4   1 <1>  -0.9590 
 15 C        1.9980     4.6850    -0.2430 C.3   1 <1>   0.4860 
 16 C        2.2690     6.1680    -0.0110 C.ar  1 <1>   0.1670 
 17 N        1.8940     6.9890    -0.9870 N.ar  1 <1>  -0.6200 
 18 C        2.8610     6.5850     1.1710 C.ar  1 <1>  -0.1500 
 19 C        2.1340     8.2760    -0.7740 C.ar  1 <1>   0.1600 
 20 C        3.0950     7.9270     1.3750 C.ar  1 <1>  -0.1500 
 21 C        2.7190     8.7940     0.3710 C.ar  1 <1>  -0.1430 
 22 C        2.9550    10.2870     0.5300 C.3   1 <1>  -0.0970 
 23 H       -0.5540    -1.2020     3.7610 H     1 <1>   0.1500 
 24 H       -2.9480    -1.2090     2.5370 H     1 <1>   0.1500 
 25 H       -4.3170     0.6990     1.0530 H     1 <1>   0.0800 
 26 H       -3.4480     0.0940    -0.3330 H     1 <1>   0.0800 
 27 H        0.1290     3.6490     1.6710 H     1 <1>   0.0800 
 28 H       -1.5720     3.9200     1.5910 H     1 <1>   0.0800 
 29 H        0.1270     1.1760    -1.1730 H     1 <1>   0.0800 
 30 H        1.1990     1.9510    -0.0570 H     1 <1>   0.0800 
 31 H       -3.4710     2.9370     0.7390 H     1 <1>   0.0800 
 32 H       -4.0070     2.3950    -0.8340 H     1 <1>   0.0800 
 33 H       -0.3100     5.7670     0.5040 H     1 <1>   0.0800 
 34 H       -1.3760     4.9450    -0.6060 H     1 <1>   0.0800 
 35 H       -0.3710     3.2870    -2.2670 H     1 <1>   0.0800 
 36 H        1.3580     3.0380    -2.2590 H     1 <1>   0.0800 
 37 H        0.6950     5.3010    -1.6040 H     1 <1>   0.4500 
 38 H        2.7730     4.3010    -0.8850 H     1 <1>   0.0800 
 39 H        2.0240     4.1470     0.6890 H     1 <1>   0.0800 
 40 H        3.1450     5.8790     1.9320 H     1 <1>   0.1500 
 41 H        1.8480     8.9590    -1.5580 H     1 <1>   0.1500 
 42 H        3.5550     8.2840     2.2820 H     1 <1>   0.1500 
 43 H        2.3940    10.8460    -0.1970 H     1 <1>   0.0800 
 44 H        4.0000    10.5080     0.4000 H     1 <1>   0.0800 
 45 H        2.6540    10.6090     1.5110 H     1 <1>   0.0800 
@<TRIPOS>BOND
  1   1   2  1   
  2   1   3  1   
  3   2   4  2   
  4   2   5  1   
  5   3   6  2   
  6   3  23  1   
  7   4   6  1   
  8   4   7  1   
  9   5   8  1   
 10   5   9  1   
 11   5  10  1   
 12   6  24  1   
 13   7  11  1   
 14   7  25  1   
 15   7  26  1   
 16   8  11  1   
 17   9  12  1   
 18   9  27  1   
 19   9  28  1   
 20  10  13  1   
 21  10  29  1   
 22  10  30  1   
 23  11  31  1   
 24  11  32  1   
 25  12  14  1   
 26  12  33  1   
 27  12  34  1   
 28  13  14  1   
 29  13  35  1   
 30  13  36  1   
 31  14  15  1   
 32  14  37  1   
 33  15  16  1   
 34  15  38  1   
 35  15  39  1   
 36  16  17  ar  
 37  16  18  ar  
 38  17  19  ar  
 39  18  20  ar  
 40  18  40  1   
 41  19  21  ar  
 42  19  41  1   
 43  20  21  ar  
 44  20  42  1   
 45  21  22  1   
 46  22  43  1   
 47  22  44  1   
 48  22  45  1   
@<TRIPOS>SUBSTRUCTURE
  1 ****   9 GROUP 4 **** **** 0

# MOE 2024.06 (io_trps.svl 2023.06)
