@<TRIPOS>MOLECULE
NONAME
56 57 1 0 0 
SMALL
USER_CHARGES


@<TRIPOS>ATOM
  1 S       -1.0920     0.6230    -1.5180 S.3   1 <1>  -0.0800 
  2 C        0.3290     0.4490    -0.5230 C.2   1 <1>   0.1980 
  3 C       -1.2070    -1.1070    -1.6040 C.2   1 <1>  -0.1100 
  4 N        0.6490    -0.7580    -0.2770 N.2   1 <1>  -0.5650 
  5 C        1.0470     1.7110    -0.0620 C.3   1 <1>   0.5230 
  6 C       -0.2100    -1.6850    -0.8940 C.2   1 <1>   0.1410 
  7 N        2.4110     1.3530     0.4600 N.4   1 <1>  -0.9590 
  8 C        0.0320    -3.1220    -0.7670 C.2   1 <1>   0.7160 
  9 C        2.9840     2.3960     1.3600 C.3   1 <1>   0.2630 
 10 C        3.3460     0.9900    -0.6510 C.3   1 <1>   0.2630 
 11 O        1.1770    -3.5370    -0.7310 O.2   1 <1>  -0.5700 
 12 N       -1.0010    -4.0360    -0.7040 N.am  1 <1>  -0.6600 
 13 C       -2.3620    -3.7290    -0.1650 C.3   1 <1>   0.1400 
 14 C       -0.7770    -5.5000    -0.9250 C.3   1 <1>   0.1400 
 15 C       -2.7150    -4.6570     1.0210 C.3   1 <1>   0.2000 
 16 C       -1.2140    -6.3250     0.3030 C.3   1 <1>   0.2000 
 17 O       -2.5280    -5.9930     0.6490 O.3   1 <1>  -0.5600 
 18 C       -4.1630    -4.5040     1.5410 C.3   1 <1>  -0.0800 
 19 C       -1.1940    -7.8380     0.0540 C.3   1 <1>  -0.1600 
 20 C       -5.2380    -4.8440     0.4940 C.3   1 <1>  -0.2400 
 21 C       -4.4260    -3.1020     2.1120 C.3   1 <1>  -0.2400 
 22 C        0.2190    -8.3890    -0.2020 C.3   1 <1>  -0.1600 
 23 C        0.1950    -9.9150    -0.3490 C.3   1 <1>  -0.1600 
 24 C        1.6000   -10.4660    -0.6070 C.3   1 <1>  -0.2400 
 25 H       -2.0030    -1.5330    -2.1890 H     1 <1>   0.1500 
 26 H        0.4620     2.1690     0.7180 H     1 <1>   0.0800 
 27 H        1.1320     2.4030    -0.8820 H     1 <1>   0.0800 
 28 H        2.2510     0.4760     0.9910 H     1 <1>   0.4500 
 29 H        3.1440     3.3150     0.8190 H     1 <1>   0.0800 
 30 H        3.9290     2.0640     1.7590 H     1 <1>   0.0800 
 31 H        2.3170     2.5900     2.1840 H     1 <1>   0.0800 
 32 H        3.5140     1.8350    -1.2980 H     1 <1>   0.0800 
 33 H        2.9350     0.1810    -1.2350 H     1 <1>   0.0800 
 34 H        4.2940     0.6670    -0.2510 H     1 <1>   0.0800 
 35 H       -2.4100    -2.7100     0.1720 H     1 <1>   0.0800 
 36 H       -3.0840    -3.8590    -0.9510 H     1 <1>   0.0800 
 37 H       -1.3480    -5.8160    -1.7810 H     1 <1>   0.0800 
 38 H        0.2590    -5.6960    -1.1360 H     1 <1>   0.0800 
 39 H       -2.0410    -4.4510     1.8360 H     1 <1>   0.0800 
 40 H       -0.5770    -6.0940     1.1400 H     1 <1>   0.0800 
 41 H       -4.2690    -5.2020     2.3550 H     1 <1>   0.0800 
 42 H       -1.6010    -8.3240     0.9240 H     1 <1>   0.0800 
 43 H       -1.8270    -8.0670    -0.7850 H     1 <1>   0.0800 
 44 H       -5.2390    -4.1350    -0.3140 H     1 <1>   0.0800 
 45 H       -6.2120    -4.8370     0.9500 H     1 <1>   0.0800 
 46 H       -5.0670    -5.8260     0.0900 H     1 <1>   0.0800 
 47 H       -4.4080    -2.3550     1.3390 H     1 <1>   0.0800 
 48 H       -3.6880    -2.8540     2.8550 H     1 <1>   0.0800 
 49 H       -5.3940    -3.0740     2.5830 H     1 <1>   0.0800 
 50 H        0.6250    -7.9590    -1.1010 H     1 <1>   0.0800 
 51 H        0.8620    -8.1210     0.6190 H     1 <1>   0.0800 
 52 H       -0.1990   -10.3590     0.5500 H     1 <1>   0.0800 
 53 H       -0.4490   -10.1910    -1.1670 H     1 <1>   0.0800 
 54 H        2.2560   -10.2200     0.2100 H     1 <1>   0.0800 
 55 H        2.0060   -10.0530    -1.5140 H     1 <1>   0.0800 
 56 H        1.5630   -11.5360    -0.7050 H     1 <1>   0.0800 
@<TRIPOS>BOND
  1   1   2  1   
  2   1   3  1   
  3   2   4  2   
  4   2   5  1   
  5   3   6  2   
  6   3  25  1   
  7   4   6  1   
  8   5   7  1   
  9   5  26  1   
 10   5  27  1   
 11   6   8  1   
 12   7   9  1   
 13   7  10  1   
 14   7  28  1   
 15   8  11  2   
 16   8  12  am  
 17   9  29  1   
 18   9  30  1   
 19   9  31  1   
 20  10  32  1   
 21  10  33  1   
 22  10  34  1   
 23  12  13  1   
 24  12  14  1   
 25  13  15  1   
 26  13  35  1   
 27  13  36  1   
 28  14  16  1   
 29  14  37  1   
 30  14  38  1   
 31  15  17  1   
 32  15  18  1   
 33  15  39  1   
 34  16  17  1   
 35  16  19  1   
 36  16  40  1   
 37  18  20  1   
 38  18  21  1   
 39  18  41  1   
 40  19  22  1   
 41  19  42  1   
 42  19  43  1   
 43  20  44  1   
 44  20  45  1   
 45  20  46  1   
 46  21  47  1   
 47  21  48  1   
 48  21  49  1   
 49  22  23  1   
 50  22  50  1   
 51  22  51  1   
 52  23  24  1   
 53  23  52  1   
 54  23  53  1   
 55  24  54  1   
 56  24  55  1   
 57  24  56  1   
@<TRIPOS>SUBSTRUCTURE
  1 ****  12 GROUP 4 **** **** 0

# MOE 2024.06 (io_trps.svl 2023.06)
