@<TRIPOS>MOLECULE
NONAME
53 56 1 0 0 
SMALL
USER_CHARGES


@<TRIPOS>ATOM
  1 O       -0.2430    -1.4840    -1.8920 O.2   1 <1>  -0.5700 
  2 C       -1.3030    -1.4840    -1.3060 C.2   1 <1>   0.5440 
  3 N       -2.0230    -0.3410    -1.3760 N.am  1 <1>  -0.8000 
  4 C       -1.7590    -2.6430    -0.5620 C.ar  1 <1>   0.0860 
  5 C       -3.0800    -2.8550    -0.2110 C.ar  1 <1>  -0.1500 
  6 C       -0.8820    -3.6370    -0.1460 C.ar  1 <1>  -0.1500 
  7 C       -3.4660    -3.9800     0.5060 C.ar  1 <1>   0.4100 
  8 C       -1.3470    -4.7190     0.5700 C.ar  1 <1>   0.1600 
  9 N       -2.6090    -4.9100     0.9080 N.ar  1 <1>  -0.6200 
 10 N       -4.8020    -4.1620     0.8160 N.pl3 1 <1>  -0.8380 
 11 C       -5.7840    -4.3110    -0.2890 C.3   1 <1>   0.2090 
 12 C       -5.1940    -4.8740     2.0640 C.3   1 <1>   0.2090 
 13 C       -5.9680    -5.7940    -0.6080 C.3   1 <1>  -0.1600 
 14 C       -5.4100    -6.3620     1.7800 C.3   1 <1>  -0.1600 
 15 C       -6.4010    -6.5920     0.6280 C.3   1 <1>   0.4240 
 16 O       -7.6480    -6.0520     1.0020 O.3   1 <1>  -0.5600 
 17 C       -6.5110    -8.0920     0.2800 C.ar  1 <1>  -0.1440 
 18 C       -8.4830    -6.8440     1.7890 C.3   1 <1>   0.1200 
 19 C       -7.7080    -8.7830     0.4380 C.ar  1 <1>  -0.1440 
 20 C       -5.4010    -8.7850    -0.1920 C.ar  1 <1>  -0.1500 
 21 C       -8.9240    -8.0560     0.9750 C.3   1 <1>  -0.0170 
 22 C       -7.7950   -10.1270     0.1080 C.ar  1 <1>  -0.1500 
 23 C       -5.4760   -10.1310    -0.5070 C.ar  1 <1>   0.0830 
 24 C       -6.6940   -10.8050    -0.3800 C.ar  1 <1>   0.0830 
 25 O       -4.3390   -10.7390    -0.9260 O.3   1 <1>  -0.3630 
 26 O       -6.8590   -12.1080    -0.7180 O.3   1 <1>  -0.3620 
 27 C       -3.7990   -11.7080    -0.0550 C.3   1 <1>   0.0400 
 28 C       -6.6970   -12.4250    -2.0830 C.3   1 <1>   0.0400 
 29 H       -1.6290     0.4510    -1.8840 H     1 <1>   0.3700 
 30 H       -2.8600    -0.1600    -0.8240 H     1 <1>   0.3700 
 31 H       -3.8380    -2.1510    -0.4880 H     1 <1>   0.1500 
 32 H        0.1630    -3.5560    -0.3850 H     1 <1>   0.1500 
 33 H       -0.6440    -5.4720     0.8840 H     1 <1>   0.1500 
 34 H       -5.4400    -3.7960    -1.1690 H     1 <1>   0.0800 
 35 H       -6.7230    -3.8770     0.0100 H     1 <1>   0.0800 
 36 H       -6.1030    -4.4390     2.4440 H     1 <1>   0.0800 
 37 H       -4.4270    -4.7520     2.8100 H     1 <1>   0.0800 
 38 H       -5.0350    -6.1690    -0.9840 H     1 <1>   0.0800 
 39 H       -6.7040    -5.9150    -1.3810 H     1 <1>   0.0800 
 40 H       -5.7450    -6.8610     2.6670 H     1 <1>   0.0800 
 41 H       -4.4600    -6.7900     1.5230 H     1 <1>   0.0800 
 42 H       -9.3340    -6.2490     2.0700 H     1 <1>   0.0800 
 43 H       -7.9540    -7.1450     2.6770 H     1 <1>   0.0800 
 44 H       -4.4540    -8.2910    -0.3160 H     1 <1>   0.1500 
 45 H       -9.5420    -7.7320     0.1570 H     1 <1>   0.0800 
 46 H       -9.5030    -8.7110     1.6000 H     1 <1>   0.0800 
 47 H       -8.7220   -10.6590     0.2210 H     1 <1>   0.1500 
 48 H       -2.8620   -12.0410    -0.4630 H     1 <1>   0.0800 
 49 H       -4.4800   -12.5360     0.0230 H     1 <1>   0.0800 
 50 H       -3.6440   -11.2590     0.9100 H     1 <1>   0.0800 
 51 H       -6.9830   -13.4510    -2.2260 H     1 <1>   0.0800 
 52 H       -5.6690   -12.2890    -2.3620 H     1 <1>   0.0800 
 53 H       -7.3310   -11.7800    -2.6660 H     1 <1>   0.0800 
@<TRIPOS>BOND
  1   1   2  2   
  2   2   3  am  
  3   2   4  1   
  4   3  29  1   
  5   3  30  1   
  6   4   5  ar  
  7   4   6  ar  
  8   5   7  ar  
  9   5  31  1   
 10   6   8  ar  
 11   6  32  1   
 12   7   9  ar  
 13   7  10  1   
 14   8   9  ar  
 15   8  33  1   
 16  10  11  1   
 17  10  12  1   
 18  11  13  1   
 19  11  34  1   
 20  11  35  1   
 21  12  14  1   
 22  12  36  1   
 23  12  37  1   
 24  13  15  1   
 25  13  38  1   
 26  13  39  1   
 27  14  15  1   
 28  14  40  1   
 29  14  41  1   
 30  15  16  1   
 31  15  17  1   
 32  16  18  1   
 33  17  19  ar  
 34  17  20  ar  
 35  18  21  1   
 36  18  42  1   
 37  18  43  1   
 38  19  21  1   
 39  19  22  ar  
 40  20  23  ar  
 41  20  44  1   
 42  21  45  1   
 43  21  46  1   
 44  22  24  ar  
 45  22  47  1   
 46  23  24  ar  
 47  23  25  1   
 48  24  26  1   
 49  25  27  1   
 50  26  28  1   
 51  27  48  1   
 52  27  49  1   
 53  27  50  1   
 54  28  51  1   
 55  28  52  1   
 56  28  53  1   
@<TRIPOS>SUBSTRUCTURE
  1 ****  13 GROUP 4 **** **** 0

# MOE 2024.06 (io_trps.svl 2023.06)
