@<TRIPOS>MOLECULE
NONAME
49 51 1 0 0 
SMALL
USER_CHARGES


@<TRIPOS>ATOM
  1 S        0.9380    -1.0550    -0.7630 S.o2  1 <1>   1.2040 
  2 O        0.4210    -0.9870    -2.1130 O.2   1 <1>  -0.6500 
  3 O        1.8890    -2.0890    -0.4170 O.2   1 <1>  -0.6500 
  4 C        1.5810     0.5610    -0.2690 C.ar  1 <1>  -0.0090 
  5 C       -0.4660    -1.2340     0.3190 C.3   1 <1>  -0.0550 
  6 C        2.4710     0.6820     0.7920 C.ar  1 <1>  -0.1500 
  7 C        1.1760     1.7240    -0.9140 C.ar  1 <1>  -0.1500 
  8 C       -1.1510    -2.5750     0.0880 C.3   1 <1>   0.1100 
  9 C        2.9380     1.9200     1.2000 C.ar  1 <1>  -0.1500 
 10 C        1.6370     2.9660    -0.5130 C.ar  1 <1>  -0.1500 
 11 N       -2.3360    -2.6770     0.9530 N.3   1 <1>  -0.8100 
 12 C        2.5190     3.0640     0.5470 C.ar  1 <1>  -0.1500 
 13 C       -3.5100    -1.9590     0.4010 C.3   1 <1>   0.1100 
 14 C       -2.7720    -4.0700     1.1050 C.3   1 <1>   0.1100 
 15 C       -4.5160    -3.0040    -0.1150 C.3   1 <1>   0.2000 
 16 C       -3.7490    -4.3230    -0.0400 C.3   1 <1>  -0.0800 
 17 O       -5.6240    -3.0650     0.7390 O.3   1 <1>  -0.5600 
 18 C       -4.6180    -5.5780     0.1590 C.3   1 <1>   0.0200 
 19 C       -6.6100    -2.1120     0.4980 C.3   1 <1>   0.0400 
 20 C       -3.8290    -6.8720     0.0460 C.2   1 <1>  -0.0400 
 21 O       -4.4290    -8.0020     0.3110 O.3   1 <1>  -0.0190 
 22 C       -2.5610    -7.1560    -0.2950 C.2   1 <1>  -0.1500 
 23 N       -3.6340    -9.0230     0.1680 N.2   1 <1>  -0.4100 
 24 C       -2.5000    -8.5420    -0.1950 C.2   1 <1>   0.1080 
 25 C       -1.2720    -9.3780    -0.4770 C.3   1 <1>  -0.0590 
 26 H       -0.1470    -1.1850     1.3420 H     1 <1>   0.0800 
 27 H       -1.1610    -0.4390     0.1370 H     1 <1>   0.0800 
 28 H        2.8080    -0.2030     1.3060 H     1 <1>   0.1500 
 29 H        0.4920     1.6590    -1.7450 H     1 <1>   0.1500 
 30 H       -0.4510    -3.3560     0.3370 H     1 <1>   0.0800 
 31 H       -1.4260    -2.6890    -0.9480 H     1 <1>   0.0800 
 32 H        3.6280     1.9930     2.0230 H     1 <1>   0.1500 
 33 H        1.3120     3.8540    -1.0270 H     1 <1>   0.1500 
 34 H        2.8810     4.0290     0.8610 H     1 <1>   0.1500 
 35 H       -3.9570    -1.3690     1.1820 H     1 <1>   0.0800 
 36 H       -3.2180    -1.3060    -0.4020 H     1 <1>   0.0800 
 37 H       -1.9450    -4.7590     1.1080 H     1 <1>   0.0800 
 38 H       -3.2940    -4.1600     2.0440 H     1 <1>   0.0800 
 39 H       -4.8520    -2.7990    -1.1170 H     1 <1>   0.0800 
 40 H       -3.1850    -4.4310    -0.9490 H     1 <1>   0.0800 
 41 H       -5.3990    -5.5910    -0.5800 H     1 <1>   0.0800 
 42 H       -5.0880    -5.5460     1.1270 H     1 <1>   0.0800 
 43 H       -7.3940    -2.2550     1.2210 H     1 <1>   0.0800 
 44 H       -7.0040    -2.2510    -0.4930 H     1 <1>   0.0800 
 45 H       -6.1950    -1.1250     0.6070 H     1 <1>   0.0800 
 46 H       -1.7560    -6.5070    -0.5850 H     1 <1>   0.1500 
 47 H       -0.4280    -8.9810     0.0560 H     1 <1>   0.0800 
 48 H       -1.0630    -9.3730    -1.5300 H     1 <1>   0.0800 
 49 H       -1.4390   -10.3920    -0.1590 H     1 <1>   0.0800 
@<TRIPOS>BOND
  1   1   2  2   
  2   1   3  2   
  3   1   4  1   
  4   1   5  1   
  5   4   6  ar  
  6   4   7  ar  
  7   5   8  1   
  8   5  26  1   
  9   5  27  1   
 10   6   9  ar  
 11   6  28  1   
 12   7  10  ar  
 13   7  29  1   
 14   8  11  1   
 15   8  30  1   
 16   8  31  1   
 17   9  12  ar  
 18   9  32  1   
 19  10  12  ar  
 20  10  33  1   
 21  11  13  1   
 22  11  14  1   
 23  12  34  1   
 24  13  15  1   
 25  13  35  1   
 26  13  36  1   
 27  14  16  1   
 28  14  37  1   
 29  14  38  1   
 30  15  16  1   
 31  15  17  1   
 32  15  39  1   
 33  16  18  1   
 34  16  40  1   
 35  17  19  1   
 36  18  20  1   
 37  18  41  1   
 38  18  42  1   
 39  19  43  1   
 40  19  44  1   
 41  19  45  1   
 42  20  21  1   
 43  20  22  2   
 44  21  23  1   
 45  22  24  1   
 46  22  46  1   
 47  23  24  2   
 48  24  25  1   
 49  25  47  1   
 50  25  48  1   
 51  25  49  1   
@<TRIPOS>SUBSTRUCTURE
  1 ****   8 GROUP 4 **** **** 0

# MOE 2024.06 (io_trps.svl 2023.06)
