@<TRIPOS>MOLECULE
NONAME
47 50 1 0 0 
SMALL
USER_CHARGES


@<TRIPOS>ATOM
  1 O        2.9160    -2.1020     1.4100 O.2   1 <1>  -0.5700 
  2 C        2.5750    -1.8550     0.2700 C.2   1 <1>   0.5440 
  3 N        2.9700    -0.6490    -0.2630 N.am  1 <1>  -0.6600 
  4 C        1.8600    -2.8480    -0.5050 C.ar  1 <1>   0.0860 
  5 C        3.3070     0.4950     0.6690 C.3   1 <1>   0.2200 
  6 C        3.3380    -0.5460    -1.7100 C.3   1 <1>   0.1400 
  7 C        0.6900    -2.5490    -1.2510 C.ar  1 <1>   0.0000 
  8 C        2.3120    -4.1410    -0.5650 C.ar  1 <1>  -0.1500 
  9 C        2.8550     1.8570     0.1170 C.3   1 <1>   0.1200 
 10 C        4.8070     0.5060     1.0450 C.3   1 <1>   0.3430 
 11 C        4.4460     0.4770    -2.0240 C.3   1 <1>  -0.0800 
 12 C        0.1510    -3.5640    -2.0740 C.ar  1 <1>   0.3100 
 13 C        0.0190    -1.3050    -1.2110 C.ar  1 <1>  -0.1500 
 14 C        1.6870    -5.0800    -1.3850 C.ar  1 <1>   0.1600 
 15 O        3.8250     2.4180    -0.7120 O.3   1 <1>  -0.5600 
 16 N        5.6300    -0.3270     0.1070 N.4   1 <1>  -0.9590 
 17 C        3.9160     1.9190    -2.0030 C.3   1 <1>   0.1200 
 18 C        5.7660     0.3260    -1.2350 C.3   1 <1>   0.3430 
 19 N        0.6640    -4.8160    -2.1340 N.ar  1 <1>  -0.6200 
 20 C       -0.9750    -3.2760    -2.8610 C.ar  1 <1>  -0.1500 
 21 C       -1.0850    -1.0580    -1.9820 C.ar  1 <1>  -0.1500 
 22 C        7.0150    -0.5070     0.7130 C.3   1 <1>   0.2370 
 23 C       -1.5850    -2.0520    -2.8250 C.ar  1 <1>  -0.1500 
 24 C        7.8130     0.7920     0.8740 C.2   1 <1>   0.9060 
 25 O        8.4640     1.1880    -0.0970 O.co2 1 <1>  -0.9000 
 26 O        7.6610     1.4390     1.9130 O.co2 1 <1>  -0.9000 
 27 H        2.7530     0.3520     1.5810 H     1 <1>   0.0800 
 28 H        3.6660    -1.5140    -2.0520 H     1 <1>   0.0800 
 29 H        2.4560    -0.2940    -2.2730 H     1 <1>   0.0800 
 30 H        3.1640    -4.4490     0.0150 H     1 <1>   0.1500 
 31 H        2.7320     2.5400     0.9390 H     1 <1>   0.0800 
 32 H        1.9180     1.7860    -0.4070 H     1 <1>   0.0800 
 33 H        4.9050     0.1110     2.0420 H     1 <1>   0.0800 
 34 H        5.1790     1.5190     1.0680 H     1 <1>   0.0800 
 35 H        4.7080     0.3100    -3.0530 H     1 <1>   0.0800 
 36 H        0.3750    -0.5330    -0.5540 H     1 <1>   0.1500 
 37 H        2.0810    -6.0830    -1.4050 H     1 <1>   0.1500 
 38 H        5.1360    -1.2230     0.0240 H     1 <1>   0.4500 
 39 H        2.9520     2.0000    -2.4770 H     1 <1>   0.0800 
 40 H        4.6020     2.5620    -2.5290 H     1 <1>   0.0800 
 41 H        6.2160     1.3010    -1.1120 H     1 <1>   0.0800 
 42 H        6.4510    -0.2590    -1.8250 H     1 <1>   0.0800 
 43 H       -1.3510    -4.0600    -3.4940 H     1 <1>   0.1500 
 44 H       -1.5850    -0.1040    -1.9470 H     1 <1>   0.1500 
 45 H        6.9310    -0.9490     1.6890 H     1 <1>   0.0800 
 46 H        7.6010    -1.1600     0.0940 H     1 <1>   0.0800 
 47 H       -2.4500    -1.8460    -3.4320 H     1 <1>   0.1500 
@<TRIPOS>BOND
  1   1   2  2   
  2   2   3  am  
  3   2   4  1   
  4   3   5  1   
  5   3   6  1   
  6   4   7  ar  
  7   4   8  ar  
  8   5   9  1   
  9   5  10  1   
 10   5  27  1   
 11   6  11  1   
 12   6  28  1   
 13   6  29  1   
 14   7  12  ar  
 15   7  13  ar  
 16   8  14  ar  
 17   8  30  1   
 18   9  15  1   
 19   9  31  1   
 20   9  32  1   
 21  10  16  1   
 22  10  33  1   
 23  10  34  1   
 24  11  17  1   
 25  11  18  1   
 26  11  35  1   
 27  12  19  ar  
 28  12  20  ar  
 29  13  21  ar  
 30  13  36  1   
 31  14  19  ar  
 32  14  37  1   
 33  15  17  1   
 34  16  18  1   
 35  16  22  1   
 36  16  38  1   
 37  17  39  1   
 38  17  40  1   
 39  18  41  1   
 40  18  42  1   
 41  20  23  ar  
 42  20  43  1   
 43  21  23  ar  
 44  21  44  1   
 45  22  24  1   
 46  22  45  1   
 47  22  46  1   
 48  23  47  1   
 49  24  25  ar  
 50  24  26  ar  
@<TRIPOS>SUBSTRUCTURE
  1 ****   3 GROUP 4 **** **** 0

# MOE 2024.06 (io_trps.svl 2023.06)
