@<TRIPOS>MOLECULE
Untitled Document
49 53 1 0 0 
SMALL
USER_CHARGES


@<TRIPOS>ATOM
  1 O       -4.4050     2.1460     0.6890 O.3   1 <1>  -0.0190 
  2 N       -3.1250     2.3410     0.6570 N.2   1 <1>  -0.4100 
  3 C       -4.9030     3.2130     0.1240 C.2   1 <1>   0.2980 
  4 C       -2.9080     3.4720     0.0860 C.2   1 <1>   0.4620 
  5 N       -4.0520     4.0690    -0.2700 N.2   1 <1>  -0.5650 
  6 C       -6.4160     3.3090    -0.0080 C.3   1 <1>   0.0200 
  7 C       -1.6020     4.0610    -0.1580 C.ar  1 <1>   0.0540 
  8 C       -6.9390     4.7530    -0.1740 C.3   1 <1>  -0.0800 
  9 C       -0.4410     3.4570     0.3410 C.ar  1 <1>  -0.1500 
 10 C       -1.4570     5.2470    -0.8990 C.ar  1 <1>  -0.1500 
 11 C       -6.6750     5.6100     1.0790 C.3   1 <1>  -0.1600 
 12 C       -8.4440     4.7650    -0.4880 C.3   1 <1>  -0.1600 
 13 C        0.7850     4.0390     0.0940 C.ar  1 <1>   0.0830 
 14 C       -0.2170     5.8220    -1.1400 C.ar  1 <1>  -0.1500 
 15 C       -7.2420     7.0210     0.9270 C.3   1 <1>   0.3430 
 16 C       -8.9830     6.1910    -0.6150 C.3   1 <1>   0.3430 
 17 O        1.9950     3.6200     0.4810 O.3   1 <1>  -0.3630 
 18 C        0.8970     5.1910    -0.6270 C.ar  1 <1>   0.0830 
 19 N       -8.7030     6.9550     0.6410 N.4   1 <1>  -0.9280 
 20 C        2.9360     4.5650    -0.0260 C.3   1 <1>   0.4000 
 21 O        2.1800     5.5500    -0.7270 O.3   1 <1>  -0.3620 
 22 C       -9.2770     8.3380     0.6890 C.3   1 <1>   0.4720 
 23 C      -10.7890     8.4750     0.3660 C.3   1 <1>   0.0000 
 24 C       -9.0010     9.2520    -0.5360 C.3   1 <1>   0.0000 
 25 C      -10.4260     9.8220    -0.3110 C.3   1 <1>   0.0000 
 26 H       -6.8640     2.8590     0.8600 H     1 <1>   0.0800 
 27 H       -6.7010     2.7200    -0.8620 H     1 <1>   0.0800 
 28 H       -6.4210     5.1980    -1.0090 H     1 <1>   0.0800 
 29 H       -0.4890     2.5480     0.9130 H     1 <1>   0.1500 
 30 H       -2.3330     5.7270    -1.2960 H     1 <1>   0.1500 
 31 H       -5.6150     5.6940     1.2480 H     1 <1>   0.0800 
 32 H       -7.1010     5.1450     1.9510 H     1 <1>   0.0800 
 33 H       -8.9930     4.2420     0.2760 H     1 <1>   0.0800 
 34 H       -8.6190     4.2510    -1.4180 H     1 <1>   0.0800 
 35 H       -0.1120     6.7290    -1.7070 H     1 <1>   0.1500 
 36 H       -6.7350     7.5270     0.1200 H     1 <1>   0.0800 
 37 H       -7.0670     7.5760     1.8350 H     1 <1>   0.0800 
 38 H      -10.0440     6.1500    -0.8020 H     1 <1>   0.0800 
 39 H       -8.5090     6.6760    -1.4520 H     1 <1>   0.0800 
 40 H       -9.1370     6.4360     1.4140 H     1 <1>   0.4500 
 41 H        3.6090     4.0750    -0.7070 H     1 <1>   0.0800 
 42 H        3.4600     5.0260     0.7920 H     1 <1>   0.0800 
 43 H       -9.0300     8.8310     1.6120 H     1 <1>   0.0000 
 44 H      -11.4090     8.5960     1.2360 H     1 <1>   0.0000 
 45 H      -11.1740     7.7640    -0.3440 H     1 <1>   0.0000 
 46 H       -8.9200     8.7400    -1.4790 H     1 <1>   0.0000 
 47 H       -8.2260     9.9790    -0.3690 H     1 <1>   0.0000 
 48 H      -10.4370    10.6490     0.3790 H     1 <1>   0.0000 
 49 H      -10.9670    10.0130    -1.2200 H     1 <1>   0.0000 
@<TRIPOS>BOND
  1   1   2  1   
  2   1   3  1   
  3   2   4  2   
  4   3   5  2   
  5   3   6  1   
  6   4   5  1   
  7   4   7  1   
  8   6   8  1   
  9   6  26  1   
 10   6  27  1   
 11   7   9  ar  
 12   7  10  ar  
 13   8  11  1   
 14   8  12  1   
 15   8  28  1   
 16   9  13  ar  
 17   9  29  1   
 18  10  14  ar  
 19  10  30  1   
 20  11  15  1   
 21  11  31  1   
 22  11  32  1   
 23  12  16  1   
 24  12  33  1   
 25  12  34  1   
 26  13  17  1   
 27  13  18  ar  
 28  14  18  ar  
 29  14  35  1   
 30  15  19  1   
 31  15  36  1   
 32  15  37  1   
 33  16  19  1   
 34  16  38  1   
 35  16  39  1   
 36  17  20  1   
 37  18  21  1   
 38  19  22  1   
 39  19  40  1   
 40  20  21  1   
 41  20  41  1   
 42  20  42  1   
 43  22  23  1   
 44  22  24  1   
 45  22  43  1   
 46  23  25  1   
 47  23  44  1   
 48  23  45  1   
 49  24  25  1   
 50  24  46  1   
 51  24  47  1   
 52  25  48  1   
 53  25  49  1   
@<TRIPOS>SUBSTRUCTURE
  1 ****   5 GROUP 4 **** **** 0

# MOE 2024.06 (io_trps.svl 2023.06)
