@<TRIPOS>MOLECULE
NONAME
47 48 1 0 0 
SMALL
USER_CHARGES


@<TRIPOS>ATOM
  1 F       -2.8500    -1.1830     2.4940 F     1 <1>  -0.1900 
  2 C       -2.4970    -1.5790     1.2970 C.ar  1 <1>   0.1900 
  3 C       -1.8540    -0.7190     0.3990 C.ar  1 <1>   0.0830 
  4 C       -2.7950    -2.8900     0.9710 C.ar  1 <1>  -0.1500 
  5 O       -1.5140     0.5850     0.6030 O.3   1 <1>  -0.3630 
  6 C       -1.5170    -1.2300    -0.8450 C.ar  1 <1>  -0.1500 
  7 C       -2.4480    -3.3810    -0.2810 C.ar  1 <1>  -0.1430 
  8 C       -1.7710     1.2670     1.8110 C.3   1 <1>   0.0400 
  9 C       -1.8070    -2.5420    -1.1840 C.ar  1 <1>  -0.1500 
 10 C       -2.7650    -4.8160    -0.6700 C.3   1 <1>   0.4870 
 11 N       -4.2170    -5.0520    -0.5800 N.4   1 <1>  -0.9590 
 12 C       -4.6200    -6.4890    -0.8100 C.3   1 <1>   0.3430 
 13 C       -5.0880    -4.0880    -1.3020 C.3   1 <1>   0.3430 
 14 C       -6.1540    -6.6590    -0.9840 C.3   1 <1>   0.2000 
 15 C       -6.5300    -4.1780    -0.7600 C.3   1 <1>  -0.1600 
 16 O       -6.4500    -6.5280    -2.3420 O.3   1 <1>  -0.6800 
 17 C       -6.9010    -5.5790    -0.1630 C.3   1 <1>  -0.1060 
 18 C       -6.3180    -5.7510     1.2570 C.2   1 <1>   0.9060 
 19 C       -8.4460    -5.7720    -0.0730 C.3   1 <1>  -0.1600 
 20 O       -5.5870    -4.8660     1.7260 O.co2 1 <1>  -0.9000 
 21 O       -6.3780    -6.8630     1.7780 O.co2 1 <1>  -0.9000 
 22 C       -9.2470    -5.8700    -1.3850 C.3   1 <1>  -0.1600 
 23 C      -10.7500    -5.8670    -1.0990 C.3   1 <1>  -0.2400 
 24 H       -3.3000    -3.5050     1.7000 H     1 <1>   0.1500 
 25 H       -1.0200    -0.5860    -1.5500 H     1 <1>   0.1500 
 26 H       -1.4070     2.2730     1.7120 H     1 <1>   0.0800 
 27 H       -1.2530     0.7690     2.6120 H     1 <1>   0.0800 
 28 H       -2.8320     1.2800     1.9880 H     1 <1>   0.0800 
 29 H       -1.5260    -2.8980    -2.1610 H     1 <1>   0.1500 
 30 H       -2.2490    -5.4860    -0.0030 H     1 <1>   0.0800 
 31 H       -2.4290    -5.0050    -1.6760 H     1 <1>   0.0800 
 32 H       -4.4780    -4.8720     0.4260 H     1 <1>   0.4500 
 33 H       -4.1290    -6.8910    -1.6800 H     1 <1>   0.0800 
 34 H       -4.3200    -7.0670     0.0500 H     1 <1>   0.0800 
 35 H       -4.7260    -3.0800    -1.1800 H     1 <1>   0.0800 
 36 H       -5.0860    -4.3310    -2.3520 H     1 <1>   0.0800 
 37 H       -6.4480    -7.6490    -0.6760 H     1 <1>   0.0800 
 38 H       -6.6730    -3.4180    -0.0110 H     1 <1>   0.0800 
 39 H       -7.1840    -3.9240    -1.5720 H     1 <1>   0.0800 
 40 H       -7.4210    -6.5700    -2.4530 H     1 <1>   0.4000 
 41 H       -8.6410    -6.6680     0.4940 H     1 <1>   0.0800 
 42 H       -8.8380    -4.9560     0.5110 H     1 <1>   0.0800 
 43 H       -9.0230    -5.0450    -2.0380 H     1 <1>   0.0800 
 44 H       -9.0100    -6.7890    -1.8910 H     1 <1>   0.0800 
 45 H      -11.0400    -4.9510    -0.6140 H     1 <1>   0.0800 
 46 H      -11.0130    -6.6930    -0.4600 H     1 <1>   0.0800 
 47 H      -11.3030    -5.9560    -2.0170 H     1 <1>   0.0800 
@<TRIPOS>BOND
  1   1   2  1   
  2   2   3  ar  
  3   2   4  ar  
  4   3   5  1   
  5   3   6  ar  
  6   4   7  ar  
  7   4  24  1   
  8   5   8  1   
  9   6   9  ar  
 10   6  25  1   
 11   7   9  ar  
 12   7  10  1   
 13   8  26  1   
 14   8  27  1   
 15   8  28  1   
 16   9  29  1   
 17  10  11  1   
 18  10  30  1   
 19  10  31  1   
 20  11  12  1   
 21  11  13  1   
 22  11  32  1   
 23  12  14  1   
 24  12  33  1   
 25  12  34  1   
 26  13  15  1   
 27  13  35  1   
 28  13  36  1   
 29  14  16  1   
 30  14  17  1   
 31  14  37  1   
 32  15  17  1   
 33  15  38  1   
 34  15  39  1   
 35  16  40  1   
 36  17  18  1   
 37  17  19  1   
 38  18  20  ar  
 39  18  21  ar  
 40  19  22  1   
 41  19  41  1   
 42  19  42  1   
 43  22  23  1   
 44  22  43  1   
 45  22  44  1   
 46  23  45  1   
 47  23  46  1   
 48  23  47  1   
@<TRIPOS>SUBSTRUCTURE
  1 ****  13 GROUP 4 **** **** 0

# MOE 2024.06 (io_trps.svl 2023.06)
