@<TRIPOS>MOLECULE
NONAME
49 51 1 0 0 
SMALL
USER_CHARGES


@<TRIPOS>ATOM
  1 O        2.3430     0.3920    -0.2160 O.2   1 <1>  -0.5700 
  2 C        3.1490    -0.0700     0.5860 C.2   1 <1>   0.6160 
  3 N        2.9530    -1.3770     1.0250 N.am  1 <1>  -0.4690 
  4 C        4.2820     0.6700     1.0770 C.2   1 <1>   0.0290 
  5 C        3.8230    -1.9620     1.9120 C.2   1 <1>  -0.0410 
  6 C        1.7780    -2.1480     0.5350 C.3   1 <1>   0.0600 
  7 C        4.5260     2.0300     0.6540 C.2   1 <1>   0.6160 
  8 C        5.1240     0.0470     1.9690 C.2   1 <1>  -0.1500 
  9 C        4.8960    -1.2760     2.3860 C.2   1 <1>  -0.1500 
 10 O        5.2890     2.7480     1.2790 O.2   1 <1>  -0.5700 
 11 N        4.0520     2.5860    -0.5070 N.am  1 <1>  -0.6600 
 12 C        4.5140     2.0790    -1.8310 C.3   1 <1>   0.1400 
 13 C        3.3590     3.9000    -0.5090 C.3   1 <1>   0.1400 
 14 C        5.9480     2.5640    -2.1340 C.3   1 <1>   0.3430 
 15 C        4.3490     5.0750    -0.5670 C.3   1 <1>  -0.1600 
 16 N        6.3020     3.7960    -1.3500 N.4   1 <1>  -0.9590 
 17 C        5.4340     4.9660    -1.6410 C.3   1 <1>   0.3430 
 18 C        7.7510     4.1070    -1.3850 C.3   1 <1>   0.4860 
 19 C        8.1910     4.4810     0.0220 C.ar  1 <1>  -0.1430 
 20 C        8.4200     3.4830     0.9740 C.ar  1 <1>   0.0730 
 21 C        8.3660     5.8160     0.3550 C.ar  1 <1>  -0.1500 
 22 C        8.2390     2.0980     0.6400 C.1   1 <1>   0.4840 
 23 C        8.8170     3.8560     2.2520 C.ar  1 <1>  -0.1500 
 24 C        8.7630     6.1680     1.6320 C.ar  1 <1>  -0.1500 
 25 N        8.0310     1.0560     0.2250 N.1   1 <1>  -0.5570 
 26 C        8.9890     5.1880     2.5810 C.ar  1 <1>  -0.1500 
 27 H        3.6290    -2.9760     2.2200 H     1 <1>   0.1500 
 28 H        0.8730    -1.6280     0.7990 H     1 <1>   0.0800 
 29 H        1.7590    -3.1310     0.9710 H     1 <1>   0.0800 
 30 H        1.8280    -2.2380    -0.5360 H     1 <1>   0.0800 
 31 H        5.9840     0.5580     2.3690 H     1 <1>   0.1500 
 32 H        5.5830    -1.7270     3.0820 H     1 <1>   0.1500 
 33 H        3.8420     2.4170    -2.6000 H     1 <1>   0.0800 
 34 H        4.4900     1.0020    -1.8400 H     1 <1>   0.0800 
 35 H        2.7640     3.9820     0.3870 H     1 <1>   0.0800 
 36 H        2.6820     3.9410    -1.3460 H     1 <1>   0.0800 
 37 H        6.0570     2.7390    -3.1910 H     1 <1>   0.0800 
 38 H        6.6250     1.7700    -1.8620 H     1 <1>   0.0800 
 39 H        4.8120     5.1980     0.3960 H     1 <1>   0.0800 
 40 H        3.7840     5.9710    -0.7480 H     1 <1>   0.0800 
 41 H        6.0650     3.5440    -0.3650 H     1 <1>   0.4500 
 42 H        6.0210     5.8690    -1.6260 H     1 <1>   0.0800 
 43 H        4.9850     4.8680    -2.6160 H     1 <1>   0.0800 
 44 H        7.9490     4.9140    -2.0700 H     1 <1>   0.0800 
 45 H        8.3080     3.2430    -1.7100 H     1 <1>   0.0800 
 46 H        8.2000     6.5980    -0.3670 H     1 <1>   0.1500 
 47 H        8.9930     3.1020     3.0020 H     1 <1>   0.1500 
 48 H        8.9000     7.2050     1.8920 H     1 <1>   0.1500 
 49 H        9.2980     5.4650     3.5760 H     1 <1>   0.1500 
@<TRIPOS>BOND
  1   1   2  2   
  2   2   3  am  
  3   2   4  1   
  4   3   5  1   
  5   3   6  1   
  6   4   7  1   
  7   4   8  2   
  8   5   9  2   
  9   5  27  1   
 10   6  28  1   
 11   6  29  1   
 12   6  30  1   
 13   7  10  2   
 14   7  11  am  
 15   8   9  1   
 16   8  31  1   
 17   9  32  1   
 18  11  12  1   
 19  11  13  1   
 20  12  14  1   
 21  12  33  1   
 22  12  34  1   
 23  13  15  1   
 24  13  35  1   
 25  13  36  1   
 26  14  16  1   
 27  14  37  1   
 28  14  38  1   
 29  15  17  1   
 30  15  39  1   
 31  15  40  1   
 32  16  17  1   
 33  16  18  1   
 34  16  41  1   
 35  17  42  1   
 36  17  43  1   
 37  18  19  1   
 38  18  44  1   
 39  18  45  1   
 40  19  20  ar  
 41  19  21  ar  
 42  20  22  1   
 43  20  23  ar  
 44  21  24  ar  
 45  21  46  1   
 46  22  25  3   
 47  23  26  ar  
 48  23  47  1   
 49  24  26  ar  
 50  24  48  1   
 51  26  49  1   
@<TRIPOS>SUBSTRUCTURE
  1 ****  10 GROUP 4 **** **** 0

# MOE 2024.06 (io_trps.svl 2023.06)
