@<TRIPOS>MOLECULE
NONAME
53 56 1 0 0 
SMALL
USER_CHARGES


@<TRIPOS>ATOM
  1 O       -0.1640     0.1120    -0.9550 O.2   1 <1>  -0.5700 
  2 C        0.7500    -0.6470    -0.6890 C.2   1 <1>   0.5440 
  3 N        1.9620    -0.1410    -0.3030 N.am  1 <1>  -0.4930 
  4 C        0.5580    -2.0800    -0.7970 C.ar  1 <1>   0.0860 
  5 C        2.3770     1.2120    -0.1690 C.2   1 <1>   0.0630 
  6 C        1.2470    -2.9880     0.0130 C.ar  1 <1>  -0.1500 
  7 C       -0.3390    -2.6080    -1.7270 C.ar  1 <1>  -0.1500 
  8 C        3.5490     1.6180     0.3780 C.2   1 <1>  -0.0680 
  9 C        1.7400     2.3890    -0.5730 C.2   1 <1>   0.1390 
 10 C        1.0530    -4.3510    -0.1110 C.ar  1 <1>  -0.1500 
 11 C       -0.5390    -3.9690    -1.8570 C.ar  1 <1>  -0.1500 
 12 N        3.5700     2.9710     0.2510 N.pl3 1 <1>   0.3140 
 13 N        4.5900     0.8690     0.9800 N.pl3 1 <1>  -0.8530 
 14 N        2.4460     3.4550    -0.3250 N.2   1 <1>  -0.7070 
 15 C        0.1600    -4.8530    -1.0420 C.ar  1 <1>   0.0830 
 16 C        4.6770     3.8120     0.7300 C.3   1 <1>   0.0960 
 17 C        5.6400     1.6540     1.6870 C.3   1 <1>   0.2090 
 18 O        0.0200    -6.1940    -1.0920 O.3   1 <1>  -0.3630 
 19 C        5.9420     2.9570     0.9310 C.3   1 <1>  -0.1600 
 20 C       -0.9480    -6.8130    -1.9290 C.3   1 <1>   0.1810 
 21 C       -0.9940    -8.3210    -1.7050 C.2   1 <1>   0.5690 
 22 O       -0.7460    -9.0200    -2.6610 O.2   1 <1>  -0.5700 
 23 N       -1.3310    -8.8610    -0.4830 N.am  1 <1>  -0.6600 
 24 C       -1.2530   -10.3280    -0.2390 C.3   1 <1>   0.1400 
 25 C       -1.6740    -8.0730     0.7340 C.3   1 <1>   0.1400 
 26 C       -0.1960   -10.6090     0.8340 C.3   1 <1>  -0.1600 
 27 C       -0.6120    -8.3170     1.8100 C.3   1 <1>  -0.1600 
 28 C       -0.4620    -9.8130     2.1210 C.3   1 <1>  -0.1600 
 29 H        2.7340    -0.7980    -0.2020 H     1 <1>   0.3700 
 30 H        1.9360    -2.6280     0.7560 H     1 <1>   0.1500 
 31 H       -0.8870    -1.9280    -2.3590 H     1 <1>   0.1500 
 32 H        0.7720     2.4140    -1.0430 H     1 <1>   0.1500 
 33 H        1.5910    -5.0390     0.5170 H     1 <1>   0.1500 
 34 H       -1.2380    -4.3170    -2.5950 H     1 <1>   0.1500 
 35 H        4.2330     0.1140     1.5780 H     1 <1>   0.4000 
 36 H        4.3720     4.2570     1.6580 H     1 <1>   0.0800 
 37 H        4.8530     4.5910     0.0100 H     1 <1>   0.0800 
 38 H        6.5370     1.0610     1.7570 H     1 <1>   0.0800 
 39 H        5.3020     1.8790     2.6850 H     1 <1>   0.0800 
 40 H        6.6770     3.5270     1.4700 H     1 <1>   0.0800 
 41 H        6.3600     2.7110    -0.0290 H     1 <1>   0.0800 
 42 H       -0.6820    -6.6120    -2.9510 H     1 <1>   0.0800 
 43 H       -1.9110    -6.3920    -1.7130 H     1 <1>   0.0800 
 44 H       -0.9970   -10.8530    -1.1440 H     1 <1>   0.0800 
 45 H       -2.2160   -10.6800     0.0890 H     1 <1>   0.0800 
 46 H       -2.6360    -8.3930     1.0950 H     1 <1>   0.0800 
 47 H       -1.7370    -7.0210     0.5200 H     1 <1>   0.0800 
 48 H        0.7700   -10.3470     0.4390 H     1 <1>   0.0800 
 49 H       -0.1850   -11.6620     1.0540 H     1 <1>   0.0800 
 50 H       -0.8840    -7.7860     2.7060 H     1 <1>   0.0800 
 51 H        0.3270    -7.9200     1.4650 H     1 <1>   0.0800 
 52 H        0.3480    -9.9620     2.8150 H     1 <1>   0.0800 
 53 H       -1.3660   -10.1740     2.5820 H     1 <1>   0.0800 
@<TRIPOS>BOND
  1   1   2  2   
  2   2   3  am  
  3   2   4  1   
  4   3   5  1   
  5   3  29  1   
  6   4   6  ar  
  7   4   7  ar  
  8   5   8  2   
  9   5   9  1   
 10   6  10  ar  
 11   6  30  1   
 12   7  11  ar  
 13   7  31  1   
 14   8  12  1   
 15   8  13  1   
 16   9  14  2   
 17   9  32  1   
 18  10  15  ar  
 19  10  33  1   
 20  11  15  ar  
 21  11  34  1   
 22  12  14  1   
 23  12  16  1   
 24  13  17  1   
 25  13  35  1   
 26  15  18  1   
 27  16  19  1   
 28  16  36  1   
 29  16  37  1   
 30  17  19  1   
 31  17  38  1   
 32  17  39  1   
 33  18  20  1   
 34  19  40  1   
 35  19  41  1   
 36  20  21  1   
 37  20  42  1   
 38  20  43  1   
 39  21  22  2   
 40  21  23  am  
 41  23  24  1   
 42  23  25  1   
 43  24  26  1   
 44  24  44  1   
 45  24  45  1   
 46  25  27  1   
 47  25  46  1   
 48  25  47  1   
 49  26  28  1   
 50  26  48  1   
 51  26  49  1   
 52  27  28  1   
 53  27  50  1   
 54  27  51  1   
 55  28  52  1   
 56  28  53  1   
@<TRIPOS>SUBSTRUCTURE
  1 ****   6 GROUP 4 **** **** 0

# MOE 2024.06 (io_trps.svl 2023.06)
