@<TRIPOS>MOLECULE
NONAME
50 52 1 0 0 
SMALL
USER_CHARGES


@<TRIPOS>ATOM
  1 O        1.1690     0.0500    -0.4890 O.2   1 <1>  -0.5700 
  2 C        1.9730    -0.5790     0.1520 C.2   1 <1>   0.5690 
  3 N        2.9540     0.0550     0.8700 N.am  1 <1>  -0.6600 
  4 C        1.8830    -2.0950     0.1170 C.3   1 <1>  -0.0990 
  5 C        4.3160    -0.5130     1.1000 C.3   1 <1>   0.1400 
  6 C        2.7560     1.4620     1.3230 C.3   1 <1>   0.1400 
  7 C        0.4410    -2.5670    -0.1330 C.3   1 <1>   0.0960 
  8 C        5.2080    -0.3220    -0.1450 C.3   1 <1>   0.3430 
  9 C        3.7500     2.4320     0.6770 C.3   1 <1>  -0.1600 
 10 N        0.3680    -4.0390    -0.0950 N.pl3 1 <1>   0.0480 
 11 N        5.4570     1.1080    -0.5210 N.4   1 <1>  -0.9590 
 12 C        4.2610     1.9840    -0.6910 C.3   1 <1>   0.3430 
 13 C        0.4380    -4.9050    -1.1070 C.2   1 <1>   0.0360 
 14 C        0.2380    -4.8400     0.9640 C.2   1 <1>   0.0360 
 15 C        6.3810     1.2460    -1.6800 C.3   1 <1>   0.5240 
 16 N        0.3660    -6.1250    -0.7000 N.2   1 <1>  -0.3380 
 17 N        0.2380    -6.0830     0.6280 N.2   1 <1>  -0.3380 
 18 C        7.3230     2.3980    -1.3510 C.2   1 <1>   0.1080 
 19 N        7.5200     2.8110    -0.1290 N.2   1 <1>  -0.7070 
 20 C        8.0620     3.1260    -2.2760 C.2   1 <1>  -0.1500 
 21 N        8.4080     3.8220    -0.2450 N.pl3 1 <1>   0.3140 
 22 C        8.7410     4.0250    -1.5350 C.2   1 <1>  -0.3020 
 23 C        8.9210     4.5740     0.9210 C.3   1 <1>   0.0960 
 24 C       10.2850     4.0350     1.3700 C.3   1 <1>  -0.2400 
 25 H        2.2110    -2.4860     1.0620 H     1 <1>   0.0800 
 26 H        2.5220    -2.4610    -0.6640 H     1 <1>   0.0800 
 27 H        4.2430    -1.5630     1.3200 H     1 <1>   0.0800 
 28 H        4.7730    -0.0410     1.9530 H     1 <1>   0.0800 
 29 H        2.8450     1.5080     2.3960 H     1 <1>   0.0800 
 30 H        1.7540     1.7790     1.0800 H     1 <1>   0.0800 
 31 H        0.0970    -2.2260    -1.0940 H     1 <1>   0.0800 
 32 H       -0.2160    -2.1680     0.6200 H     1 <1>   0.0800 
 33 H        4.7440    -0.8330    -0.9730 H     1 <1>   0.0800 
 34 H        6.1540    -0.8030     0.0440 H     1 <1>   0.0800 
 35 H        4.5750     2.6210     1.3420 H     1 <1>   0.0800 
 36 H        3.2410     3.3710     0.5540 H     1 <1>   0.0800 
 37 H        6.0330     1.5690     0.2140 H     1 <1>   0.4500 
 38 H        4.5450     2.8650    -1.2450 H     1 <1>   0.0800 
 39 H        3.4810     1.4750    -1.2370 H     1 <1>   0.0800 
 40 H        0.5420    -4.6090    -2.1350 H     1 <1>   0.1500 
 41 H        0.1460    -4.4800     1.9720 H     1 <1>   0.1500 
 42 H        5.8380     1.4440    -2.5890 H     1 <1>   0.0800 
 43 H        6.9660     0.3500    -1.8040 H     1 <1>   0.0800 
 44 H        8.0860     2.9950    -3.3450 H     1 <1>   0.1500 
 45 H        9.4350     4.7850    -1.8480 H     1 <1>   0.1500 
 46 H        8.2100     4.4850     1.7210 H     1 <1>   0.0800 
 47 H        9.0040     5.6110     0.6500 H     1 <1>   0.0800 
 48 H       10.2030     2.9990     1.6480 H     1 <1>   0.0800 
 49 H       10.6340     4.5890     2.2230 H     1 <1>   0.0800 
 50 H       11.0090     4.1350     0.5800 H     1 <1>   0.0800 
@<TRIPOS>BOND
  1   1   2  2   
  2   2   3  am  
  3   2   4  1   
  4   3   5  1   
  5   3   6  1   
  6   4   7  1   
  7   4  25  1   
  8   4  26  1   
  9   5   8  1   
 10   5  27  1   
 11   5  28  1   
 12   6   9  1   
 13   6  29  1   
 14   6  30  1   
 15   7  10  1   
 16   7  31  1   
 17   7  32  1   
 18   8  11  1   
 19   8  33  1   
 20   8  34  1   
 21   9  12  1   
 22   9  35  1   
 23   9  36  1   
 24  10  13  1   
 25  10  14  1   
 26  11  12  1   
 27  11  15  1   
 28  11  37  1   
 29  12  38  1   
 30  12  39  1   
 31  13  16  2   
 32  13  40  1   
 33  14  17  2   
 34  14  41  1   
 35  15  18  1   
 36  15  42  1   
 37  15  43  1   
 38  16  17  1   
 39  18  19  2   
 40  18  20  1   
 41  19  21  1   
 42  20  22  2   
 43  20  44  1   
 44  21  22  1   
 45  21  23  1   
 46  22  45  1   
 47  23  24  1   
 48  23  46  1   
 49  23  47  1   
 50  24  48  1   
 51  24  49  1   
 52  24  50  1   
@<TRIPOS>SUBSTRUCTURE
  1 ****   8 GROUP 4 **** **** 0

# MOE 2024.06 (io_trps.svl 2023.06)
