@<TRIPOS>MOLECULE
NONAME
52 54 1 0 0 
SMALL
USER_CHARGES


@<TRIPOS>ATOM
  1 O       -0.6080     0.4540     1.2240 O.3   1 <1>  -0.0190 
  2 N       -0.7240    -0.8020     0.9330 N.2   1 <1>  -0.4100 
  3 C       -1.7170     1.1060     1.0280 C.2   1 <1>  -0.0400 
  4 C       -1.9510    -0.9930     0.5510 C.2   1 <1>   0.2350 
  5 C       -2.6340     0.2310     0.5930 C.2   1 <1>  -0.1500 
  6 C       -1.7390     2.5960     1.2930 C.3   1 <1>   0.5230 
  7 C       -2.5100    -2.2650     0.1340 C.ar  1 <1>   0.0540 
  8 N       -0.6470     3.2530     0.5110 N.4   1 <1>  -0.9590 
  9 C       -1.6860    -3.2930    -0.3220 C.ar  1 <1>  -0.1500 
 10 C       -3.8820    -2.5150     0.1670 C.ar  1 <1>  -0.1500 
 11 C       -0.4530     4.6690     0.9330 C.3   1 <1>   0.3430 
 12 C       -0.8650     3.1030    -0.9670 C.3   1 <1>   0.2630 
 13 C       -2.2050    -4.5070    -0.7350 C.ar  1 <1>  -0.1500 
 14 C       -4.4060    -3.7260    -0.2470 C.ar  1 <1>  -0.1500 
 15 C        0.8800     5.2020     0.4110 C.3   1 <1>  -0.1600 
 16 C       -3.5700    -4.7300    -0.7040 C.ar  1 <1>  -0.1430 
 17 C        1.1660     6.6090     0.9450 C.3   1 <1>   0.0210 
 18 C       -4.1410    -6.0610    -1.1570 C.3   1 <1>  -0.0970 
 19 C        2.4940     7.0890     0.3930 C.2   1 <1>  -0.1810 
 20 C        2.6980     7.8020    -0.7880 C.2   1 <1>   0.1080 
 21 C        3.7310     6.9230     0.9140 C.2   1 <1>  -0.3320 
 22 N        3.9490     8.0540    -0.9960 N.2   1 <1>  -0.7070 
 23 C        1.6300     8.2630    -1.7530 C.3   1 <1>  -0.0590 
 24 N        4.5880     7.5180     0.0570 N.pl3 1 <1>   0.3000 
 25 C        4.1940     6.2360     2.1870 C.3   1 <1>  -0.0600 
 26 H       -3.6630     0.3790     0.3200 H     1 <1>   0.1500 
 27 H       -1.5850     2.7610     2.3470 H     1 <1>   0.0800 
 28 H       -2.6970     3.0040     1.0170 H     1 <1>   0.0800 
 29 H        0.2100     2.7270     0.7460 H     1 <1>   0.4500 
 30 H       -0.6220    -3.1410    -0.3520 H     1 <1>   0.1500 
 31 H       -4.5580    -1.7620     0.5260 H     1 <1>   0.1500 
 32 H       -0.4460     4.7270     2.0110 H     1 <1>   0.0800 
 33 H       -1.2620     5.2820     0.5670 H     1 <1>   0.0800 
 34 H       -1.7560     3.6260    -1.2730 H     1 <1>   0.0800 
 35 H       -0.9680     2.0610    -1.2270 H     1 <1>   0.0800 
 36 H       -0.0260     3.5010    -1.5140 H     1 <1>   0.0800 
 37 H       -1.5390    -5.2780    -1.0810 H     1 <1>   0.1500 
 38 H       -5.4690    -3.8890    -0.2090 H     1 <1>   0.1500 
 39 H        0.8730     5.2460    -0.6640 H     1 <1>   0.0800 
 40 H        1.6820     4.5540     0.7220 H     1 <1>   0.0800 
 41 H        1.2130     6.6020     2.0190 H     1 <1>   0.0800 
 42 H        0.3900     7.2950     0.6520 H     1 <1>   0.0800 
 43 H       -3.5230    -6.4950    -1.9230 H     1 <1>   0.0800 
 44 H       -5.1310    -5.9300    -1.5560 H     1 <1>   0.0800 
 45 H       -4.1890    -6.7390    -0.3240 H     1 <1>   0.0800 
 46 H        1.0210     7.4340    -2.0580 H     1 <1>   0.0800 
 47 H        2.0900     8.6930    -2.6250 H     1 <1>   0.0800 
 48 H        1.0170     9.0110    -1.2850 H     1 <1>   0.0800 
 49 H        5.6080     7.5770     0.1600 H     1 <1>   0.2700 
 50 H        3.3620     5.8150     2.7210 H     1 <1>   0.0800 
 51 H        4.6860     6.9440     2.8300 H     1 <1>   0.0800 
 52 H        4.8830     5.4440     1.9510 H     1 <1>   0.0800 
@<TRIPOS>BOND
  1   1   2  1   
  2   1   3  1   
  3   2   4  2   
  4   3   5  2   
  5   3   6  1   
  6   4   5  1   
  7   4   7  1   
  8   5  26  1   
  9   6   8  1   
 10   6  27  1   
 11   6  28  1   
 12   7   9  ar  
 13   7  10  ar  
 14   8  11  1   
 15   8  12  1   
 16   8  29  1   
 17   9  13  ar  
 18   9  30  1   
 19  10  14  ar  
 20  10  31  1   
 21  11  15  1   
 22  11  32  1   
 23  11  33  1   
 24  12  34  1   
 25  12  35  1   
 26  12  36  1   
 27  13  16  ar  
 28  13  37  1   
 29  14  16  ar  
 30  14  38  1   
 31  15  17  1   
 32  15  39  1   
 33  15  40  1   
 34  16  18  1   
 35  17  19  1   
 36  17  41  1   
 37  17  42  1   
 38  18  43  1   
 39  18  44  1   
 40  18  45  1   
 41  19  20  1   
 42  19  21  2   
 43  20  22  2   
 44  20  23  1   
 45  21  24  1   
 46  21  25  1   
 47  22  24  1   
 48  23  46  1   
 49  23  47  1   
 50  23  48  1   
 51  24  49  1   
 52  25  50  1   
 53  25  51  1   
 54  25  52  1   
@<TRIPOS>SUBSTRUCTURE
  1 ****   8 GROUP 4 **** **** 0

# MOE 2024.06 (io_trps.svl 2023.06)
