@<TRIPOS>MOLECULE
NONAME
43 45 1 0 0 
SMALL
USER_CHARGES


@<TRIPOS>ATOM
  1 O       -3.4660     0.8560    -2.3610 O.2   1 <1>  -0.5700 
  2 C       -2.8020     0.8890    -1.3400 C.2   1 <1>   0.5440 
  3 N       -2.3240    -0.2970    -0.8550 N.am  1 <1>  -0.7300 
  4 C       -2.5300     2.1460    -0.6420 C.ar  1 <1>   0.3960 
  5 C       -2.4790    -1.6310    -1.4800 C.3   1 <1>   0.2200 
  6 N       -1.8340     2.1390     0.4970 N.ar  1 <1>  -0.6200 
  7 C       -2.9880     3.3490    -1.1490 C.ar  1 <1>  -0.1500 
  8 C       -3.5090    -2.4740    -0.7420 C.3   1 <1>  -0.0800 
  9 C       -1.2180    -2.4470    -1.2290 C.3   1 <1>   0.1200 
 10 C       -1.6240     3.3070     1.0680 C.ar  1 <1>   0.4770 
 11 C       -2.7110     4.5050    -0.4660 C.ar  1 <1>   0.1660 
 12 C       -2.6990    -3.0760     0.4100 C.3   1 <1>   0.1200 
 13 C       -4.7880    -1.7390    -0.3000 C.3   1 <1>  -0.0170 
 14 O       -1.3480    -2.9470     0.0680 O.3   1 <1>  -0.5600 
 15 N       -2.0250     4.4930     0.6510 N.ar  1 <1>  -0.6200 
 16 C       -0.8340     3.3000     2.3540 C.3   1 <1>  -0.0970 
 17 C       -3.1830     5.8530    -0.9670 C.3   1 <1>  -0.0970 
 18 C       -5.7760    -2.7050     0.3350 C.ar  1 <1>  -0.1430 
 19 C       -5.8910    -2.8420     1.7040 C.ar  1 <1>  -0.1500 
 20 C       -6.6080    -3.4970    -0.4290 C.ar  1 <1>  -0.1500 
 21 C       -6.8040    -3.7440     2.2270 C.ar  1 <1>   0.1600 
 22 C       -7.4870    -4.3680     0.1940 C.ar  1 <1>   0.1600 
 23 N       -7.6030    -4.5120     1.5050 N.ar  1 <1>  -0.6200 
 24 H       -1.7820    -0.2820     0.0160 H     1 <1>   0.3700 
 25 H       -2.6970    -1.5340    -2.5300 H     1 <1>   0.0800 
 26 H       -3.5500     3.3670    -2.0640 H     1 <1>   0.1500 
 27 H       -3.7950    -3.2830    -1.3910 H     1 <1>   0.0800 
 28 H       -0.3190    -1.8610    -1.3060 H     1 <1>   0.0800 
 29 H       -1.1680    -3.2870    -1.9010 H     1 <1>   0.0800 
 30 H       -2.9260    -4.1180     0.5580 H     1 <1>   0.0800 
 31 H       -2.8520    -2.5350     1.3270 H     1 <1>   0.0800 
 32 H       -5.2450    -1.2720    -1.1560 H     1 <1>   0.0800 
 33 H       -4.5500    -0.9590     0.4020 H     1 <1>   0.0800 
 34 H        0.0060     3.9620     2.2610 H     1 <1>   0.0800 
 35 H       -0.4770     2.3110     2.5760 H     1 <1>   0.0800 
 36 H       -1.4600     3.6370     3.1580 H     1 <1>   0.0800 
 37 H       -3.7340     5.7550    -1.8840 H     1 <1>   0.0800 
 38 H       -2.3350     6.4910    -1.1370 H     1 <1>   0.0800 
 39 H       -3.8160     6.3100    -0.2280 H     1 <1>   0.0800 
 40 H       -5.2830    -2.2580     2.3690 H     1 <1>   0.1500 
 41 H       -6.5820    -3.4450    -1.5020 H     1 <1>   0.1500 
 42 H       -6.8800    -3.8380     3.2970 H     1 <1>   0.1500 
 43 H       -8.1280    -4.9780    -0.4180 H     1 <1>   0.1500 
@<TRIPOS>BOND
  1   1   2  2   
  2   2   3  am  
  3   2   4  1   
  4   3   5  1   
  5   3  24  1   
  6   4   6  ar  
  7   4   7  ar  
  8   5   8  1   
  9   5   9  1   
 10   5  25  1   
 11   6  10  ar  
 12   7  11  ar  
 13   7  26  1   
 14   8  12  1   
 15   8  13  1   
 16   8  27  1   
 17   9  14  1   
 18   9  28  1   
 19   9  29  1   
 20  10  15  ar  
 21  10  16  1   
 22  11  15  ar  
 23  11  17  1   
 24  12  14  1   
 25  12  30  1   
 26  12  31  1   
 27  13  18  1   
 28  13  32  1   
 29  13  33  1   
 30  16  34  1   
 31  16  35  1   
 32  16  36  1   
 33  17  37  1   
 34  17  38  1   
 35  17  39  1   
 36  18  19  ar  
 37  18  20  ar  
 38  19  21  ar  
 39  19  40  1   
 40  20  22  ar  
 41  20  41  1   
 42  21  23  ar  
 43  21  42  1   
 44  22  23  ar  
 45  22  43  1   
@<TRIPOS>SUBSTRUCTURE
  1 ****   3 GROUP 4 **** **** 0

# MOE 2024.06 (io_trps.svl 2023.06)
