@<TRIPOS>MOLECULE
NONAME
53 56 1 0 0 
SMALL
USER_CHARGES


@<TRIPOS>ATOM
  1 O       -1.2720     0.7370     2.7620 O.3   1 <1>  -0.5600 
  2 C       -0.2030     0.7540     1.8630 C.3   1 <1>   0.1200 
  3 C       -2.4430     1.1700     2.1320 C.3   1 <1>   0.1200 
  4 C       -0.5370     1.8420     0.8500 C.3   1 <1>   0.2890 
  5 C       -2.0450     1.6660     0.7380 C.3   1 <1>  -0.0800 
  6 N       -0.1870     3.1600     1.4310 N.pl3 1 <1>  -0.8690 
  7 C       -2.8400     2.8990     0.2640 C.3   1 <1>  -0.0170 
  8 C        0.1350     4.2890     0.7220 C.ar  1 <1>   0.4100 
  9 C       -4.3120     2.5580     0.0600 C.ar  1 <1>  -0.1430 
 10 N        0.2050     4.1770    -0.5880 N.ar  1 <1>  -0.6200 
 11 C        0.3570     5.5030     1.3580 C.ar  1 <1>  -0.1430 
 12 C       -4.7760     1.8730    -1.0880 C.ar  1 <1>   0.0000 
 13 C       -5.2350     2.9100     1.0010 C.ar  1 <1>  -0.1500 
 14 C        0.4900     5.2810    -1.2470 C.ar  1 <1>   0.4770 
 15 C        0.6430     6.5770     0.5550 C.ar  1 <1>   0.1600 
 16 C        0.2910     5.6620     2.8730 C.3   1 <1>  -0.0170 
 17 C       -6.1610     1.5860    -1.1670 C.ar  1 <1>   0.3100 
 18 C       -3.9520     1.4610    -2.1620 C.ar  1 <1>  -0.1500 
 19 C       -6.5840     2.5830     0.8220 C.ar  1 <1>   0.1600 
 20 N        0.7110     6.4850    -0.7570 N.ar  1 <1>  -0.6200 
 21 C        0.5680     5.1610    -2.7500 C.3   1 <1>  -0.0970 
 22 C       -1.1610     5.8030     3.3470 C.3   1 <1>  -0.1600 
 23 N       -7.0490     1.9450    -0.2060 N.ar  1 <1>  -0.6200 
 24 C       -6.6480     0.8970    -2.2880 C.ar  1 <1>  -0.1500 
 25 C       -4.4600     0.7930    -3.2420 C.ar  1 <1>  -0.1500 
 26 C       -1.2440     5.9410     4.8700 C.3   1 <1>  -0.2400 
 27 C       -5.8250     0.5040    -3.3080 C.ar  1 <1>  -0.1500 
 28 H        0.7140     0.9470     2.3890 H     1 <1>   0.0800 
 29 H       -0.1590    -0.2080     1.3850 H     1 <1>   0.0800 
 30 H       -3.1380     0.3500     2.0800 H     1 <1>   0.0800 
 31 H       -2.8580     1.9620     2.7310 H     1 <1>   0.0800 
 32 H       -0.0270     1.6880    -0.0860 H     1 <1>   0.0800 
 33 H       -2.2250     0.8580     0.0510 H     1 <1>   0.0800 
 34 H       -0.3900     3.2380     2.4290 H     1 <1>   0.4000 
 35 H       -2.4230     3.2800    -0.6510 H     1 <1>   0.0800 
 36 H       -2.7540     3.6870     0.9900 H     1 <1>   0.0800 
 37 H       -4.9560     3.4380     1.8940 H     1 <1>   0.1500 
 38 H        0.8210     7.5450     0.9900 H     1 <1>   0.1500 
 39 H        0.7550     4.8140     3.3470 H     1 <1>   0.0800 
 40 H        0.8480     6.5350     3.1690 H     1 <1>   0.0800 
 41 H       -2.9010     1.6780    -2.1340 H     1 <1>   0.1500 
 42 H       -7.2790     2.8780     1.5890 H     1 <1>   0.1500 
 43 H        1.4670     5.6330    -3.1020 H     1 <1>   0.0800 
 44 H       -0.2810     5.6490    -3.1890 H     1 <1>   0.0800 
 45 H        0.5760     4.1290    -3.0470 H     1 <1>   0.0800 
 46 H       -1.6030     6.6700     2.8860 H     1 <1>   0.0800 
 47 H       -1.7290     4.9420     3.0390 H     1 <1>   0.0800 
 48 H       -7.7020     0.6880    -2.3190 H     1 <1>   0.1500 
 49 H       -3.8210     0.4840    -4.0510 H     1 <1>   0.1500 
 50 H       -0.7020     6.8100     5.2010 H     1 <1>   0.0800 
 51 H       -0.8310     5.0720     5.3510 H     1 <1>   0.0800 
 52 H       -2.2700     6.0430     5.1750 H     1 <1>   0.0800 
 53 H       -6.2130    -0.0240    -4.1620 H     1 <1>   0.1500 
@<TRIPOS>BOND
  1   1   2  1   
  2   1   3  1   
  3   2   4  1   
  4   2  28  1   
  5   2  29  1   
  6   3   5  1   
  7   3  30  1   
  8   3  31  1   
  9   4   5  1   
 10   4   6  1   
 11   4  32  1   
 12   5   7  1   
 13   5  33  1   
 14   6   8  1   
 15   6  34  1   
 16   7   9  1   
 17   7  35  1   
 18   7  36  1   
 19   8  10  ar  
 20   8  11  ar  
 21   9  12  ar  
 22   9  13  ar  
 23  10  14  ar  
 24  11  15  ar  
 25  11  16  1   
 26  12  17  ar  
 27  12  18  ar  
 28  13  19  ar  
 29  13  37  1   
 30  14  20  ar  
 31  14  21  1   
 32  15  20  ar  
 33  15  38  1   
 34  16  22  1   
 35  16  39  1   
 36  16  40  1   
 37  17  23  ar  
 38  17  24  ar  
 39  18  25  ar  
 40  18  41  1   
 41  19  23  ar  
 42  19  42  1   
 43  21  43  1   
 44  21  44  1   
 45  21  45  1   
 46  22  26  1   
 47  22  46  1   
 48  22  47  1   
 49  24  27  ar  
 50  24  48  1   
 51  25  27  ar  
 52  25  49  1   
 53  26  50  1   
 54  26  51  1   
 55  26  52  1   
 56  27  53  1   
@<TRIPOS>SUBSTRUCTURE
  1 ****   7 GROUP 4 **** **** 0

# MOE 2024.06 (io_trps.svl 2023.06)
