@<TRIPOS>MOLECULE
NONAME
37 37 1 0 0 
SMALL
USER_CHARGES


@<TRIPOS>ATOM
  1 S       -0.0690     0.1900     0.5910 S.o2  1 <1>   2.0820 
  2 O       -1.0400     1.0540     1.1510 O.2   1 <1>  -0.7240 
  3 N       -0.8000    -0.7720    -0.5400 N.am  1 <1>  -0.9650 
  4 C        1.2900     1.0190    -0.2370 C.ar  1 <1>  -0.1190 
  5 C        0.6430    -0.9300     1.7530 C.3   1 <1>  -0.2320 
  6 C        1.5860     2.3530     0.0360 C.ar  1 <1>  -0.1500 
  7 C        2.0970     0.3430    -1.1510 C.ar  1 <1>  -0.1500 
  8 C        2.6550     3.0070    -0.5630 C.ar  1 <1>   0.1170 
  9 C        3.1610     0.9810    -1.7610 C.ar  1 <1>  -0.1500 
 10 N        2.9060     4.3480    -0.2490 N.am  1 <1>  -0.5470 
 11 C        3.4370     2.3010    -1.4680 C.ar  1 <1>  -0.1500 
 12 C        4.0810     5.0380    -0.2150 C.2   1 <1>   0.7800 
 13 O        5.1620     4.5240    -0.4070 O.2   1 <1>  -0.5700 
 14 O        3.9510     6.3320     0.0650 O.3   1 <1>  -0.4300 
 15 C        4.9840     7.2920     0.1630 C.3   1 <1>   0.2800 
 16 C        5.9370     6.9300     1.3080 C.3   1 <1>  -0.2400 
 17 C        5.7100     7.4290    -1.1810 C.3   1 <1>  -0.2400 
 18 C        4.2780     8.6080     0.4910 C.3   1 <1>  -0.2400 
 19 H       -1.1350    -0.1410    -1.2690 H     1 <1>   0.3600 
 20 H       -1.6510    -1.1230    -0.0990 H     1 <1>   0.3600 
 21 H       -0.1250    -1.5140     2.2200 H     1 <1>   0.0800 
 22 H        1.1700    -0.3850     2.5120 H     1 <1>   0.0800 
 23 H        1.3300    -1.5900     1.2600 H     1 <1>   0.0800 
 24 H        0.9850     2.9120     0.7350 H     1 <1>   0.1500 
 25 H        1.9140    -0.6900    -1.4060 H     1 <1>   0.1500 
 26 H        3.7830     0.4540    -2.4670 H     1 <1>   0.1500 
 27 H        2.1170     4.9360     0.0070 H     1 <1>   0.3700 
 28 H        4.2690     2.7860    -1.9510 H     1 <1>   0.1500 
 29 H        6.5020     6.0450     1.0790 H     1 <1>   0.0800 
 30 H        5.3890     6.7750     2.2190 H     1 <1>   0.0800 
 31 H        6.6390     7.7280     1.4650 H     1 <1>   0.0800 
 32 H        6.2760     6.5440    -1.4090 H     1 <1>   0.0800 
 33 H        6.3990     8.2520    -1.1420 H     1 <1>   0.0800 
 34 H        5.0050     7.6120    -1.9710 H     1 <1>   0.0800 
 35 H        3.7440     8.5240     1.4200 H     1 <1>   0.0800 
 36 H        3.5860     8.8660    -0.2910 H     1 <1>   0.0800 
 37 H        4.9950     9.4030     0.5840 H     1 <1>   0.0800 
@<TRIPOS>BOND
  1   1   2  2   
  2   1   3  am  
  3   1   4  1   
  4   1   5  1   
  5   3  19  1   
  6   3  20  1   
  7   4   6  ar  
  8   4   7  ar  
  9   5  21  1   
 10   5  22  1   
 11   5  23  1   
 12   6   8  ar  
 13   6  24  1   
 14   7   9  ar  
 15   7  25  1   
 16   8  10  1   
 17   8  11  ar  
 18   9  11  ar  
 19   9  26  1   
 20  10  12  am  
 21  10  27  1   
 22  11  28  1   
 23  12  13  2   
 24  12  14  1   
 25  14  15  1   
 26  15  16  1   
 27  15  17  1   
 28  15  18  1   
 29  16  29  1   
 30  16  30  1   
 31  16  31  1   
 32  17  32  1   
 33  17  33  1   
 34  17  34  1   
 35  18  35  1   
 36  18  36  1   
 37  18  37  1   
@<TRIPOS>SUBSTRUCTURE
  1 ****   8 GROUP 4 **** **** 0

# MOE 2024.06 (io_trps.svl 2023.06)
