@<TRIPOS>MOLECULE
NONAME
46 48 1 0 0 
SMALL
USER_CHARGES


@<TRIPOS>ATOM
  1 S        0.3690     0.5990    -1.2560 S.o2  1 <1>   1.3330 
  2 O       -0.3660     1.5370    -2.0730 O.2   1 <1>  -0.6500 
  3 O        0.5230    -0.7690    -1.6990 O.2   1 <1>  -0.6500 
  4 N       -0.3820     0.5690     0.2680 N.am  1 <1>  -0.8490 
  5 C        2.0020     1.2610    -0.9180 C.3   1 <1>  -0.0550 
  6 C       -0.9020     1.8770     0.6860 C.3   1 <1>   0.1160 
  7 C       -1.4520    -0.4310     0.3340 C.3   1 <1>   0.1160 
  8 C        2.9180     0.3160    -0.1100 C.3   1 <1>  -0.0800 
  9 C        4.3490     0.8040     0.0540 C.3   1 <1>   0.2200 
 10 C        2.4820     0.0640     1.3380 C.3   1 <1>   0.1200 
 11 N        4.3780     2.2500     0.3710 N.am  1 <1>  -0.7300 
 12 C        4.7770     0.0150     1.2840 C.3   1 <1>   0.1200 
 13 O        3.6490    -0.0320     2.1040 O.3   1 <1>  -0.5600 
 14 C        4.6580     3.2720    -0.4940 C.2   1 <1>   0.5440 
 15 O        4.8900     2.9800    -1.6550 O.2   1 <1>  -0.5700 
 16 C        4.6500     4.6620    -0.0370 C.ar  1 <1>   0.3960 
 17 N        4.2800     4.9170     1.2570 N.ar  1 <1>  -0.6200 
 18 C        4.9980     5.6920    -0.8810 C.ar  1 <1>  -0.1500 
 19 C        4.2750     6.1530     1.6540 C.ar  1 <1>   0.1600 
 20 C        4.9940     7.0310    -0.4660 C.ar  1 <1>   0.0000 
 21 C        4.6160     7.2700     0.8620 C.ar  1 <1>   0.0000 
 22 C        5.3400     8.1180    -1.2910 C.ar  1 <1>  -0.1500 
 23 C        4.5960     8.5990     1.3320 C.ar  1 <1>  -0.1500 
 24 C        5.3120     9.3990    -0.8120 C.ar  1 <1>  -0.1500 
 25 C        4.9360     9.6420     0.5140 C.ar  1 <1>  -0.1500 
 26 H        2.4830     1.4630    -1.8560 H     1 <1>   0.0800 
 27 H        1.9020     2.1970    -0.4060 H     1 <1>   0.0800 
 28 H       -1.2890     1.8170     1.6880 H     1 <1>   0.0800 
 29 H       -1.6900     2.1990     0.0240 H     1 <1>   0.0800 
 30 H       -0.1160     2.6120     0.6700 H     1 <1>   0.0800 
 31 H       -1.8990    -0.4370     1.3130 H     1 <1>   0.0800 
 32 H       -1.0510    -1.4130     0.1430 H     1 <1>   0.0800 
 33 H       -2.2090    -0.2180    -0.4020 H     1 <1>   0.0800 
 34 H        2.9500    -0.6370    -0.6100 H     1 <1>   0.0800 
 35 H        4.9650     0.5910    -0.8040 H     1 <1>   0.0800 
 36 H        1.9200    -0.8490     1.4350 H     1 <1>   0.0800 
 37 H        1.9090     0.8860     1.7300 H     1 <1>   0.0800 
 38 H        4.1610     2.4920     1.3450 H     1 <1>   0.3700 
 39 H        5.5930     0.4750     1.8120 H     1 <1>   0.0800 
 40 H        5.0330    -0.9960     1.0180 H     1 <1>   0.0800 
 41 H        5.2840     5.4740    -1.8940 H     1 <1>   0.1500 
 42 H        3.9870     6.3510     2.6720 H     1 <1>   0.1500 
 43 H        5.6290     7.9230    -2.3090 H     1 <1>   0.1500 
 44 H        4.3070     8.7840     2.3510 H     1 <1>   0.1500 
 45 H        5.5770    10.2310    -1.4420 H     1 <1>   0.1500 
 46 H        4.9200    10.6560     0.8750 H     1 <1>   0.1500 
@<TRIPOS>BOND
  1   1   2  2   
  2   1   3  2   
  3   1   4  am  
  4   1   5  1   
  5   4   6  1   
  6   4   7  1   
  7   5   8  1   
  8   5  26  1   
  9   5  27  1   
 10   6  28  1   
 11   6  29  1   
 12   6  30  1   
 13   7  31  1   
 14   7  32  1   
 15   7  33  1   
 16   8   9  1   
 17   8  10  1   
 18   8  34  1   
 19   9  11  1   
 20   9  12  1   
 21   9  35  1   
 22  10  13  1   
 23  10  36  1   
 24  10  37  1   
 25  11  14  am  
 26  11  38  1   
 27  12  13  1   
 28  12  39  1   
 29  12  40  1   
 30  14  15  2   
 31  14  16  1   
 32  16  17  ar  
 33  16  18  ar  
 34  17  19  ar  
 35  18  20  ar  
 36  18  41  1   
 37  19  21  ar  
 38  19  42  1   
 39  20  21  ar  
 40  20  22  ar  
 41  21  23  ar  
 42  22  24  ar  
 43  22  43  1   
 44  23  25  ar  
 45  23  44  1   
 46  24  25  ar  
 47  24  45  1   
 48  25  46  1   
@<TRIPOS>SUBSTRUCTURE
  1 ****  14 GROUP 4 **** **** 0

# MOE 2024.06 (io_trps.svl 2023.06)
