@<TRIPOS>MOLECULE
NONAME
45 47 1 0 0 
SMALL
USER_CHARGES


@<TRIPOS>ATOM
  1 S        0.3870     0.1390     0.3510 S.3   1 <1>  -0.0800 
  2 C       -0.8740     1.2490    -0.0590 C.2   1 <1>   0.1980 
  3 C       -0.6520    -1.1160    -0.2270 C.2   1 <1>   0.1980 
  4 N       -1.8940     0.6800    -0.5580 N.2   1 <1>  -0.3380 
  5 C       -0.6460     2.7230     0.1920 C.3   1 <1>   0.0200 
  6 N       -1.7660    -0.6790    -0.6540 N.2   1 <1>  -0.3380 
  7 C       -0.1530    -2.5420    -0.1680 C.3   1 <1>  -0.0600 
  8 C        0.1020     3.3370    -0.9890 C.3   1 <1>   0.2090 
  9 N        0.3990     4.7660    -0.7120 N.pl3 1 <1>  -0.8690 
 10 C        1.5490     5.3720    -0.3760 C.ar  1 <1>   0.4100 
 11 N        1.4760     6.6810    -0.3120 N.ar  1 <1>  -0.6200 
 12 C        2.7410     4.6730    -0.1090 C.ar  1 <1>  -0.1500 
 13 C        2.5770     7.3490     0.0060 C.ar  1 <1>   0.7710 
 14 C        3.8540     5.3750     0.2140 C.ar  1 <1>   0.2180 
 15 N        3.7400     6.7240     0.2610 N.ar  1 <1>  -0.1790 
 16 N        2.5350     8.7010     0.0740 N.pl3 1 <1>  -0.8380 
 17 C        5.2010     4.7320     0.5210 C.3   1 <1>  -0.0170 
 18 C        1.2880     9.4580    -0.2350 C.3   1 <1>   0.2090 
 19 C        3.6160     9.6470     0.4650 C.3   1 <1>   0.2090 
 20 C        6.2750     5.1240    -0.5030 C.3   1 <1>  -0.2400 
 21 C        1.7010    10.9220    -0.2500 C.3   1 <1>  -0.1600 
 22 C        2.9180    10.9850     0.6640 C.3   1 <1>  -0.1600 
 23 H       -0.0830     2.8480     1.0980 H     1 <1>   0.0800 
 24 H       -1.5990     3.2070     0.3050 H     1 <1>   0.0800 
 25 H        0.7420    -2.6410    -0.7540 H     1 <1>   0.0800 
 26 H       -0.9030    -3.2040    -0.5610 H     1 <1>   0.0800 
 27 H        0.0560    -2.8150     0.8500 H     1 <1>   0.0800 
 28 H       -0.5080     3.2670    -1.8750 H     1 <1>   0.0800 
 29 H        1.0100     2.7920    -1.1740 H     1 <1>   0.0800 
 30 H       -0.3950     5.3980    -0.8660 H     1 <1>   0.4000 
 31 H        2.7450     3.6020    -0.1640 H     1 <1>   0.1500 
 32 H        4.5220     7.3260     0.4770 H     1 <1>   0.4570 
 33 H        5.0950     3.6600     0.5140 H     1 <1>   0.0800 
 34 H        5.5220     5.0140     1.5100 H     1 <1>   0.0800 
 35 H        0.5620     9.2820     0.5430 H     1 <1>   0.0800 
 36 H        0.8720     9.1600    -1.1850 H     1 <1>   0.0800 
 37 H        4.3300     9.7300    -0.3380 H     1 <1>   0.0800 
 38 H        4.1080     9.3420     1.3730 H     1 <1>   0.0800 
 39 H        5.9680     4.8460    -1.4970 H     1 <1>   0.0800 
 40 H        7.1940     4.6070    -0.2820 H     1 <1>   0.0800 
 41 H        6.4750     6.1810    -0.4830 H     1 <1>   0.0800 
 42 H        0.9040    11.5650     0.0810 H     1 <1>   0.0800 
 43 H        1.9770    11.1990    -1.2530 H     1 <1>   0.0800 
 44 H        3.5620    11.8150     0.4310 H     1 <1>   0.0800 
 45 H        2.5990    11.0690     1.6890 H     1 <1>   0.0800 
@<TRIPOS>BOND
  1   1   2  1   
  2   1   3  1   
  3   2   4  2   
  4   2   5  1   
  5   3   6  2   
  6   3   7  1   
  7   4   6  1   
  8   5   8  1   
  9   5  23  1   
 10   5  24  1   
 11   7  25  1   
 12   7  26  1   
 13   7  27  1   
 14   8   9  1   
 15   8  28  1   
 16   8  29  1   
 17   9  10  1   
 18   9  30  1   
 19  10  11  ar  
 20  10  12  ar  
 21  11  13  ar  
 22  12  14  ar  
 23  12  31  1   
 24  13  15  ar  
 25  13  16  1   
 26  14  15  ar  
 27  14  17  1   
 28  15  32  1   
 29  16  18  1   
 30  16  19  1   
 31  17  20  1   
 32  17  33  1   
 33  17  34  1   
 34  18  21  1   
 35  18  35  1   
 36  18  36  1   
 37  19  22  1   
 38  19  37  1   
 39  19  38  1   
 40  20  39  1   
 41  20  40  1   
 42  20  41  1   
 43  21  22  1   
 44  21  42  1   
 45  21  43  1   
 46  22  44  1   
 47  22  45  1   
@<TRIPOS>SUBSTRUCTURE
  1 ****  10 GROUP 4 **** **** 0

# MOE 2024.06 (io_trps.svl 2023.06)
