@<TRIPOS>MOLECULE
NONAME
53 56 1 0 0 
SMALL
USER_CHARGES


@<TRIPOS>ATOM
  1 O       -0.7710     0.8920    -2.0410 O.2   1 <1>  -0.5700 
  2 C       -1.6310     1.0860    -1.2090 C.2   1 <1>   0.5690 
  3 N       -2.9020     0.5720    -1.3780 N.am  1 <1>  -0.6600 
  4 C       -1.2170     1.9460     0.0060 C.3   1 <1>   0.2610 
  5 C       -4.0390     0.7480    -0.4340 C.3   1 <1>   0.1400 
  6 C       -3.2170    -0.3710    -2.4850 C.3   1 <1>   0.1400 
  7 O       -1.6040     1.4220     1.2500 O.3   1 <1>  -0.5600 
  8 C       -1.7660     3.3740    -0.0050 C.3   1 <1>  -0.1600 
  9 C       -4.3550    -0.6040     0.2070 C.3   1 <1>  -0.1600 
 10 C       -3.5350    -1.7440    -1.8870 C.3   1 <1>  -0.1600 
 11 C       -1.5700     2.4300     2.2020 C.3   1 <1>   0.1200 
 12 C       -1.9990     3.6950     1.4670 C.3   1 <1>  -0.1600 
 13 C       -4.6700    -1.6740    -0.8530 C.3   1 <1>   0.4240 
 14 O       -5.8020    -1.2500    -1.5780 O.3   1 <1>  -0.5600 
 15 C       -4.8930    -3.0580    -0.2040 C.ar  1 <1>  -0.1430 
 16 C       -7.0560    -1.5310    -1.0390 C.3   1 <1>   0.1200 
 17 C       -6.1160    -3.7090    -0.2900 C.ar  1 <1>  -0.1430 
 18 C       -3.8650    -3.6820     0.4910 C.ar  1 <1>  -0.1500 
 19 C       -7.2600    -3.0430    -1.0300 C.3   1 <1>  -0.0170 
 20 C       -6.2990    -4.9510     0.2960 C.ar  1 <1>  -0.1500 
 21 C       -4.0270    -4.9250     1.0780 C.ar  1 <1>   0.0820 
 22 C       -5.2680    -5.5750     0.9920 C.ar  1 <1>   0.0820 
 23 O       -2.9240    -5.4120     1.7120 O.3   1 <1>  -0.3620 
 24 O       -5.4470    -6.7840     1.6020 O.3   1 <1>  -0.3630 
 25 C       -2.6240    -6.7890     1.6780 C.3   1 <1>   0.0400 
 26 C       -6.7140    -7.3960     1.6970 C.3   1 <1>   0.0400 
 27 H       -0.1420     1.9890     0.0220 H     1 <1>   0.0800 
 28 H       -3.8160     1.4700     0.3270 H     1 <1>   0.0800 
 29 H       -4.8960     1.1030    -0.9810 H     1 <1>   0.0800 
 30 H       -4.0640    -0.0010    -3.0370 H     1 <1>   0.0800 
 31 H       -2.3880    -0.4570    -3.1670 H     1 <1>   0.0800 
 32 H       -1.0570     4.0420    -0.4610 H     1 <1>   0.0800 
 33 H       -2.6880     3.4200    -0.5570 H     1 <1>   0.0800 
 34 H       -5.1760    -0.5060     0.8910 H     1 <1>   0.0800 
 35 H       -3.5000    -0.9040     0.7840 H     1 <1>   0.0800 
 36 H       -2.6390    -2.1200    -1.4300 H     1 <1>   0.0800 
 37 H       -3.8110    -2.4290    -2.6680 H     1 <1>   0.0800 
 38 H       -2.2330     2.1740     3.0110 H     1 <1>   0.0800 
 39 H       -0.5590     2.5120     2.5630 H     1 <1>   0.0800 
 40 H       -3.0420     3.8890     1.6510 H     1 <1>   0.0800 
 41 H       -1.4220     4.5420     1.7950 H     1 <1>   0.0800 
 42 H       -7.1130    -1.1260    -0.0440 H     1 <1>   0.0800 
 43 H       -7.7950    -1.0540    -1.6570 H     1 <1>   0.0800 
 44 H       -2.9050    -3.2070     0.5880 H     1 <1>   0.1500 
 45 H       -8.1960    -3.2700    -0.5540 H     1 <1>   0.0800 
 46 H       -7.2970    -3.4050    -2.0420 H     1 <1>   0.0800 
 47 H       -7.2600    -5.4180     0.2000 H     1 <1>   0.1500 
 48 H       -1.5730    -6.9080     1.8670 H     1 <1>   0.0800 
 49 H       -2.8730    -7.1800     0.7080 H     1 <1>   0.0800 
 50 H       -3.1900    -7.2850     2.4460 H     1 <1>   0.0800 
 51 H       -6.6080    -8.2930     2.2790 H     1 <1>   0.0800 
 52 H       -7.0590    -7.6420     0.7080 H     1 <1>   0.0800 
 53 H       -7.3920    -6.7210     2.1880 H     1 <1>   0.0800 
@<TRIPOS>BOND
  1   1   2  2   
  2   2   3  am  
  3   2   4  1   
  4   3   5  1   
  5   3   6  1   
  6   4   7  1   
  7   4   8  1   
  8   4  27  1   
  9   5   9  1   
 10   5  28  1   
 11   5  29  1   
 12   6  10  1   
 13   6  30  1   
 14   6  31  1   
 15   7  11  1   
 16   8  12  1   
 17   8  32  1   
 18   8  33  1   
 19   9  13  1   
 20   9  34  1   
 21   9  35  1   
 22  10  13  1   
 23  10  36  1   
 24  10  37  1   
 25  11  12  1   
 26  11  38  1   
 27  11  39  1   
 28  12  40  1   
 29  12  41  1   
 30  13  14  1   
 31  13  15  1   
 32  14  16  1   
 33  15  17  ar  
 34  15  18  ar  
 35  16  19  1   
 36  16  42  1   
 37  16  43  1   
 38  17  19  1   
 39  17  20  ar  
 40  18  21  ar  
 41  18  44  1   
 42  19  45  1   
 43  19  46  1   
 44  20  22  ar  
 45  20  47  1   
 46  21  22  ar  
 47  21  23  1   
 48  22  24  1   
 49  23  25  1   
 50  24  26  1   
 51  25  48  1   
 52  25  49  1   
 53  25  50  1   
 54  26  51  1   
 55  26  52  1   
 56  26  53  1   
@<TRIPOS>SUBSTRUCTURE
  1 ****  13 GROUP 4 **** **** 0

# MOE 2024.06 (io_trps.svl 2023.06)
