@<TRIPOS>MOLECULE
NONAME
45 47 1 0 0 
SMALL
USER_CHARGES


@<TRIPOS>ATOM
  1 O       -1.3250     0.3080     1.1610 O.3   1 <1>  -0.5600 
  2 C       -2.0020     1.3540     0.5440 C.3   1 <1>   0.1200 
  3 C       -1.1350    -0.8450     0.4100 C.3   1 <1>   0.1200 
  4 C       -3.5070     1.0530     0.3750 C.3   1 <1>   0.4230 
  5 C       -2.4290    -1.6710     0.3500 C.3   1 <1>  -0.0800 
  6 N       -3.7630     0.1910    -0.8530 N.4   1 <1>  -0.9590 
  7 C       -4.1400     0.5590     1.7170 C.3   1 <1>   0.2090 
  8 C       -3.1380    -1.7950     1.7130 C.3   1 <1>   0.2090 
  9 C       -3.3780    -1.2630    -0.7830 C.3   1 <1>   0.3430 
 10 C       -5.1870     0.2800    -1.3040 C.3   1 <1>   0.2630 
 11 N       -4.3570    -0.9290     1.8450 N.pl3 1 <1>  -0.8380 
 12 C       -5.5830    -1.4940     1.8930 C.ar  1 <1>   0.7710 
 13 N       -5.9110    -2.3360     0.9310 N.ar  1 <1>  -0.6200 
 14 N       -6.4140    -1.1690     2.8990 N.ar  1 <1>  -0.1790 
 15 C       -7.1260    -2.8530     0.9500 C.ar  1 <1>   0.4100 
 16 C       -7.6590    -1.7000     2.9710 C.ar  1 <1>   0.2110 
 17 N       -7.4730    -3.6810    -0.0700 N.pl3 1 <1>  -0.8380 
 18 C       -8.0330    -2.5520     1.9870 C.ar  1 <1>  -0.1500 
 19 C       -8.8810    -3.9360    -0.5040 C.3   1 <1>   0.1290 
 20 C       -6.4760    -4.4980    -0.8280 C.3   1 <1>   0.1290 
 21 H       -1.8860     2.2090     1.1880 H     1 <1>   0.0800 
 22 H       -1.5290     1.5830    -0.3940 H     1 <1>   0.0800 
 23 H       -0.7640    -0.5860    -0.5680 H     1 <1>   0.0800 
 24 H       -0.3710    -1.4140     0.9150 H     1 <1>   0.0800 
 25 H       -3.9490     2.0150     0.1750 H     1 <1>   0.0800 
 26 H       -2.1070    -2.6670     0.1020 H     1 <1>   0.0800 
 27 H       -3.1870     0.5960    -1.6030 H     1 <1>   0.4500 
 28 H       -5.0850     1.0610     1.8230 H     1 <1>   0.0800 
 29 H       -3.5240     0.8920     2.5370 H     1 <1>   0.0800 
 30 H       -2.4470    -1.5670     2.5090 H     1 <1>   0.0800 
 31 H       -3.4290    -2.8250     1.8470 H     1 <1>   0.0800 
 32 H       -4.2690    -1.8610    -0.6900 H     1 <1>   0.0800 
 33 H       -2.9210    -1.5390    -1.7200 H     1 <1>   0.0800 
 34 H       -5.8380    -0.1810    -0.5790 H     1 <1>   0.0800 
 35 H       -5.3130    -0.2340    -2.2440 H     1 <1>   0.0800 
 36 H       -5.4810     1.3080    -1.4360 H     1 <1>   0.0800 
 37 H       -6.0260    -0.5740     3.6260 H     1 <1>   0.4570 
 38 H       -8.3020    -1.4410     3.7990 H     1 <1>   0.1500 
 39 H       -9.0010    -3.0170     1.9900 H     1 <1>   0.1500 
 40 H       -8.9250    -4.0190    -1.5760 H     1 <1>   0.0800 
 41 H       -9.5270    -3.1290    -0.2070 H     1 <1>   0.0800 
 42 H       -9.2370    -4.8550    -0.0700 H     1 <1>   0.0800 
 43 H       -6.8080    -5.5210    -0.8830 H     1 <1>   0.0800 
 44 H       -5.5160    -4.4850    -0.3430 H     1 <1>   0.0800 
 45 H       -6.3720    -4.1110    -1.8270 H     1 <1>   0.0800 
@<TRIPOS>BOND
  1   1   2  1   
  2   1   3  1   
  3   2   4  1   
  4   2  21  1   
  5   2  22  1   
  6   3   5  1   
  7   3  23  1   
  8   3  24  1   
  9   4   6  1   
 10   4   7  1   
 11   4  25  1   
 12   5   8  1   
 13   5   9  1   
 14   5  26  1   
 15   6   9  1   
 16   6  10  1   
 17   6  27  1   
 18   7  11  1   
 19   7  28  1   
 20   7  29  1   
 21   8  11  1   
 22   8  30  1   
 23   8  31  1   
 24   9  32  1   
 25   9  33  1   
 26  10  34  1   
 27  10  35  1   
 28  10  36  1   
 29  11  12  1   
 30  12  13  ar  
 31  12  14  ar  
 32  13  15  ar  
 33  14  16  ar  
 34  14  37  1   
 35  15  17  1   
 36  15  18  ar  
 37  16  18  ar  
 38  16  38  1   
 39  17  19  1   
 40  17  20  1   
 41  18  39  1   
 42  19  40  1   
 43  19  41  1   
 44  19  42  1   
 45  20  43  1   
 46  20  44  1   
 47  20  45  1   
@<TRIPOS>SUBSTRUCTURE
  1 ****  11 GROUP 4 **** **** 0

# MOE 2024.06 (io_trps.svl 2023.06)
