@<TRIPOS>MOLECULE
NONAME
54 56 1 0 0 
SMALL
USER_CHARGES


@<TRIPOS>ATOM
  1 O       -0.9500    -3.1840    -2.3730 O.2   1 <1>  -0.5700 
  2 C       -0.3150    -2.8640    -1.3870 C.2   1 <1>   0.5440 
  3 N       -0.8580    -2.2750    -0.2760 N.am  1 <1>  -0.6600 
  4 C        1.0840    -3.1000    -1.1850 C.ar  1 <1>   0.0860 
  5 C       -2.3150    -2.0820     0.0060 C.3   1 <1>   0.3000 
  6 C        0.1880    -2.1470     0.7830 C.3   1 <1>   0.2840 
  7 C        1.4230    -2.6920     0.0890 C.ar  1 <1>  -0.1440 
  8 C        2.0540    -3.6540    -2.0110 C.ar  1 <1>  -0.1500 
  9 C       -2.5030    -1.1620     1.2340 C.3   1 <1>  -0.1600 
 10 C       -2.9610    -1.3490    -1.1980 C.3   1 <1>  -0.1600 
 11 C       -2.9700    -3.4710     0.1970 C.3   1 <1>  -0.0990 
 12 C        2.7140    -2.8150     0.5660 C.ar  1 <1>  -0.1500 
 13 C        3.3510    -3.7840    -1.5450 C.ar  1 <1>  -0.1500 
 14 C       -3.9840    -0.8370     1.4970 C.3   1 <1>   0.1200 
 15 C       -4.1250    -0.4200    -0.8200 C.3   1 <1>   0.1200 
 16 C       -2.3580    -4.3180     1.2990 C.2   1 <1>   0.5690 
 17 C        3.6810    -3.3650    -0.2620 C.ar  1 <1>  -0.1500 
 18 O       -4.7470    -0.9010     0.3260 O.3   1 <1>  -0.5600 
 19 O       -2.5570    -4.0090     2.4460 O.2   1 <1>  -0.5700 
 20 N       -1.6250    -5.4310     1.0580 N.am  1 <1>  -0.7300 
 21 C       -1.2090    -6.0730    -0.2170 C.3   1 <1>   0.2200 
 22 C       -2.1010    -7.3110    -0.5080 C.3   1 <1>  -0.0800 
 23 C        0.2950    -6.4060    -0.1180 C.3   1 <1>   0.1200 
 24 C       -3.5680    -6.9150    -0.7410 C.3   1 <1>  -0.2400 
 25 C       -2.0350    -8.3950     0.5840 C.3   1 <1>  -0.2400 
 26 O        0.7570    -7.0240    -1.2760 O.3   1 <1>  -0.6800 
 27 H        0.3250    -1.1160     1.0590 H     1 <1>   0.0800 
 28 H       -0.0620    -2.7430     1.6440 H     1 <1>   0.0800 
 29 H        1.7810    -3.9830    -2.9990 H     1 <1>   0.1500 
 30 H       -1.9910    -0.2340     1.0560 H     1 <1>   0.0800 
 31 H       -2.0920    -1.5870     2.1290 H     1 <1>   0.0800 
 32 H       -3.3150    -2.0620    -1.9200 H     1 <1>   0.0800 
 33 H       -2.2240    -0.7460    -1.6970 H     1 <1>   0.0800 
 34 H       -2.9400    -4.0020    -0.7320 H     1 <1>   0.0800 
 35 H       -4.0100    -3.3520     0.4290 H     1 <1>   0.0800 
 36 H        2.9700    -2.4940     1.5610 H     1 <1>   0.1500 
 37 H        4.1060    -4.2160    -2.1790 H     1 <1>   0.1500 
 38 H       -4.0910     0.1480     1.9190 H     1 <1>   0.0800 
 39 H       -4.4040    -1.5530     2.1840 H     1 <1>   0.0800 
 40 H       -4.8550    -0.3850    -1.6090 H     1 <1>   0.0800 
 41 H       -3.7770     0.5800    -0.6210 H     1 <1>   0.0800 
 42 H        4.6930    -3.4710     0.0900 H     1 <1>   0.1500 
 43 H       -1.3770    -5.9560     1.8960 H     1 <1>   0.3700 
 44 H       -1.3240    -5.3720    -1.0240 H     1 <1>   0.0800 
 45 H       -1.7570    -7.7500    -1.4280 H     1 <1>   0.0800 
 46 H        0.4930    -7.0640     0.7090 H     1 <1>   0.0800 
 47 H        0.8640    -5.5040     0.0140 H     1 <1>   0.0800 
 48 H       -4.0020    -6.4990     0.1510 H     1 <1>   0.0800 
 49 H       -4.1460    -7.7760    -1.0270 H     1 <1>   0.0800 
 50 H       -3.6380    -6.1890    -1.5320 H     1 <1>   0.0800 
 51 H       -2.3970    -8.0140     1.5240 H     1 <1>   0.0800 
 52 H       -1.0310    -8.7530     0.7180 H     1 <1>   0.0800 
 53 H       -2.6480    -9.2340     0.3060 H     1 <1>   0.0800 
 54 H        0.3050    -7.8780    -1.4180 H     1 <1>   0.4000 
@<TRIPOS>BOND
  1   1   2  2   
  2   2   3  am  
  3   2   4  1   
  4   3   5  1   
  5   3   6  1   
  6   4   7  ar  
  7   4   8  ar  
  8   5   9  1   
  9   5  10  1   
 10   5  11  1   
 11   6   7  1   
 12   6  27  1   
 13   6  28  1   
 14   7  12  ar  
 15   8  13  ar  
 16   8  29  1   
 17   9  14  1   
 18   9  30  1   
 19   9  31  1   
 20  10  15  1   
 21  10  32  1   
 22  10  33  1   
 23  11  16  1   
 24  11  34  1   
 25  11  35  1   
 26  12  17  ar  
 27  12  36  1   
 28  13  17  ar  
 29  13  37  1   
 30  14  18  1   
 31  14  38  1   
 32  14  39  1   
 33  15  18  1   
 34  15  40  1   
 35  15  41  1   
 36  16  19  2   
 37  16  20  am  
 38  17  42  1   
 39  20  21  1   
 40  20  43  1   
 41  21  22  1   
 42  21  23  1   
 43  21  44  1   
 44  22  24  1   
 45  22  25  1   
 46  22  45  1   
 47  23  26  1   
 48  23  46  1   
 49  23  47  1   
 50  24  48  1   
 51  24  49  1   
 52  24  50  1   
 53  25  51  1   
 54  25  52  1   
 55  25  53  1   
 56  26  54  1   
@<TRIPOS>SUBSTRUCTURE
  1 ****   3 GROUP 4 **** **** 0

# MOE 2024.06 (io_trps.svl 2023.06)
