@<TRIPOS>MOLECULE
NONAME
50 54 1 0 0 
SMALL
USER_CHARGES


@<TRIPOS>ATOM
  1 O       -0.7070     0.2640     0.6220 O.2   1 <1>  -0.5700 
  2 C       -1.6520     0.9150     0.2000 C.2   1 <1>   0.7160 
  3 N       -2.8300     0.2170    -0.0100 N.am  1 <1>  -0.6600 
  4 C       -1.4920     2.3510    -0.0560 C.2   1 <1>   0.2030 
  5 C       -4.0990     0.7810    -0.5390 C.3   1 <1>   0.1400 
  6 C       -2.9110    -1.2640     0.0450 C.3   1 <1>   0.1400 
  7 N       -2.4280     3.2040    -0.4580 N.2   1 <1>  -0.7070 
  8 C       -0.2780     3.0430     0.0960 C.2   1 <1>  -0.1810 
  9 C       -5.0920    -0.3800    -0.4860 C.3   1 <1>   0.2000 
 10 C       -4.2120    -1.6190    -0.6860 C.3   1 <1>  -0.0800 
 11 N       -1.8250     4.4010    -0.5510 N.pl3 1 <1>   0.3000 
 12 C       -0.5290     4.3220    -0.2120 C.2   1 <1>  -0.3320 
 13 C        1.1070     2.5640     0.5150 C.3   1 <1>   0.3010 
 14 O       -5.6580    -0.4090     0.7820 O.3   1 <1>  -0.6800 
 15 C       -4.8520    -2.9460    -0.2240 C.3   1 <1>  -0.0170 
 16 C        0.5350     5.3990    -0.1610 C.3   1 <1>   0.0200 
 17 O        2.0650     3.5540     0.2150 O.3   1 <1>  -0.5600 
 18 C       -4.0680    -4.2290    -0.5290 C.ar  1 <1>  -0.1440 
 19 C        1.7410     4.8560     0.6310 C.3   1 <1>   0.1200 
 20 C       -4.4800    -5.4560     0.0490 C.ar  1 <1>   0.0000 
 21 C       -2.9770    -4.2710    -1.3520 C.ar  1 <1>  -0.1500 
 22 C       -3.7220    -6.6170    -0.2420 C.ar  1 <1>   0.3100 
 23 C       -5.6060    -5.6020     0.8950 C.ar  1 <1>  -0.1500 
 24 C       -2.3010    -5.4760    -1.5780 C.ar  1 <1>   0.1600 
 25 N       -2.6370    -6.6100    -1.0540 N.ar  1 <1>  -0.6200 
 26 C       -4.1040    -7.8430     0.3280 C.ar  1 <1>  -0.1500 
 27 C       -5.9530    -6.8120     1.4320 C.ar  1 <1>  -0.1500 
 28 C       -5.1940    -7.9480     1.1490 C.ar  1 <1>  -0.1500 
 29 H       -4.4390     1.6190     0.0460 H     1 <1>   0.0800 
 30 H       -3.9460     1.0930    -1.5570 H     1 <1>   0.0800 
 31 H       -2.0500    -1.7100    -0.4240 H     1 <1>   0.0800 
 32 H       -2.9510    -1.5740     1.0750 H     1 <1>   0.0800 
 33 H       -5.8830    -0.2930    -1.2110 H     1 <1>   0.0800 
 34 H       -4.0020    -1.6810    -1.7380 H     1 <1>   0.0800 
 35 H       -2.3210     5.2510    -0.8470 H     1 <1>   0.2700 
 36 H        1.3810     1.6730    -0.0220 H     1 <1>   0.0800 
 37 H        1.1360     2.3650     1.5710 H     1 <1>   0.0800 
 38 H       -4.9520    -0.2570     1.4430 H     1 <1>   0.4000 
 39 H       -5.8230    -3.0320    -0.6790 H     1 <1>   0.0800 
 40 H       -4.9980    -2.8890     0.8400 H     1 <1>   0.0800 
 41 H        0.1600     6.2840     0.3190 H     1 <1>   0.0800 
 42 H        0.8460     5.6540    -1.1590 H     1 <1>   0.0800 
 43 H        1.5200     4.8260     1.6840 H     1 <1>   0.0800 
 44 H        2.6050     5.4780     0.4730 H     1 <1>   0.0800 
 45 H       -2.5920    -3.4060    -1.8570 H     1 <1>   0.1500 
 46 H       -6.2130    -4.7460     1.1250 H     1 <1>   0.1500 
 47 H       -1.4450    -5.4570    -2.2310 H     1 <1>   0.1500 
 48 H       -3.5060    -8.7030     0.0930 H     1 <1>   0.1500 
 49 H       -6.8120    -6.9040     2.0750 H     1 <1>   0.1500 
 50 H       -5.4750    -8.8950     1.5780 H     1 <1>   0.1500 
@<TRIPOS>BOND
  1   1   2  2   
  2   2   3  am  
  3   2   4  1   
  4   3   5  1   
  5   3   6  1   
  6   4   7  2   
  7   4   8  1   
  8   5   9  1   
  9   5  29  1   
 10   5  30  1   
 11   6  10  1   
 12   6  31  1   
 13   6  32  1   
 14   7  11  1   
 15   8  12  2   
 16   8  13  1   
 17   9  10  1   
 18   9  14  1   
 19   9  33  1   
 20  10  15  1   
 21  10  34  1   
 22  11  12  1   
 23  11  35  1   
 24  12  16  1   
 25  13  17  1   
 26  13  36  1   
 27  13  37  1   
 28  14  38  1   
 29  15  18  1   
 30  15  39  1   
 31  15  40  1   
 32  16  19  1   
 33  16  41  1   
 34  16  42  1   
 35  17  19  1   
 36  18  20  ar  
 37  18  21  ar  
 38  19  43  1   
 39  19  44  1   
 40  20  22  ar  
 41  20  23  ar  
 42  21  24  ar  
 43  21  45  1   
 44  22  25  ar  
 45  22  26  ar  
 46  23  27  ar  
 47  23  46  1   
 48  24  25  ar  
 49  24  47  1   
 50  26  28  ar  
 51  26  48  1   
 52  27  28  ar  
 53  27  49  1   
 54  28  50  1   
@<TRIPOS>SUBSTRUCTURE
  1 ****   6 GROUP 4 **** **** 0

# MOE 2024.06 (io_trps.svl 2023.06)
