@<TRIPOS>MOLECULE
NONAME
44 46 1 0 0 
SMALL
USER_CHARGES


@<TRIPOS>ATOM
  1 F       -0.8210     2.4800     3.5000 F     1 <1>  -0.1900 
  2 C       -1.0830     2.9220     2.3000 C.ar  1 <1>   0.1900 
  3 C       -2.3080     2.6170     1.7330 C.ar  1 <1>  -0.1500 
  4 C       -0.1230     3.6780     1.6460 C.ar  1 <1>  -0.1500 
  5 C       -2.5640     3.0960     0.4600 C.ar  1 <1>  -0.1440 
  6 C       -0.3940     4.1510     0.3720 C.ar  1 <1>  -0.1500 
  7 C       -1.6190     3.8550    -0.2160 C.ar  1 <1>   0.0280 
  8 C       -3.8150     2.9190    -0.4040 C.3   1 <1>   0.2820 
  9 C       -2.1510     4.2070    -1.4940 C.2   1 <1>  -0.1780 
 10 C       -3.3800     3.7010    -1.6400 C.2   1 <1>  -0.2880 
 11 C       -5.0440     3.5580     0.2560 C.3   1 <1>  -0.1600 
 12 C       -4.0610     1.4420    -0.7360 C.3   1 <1>  -0.1600 
 13 C       -6.3110     3.3460    -0.5750 C.3   1 <1>   0.1400 
 14 C       -5.3380     1.2480    -1.5560 C.3   1 <1>   0.1400 
 15 N       -6.4820     1.8940    -0.8570 N.am  1 <1>  -0.6600 
 16 C       -7.6130     1.1900    -0.5270 C.2   1 <1>   0.7800 
 17 O       -7.7320     0.0070    -0.7780 O.2   1 <1>  -0.5700 
 18 O       -8.5920     1.8590     0.0890 O.3   1 <1>  -0.4300 
 19 C       -9.8340     1.3540     0.5290 C.3   1 <1>   0.2800 
 20 C       -9.6200     0.2730     1.5950 C.3   1 <1>  -0.2400 
 21 C      -10.5480     2.5500     1.1600 C.3   1 <1>  -0.2400 
 22 C      -10.6540     0.8490    -0.6640 C.3   1 <1>  -0.2400 
 23 H       -3.0270     2.0270     2.2720 H     1 <1>   0.1500 
 24 H        0.8140     3.8880     2.1290 H     1 <1>   0.1500 
 25 H        0.3290     4.7400    -0.1630 H     1 <1>   0.1500 
 26 H       -1.5880     4.7980    -2.1950 H     1 <1>   0.1500 
 27 H       -4.0450     3.7850    -2.4800 H     1 <1>   0.1500 
 28 H       -4.8730     4.6110     0.3900 H     1 <1>   0.0800 
 29 H       -5.1960     3.1250     1.2280 H     1 <1>   0.0800 
 30 H       -4.1520     0.8790     0.1750 H     1 <1>   0.0800 
 31 H       -3.2210     1.0500    -1.2800 H     1 <1>   0.0800 
 32 H       -6.2360     3.8770    -1.5080 H     1 <1>   0.0800 
 33 H       -7.1570     3.7400    -0.0390 H     1 <1>   0.0800 
 34 H       -5.5200     0.1940    -1.6910 H     1 <1>   0.0800 
 35 H       -5.2270     1.6900    -2.5300 H     1 <1>   0.0800 
 36 H       -8.9810     0.6410     2.3770 H     1 <1>   0.0800 
 37 H       -9.1850    -0.6110     1.1690 H     1 <1>   0.0800 
 38 H      -10.5630    -0.0070     2.0270 H     1 <1>   0.0800 
 39 H       -9.9750     2.9340     1.9850 H     1 <1>   0.0800 
 40 H      -11.5150     2.2560     1.5270 H     1 <1>   0.0800 
 41 H      -10.6840     3.3300     0.4330 H     1 <1>   0.0800 
 42 H      -10.2180    -0.0360    -1.0880 H     1 <1>   0.0800 
 43 H      -10.7210     1.6080    -1.4210 H     1 <1>   0.0800 
 44 H      -11.6490     0.5970    -0.3440 H     1 <1>   0.0800 
@<TRIPOS>BOND
  1   1   2  1   
  2   2   3  ar  
  3   2   4  ar  
  4   3   5  ar  
  5   3  23  1   
  6   4   6  ar  
  7   4  24  1   
  8   5   7  ar  
  9   5   8  1   
 10   6   7  ar  
 11   6  25  1   
 12   7   9  1   
 13   8  10  1   
 14   8  11  1   
 15   8  12  1   
 16   9  10  2   
 17   9  26  1   
 18  10  27  1   
 19  11  13  1   
 20  11  28  1   
 21  11  29  1   
 22  12  14  1   
 23  12  30  1   
 24  12  31  1   
 25  13  15  1   
 26  13  32  1   
 27  13  33  1   
 28  14  15  1   
 29  14  34  1   
 30  14  35  1   
 31  15  16  am  
 32  16  17  2   
 33  16  18  1   
 34  18  19  1   
 35  19  20  1   
 36  19  21  1   
 37  19  22  1   
 38  20  36  1   
 39  20  37  1   
 40  20  38  1   
 41  21  39  1   
 42  21  40  1   
 43  21  41  1   
 44  22  42  1   
 45  22  43  1   
 46  22  44  1   
@<TRIPOS>SUBSTRUCTURE
  1 ****  11 GROUP 4 **** **** 0

# MOE 2024.06 (io_trps.svl 2023.06)
