@<TRIPOS>MOLECULE
NONAME
46 48 1 0 0 
SMALL
USER_CHARGES


@<TRIPOS>ATOM
  1 O       -0.5090    -2.2450    -1.6920 O.2   1 <1>  -0.5700 
  2 C       -0.3280    -2.4410    -0.5100 C.2   1 <1>   0.5690 
  3 N        0.9210    -2.6480     0.0050 N.am  1 <1>  -0.6600 
  4 C       -1.5690    -2.4260     0.3970 C.3   1 <1>   0.4040 
  5 C        2.1310    -2.6650    -0.8520 C.3   1 <1>   0.1400 
  6 C        1.2710    -2.9420     1.4160 C.3   1 <1>   0.1400 
  7 N       -2.7230    -1.6530    -0.1930 N.4   1 <1>  -0.9590 
  8 C        3.3000    -2.7390     0.1230 C.3   1 <1>  -0.1600 
  9 C        2.7220    -3.4050     1.3680 C.3   1 <1>  -0.1600 
 10 C       -4.0220    -1.9660     0.4800 C.3   1 <1>   0.3430 
 11 C       -2.4410    -0.1910    -0.2370 C.3   1 <1>   0.3430 
 12 C       -5.2100    -1.2750    -0.2250 C.3   1 <1>   0.0000 
 13 C       -3.5760     0.5340    -0.9640 C.3   1 <1>  -0.1600 
 14 C       -6.5140    -1.5750     0.5360 C.3   1 <1>   0.2000 
 15 C       -4.9450     0.2410    -0.3290 C.3   1 <1>  -0.1600 
 16 C       -5.4770    -1.9210    -1.5960 C.3   1 <1>  -0.1600 
 17 O       -6.2860    -1.6670     1.8980 O.3   1 <1>  -0.6800 
 18 C       -7.0400    -2.9100     0.0020 C.3   1 <1>  -0.1600 
 19 C       -6.2600    -3.1980    -1.2870 C.3   1 <1>  -0.1600 
 20 H       -1.3000    -2.0080     1.3510 H     1 <1>   0.0800 
 21 H       -1.8670    -3.4490     0.5500 H     1 <1>   0.0800 
 22 H        2.1070    -3.5400    -1.4800 H     1 <1>   0.0800 
 23 H        2.1820    -1.7830    -1.4680 H     1 <1>   0.0800 
 24 H        1.1960    -2.0390     1.9990 H     1 <1>   0.0800 
 25 H        0.6370    -3.7070     1.8320 H     1 <1>   0.0800 
 26 H       -2.7770    -1.9570    -1.1790 H     1 <1>   0.4500 
 27 H        4.1290    -3.2880    -0.2900 H     1 <1>   0.0800 
 28 H        3.6260    -1.7410     0.3570 H     1 <1>   0.0800 
 29 H        3.2610    -3.1400     2.2610 H     1 <1>   0.0800 
 30 H        2.7480    -4.4760     1.2520 H     1 <1>   0.0800 
 31 H       -4.1910    -3.0290     0.4910 H     1 <1>   0.0800 
 32 H       -3.9830    -1.6270     1.5030 H     1 <1>   0.0800 
 33 H       -2.3550     0.1950     0.7660 H     1 <1>   0.0800 
 34 H       -1.5120    -0.0090    -0.7550 H     1 <1>   0.0800 
 35 H       -3.3900     1.5940    -0.9290 H     1 <1>   0.0800 
 36 H       -3.5760     0.2460    -2.0010 H     1 <1>   0.0800 
 37 H       -7.2400    -0.7960     0.3600 H     1 <1>   0.0800 
 38 H       -5.7210     0.7190    -0.9030 H     1 <1>   0.0800 
 39 H       -4.9700     0.6680     0.6600 H     1 <1>   0.0800 
 40 H       -6.1050    -1.2720    -2.1840 H     1 <1>   0.0800 
 41 H       -4.5850    -2.1280    -2.1620 H     1 <1>   0.0800 
 42 H       -7.1320    -1.8110     2.3700 H     1 <1>   0.4000 
 43 H       -6.8950    -3.7110     0.7070 H     1 <1>   0.0800 
 44 H       -8.0900    -2.8210    -0.2180 H     1 <1>   0.0800 
 45 H       -5.5800    -4.0170    -1.1220 H     1 <1>   0.0800 
 46 H       -6.9180    -3.4600    -2.0990 H     1 <1>   0.0800 
@<TRIPOS>BOND
  1   1   2  2   
  2   2   3  am  
  3   2   4  1   
  4   3   5  1   
  5   3   6  1   
  6   4   7  1   
  7   4  20  1   
  8   4  21  1   
  9   5   8  1   
 10   5  22  1   
 11   5  23  1   
 12   6   9  1   
 13   6  24  1   
 14   6  25  1   
 15   7  10  1   
 16   7  11  1   
 17   7  26  1   
 18   8   9  1   
 19   8  27  1   
 20   8  28  1   
 21   9  29  1   
 22   9  30  1   
 23  10  12  1   
 24  10  31  1   
 25  10  32  1   
 26  11  13  1   
 27  11  33  1   
 28  11  34  1   
 29  12  14  1   
 30  12  15  1   
 31  12  16  1   
 32  13  15  1   
 33  13  35  1   
 34  13  36  1   
 35  14  17  1   
 36  14  18  1   
 37  14  37  1   
 38  15  38  1   
 39  15  39  1   
 40  16  19  1   
 41  16  40  1   
 42  16  41  1   
 43  17  42  1   
 44  18  19  1   
 45  18  43  1   
 46  18  44  1   
 47  19  45  1   
 48  19  46  1   
@<TRIPOS>SUBSTRUCTURE
  1 ****   7 GROUP 4 **** **** 0

# MOE 2024.06 (io_trps.svl 2023.06)
