@<TRIPOS>MOLECULE
NONAME
43 44 1 0 0 
SMALL
USER_CHARGES


@<TRIPOS>ATOM
  1 O       -0.3680    -0.2120    -0.9470 O.2   1 <1>  -0.5700 
  2 C       -0.2690    -1.4020    -0.7340 C.2   1 <1>   0.7800 
  3 O        0.8800    -1.9440    -0.3280 O.3   1 <1>  -0.4300 
  4 N       -1.3390    -2.2480    -0.8880 N.am  1 <1>  -0.6600 
  5 C        2.1100    -1.2820    -0.1170 C.3   1 <1>   0.2800 
  6 C       -2.6590    -1.7330    -1.3820 C.3   1 <1>   0.1400 
  7 C       -1.2780    -3.7080    -0.5370 C.3   1 <1>   0.1400 
  8 C        2.6100    -0.6610    -1.4270 C.3   1 <1>  -0.2400 
  9 C        3.0820    -2.3770     0.3240 C.3   1 <1>  -0.2400 
 10 C        1.9720    -0.2470     1.0060 C.3   1 <1>  -0.2400 
 11 C       -3.7860    -2.2150    -0.4510 C.3   1 <1>   0.4230 
 12 C       -2.4920    -4.1530     0.3120 C.3   1 <1>   0.3430 
 13 N       -3.7770    -3.6910    -0.3100 N.4   1 <1>  -0.9590 
 14 C       -5.2120    -1.9220    -0.8860 C.3   1 <1>  -0.1600 
 15 C       -5.0400    -4.0080     0.4020 C.3   1 <1>   0.4230 
 16 C       -6.0440    -3.0250    -0.2160 C.3   1 <1>  -0.1600 
 17 C       -5.4580    -5.4890     0.2810 C.3   1 <1>   0.1200 
 18 O       -6.6580    -5.6780     0.9520 O.3   1 <1>  -0.6800 
 19 H       -2.6640    -0.6560    -1.4060 H     1 <1>   0.0800 
 20 H       -2.8260    -2.0840    -2.3850 H     1 <1>   0.0800 
 21 H       -1.2460    -4.2820    -1.4460 H     1 <1>   0.0800 
 22 H       -0.3790    -3.9300     0.0130 H     1 <1>   0.0800 
 23 H        3.6060    -0.2800    -1.2940 H     1 <1>   0.0800 
 24 H        1.9890     0.1610    -1.7310 H     1 <1>   0.0800 
 25 H        2.6300    -1.3980    -2.2090 H     1 <1>   0.0800 
 26 H        4.0560    -1.9580     0.5070 H     1 <1>   0.0800 
 27 H        3.1770    -3.1250    -0.4420 H     1 <1>   0.0800 
 28 H        2.7390    -2.8410     1.2310 H     1 <1>   0.0800 
 29 H        2.9380     0.1540     1.2530 H     1 <1>   0.0800 
 30 H        1.5580    -0.7010     1.8870 H     1 <1>   0.0800 
 31 H        1.3500     0.5750     0.7030 H     1 <1>   0.0800 
 32 H       -3.6320    -1.7700     0.5190 H     1 <1>   0.0800 
 33 H       -2.3950    -3.7340     1.3010 H     1 <1>   0.0800 
 34 H       -2.4870    -5.2270     0.4050 H     1 <1>   0.0800 
 35 H       -3.8470    -4.0700    -1.2600 H     1 <1>   0.4500 
 36 H       -5.5160    -0.9380    -0.5700 H     1 <1>   0.0800 
 37 H       -5.3000    -1.9840    -1.9580 H     1 <1>   0.0800 
 38 H       -4.9180    -3.7690     1.4470 H     1 <1>   0.0800 
 39 H       -6.6730    -3.5160    -0.9400 H     1 <1>   0.0800 
 40 H       -6.6790    -2.6300     0.5590 H     1 <1>   0.0800 
 41 H       -4.7240    -6.1320     0.7340 H     1 <1>   0.0800 
 42 H       -5.6080    -5.7640    -0.7490 H     1 <1>   0.0800 
 43 H       -6.9730    -6.6060     0.8910 H     1 <1>   0.4000 
@<TRIPOS>BOND
  1   1   2  2   
  2   2   3  1   
  3   2   4  am  
  4   3   5  1   
  5   4   6  1   
  6   4   7  1   
  7   5   8  1   
  8   5   9  1   
  9   5  10  1   
 10   6  11  1   
 11   6  19  1   
 12   6  20  1   
 13   7  12  1   
 14   7  21  1   
 15   7  22  1   
 16   8  23  1   
 17   8  24  1   
 18   8  25  1   
 19   9  26  1   
 20   9  27  1   
 21   9  28  1   
 22  10  29  1   
 23  10  30  1   
 24  10  31  1   
 25  11  13  1   
 26  11  14  1   
 27  11  32  1   
 28  12  13  1   
 29  12  33  1   
 30  12  34  1   
 31  13  15  1   
 32  13  35  1   
 33  14  16  1   
 34  14  36  1   
 35  14  37  1   
 36  15  16  1   
 37  15  17  1   
 38  15  38  1   
 39  16  39  1   
 40  16  40  1   
 41  17  18  1   
 42  17  41  1   
 43  17  42  1   
 44  18  43  1   
@<TRIPOS>SUBSTRUCTURE
  1 ****   4 GROUP 4 **** **** 0

# MOE 2024.06 (io_trps.svl 2023.06)
