@<TRIPOS>MOLECULE
NONAME
45 47 1 0 0 
SMALL
USER_CHARGES


@<TRIPOS>ATOM
  1 S       -2.4580    -0.6310    -1.5710 S.3   1 <1>  -0.4600 
  2 C       -2.2780    -0.4630     0.2310 C.3   1 <1>   0.2500 
  3 C       -1.1990    -1.8640    -2.0010 C.3   1 <1>  -0.0100 
  4 C       -3.1900    -1.4580     0.9300 C.2   1 <1>  -0.0400 
  5 O       -3.0850    -2.7430     0.6710 O.3   1 <1>  -0.2800 
  6 C       -4.1590    -1.2480     1.8470 C.2   1 <1>  -0.1500 
  7 C       -3.9840    -3.4100     1.3930 C.2   1 <1>   0.0550 
  8 C       -4.6660    -2.5100     2.1540 C.2   1 <1>  -0.1500 
  9 C       -4.1300    -4.8500     1.3220 C.2   1 <1>   0.7150 
 10 O       -4.4400    -5.4530     2.3350 O.2   1 <1>  -0.5700 
 11 N       -3.9640    -5.5650     0.1520 N.am  1 <1>  -0.6600 
 12 C       -4.1610    -7.0510     0.1090 C.3   1 <1>   0.3640 
 13 C       -3.8290    -4.8930    -1.1760 C.3   1 <1>   0.1400 
 14 C       -2.7890    -7.7460     0.0380 C.ar  1 <1>  -0.1430 
 15 C       -5.1610    -7.4240    -1.0250 C.3   1 <1>   0.2000 
 16 C       -3.8660    -5.8740    -2.3580 C.3   1 <1>   0.1200 
 17 C       -1.9170    -7.5700     1.1040 C.ar  1 <1>  -0.1500 
 18 C       -2.3790    -8.5520    -1.0210 C.ar  1 <1>  -0.1500 
 19 O       -4.9300    -6.7820    -2.2660 O.3   1 <1>  -0.5600 
 20 C       -6.6080    -7.0980    -0.6260 C.3   1 <1>   0.1200 
 21 C       -0.6700    -8.1700     1.1160 C.ar  1 <1>  -0.1500 
 22 C       -1.1320    -9.1540    -1.0120 C.ar  1 <1>  -0.1500 
 23 O       -7.0510    -7.9750     0.3590 O.3   1 <1>  -0.6800 
 24 C       -0.2760    -8.9640     0.0560 C.ar  1 <1>  -0.1500 
 25 H       -1.2470    -0.6410     0.4750 H     1 <1>   0.0800 
 26 H       -2.5470     0.5470     0.4820 H     1 <1>   0.0800 
 27 H       -1.3440    -2.1340    -3.0310 H     1 <1>   0.0800 
 28 H       -1.3280    -2.7150    -1.3570 H     1 <1>   0.0800 
 29 H       -0.2330    -1.4150    -1.8550 H     1 <1>   0.0800 
 30 H       -4.4940    -0.3200     2.2750 H     1 <1>   0.1500 
 31 H       -5.4510    -2.7220     2.8600 H     1 <1>   0.1500 
 32 H       -4.6080    -7.3850     1.0290 H     1 <1>   0.0800 
 33 H       -4.6210    -4.1730    -1.2920 H     1 <1>   0.0800 
 34 H       -2.8950    -4.3640    -1.2090 H     1 <1>   0.0800 
 35 H       -5.1100    -8.4810    -1.2110 H     1 <1>   0.0800 
 36 H       -2.9440    -6.4230    -2.4140 H     1 <1>   0.0800 
 37 H       -3.9810    -5.3310    -3.2800 H     1 <1>   0.0800 
 38 H       -2.2100    -6.9580     1.9410 H     1 <1>   0.1500 
 39 H       -3.0140    -8.7250    -1.8710 H     1 <1>   0.1500 
 40 H       -7.2640    -7.1920    -1.4740 H     1 <1>   0.0800 
 41 H       -6.6720    -6.0980    -0.2320 H     1 <1>   0.0800 
 42 H       -0.0100    -8.0180     1.9520 H     1 <1>   0.1500 
 43 H       -0.8290    -9.7740    -1.8380 H     1 <1>   0.1500 
 44 H       -7.2360    -8.8590    -0.0150 H     1 <1>   0.4000 
 45 H        0.6930    -9.4320     0.0630 H     1 <1>   0.1500 
@<TRIPOS>BOND
  1   1   2  1   
  2   1   3  1   
  3   2   4  1   
  4   2  25  1   
  5   2  26  1   
  6   3  27  1   
  7   3  28  1   
  8   3  29  1   
  9   4   5  1   
 10   4   6  2   
 11   5   7  1   
 12   6   8  1   
 13   6  30  1   
 14   7   8  2   
 15   7   9  1   
 16   8  31  1   
 17   9  10  2   
 18   9  11  am  
 19  11  12  1   
 20  11  13  1   
 21  12  14  1   
 22  12  15  1   
 23  12  32  1   
 24  13  16  1   
 25  13  33  1   
 26  13  34  1   
 27  14  17  ar  
 28  14  18  ar  
 29  15  19  1   
 30  15  20  1   
 31  15  35  1   
 32  16  19  1   
 33  16  36  1   
 34  16  37  1   
 35  17  21  ar  
 36  17  38  1   
 37  18  22  ar  
 38  18  39  1   
 39  20  23  1   
 40  20  40  1   
 41  20  41  1   
 42  21  24  ar  
 43  21  42  1   
 44  22  24  ar  
 45  22  43  1   
 46  23  44  1   
 47  24  45  1   
@<TRIPOS>SUBSTRUCTURE
  1 ****  11 GROUP 4 **** **** 0

# MOE 2024.06 (io_trps.svl 2023.06)
