@<TRIPOS>MOLECULE
NONAME
50 52 1 0 0 
SMALL
USER_CHARGES


@<TRIPOS>ATOM
  1 F       -0.3120    -0.9970     0.1590 F     1 <1>  -0.1900 
  2 C       -0.6820    -2.2440     0.0490 C.ar  1 <1>   0.1900 
  3 C        0.2450    -3.1810    -0.3640 C.ar  1 <1>  -0.1500 
  4 C       -1.9880    -2.5810     0.3500 C.ar  1 <1>  -0.1500 
  5 C       -0.1540    -4.5020    -0.4780 C.ar  1 <1>  -0.1500 
  6 C       -2.3750    -3.9060     0.2310 C.ar  1 <1>  -0.1500 
  7 C       -1.4610    -4.8680    -0.1820 C.ar  1 <1>  -0.1440 
  8 C       -1.8830    -6.3240    -0.3080 C.3   1 <1>  -0.0160 
  9 C       -1.4890    -7.1020     0.9460 C.3   1 <1>   0.1400 
 10 N       -1.9030    -8.5150     0.8130 N.am  1 <1>  -0.7300 
 11 C       -1.1080    -9.5420     0.4160 C.2   1 <1>   0.5690 
 12 O        0.0510    -9.3800     0.1170 O.2   1 <1>  -0.5700 
 13 C       -1.7170   -10.9460     0.3400 C.3   1 <1>   0.1710 
 14 N       -3.1770   -10.9730     0.0270 N.3   1 <1>  -0.8100 
 15 C       -3.4670   -10.5000    -1.3390 C.3   1 <1>   0.1100 
 16 C       -3.7440   -12.3310     0.1220 C.3   1 <1>   0.1100 
 17 C       -4.8290   -11.0990    -1.6590 C.3   1 <1>   0.2000 
 18 C       -4.6970   -12.5030    -1.0720 C.3   1 <1>  -0.0800 
 19 O       -5.7700   -10.3830    -0.9410 O.3   1 <1>  -0.6800 
 20 C       -6.0190   -13.2110    -0.7210 C.3   1 <1>  -0.0170 
 21 C       -5.7550   -14.6030    -0.1680 C.ar  1 <1>  -0.1440 
 22 C       -5.3990   -15.6560    -0.9860 C.ar  1 <1>  -0.1500 
 23 C       -5.8470   -14.8830     1.1810 C.ar  1 <1>  -0.1500 
 24 C       -5.1500   -16.9000    -0.4310 C.ar  1 <1>   0.1600 
 25 C       -5.5770   -16.1630     1.6340 C.ar  1 <1>   0.1600 
 26 N       -5.2250   -17.1770     0.8610 N.ar  1 <1>  -0.6200 
 27 H        1.2530    -2.8810    -0.5890 H     1 <1>   0.1500 
 28 H       -2.6800    -1.8230     0.6680 H     1 <1>   0.1500 
 29 H        0.5570    -5.2460    -0.7980 H     1 <1>   0.1500 
 30 H       -3.3890    -4.1830     0.4620 H     1 <1>   0.1500 
 31 H       -1.3990    -6.7620    -1.1640 H     1 <1>   0.0800 
 32 H       -2.9470    -6.3840    -0.4540 H     1 <1>   0.0800 
 33 H       -1.9580    -6.6700     1.8140 H     1 <1>   0.0800 
 34 H       -0.4210    -7.0510     1.0800 H     1 <1>   0.0800 
 35 H       -2.8900    -8.7420     0.9690 H     1 <1>   0.3700 
 36 H       -1.5560   -11.4130     1.2940 H     1 <1>   0.0800 
 37 H       -1.1750   -11.5110    -0.3980 H     1 <1>   0.0800 
 38 H       -3.4770    -9.4250    -1.3990 H     1 <1>   0.0800 
 39 H       -2.7360   -10.8870    -2.0300 H     1 <1>   0.0800 
 40 H       -2.9750   -13.0860     0.0880 H     1 <1>   0.0800 
 41 H       -4.2730   -12.4200     1.0560 H     1 <1>   0.0800 
 42 H       -5.0870   -11.0780    -2.7040 H     1 <1>   0.0800 
 43 H       -4.1830   -13.1060    -1.7990 H     1 <1>   0.0800 
 44 H       -5.4010   -10.2740    -0.0400 H     1 <1>   0.4000 
 45 H       -6.6310   -13.2860    -1.6030 H     1 <1>   0.0800 
 46 H       -6.5700   -12.6370     0.0040 H     1 <1>   0.0800 
 47 H       -5.3130   -15.5200    -2.0480 H     1 <1>   0.1500 
 48 H       -6.1270   -14.1200     1.8840 H     1 <1>   0.1500 
 49 H       -4.8740   -17.7100    -1.0840 H     1 <1>   0.1500 
 50 H       -5.6540   -16.3640     2.6890 H     1 <1>   0.1500 
@<TRIPOS>BOND
  1   1   2  1   
  2   2   3  ar  
  3   2   4  ar  
  4   3   5  ar  
  5   3  27  1   
  6   4   6  ar  
  7   4  28  1   
  8   5   7  ar  
  9   5  29  1   
 10   6   7  ar  
 11   6  30  1   
 12   7   8  1   
 13   8   9  1   
 14   8  31  1   
 15   8  32  1   
 16   9  10  1   
 17   9  33  1   
 18   9  34  1   
 19  10  11  am  
 20  10  35  1   
 21  11  12  2   
 22  11  13  1   
 23  13  14  1   
 24  13  36  1   
 25  13  37  1   
 26  14  15  1   
 27  14  16  1   
 28  15  17  1   
 29  15  38  1   
 30  15  39  1   
 31  16  18  1   
 32  16  40  1   
 33  16  41  1   
 34  17  18  1   
 35  17  19  1   
 36  17  42  1   
 37  18  20  1   
 38  18  43  1   
 39  19  44  1   
 40  20  21  1   
 41  20  45  1   
 42  20  46  1   
 43  21  22  ar  
 44  21  23  ar  
 45  22  24  ar  
 46  22  47  1   
 47  23  25  ar  
 48  23  48  1   
 49  24  26  ar  
 50  24  49  1   
 51  25  26  ar  
 52  25  50  1   
@<TRIPOS>SUBSTRUCTURE
  1 ****  14 GROUP 4 **** **** 0

# MOE 2024.06 (io_trps.svl 2023.06)
