@<TRIPOS>MOLECULE
NONAME
44 45 1 0 0 
SMALL
USER_CHARGES


@<TRIPOS>ATOM
  1 O       -1.9790     0.5140     2.3530 O.2   1 <1>  -0.5700 
  2 C       -2.1600     1.0550     1.2870 C.2   1 <1>   0.5690 
  3 N       -2.3650     0.3370     0.1360 N.am  1 <1>  -0.6600 
  4 C       -2.1400     2.5870     1.2750 C.3   1 <1>   0.2010 
  5 C       -2.3350    -1.1660     0.1630 C.3   1 <1>   0.3640 
  6 C       -2.6570     0.9780    -1.1880 C.3   1 <1>   0.1400 
  7 N       -0.8320     3.1510     0.8190 N.am  1 <1>  -0.7300 
  8 C       -0.9450    -1.7230    -0.1880 C.ar  1 <1>  -0.1440 
  9 C       -3.4310    -1.8040    -0.7510 C.3   1 <1>   0.2000 
 10 C       -3.0030    -0.0480    -2.2760 C.3   1 <1>   0.1200 
 11 C       -0.6390     3.8320    -0.3350 C.2   1 <1>   0.5690 
 12 C       -0.6730    -3.0410     0.1580 C.ar  1 <1>  -0.1500 
 13 C        0.0510    -0.9880    -0.8230 C.ar  1 <1>  -0.1500 
 14 O       -3.9220    -0.9620    -1.7690 O.3   1 <1>  -0.5600 
 15 C       -4.6470    -2.2550     0.0670 C.3   1 <1>   0.1200 
 16 O       -1.5360     4.0250    -1.1190 O.2   1 <1>  -0.5700 
 17 C        0.7530     4.3450    -0.6520 C.3   1 <1>  -0.0990 
 18 C        0.5500    -3.6170    -0.1360 C.ar  1 <1>  -0.1500 
 19 C        1.2760    -1.5620    -1.1190 C.ar  1 <1>  -0.1500 
 20 O       -4.3210    -3.3650     0.8420 O.3   1 <1>  -0.6800 
 21 C        1.1660     5.5270     0.2390 C.3   1 <1>  -0.2400 
 22 C        1.5260    -2.8780    -0.7780 C.ar  1 <1>  -0.1500 
 23 H       -2.3320     2.9330     2.2750 H     1 <1>   0.0800 
 24 H       -2.9370     2.9520     0.6540 H     1 <1>   0.0800 
 25 H       -2.5310    -1.4910     1.1710 H     1 <1>   0.0800 
 26 H       -3.4880     1.6530    -1.0840 H     1 <1>   0.0800 
 27 H       -1.8060     1.5490    -1.5100 H     1 <1>   0.0800 
 28 H       -0.0380     2.9450     1.4290 H     1 <1>   0.3700 
 29 H       -3.0210    -2.6660    -1.2460 H     1 <1>   0.0800 
 30 H       -2.1280    -0.5790    -2.6110 H     1 <1>   0.0800 
 31 H       -3.4520     0.4440    -3.1200 H     1 <1>   0.0800 
 32 H       -1.4180    -3.6290     0.6680 H     1 <1>   0.1500 
 33 H       -0.1050     0.0390    -1.0890 H     1 <1>   0.1500 
 34 H       -5.4610    -2.5290    -0.5820 H     1 <1>   0.0800 
 35 H       -4.9620    -1.4670     0.7280 H     1 <1>   0.0800 
 36 H        1.4540     3.5390    -0.5360 H     1 <1>   0.0800 
 37 H        0.7760     4.6540    -1.6810 H     1 <1>   0.0800 
 38 H        0.7430    -4.6400     0.1390 H     1 <1>   0.1500 
 39 H        2.0360    -0.9830    -1.6130 H     1 <1>   0.1500 
 40 H       -4.3290    -4.1790     0.3000 H     1 <1>   0.4000 
 41 H        1.1790     5.2360     1.2750 H     1 <1>   0.0800 
 42 H        0.4710     6.3400     0.1190 H     1 <1>   0.0800 
 43 H        2.1480     5.8720    -0.0350 H     1 <1>   0.0800 
 44 H        2.4780    -3.3250    -1.0080 H     1 <1>   0.1500 
@<TRIPOS>BOND
  1   1   2  2   
  2   2   3  am  
  3   2   4  1   
  4   3   5  1   
  5   3   6  1   
  6   4   7  1   
  7   4  23  1   
  8   4  24  1   
  9   5   8  1   
 10   5   9  1   
 11   5  25  1   
 12   6  10  1   
 13   6  26  1   
 14   6  27  1   
 15   7  11  am  
 16   7  28  1   
 17   8  12  ar  
 18   8  13  ar  
 19   9  14  1   
 20   9  15  1   
 21   9  29  1   
 22  10  14  1   
 23  10  30  1   
 24  10  31  1   
 25  11  16  2   
 26  11  17  1   
 27  12  18  ar  
 28  12  32  1   
 29  13  19  ar  
 30  13  33  1   
 31  15  20  1   
 32  15  34  1   
 33  15  35  1   
 34  17  21  1   
 35  17  36  1   
 36  17  37  1   
 37  18  22  ar  
 38  18  38  1   
 39  19  22  ar  
 40  19  39  1   
 41  20  40  1   
 42  21  41  1   
 43  21  42  1   
 44  21  43  1   
 45  22  44  1   
@<TRIPOS>SUBSTRUCTURE
  1 ****   3 GROUP 4 **** **** 0

# MOE 2024.06 (io_trps.svl 2023.06)
