@<TRIPOS>MOLECULE
NONAME
28 28 1 0 0 
SMALL
USER_CHARGES


@<TRIPOS>ATOM
  1 O       -2.3880    -4.9470    -0.7880 O.3   1 <1>  -0.6800 
  2 C       -2.8710    -6.1200    -0.1610 C.3   1 <1>   0.1200 
  3 C       -1.7390    -7.1490     0.0970 C.3   1 <1>   0.3430 
  4 N       -0.4190    -6.4600    -0.0180 N.4   1 <1>  -0.9590 
  5 C       -0.0950    -5.5790     1.1560 C.3   1 <1>   0.3430 
  6 C        0.7380    -7.3320    -0.3900 C.3   1 <1>   0.3430 
  7 C        0.8660    -4.4430     0.6970 C.3   1 <1>   0.4230 
  8 C        2.0580    -6.5440    -0.2320 C.3   1 <1>  -0.1600 
  9 N        0.1060    -3.3390     0.0340 N.4   1 <1>  -0.8530 
 10 C        1.9030    -5.0020    -0.3090 C.3   1 <1>  -0.1600 
 11 H       -3.1550    -4.4720    -1.1950 H     1 <1>   0.4000 
 12 H       -3.3380    -5.8380     0.7680 H     1 <1>   0.0800 
 13 H       -3.6250    -6.5630    -0.7920 H     1 <1>   0.0800 
 14 H       -1.8100    -7.9230    -0.6510 H     1 <1>   0.0800 
 15 H       -1.8580    -7.6140     1.0620 H     1 <1>   0.0800 
 16 H       -0.6020    -5.8460    -0.8280 H     1 <1>   0.4500 
 17 H       -0.9910    -5.1520     1.5760 H     1 <1>   0.0800 
 18 H        0.3850    -6.1710     1.9200 H     1 <1>   0.0800 
 19 H        0.7670    -8.2100     0.2360 H     1 <1>   0.0800 
 20 H        0.6290    -7.6570    -1.4140 H     1 <1>   0.0800 
 21 H        1.3820    -4.0550     1.5620 H     1 <1>   0.0800 
 22 H        2.5000    -6.8110     0.7140 H     1 <1>   0.0800 
 23 H        2.7500    -6.8790    -0.9880 H     1 <1>   0.0800 
 24 H       -0.6940    -3.6900    -0.5190 H     1 <1>   0.4500 
 25 H        0.7150    -2.7940    -0.5910 H     1 <1>   0.4500 
 26 H       -0.2750    -2.6750     0.7200 H     1 <1>   0.4500 
 27 H        1.6240    -4.7550    -1.3200 H     1 <1>   0.0800 
 28 H        2.8610    -4.5460    -0.1180 H     1 <1>   0.0800 
@<TRIPOS>BOND
  1   1   2  1   
  2   1  11  1   
  3   2   3  1   
  4   2  12  1   
  5   2  13  1   
  6   3   4  1   
  7   3  14  1   
  8   3  15  1   
  9   4   5  1   
 10   4   6  1   
 11   4  16  1   
 12   5   7  1   
 13   5  17  1   
 14   5  18  1   
 15   6   8  1   
 16   6  19  1   
 17   6  20  1   
 18   7   9  1   
 19   7  10  1   
 20   7  21  1   
 21   8  10  1   
 22   8  22  1   
 23   8  23  1   
 24   9  24  1   
 25   9  25  1   
 26   9  26  1   
 27  10  27  1   
 28  10  28  1   
@<TRIPOS>SUBSTRUCTURE
  1 ****   4 GROUP 4 **** **** 0

# MOE 2024.06 (io_trps.svl 2023.06)
