@<TRIPOS>MOLECULE
NONAME
53 55 1 0 0 
SMALL
USER_CHARGES


@<TRIPOS>ATOM
  1 O        0.2480     0.7280     0.6830 O.3   1 <1>  -0.3630 
  2 C        0.2860     2.0580     0.4250 C.ar  1 <1>   0.0830 
  3 C        1.2540    -0.1790     0.2890 C.3   1 <1>   0.0400 
  4 C       -0.7880     2.8450     0.8780 C.ar  1 <1>   0.0830 
  5 C        1.3280     2.6560    -0.2570 C.ar  1 <1>  -0.1500 
  6 O       -1.7910     2.2090     1.5460 O.3   1 <1>  -0.3630 
  7 C       -0.7930     4.2050     0.6380 C.ar  1 <1>  -0.1500 
  8 C        1.3170     4.0290    -0.4950 C.ar  1 <1>   0.3610 
  9 C       -2.9160     2.8930     2.0530 C.3   1 <1>   0.0400 
 10 C        0.2600     4.8250    -0.0540 C.ar  1 <1>   0.0000 
 11 N        2.3340     4.6640    -1.1680 N.ar  1 <1>  -0.1790 
 12 C        0.3430     6.2220    -0.3510 C.ar  1 <1>   0.4100 
 13 C        2.3320     5.9810    -1.3990 C.ar  1 <1>   0.7710 
 14 N        1.3410     6.7650    -0.9900 N.ar  1 <1>  -0.6200 
 15 N       -0.6190     7.0750     0.0130 N.pl3 1 <1>  -0.9000 
 16 N        3.3630     6.5330    -2.0600 N.pl3 1 <1>  -0.8690 
 17 C        3.4730     7.9660    -2.4470 C.3   1 <1>   0.2090 
 18 C        4.4720     8.6580    -1.5180 C.3   1 <1>  -0.1600 
 19 C        4.5860    10.1490    -1.8360 C.3   1 <1>   0.2090 
 20 N        5.6230    10.7430    -0.9540 N.pl3 1 <1>  -0.8690 
 21 C        5.5870    11.7860    -0.0940 C.ar  1 <1>   0.4610 
 22 N        4.4650    12.5040     0.0870 N.ar  1 <1>  -0.1790 
 23 C        6.7260    12.1550     0.6400 C.ar  1 <1>  -0.1500 
 24 C        4.4010    13.5610     0.9480 C.ar  1 <1>   0.2110 
 25 C        6.6940    13.2120     1.5130 C.ar  1 <1>  -0.1500 
 26 C        5.5020    13.9340     1.6720 C.ar  1 <1>  -0.1440 
 27 C        5.4810    15.1040     2.6440 C.3   1 <1>  -0.0960 
 28 H        0.9630    -1.1590     0.6240 H     1 <1>   0.0800 
 29 H        2.1820     0.1000     0.7540 H     1 <1>   0.0800 
 30 H        1.3330    -0.1740    -0.7840 H     1 <1>   0.0800 
 31 H        2.1530     2.0660    -0.6070 H     1 <1>   0.1500 
 32 H       -1.6070     4.8140     0.9790 H     1 <1>   0.1500 
 33 H       -3.5520     2.1720     2.5350 H     1 <1>   0.0800 
 34 H       -3.4430     3.3550     1.2380 H     1 <1>   0.0800 
 35 H       -2.5880     3.6240     2.7710 H     1 <1>   0.0800 
 36 H        3.1180     4.1250    -1.5140 H     1 <1>   0.4570 
 37 H       -0.5520     8.0670    -0.2270 H     1 <1>   0.4000 
 38 H       -1.4760     6.8220     0.5110 H     1 <1>   0.4000 
 39 H        4.1700     5.9890    -2.3750 H     1 <1>   0.4000 
 40 H        2.5130     8.4520    -2.3860 H     1 <1>   0.0800 
 41 H        3.8090     8.0320    -3.4700 H     1 <1>   0.0800 
 42 H        5.4360     8.1950    -1.6340 H     1 <1>   0.0800 
 43 H        4.1420     8.5420    -0.5000 H     1 <1>   0.0800 
 44 H        3.6330    10.6290    -1.6920 H     1 <1>   0.0800 
 45 H        4.8820    10.2830    -2.8650 H     1 <1>   0.0800 
 46 H        6.5280    10.2620    -1.0540 H     1 <1>   0.4000 
 47 H        3.6500    12.2310    -0.4530 H     1 <1>   0.4570 
 48 H        7.6320    11.5920     0.5060 H     1 <1>   0.1500 
 49 H        3.4650    14.0890     1.0390 H     1 <1>   0.1500 
 50 H        7.5710    13.4940     2.0760 H     1 <1>   0.1500 
 51 H        4.5130    15.5730     2.6740 H     1 <1>   0.0800 
 52 H        6.2060    15.8430     2.3490 H     1 <1>   0.0800 
 53 H        5.7240    14.7660     3.6360 H     1 <1>   0.0800 
@<TRIPOS>BOND
  1   1   2  1   
  2   1   3  1   
  3   2   4  ar  
  4   2   5  ar  
  5   3  28  1   
  6   3  29  1   
  7   3  30  1   
  8   4   6  1   
  9   4   7  ar  
 10   5   8  ar  
 11   5  31  1   
 12   6   9  1   
 13   7  10  ar  
 14   7  32  1   
 15   8  10  ar  
 16   8  11  ar  
 17   9  33  1   
 18   9  34  1   
 19   9  35  1   
 20  10  12  ar  
 21  11  13  ar  
 22  11  36  1   
 23  12  14  ar  
 24  12  15  1   
 25  13  14  ar  
 26  13  16  1   
 27  15  37  1   
 28  15  38  1   
 29  16  17  1   
 30  16  39  1   
 31  17  18  1   
 32  17  40  1   
 33  17  41  1   
 34  18  19  1   
 35  18  42  1   
 36  18  43  1   
 37  19  20  1   
 38  19  44  1   
 39  19  45  1   
 40  20  21  1   
 41  20  46  1   
 42  21  22  ar  
 43  21  23  ar  
 44  22  24  ar  
 45  22  47  1   
 46  23  25  ar  
 47  23  48  1   
 48  24  26  ar  
 49  24  49  1   
 50  25  26  ar  
 51  25  50  1   
 52  26  27  1   
 53  27  51  1   
 54  27  52  1   
 55  27  53  1   
@<TRIPOS>SUBSTRUCTURE
  1 ****  14 GROUP 4 **** **** 0

# MOE 2024.06 (io_trps.svl 2023.06)
