@<TRIPOS>MOLECULE
NONAME
48 52 1 0 0 
SMALL
USER_CHARGES


@<TRIPOS>ATOM
  1 S       -0.4060    -2.3090    -0.5670 S.3   1 <1>  -0.1930 
  2 C       -1.6590    -1.1670    -0.1700 C.cat 1 <1>   0.8920 
  3 C       -1.5130    -3.1310    -1.6920 C.2   1 <1>  -0.0490 
  4 N       -1.7390    -0.1060     0.6060 N.pl3 1 <1>  -0.7000 
  5 N       -2.7790    -1.4190    -0.8090 N.pl3 1 <1>  -0.6290 
  6 C       -2.7110    -2.5220    -1.6910 C.2   1 <1>   0.2290 
  7 C       -3.0120     0.3800     0.4400 C.2   1 <1>   0.1820 
  8 C       -3.6900    -0.4310    -0.4320 C.2   1 <1>   0.2770 
  9 C       -3.4490     1.6510     1.1470 C.3   1 <1>  -0.0720 
 10 C       -5.0510    -0.3450    -0.9340 C.2   1 <1>   0.7030 
 11 O       -5.2310    -0.4770    -2.1300 O.2   1 <1>  -0.5700 
 12 N       -6.1450    -0.1410    -0.1160 N.am  1 <1>  -0.6600 
 13 C       -7.4960     0.0890    -0.7490 C.3   1 <1>   0.1400 
 14 C       -6.1450    -0.4630     1.3470 C.3   1 <1>   0.1400 
 15 C       -8.5520     0.5920     0.2550 C.3   1 <1>   0.1430 
 16 C       -7.4240    -1.2090     1.7380 C.3   1 <1>  -0.1600 
 17 C       -9.8570     0.8090    -0.4940 C.ar  1 <1>   0.1670 
 18 C       -8.7110    -0.4230     1.4180 C.3   1 <1>  -0.1600 
 19 C       -8.2140     2.0280     0.7580 C.3   1 <1>  -0.1600 
 20 N      -10.6230    -0.1460    -0.9760 N.ar  1 <1>  -0.6200 
 21 C      -10.1500     2.1310    -0.6390 C.ar  1 <1>  -0.1430 
 22 C       -9.0960     3.0150    -0.0270 C.3   1 <1>  -0.0170 
 23 C      -11.7120     0.2830    -1.5980 C.ar  1 <1>   0.4770 
 24 C      -11.3040     2.4640    -1.3040 C.ar  1 <1>   0.1600 
 25 N      -12.1010     1.5370    -1.7910 N.ar  1 <1>  -0.6200 
 26 C      -12.6160    -0.7860    -2.1620 C.3   1 <1>  -0.0970 
 27 H       -1.1310    -3.9810    -2.2310 H     1 <1>   0.1500 
 28 H       -0.9730     0.2650     1.1740 H     1 <1>   0.4500 
 29 H       -3.5810    -2.7840    -2.2770 H     1 <1>   0.1500 
 30 H       -2.7630     2.4490     0.9250 H     1 <1>   0.0800 
 31 H       -3.4680     1.4970     2.2110 H     1 <1>   0.0800 
 32 H       -4.4280     1.9530     0.8220 H     1 <1>   0.0800 
 33 H       -7.8400    -0.8380    -1.1770 H     1 <1>   0.0800 
 34 H       -7.4020     0.7990    -1.5530 H     1 <1>   0.0800 
 35 H       -6.0830     0.4490     1.9150 H     1 <1>   0.0800 
 36 H       -5.2980    -1.0780     1.5970 H     1 <1>   0.0800 
 37 H       -7.4020    -1.4440     2.7880 H     1 <1>   0.0800 
 38 H       -7.4410    -2.1450     1.2050 H     1 <1>   0.0800 
 39 H       -9.4670    -1.1450     1.1600 H     1 <1>   0.0800 
 40 H       -9.0670     0.0760     2.3010 H     1 <1>   0.0800 
 41 H       -7.1740     2.2720     0.6360 H     1 <1>   0.0800 
 42 H       -8.4590     2.1250     1.8000 H     1 <1>   0.0800 
 43 H       -8.5330     3.4970    -0.8070 H     1 <1>   0.0800 
 44 H       -9.5320     3.7570     0.6200 H     1 <1>   0.0800 
 45 H      -11.5780     3.4960    -1.4420 H     1 <1>   0.1500 
 46 H      -12.5710    -1.6670    -1.5490 H     1 <1>   0.0800 
 47 H      -12.2960    -1.0300    -3.1560 H     1 <1>   0.0800 
 48 H      -13.6300    -0.4340    -2.1930 H     1 <1>   0.0800 
@<TRIPOS>BOND
  1   1   2  1   
  2   1   3  1   
  3   2   4  ar  
  4   2   5  ar  
  5   3   6  2   
  6   3  27  1   
  7   4   7  1   
  8   4  28  1   
  9   5   6  1   
 10   5   8  1   
 11   6  29  1   
 12   7   8  2   
 13   7   9  1   
 14   8  10  1   
 15   9  30  1   
 16   9  31  1   
 17   9  32  1   
 18  10  11  2   
 19  10  12  am  
 20  12  13  1   
 21  12  14  1   
 22  13  15  1   
 23  13  33  1   
 24  13  34  1   
 25  14  16  1   
 26  14  35  1   
 27  14  36  1   
 28  15  17  1   
 29  15  18  1   
 30  15  19  1   
 31  16  18  1   
 32  16  37  1   
 33  16  38  1   
 34  17  20  ar  
 35  17  21  ar  
 36  18  39  1   
 37  18  40  1   
 38  19  22  1   
 39  19  41  1   
 40  19  42  1   
 41  20  23  ar  
 42  21  22  1   
 43  21  24  ar  
 44  22  43  1   
 45  22  44  1   
 46  23  25  ar  
 47  23  26  1   
 48  24  25  ar  
 49  24  45  1   
 50  26  46  1   
 51  26  47  1   
 52  26  48  1   
@<TRIPOS>SUBSTRUCTURE
  1 ****  12 GROUP 4 **** **** 0

# MOE 2024.06 (io_trps.svl 2023.06)
