@<TRIPOS>MOLECULE
NONAME
47 48 1 0 0 
SMALL
USER_CHARGES


@<TRIPOS>ATOM
  1 S        1.0570     0.9100     0.0950 S.o2  1 <1>   1.3330 
  2 O        0.5160     0.1730     1.2100 O.2   1 <1>  -0.6500 
  3 O        2.1050     1.8800     0.3270 O.2   1 <1>  -0.6500 
  4 N        1.5230    -0.1470    -1.1420 N.am  1 <1>  -0.8490 
  5 C       -0.2830     1.8510    -0.6330 C.3   1 <1>  -0.0550 
  6 C        2.9560    -0.4620    -1.1020 C.3   1 <1>   0.1160 
  7 C        0.7460    -1.3940    -1.1640 C.3   1 <1>   0.1160 
  8 C       -1.0960     2.6830     0.3910 C.3   1 <1>  -0.0800 
  9 C       -1.8320     3.8180    -0.3140 C.3   1 <1>   0.2000 
 10 C       -0.2360     3.4270     1.4240 C.3   1 <1>   0.3430 
 11 O       -2.9310     4.1930     0.4460 O.3   1 <1>  -0.6800 
 12 C       -0.8100     4.9620    -0.3470 C.3   1 <1>   0.3430 
 13 N        0.1070     4.7540     0.8260 N.4   1 <1>  -0.9590 
 14 C        1.5600     4.8110     0.4570 C.3   1 <1>   0.3430 
 15 C        2.0070     6.2370     0.1270 C.3   1 <1>  -0.0170 
 16 C        3.4750     6.2140    -0.2510 C.ar  1 <1>  -0.1440 
 17 C        4.4440     6.1360     0.7410 C.ar  1 <1>  -0.1500 
 18 C        3.8620     6.2610    -1.5840 C.ar  1 <1>  -0.1500 
 19 C        5.7840     6.0970     0.4030 C.ar  1 <1>  -0.1500 
 20 C        5.2030     6.2240    -1.9240 C.ar  1 <1>  -0.1500 
 21 C        6.1600     6.1400    -0.9270 C.ar  1 <1>   0.0820 
 22 O        7.4630     6.1020    -1.2390 O.3   1 <1>  -0.5330 
 23 H        0.1360     2.4890    -1.3870 H     1 <1>   0.0800 
 24 H       -0.9550     1.1760    -1.1280 H     1 <1>   0.0800 
 25 H        3.2180    -1.1150    -1.9180 H     1 <1>   0.0800 
 26 H        3.2110    -0.9420    -0.1710 H     1 <1>   0.0800 
 27 H        3.5380     0.4400    -1.1960 H     1 <1>   0.0800 
 28 H        1.0270    -1.9900    -2.0170 H     1 <1>   0.0800 
 29 H       -0.3060    -1.1790    -1.2350 H     1 <1>   0.0800 
 30 H        0.9220    -1.9640    -0.2660 H     1 <1>   0.0800 
 31 H       -1.7780     2.0160     0.8920 H     1 <1>   0.0800 
 32 H       -2.1880     3.5610    -1.2980 H     1 <1>   0.0800 
 33 H        0.6430     2.8770     1.7190 H     1 <1>   0.0800 
 34 H       -0.8300     3.5860     2.3100 H     1 <1>   0.0800 
 35 H       -2.7530     4.2360     1.4050 H     1 <1>   0.4000 
 36 H       -1.3060     5.9190    -0.3100 H     1 <1>   0.0800 
 37 H       -0.2440     4.8960    -1.2620 H     1 <1>   0.0800 
 38 H       -0.0740     5.4810     1.5330 H     1 <1>   0.4500 
 39 H        2.1590     4.4450     1.2750 H     1 <1>   0.0800 
 40 H        1.7540     4.1720    -0.3900 H     1 <1>   0.0800 
 41 H        1.4350     6.6360    -0.6900 H     1 <1>   0.0800 
 42 H        1.8760     6.8740     0.9840 H     1 <1>   0.0800 
 43 H        4.1710     6.1060     1.7810 H     1 <1>   0.1500 
 44 H        3.1290     6.3280    -2.3690 H     1 <1>   0.1500 
 45 H        6.5440     6.0340     1.1620 H     1 <1>   0.1500 
 46 H        5.4960     6.2600    -2.9580 H     1 <1>   0.1500 
 47 H        7.6340     6.1610    -2.1950 H     1 <1>   0.4500 
@<TRIPOS>BOND
  1   1   2  2   
  2   1   3  2   
  3   1   4  am  
  4   1   5  1   
  5   4   6  1   
  6   4   7  1   
  7   5   8  1   
  8   5  23  1   
  9   5  24  1   
 10   6  25  1   
 11   6  26  1   
 12   6  27  1   
 13   7  28  1   
 14   7  29  1   
 15   7  30  1   
 16   8   9  1   
 17   8  10  1   
 18   8  31  1   
 19   9  11  1   
 20   9  12  1   
 21   9  32  1   
 22  10  13  1   
 23  10  33  1   
 24  10  34  1   
 25  11  35  1   
 26  12  13  1   
 27  12  36  1   
 28  12  37  1   
 29  13  14  1   
 30  13  38  1   
 31  14  15  1   
 32  14  39  1   
 33  14  40  1   
 34  15  16  1   
 35  15  41  1   
 36  15  42  1   
 37  16  17  ar  
 38  16  18  ar  
 39  17  19  ar  
 40  17  43  1   
 41  18  20  ar  
 42  18  44  1   
 43  19  21  ar  
 44  19  45  1   
 45  20  21  ar  
 46  20  46  1   
 47  21  22  1   
 48  22  47  1   
@<TRIPOS>SUBSTRUCTURE
  1 ****  14 GROUP 4 **** **** 0

# MOE 2024.06 (io_trps.svl 2023.06)
