@<TRIPOS>MOLECULE
NONAME
44 46 1 0 0 
SMALL
USER_CHARGES


@<TRIPOS>ATOM
  1 CL      -2.3370    -0.0070     2.9570 Cl    1 <1>  -0.1770 
  2 C       -3.1370     0.9990     1.7790 C.ar  1 <1>   0.1770 
  3 C       -2.8480     2.3470     1.7260 C.ar  1 <1>  -0.1500 
  4 C       -4.0500     0.4370     0.9130 C.ar  1 <1>  -0.1500 
  5 C       -3.4810     3.1570     0.7920 C.ar  1 <1>  -0.1440 
  6 C       -4.6790     1.2470    -0.0150 C.ar  1 <1>  -0.1500 
  7 C       -4.4160     2.6140    -0.0990 C.ar  1 <1>  -0.0090 
  8 C       -3.1180     4.6380     0.7740 C.3   1 <1>  -0.0960 
  9 S       -5.3140     3.6050    -1.3430 S.o2  1 <1>   1.4470 
 10 O       -4.3690     4.4110    -2.0860 O.2   1 <1>  -0.6500 
 11 O       -6.2090     2.7480    -2.0880 O.2   1 <1>  -0.6500 
 12 N       -6.2480     4.6790    -0.4140 N.am  1 <1>  -0.8490 
 13 C       -7.1420     4.1280     0.6240 C.3   1 <1>   0.1960 
 14 C       -6.8140     5.8090    -1.1500 C.3   1 <1>   0.1960 
 15 C       -8.6040     3.8460     0.1900 C.3   1 <1>   0.0000 
 16 C       -8.1840     5.4640    -1.7400 C.3   1 <1>  -0.1600 
 17 C       -9.4420     3.5390     1.4490 C.3   1 <1>   0.2000 
 18 C       -9.1620     5.0370    -0.6350 C.3   1 <1>  -0.1600 
 19 C       -8.7880     2.5320    -0.5940 C.3   1 <1>  -0.1600 
 20 O       -9.8290     4.6720     2.1380 O.3   1 <1>  -0.6800 
 21 C      -10.6640     2.7600     0.9780 C.3   1 <1>  -0.1600 
 22 C      -10.2020     2.0220    -0.2820 C.3   1 <1>  -0.1600 
 23 H       -2.1280     2.7490     2.4160 H     1 <1>   0.1500 
 24 H       -4.2610    -0.6170     0.9670 H     1 <1>   0.1500 
 25 H       -5.3910     0.8020    -0.6920 H     1 <1>   0.1500 
 26 H       -2.4110     4.8750     1.5480 H     1 <1>   0.0800 
 27 H       -3.9910     5.2450     0.9300 H     1 <1>   0.0800 
 28 H       -2.6750     4.9020    -0.1700 H     1 <1>   0.0800 
 29 H       -6.7110     3.2400     1.0510 H     1 <1>   0.0800 
 30 H       -7.1830     4.8570     1.4170 H     1 <1>   0.0800 
 31 H       -6.9250     6.6370    -0.4710 H     1 <1>   0.0800 
 32 H       -6.1440     6.1220    -1.9330 H     1 <1>   0.0800 
 33 H       -8.5730     6.3320    -2.2410 H     1 <1>   0.0800 
 34 H       -8.0730     4.6920    -2.4800 H     1 <1>   0.0800 
 35 H       -8.8720     2.9230     2.1260 H     1 <1>   0.0800 
 36 H      -10.1130     4.7870    -1.0720 H     1 <1>   0.0800 
 37 H       -9.3080     5.8890     0.0040 H     1 <1>   0.0800 
 38 H       -8.6620     2.6520    -1.6550 H     1 <1>   0.0800 
 39 H       -8.0760     1.8010    -0.2520 H     1 <1>   0.0800 
 40 H      -10.4430     5.1950     1.5890 H     1 <1>   0.4000 
 41 H      -10.9920     2.0710     1.7360 H     1 <1>   0.0800 
 42 H      -11.4680     3.4290     0.7250 H     1 <1>   0.0800 
 43 H      -10.1920     0.9560    -0.1270 H     1 <1>   0.0800 
 44 H      -10.8670     2.2440    -1.1000 H     1 <1>   0.0800 
@<TRIPOS>BOND
  1   1   2  1   
  2   2   3  ar  
  3   2   4  ar  
  4   3   5  ar  
  5   3  23  1   
  6   4   6  ar  
  7   4  24  1   
  8   5   7  ar  
  9   5   8  1   
 10   6   7  ar  
 11   6  25  1   
 12   7   9  1   
 13   8  26  1   
 14   8  27  1   
 15   8  28  1   
 16   9  10  2   
 17   9  11  2   
 18   9  12  am  
 19  12  13  1   
 20  12  14  1   
 21  13  15  1   
 22  13  29  1   
 23  13  30  1   
 24  14  16  1   
 25  14  31  1   
 26  14  32  1   
 27  15  17  1   
 28  15  18  1   
 29  15  19  1   
 30  16  18  1   
 31  16  33  1   
 32  16  34  1   
 33  17  20  1   
 34  17  21  1   
 35  17  35  1   
 36  18  36  1   
 37  18  37  1   
 38  19  22  1   
 39  19  38  1   
 40  19  39  1   
 41  20  40  1   
 42  21  22  1   
 43  21  41  1   
 44  21  42  1   
 45  22  43  1   
 46  22  44  1   
@<TRIPOS>SUBSTRUCTURE
  1 ****  13 GROUP 4 **** **** 0

# MOE 2024.06 (io_trps.svl 2023.06)
