@<TRIPOS>MOLECULE
NONAME
17 17 1 0 0 
SMALL
USER_CHARGES


@<TRIPOS>ATOM
  1 S        5.3150    -1.4610     0.0070 S.3   1 <1>  -0.0800 
  2 C        6.8350    -0.5910     0.0090 C.2   1 <1>  -0.0450 
  3 C        6.1880    -2.9720     0.0060 C.2   1 <1>   0.2280 
  4 C        6.8640     0.8430     0.0100 C.2   1 <1>   0.8050 
  5 C        7.8190    -1.5160     0.0090 C.2   1 <1>   0.0770 
  6 N        7.4550    -2.8480     0.0080 N.2   1 <1>  -0.5650 
  7 O        7.9020     1.4730     0.0120 O.2   1 <1>  -0.5700 
  8 O        5.7030     1.5020     0.0100 O.3   1 <1>  -0.4300 
  9 C        5.6510     2.9110     0.0110 C.3   1 <1>   0.1200 
 10 C        4.1840     3.3280     0.0110 C.3   1 <1>  -0.2400 
 11 H        5.6070    -3.8780     0.0050 H     1 <1>   0.1500 
 12 H        8.8710    -1.2820     0.0100 H     1 <1>   0.1500 
 13 H        6.1560     3.2730    -0.8680 H     1 <1>   0.0800 
 14 H        6.1540     3.2710     0.8930 H     1 <1>   0.0800 
 15 H        3.6910     2.9530    -0.8690 H     1 <1>   0.0800 
 16 H        4.1120     4.4010     0.0120 H     1 <1>   0.0800 
 17 H        3.6900     2.9510     0.8880 H     1 <1>   0.0800 
@<TRIPOS>BOND
  1   1   2  1   
  2   1   3  1   
  3   2   4  1   
  4   2   5  2   
  5   3   6  2   
  6   3  11  1   
  7   4   7  2   
  8   4   8  1   
  9   5   6  1   
 10   5  12  1   
 11   8   9  1   
 12   9  10  1   
 13   9  13  1   
 14   9  14  1   
 15  10  15  1   
 16  10  16  1   
 17  10  17  1   
@<TRIPOS>SUBSTRUCTURE
  1 ****   2 GROUP 4 **** **** 0

# MOE 2024.06 (io_trps.svl 2023.06)
