@<TRIPOS>MOLECULE
NONAME
37 38 1 0 0 
SMALL
USER_CHARGES


@<TRIPOS>ATOM
  1 O        0.0170    -0.3750    -0.0760 O.2   1 <1>  -0.5700 
  2 C       -0.1680    -1.5650    -0.0990 C.2   1 <1>   0.5690 
  3 N        0.5060    -2.3770     0.7470 N.am  1 <1>  -0.7300 
  4 C       -1.1660    -2.1440    -1.0880 C.3   1 <1>  -0.0190 
  5 C        0.4010    -3.8490     0.8150 C.3   1 <1>   0.1400 
  6 C       -1.1890    -3.6810    -1.1620 C.3   1 <1>  -0.0800 
  7 C       -2.5960    -1.7460    -0.7290 C.3   1 <1>   0.1400 
  8 C       -0.9340    -4.3060     0.2230 C.3   1 <1>  -0.1600 
  9 C       -2.5990    -3.9990    -1.6620 C.3   1 <1>   0.1400 
 10 N       -3.4310    -2.8900    -1.1570 N.am  1 <1>  -0.6600 
 11 C       -4.7660    -3.0060    -0.8980 C.2   1 <1>   0.7800 
 12 O       -5.3840    -4.0170    -1.1670 O.2   1 <1>  -0.5700 
 13 O       -5.3580    -1.9540    -0.3290 O.3   1 <1>  -0.4300 
 14 C       -6.7120    -1.8340     0.0470 C.3   1 <1>   0.2800 
 15 C       -7.6160    -1.9360    -1.1870 C.3   1 <1>  -0.2400 
 16 C       -6.8360    -0.4340     0.6490 C.3   1 <1>  -0.2400 
 17 C       -7.0590    -2.8770     1.1160 C.3   1 <1>  -0.2400 
 18 H        1.1800    -1.9220     1.3680 H     1 <1>   0.3700 
 19 H       -0.9430    -1.7480    -2.0610 H     1 <1>   0.0800 
 20 H        1.2180    -4.2830     0.2640 H     1 <1>   0.0800 
 21 H        0.4730    -4.1670     1.8420 H     1 <1>   0.0800 
 22 H       -0.4510    -4.0410    -1.8570 H     1 <1>   0.0800 
 23 H       -2.8910    -0.8430    -1.2350 H     1 <1>   0.0800 
 24 H       -2.7000    -1.6110     0.3350 H     1 <1>   0.0800 
 25 H       -0.9350    -5.3790     0.1440 H     1 <1>   0.0800 
 26 H       -1.7240    -4.0340     0.9030 H     1 <1>   0.0800 
 27 H       -2.9570    -4.9500    -1.3010 H     1 <1>   0.0800 
 28 H       -2.6300    -3.9920    -2.7380 H     1 <1>   0.0800 
 29 H       -8.6310    -1.7070    -0.9190 H     1 <1>   0.0800 
 30 H       -7.6050    -2.9290    -1.5960 H     1 <1>   0.0800 
 31 H       -7.2970    -1.2400    -1.9420 H     1 <1>   0.0800 
 32 H       -7.8450    -0.2520     0.9680 H     1 <1>   0.0800 
 33 H       -6.5710     0.3100    -0.0800 H     1 <1>   0.0800 
 34 H       -6.1870    -0.3370     1.5010 H     1 <1>   0.0800 
 35 H       -8.0450    -2.6930     1.5000 H     1 <1>   0.0800 
 36 H       -6.3600    -2.8240     1.9300 H     1 <1>   0.0800 
 37 H       -7.0510    -3.8700     0.7060 H     1 <1>   0.0800 
@<TRIPOS>BOND
  1   1   2  2   
  2   2   3  am  
  3   2   4  1   
  4   3   5  1   
  5   3  18  1   
  6   4   6  1   
  7   4   7  1   
  8   4  19  1   
  9   5   8  1   
 10   5  20  1   
 11   5  21  1   
 12   6   8  1   
 13   6   9  1   
 14   6  22  1   
 15   7  10  1   
 16   7  23  1   
 17   7  24  1   
 18   8  25  1   
 19   8  26  1   
 20   9  10  1   
 21   9  27  1   
 22   9  28  1   
 23  10  11  am  
 24  11  12  2   
 25  11  13  1   
 26  13  14  1   
 27  14  15  1   
 28  14  16  1   
 29  14  17  1   
 30  15  29  1   
 31  15  30  1   
 32  15  31  1   
 33  16  32  1   
 34  16  33  1   
 35  16  34  1   
 36  17  35  1   
 37  17  36  1   
 38  17  37  1   
@<TRIPOS>SUBSTRUCTURE
  1 ****  10 GROUP 4 **** **** 0

# MOE 2024.06 (io_trps.svl 2023.06)
