@<TRIPOS>MOLECULE
NONAME
50 52 1 0 0 
SMALL
USER_CHARGES


@<TRIPOS>ATOM
  1 CL       1.4080    -0.5200    -3.2310 Cl    1 <1>  -0.1770 
  2 C        1.7180    -0.8570    -1.5460 C.ar  1 <1>   0.1770 
  3 C        1.0640    -1.9070    -0.9280 C.ar  1 <1>  -0.1440 
  4 C        2.6090    -0.0530    -0.8560 C.ar  1 <1>  -0.1500 
  5 C        1.3290    -2.1200     0.4130 C.ar  1 <1>   0.1900 
  6 C        0.0990    -2.7980    -1.6780 C.3   1 <1>   0.4860 
  7 C        2.8560    -0.2930     0.4870 C.ar  1 <1>  -0.1500 
  8 F        0.7080    -3.1030     1.0120 F     1 <1>  -0.1900 
  9 C        2.2140    -1.3350     1.1410 C.ar  1 <1>  -0.1440 
 10 N       -1.2940    -2.4210    -1.3290 N.4   1 <1>  -0.9590 
 11 C        2.4810    -1.6020     2.6160 C.3   1 <1>  -0.0970 
 12 C       -2.3040    -3.4140    -1.7570 C.3   1 <1>   0.3430 
 13 C       -1.6630    -1.0370    -1.7450 C.3   1 <1>   0.3430 
 14 C       -3.6200    -3.1600    -1.0140 C.3   1 <1>  -0.1600 
 15 C       -3.1370    -0.7390    -1.4420 C.3   1 <1>  -0.1600 
 16 C       -3.7710    -1.7310    -0.4460 C.3   1 <1>   0.2800 
 17 O       -2.9600    -1.6870     0.7140 O.3   1 <1>  -0.5600 
 18 C       -5.2700    -1.4310    -0.1370 C.3   1 <1>   0.2000 
 19 C       -3.5350    -1.3300     1.9420 C.3   1 <1>   0.1200 
 20 O       -6.0140    -1.3190    -1.3160 O.3   1 <1>  -0.6800 
 21 C       -5.5000    -0.2160     0.8140 C.3   1 <1>   0.2800 
 22 C       -4.3110    -0.0240     1.7690 C.3   1 <1>  -0.1600 
 23 O       -6.5970    -0.5350     1.5890 O.3   1 <1>  -0.6800 
 24 C       -5.8640     1.1110     0.1320 C.3   1 <1>  -0.2400 
 25 H        3.1060     0.7550    -1.3650 H     1 <1>   0.1500 
 26 H        0.2800    -3.8220    -1.3950 H     1 <1>   0.0800 
 27 H        0.2520    -2.7090    -2.7410 H     1 <1>   0.0800 
 28 H        3.5520     0.3360     1.0180 H     1 <1>   0.1500 
 29 H       -1.3680    -2.3980    -0.2920 H     1 <1>   0.4500 
 30 H        3.1690    -0.8820     3.0220 H     1 <1>   0.0800 
 31 H        2.9030    -2.5840     2.7410 H     1 <1>   0.0800 
 32 H        1.5630    -1.5480     3.1730 H     1 <1>   0.0800 
 33 H       -2.4660    -3.3260    -2.8190 H     1 <1>   0.0800 
 34 H       -1.9640    -4.4160    -1.5450 H     1 <1>   0.0800 
 35 H       -1.0500    -0.3340    -1.2040 H     1 <1>   0.0800 
 36 H       -1.4770    -0.8990    -2.7980 H     1 <1>   0.0800 
 37 H       -3.7300    -3.8720    -0.2150 H     1 <1>   0.0800 
 38 H       -4.4160    -3.3580    -1.7110 H     1 <1>   0.0800 
 39 H       -3.6840    -0.7690    -2.3670 H     1 <1>   0.0800 
 40 H       -3.2140     0.2650    -1.0720 H     1 <1>   0.0800 
 41 H       -5.6520    -2.3050     0.3650 H     1 <1>   0.0800 
 42 H       -4.1760    -2.1280     2.2770 H     1 <1>   0.0800 
 43 H       -2.7370    -1.2040     2.6540 H     1 <1>   0.0800 
 44 H       -6.9530    -1.1710    -1.0770 H     1 <1>   0.4000 
 45 H       -3.6300     0.7090     1.3760 H     1 <1>   0.0800 
 46 H       -4.6450     0.3340     2.7270 H     1 <1>   0.0800 
 47 H       -6.8560     0.2350     2.1310 H     1 <1>   0.4000 
 48 H       -5.0990     1.4020    -0.5610 H     1 <1>   0.0800 
 49 H       -5.9670     1.8960     0.8590 H     1 <1>   0.0800 
 50 H       -6.7870     1.0220    -0.4140 H     1 <1>   0.0800 
@<TRIPOS>BOND
  1   1   2  1   
  2   2   3  ar  
  3   2   4  ar  
  4   3   5  ar  
  5   3   6  1   
  6   4   7  ar  
  7   4  25  1   
  8   5   8  1   
  9   5   9  ar  
 10   6  10  1   
 11   6  26  1   
 12   6  27  1   
 13   7   9  ar  
 14   7  28  1   
 15   9  11  1   
 16  10  12  1   
 17  10  13  1   
 18  10  29  1   
 19  11  30  1   
 20  11  31  1   
 21  11  32  1   
 22  12  14  1   
 23  12  33  1   
 24  12  34  1   
 25  13  15  1   
 26  13  35  1   
 27  13  36  1   
 28  14  16  1   
 29  14  37  1   
 30  14  38  1   
 31  15  16  1   
 32  15  39  1   
 33  15  40  1   
 34  16  17  1   
 35  16  18  1   
 36  17  19  1   
 37  18  20  1   
 38  18  21  1   
 39  18  41  1   
 40  19  22  1   
 41  19  42  1   
 42  19  43  1   
 43  20  44  1   
 44  21  22  1   
 45  21  23  1   
 46  21  24  1   
 47  22  45  1   
 48  22  46  1   
 49  23  47  1   
 50  24  48  1   
 51  24  49  1   
 52  24  50  1   
@<TRIPOS>SUBSTRUCTURE
  1 ****  13 GROUP 4 **** **** 0

# MOE 2024.06 (io_trps.svl 2023.06)
