@<TRIPOS>MOLECULE
NONAME
43 45 1 0 0 
SMALL
USER_CHARGES


@<TRIPOS>ATOM
  1 CL       0.6430    -0.0570     0.8620 Cl    1 <1>  -0.1770 
  2 C        1.2030    -1.6640     0.4300 C.ar  1 <1>   0.1770 
  3 C        0.3500    -2.7780     0.5050 C.ar  1 <1>   0.4100 
  4 C        2.5070    -1.8010     0.0200 C.ar  1 <1>  -0.1500 
  5 N        0.7580    -4.0060     0.1870 N.ar  1 <1>  -0.6200 
  6 N       -0.9770    -2.6610     0.9050 N.pl3 1 <1>  -0.8380 
  7 C        2.9180    -3.0780    -0.3080 C.ar  1 <1>  -0.1500 
  8 C        2.0170    -4.1240    -0.2060 C.ar  1 <1>   0.1600 
  9 C       -1.6190    -3.7770     1.6780 C.3   1 <1>   0.2090 
 10 C       -1.9280    -1.9620    -0.0160 C.3   1 <1>   0.2090 
 11 C       -2.4180    -4.7380     0.7750 C.3   1 <1>   0.2090 
 12 C       -2.7160    -2.9510    -0.9000 C.3   1 <1>   0.2090 
 13 N       -3.4020    -3.9980    -0.0820 N.pl3 1 <1>  -0.8380 
 14 C       -4.4770    -4.6720    -0.6410 C.ar  1 <1>   0.4100 
 15 N       -4.3370    -5.9730    -0.8310 N.ar  1 <1>  -0.6200 
 16 C       -5.6510    -3.9840    -0.9840 C.ar  1 <1>   0.1600 
 17 C       -5.4060    -6.5650    -1.3910 C.ar  1 <1>   0.3960 
 18 N       -6.7150    -4.5270    -1.5390 N.ar  1 <1>  -0.6200 
 19 C       -5.4180    -8.0030    -1.6800 C.2   1 <1>   0.5440 
 20 C       -6.5460    -5.8280    -1.7310 C.ar  1 <1>   0.1600 
 21 O       -6.0760    -8.4000    -2.6300 O.2   1 <1>  -0.5700 
 22 N       -4.7460    -8.9590    -0.9260 N.am  1 <1>  -0.6600 
 23 C       -4.5900   -10.3650    -1.3960 C.3   1 <1>   0.0600 
 24 C       -4.1440    -8.6880     0.4070 C.3   1 <1>   0.0600 
 25 H        3.1670    -0.9540    -0.0390 H     1 <1>   0.1500 
 26 H        3.9250    -3.2610    -0.6370 H     1 <1>   0.1500 
 27 H        2.3500    -5.1160    -0.4630 H     1 <1>   0.1500 
 28 H       -2.2840    -3.3530     2.4100 H     1 <1>   0.0800 
 29 H       -0.8640    -4.3320     2.2080 H     1 <1>   0.0800 
 30 H       -1.3890    -1.2820    -0.6510 H     1 <1>   0.0800 
 31 H       -2.6200    -1.3850     0.5710 H     1 <1>   0.0800 
 32 H       -2.9390    -5.4490     1.3910 H     1 <1>   0.0800 
 33 H       -1.7340    -5.2800     0.1460 H     1 <1>   0.0800 
 34 H       -2.0300    -3.4300    -1.5780 H     1 <1>   0.0800 
 35 H       -3.4350    -2.4070    -1.4860 H     1 <1>   0.0800 
 36 H       -5.6830    -2.9320    -0.7740 H     1 <1>   0.1500 
 37 H       -7.3670    -6.3540    -2.1870 H     1 <1>   0.1500 
 38 H       -4.8360   -10.4500    -2.4410 H     1 <1>   0.0800 
 39 H       -5.2420   -11.0090    -0.8340 H     1 <1>   0.0800 
 40 H       -3.5710   -10.6830    -1.2630 H     1 <1>   0.0800 
 41 H       -4.6920    -7.9140     0.9170 H     1 <1>   0.0800 
 42 H       -3.1230    -8.3720     0.2830 H     1 <1>   0.0800 
 43 H       -4.1690    -9.5760     1.0140 H     1 <1>   0.0800 
@<TRIPOS>BOND
  1   1   2  1   
  2   2   3  ar  
  3   2   4  ar  
  4   3   5  ar  
  5   3   6  1   
  6   4   7  ar  
  7   4  25  1   
  8   5   8  ar  
  9   6   9  1   
 10   6  10  1   
 11   7   8  ar  
 12   7  26  1   
 13   8  27  1   
 14   9  11  1   
 15   9  28  1   
 16   9  29  1   
 17  10  12  1   
 18  10  30  1   
 19  10  31  1   
 20  11  13  1   
 21  11  32  1   
 22  11  33  1   
 23  12  13  1   
 24  12  34  1   
 25  12  35  1   
 26  13  14  1   
 27  14  15  ar  
 28  14  16  ar  
 29  15  17  ar  
 30  16  18  ar  
 31  16  36  1   
 32  17  19  1   
 33  17  20  ar  
 34  18  20  ar  
 35  19  21  2   
 36  19  22  am  
 37  20  37  1   
 38  22  23  1   
 39  22  24  1   
 40  23  38  1   
 41  23  39  1   
 42  23  40  1   
 43  24  41  1   
 44  24  42  1   
 45  24  43  1   
@<TRIPOS>SUBSTRUCTURE
  1 ****  11 GROUP 4 **** **** 0

# MOE 2024.06 (io_trps.svl 2023.06)
