@<TRIPOS>MOLECULE
NONAME
39 40 1 0 0 
SMALL
USER_CHARGES


@<TRIPOS>ATOM
  1 O        0.3020    -0.0390     0.2670 O.2   1 <1>  -0.5700 
  2 C        1.3610    -0.6330     0.2230 C.2   1 <1>   0.7800 
  3 O        1.4280    -1.9620     0.3000 O.3   1 <1>  -0.4300 
  4 N        2.5370     0.0490     0.0930 N.am  1 <1>  -0.6600 
  5 C        0.3510    -2.8640     0.4370 C.3   1 <1>   0.2800 
  6 C        3.8790    -0.5930     0.0310 C.3   1 <1>   0.2200 
  7 C        2.5440     1.5400     0.0010 C.3   1 <1>   0.1400 
  8 C       -0.5780    -2.7700    -0.7790 C.3   1 <1>  -0.2400 
  9 C        0.9950    -4.2510     0.4730 C.3   1 <1>  -0.2400 
 10 C       -0.3860    -2.6140     1.7580 C.3   1 <1>  -0.2400 
 11 C        4.7070    -0.0040     1.1900 C.3   1 <1>  -0.1600 
 12 C        4.5190    -0.1570    -1.3020 C.3   1 <1>  -0.1600 
 13 C        4.0050     2.0390    -0.1400 C.3   1 <1>   0.5030 
 14 C        4.8000     1.5430     1.0860 C.3   1 <1>  -0.1600 
 15 C        4.6120     1.3900    -1.4020 C.3   1 <1>  -0.1600 
 16 N        4.0950     3.5000    -0.2360 N.4   1 <1>  -0.8530 
 17 H        3.8150    -1.6670     0.1010 H     1 <1>   0.0800 
 18 H        2.0890     1.9390     0.8910 H     1 <1>   0.0800 
 19 H        1.9580     1.8320    -0.8540 H     1 <1>   0.0800 
 20 H       -0.0170    -2.8810    -1.6890 H     1 <1>   0.0800 
 21 H       -1.1010    -1.8320    -0.7970 H     1 <1>   0.0800 
 22 H       -1.3160    -3.5500    -0.7370 H     1 <1>   0.0800 
 23 H        1.5370    -4.4350    -0.4360 H     1 <1>   0.0800 
 24 H        0.2410    -5.0100     0.5770 H     1 <1>   0.0800 
 25 H        1.6690    -4.3280     1.3070 H     1 <1>   0.0800 
 26 H       -0.9090    -1.6760     1.7400 H     1 <1>   0.0800 
 27 H        0.3060    -2.6190     2.5800 H     1 <1>   0.0800 
 28 H       -1.1140    -3.3860     1.9220 H     1 <1>   0.0800 
 29 H        5.6940    -0.4340     1.1730 H     1 <1>   0.0800 
 30 H        4.2520    -0.2910     2.1230 H     1 <1>   0.0800 
 31 H        3.9320    -0.5500    -2.1150 H     1 <1>   0.0800 
 32 H        5.5010    -0.5900    -1.3810 H     1 <1>   0.0800 
 33 H        5.8350     1.8250     1.0040 H     1 <1>   0.0800 
 34 H        4.3980     1.9710     1.9880 H     1 <1>   0.0800 
 35 H        4.0770     1.7100    -2.2790 H     1 <1>   0.0800 
 36 H        5.6460     1.6710    -1.5100 H     1 <1>   0.0800 
 37 H        3.7050     3.9380     0.6040 H     1 <1>   0.4500 
 38 H        3.5800     3.8370    -1.0550 H     1 <1>   0.4500 
 39 H        5.0740     3.7850    -0.3270 H     1 <1>   0.4500 
@<TRIPOS>BOND
  1   1   2  2   
  2   2   3  1   
  3   2   4  am  
  4   3   5  1   
  5   4   6  1   
  6   4   7  1   
  7   5   8  1   
  8   5   9  1   
  9   5  10  1   
 10   6  11  1   
 11   6  12  1   
 12   6  17  1   
 13   7  13  1   
 14   7  18  1   
 15   7  19  1   
 16   8  20  1   
 17   8  21  1   
 18   8  22  1   
 19   9  23  1   
 20   9  24  1   
 21   9  25  1   
 22  10  26  1   
 23  10  27  1   
 24  10  28  1   
 25  11  14  1   
 26  11  29  1   
 27  11  30  1   
 28  12  15  1   
 29  12  31  1   
 30  12  32  1   
 31  13  14  1   
 32  13  15  1   
 33  13  16  1   
 34  14  33  1   
 35  14  34  1   
 36  15  35  1   
 37  15  36  1   
 38  16  37  1   
 39  16  38  1   
 40  16  39  1   
@<TRIPOS>SUBSTRUCTURE
  1 ****   4 GROUP 4 **** **** 0

# MOE 2024.06 (io_trps.svl 2023.06)
