@<TRIPOS>MOLECULE
NONAME
43 44 1 0 0 
SMALL
USER_CHARGES


@<TRIPOS>ATOM
  1 O       -0.3930    -0.5740     1.0420 O.2   1 <1>  -0.5700 
  2 C       -0.3400    -1.7340     0.6800 C.2   1 <1>   0.7800 
  3 O        0.7400    -2.2030     0.0470 O.3   1 <1>  -0.4300 
  4 N       -1.3700    -2.6150     0.9010 N.am  1 <1>  -0.6600 
  5 C        1.9100    -1.4930    -0.2960 C.3   1 <1>   0.2800 
  6 C       -2.5530    -2.1930     1.6950 C.3   1 <1>   0.1400 
  7 C       -1.3120    -4.0190     0.4060 C.3   1 <1>   0.1400 
  8 C        2.6200    -0.9940     0.9670 C.3   1 <1>  -0.2400 
  9 C        2.8020    -2.5140    -1.0040 C.3   1 <1>  -0.2400 
 10 C        1.5750    -0.3570    -1.2690 C.3   1 <1>  -0.2400 
 11 C       -3.6240    -1.6280     0.7590 C.3   1 <1>  -0.1600 
 12 C       -2.6800    -4.6140     0.0470 C.3   1 <1>  -0.1600 
 13 C       -4.4250    -2.6940    -0.0150 C.3   1 <1>   0.0000 
 14 C       -3.5680    -3.7010    -0.8210 C.3   1 <1>  -0.1600 
 15 C       -5.5670    -3.3530     0.8240 C.3   1 <1>   0.0000 
 16 C       -5.5390    -2.0420    -0.8910 C.3   1 <1>   0.0000 
 17 C       -6.5020    -3.1530    -0.3980 C.3   1 <1>   0.2580 
 18 O       -7.7350    -2.6470    -0.0300 O.3   1 <1>  -0.6580 
 19 H       -2.2550    -1.4260     2.3890 H     1 <1>   0.0800 
 20 H       -2.9360    -3.0170     2.2710 H     1 <1>   0.0800 
 21 H       -0.8400    -4.6300     1.1560 H     1 <1>   0.0800 
 22 H       -0.6960    -4.0540    -0.4770 H     1 <1>   0.0800 
 23 H        2.7720    -1.8050     1.6560 H     1 <1>   0.0800 
 24 H        2.0520    -0.2210     1.4520 H     1 <1>   0.0800 
 25 H        3.5780    -0.5790     0.7110 H     1 <1>   0.0800 
 26 H        3.0260    -3.3330    -0.3440 H     1 <1>   0.0800 
 27 H        3.7270    -2.0580    -1.3050 H     1 <1>   0.0800 
 28 H        2.3090    -2.8940    -1.8810 H     1 <1>   0.0800 
 29 H        1.0090     0.4160    -0.7830 H     1 <1>   0.0800 
 30 H        1.0140    -0.7330    -2.1050 H     1 <1>   0.0800 
 31 H        2.4800     0.0890    -1.6390 H     1 <1>   0.0800 
 32 H       -3.1550    -0.9520     0.0650 H     1 <1>   0.0800 
 33 H       -4.3020    -1.0400     1.3520 H     1 <1>   0.0800 
 34 H       -3.1910    -4.9080     0.9450 H     1 <1>   0.0800 
 35 H       -2.4920    -5.5200    -0.5020 H     1 <1>   0.0800 
 36 H       -4.2190    -4.3330    -1.4000 H     1 <1>   0.0800 
 37 H       -2.9520    -3.1640    -1.5220 H     1 <1>   0.0800 
 38 H       -5.8600    -2.7620     1.6760 H     1 <1>   0.0000 
 39 H       -5.4050    -4.3880     1.0610 H     1 <1>   0.0000 
 40 H       -5.3380    -2.0840    -1.9470 H     1 <1>   0.0000 
 41 H       -5.8240    -1.0600    -0.5510 H     1 <1>   0.0000 
 42 H       -6.5900    -4.0050    -1.0480 H     1 <1>   0.0000 
 43 H       -7.6120    -1.8630     0.5360 H     1 <1>   0.4000 
@<TRIPOS>BOND
  1   1   2  2   
  2   2   3  1   
  3   2   4  am  
  4   3   5  1   
  5   4   6  1   
  6   4   7  1   
  7   5   8  1   
  8   5   9  1   
  9   5  10  1   
 10   6  11  1   
 11   6  19  1   
 12   6  20  1   
 13   7  12  1   
 14   7  21  1   
 15   7  22  1   
 16   8  23  1   
 17   8  24  1   
 18   8  25  1   
 19   9  26  1   
 20   9  27  1   
 21   9  28  1   
 22  10  29  1   
 23  10  30  1   
 24  10  31  1   
 25  11  13  1   
 26  11  32  1   
 27  11  33  1   
 28  12  14  1   
 29  12  34  1   
 30  12  35  1   
 31  13  14  1   
 32  13  15  1   
 33  13  16  1   
 34  14  36  1   
 35  14  37  1   
 36  15  17  1   
 37  15  38  1   
 38  15  39  1   
 39  16  17  1   
 40  16  40  1   
 41  16  41  1   
 42  17  18  1   
 43  17  42  1   
 44  18  43  1   
@<TRIPOS>SUBSTRUCTURE
  1 ****   4 GROUP 4 **** **** 0

# MOE 2024.06 (io_trps.svl 2023.06)
