@<TRIPOS>MOLECULE
NONAME
46 49 1 0 0 
SMALL
USER_CHARGES


@<TRIPOS>ATOM
  1 O        0.5460     4.8200     1.4430 O.2   1 <1>  -0.5700 
  2 C        0.6320     4.5810     0.2590 C.2   1 <1>   0.5690 
  3 N       -0.3940     3.9740    -0.4270 N.am  1 <1>  -0.6600 
  4 C        1.9280     4.9790    -0.4260 C.3   1 <1>   0.0820 
  5 C       -1.5800     3.4190     0.2870 C.3   1 <1>   0.1400 
  6 C       -0.3710     3.6150    -1.8710 C.3   1 <1>   0.1400 
  7 C        2.7210     3.7650    -0.8700 C.2   1 <1>   0.1080 
  8 C       -1.5520     1.8720     0.2520 C.3   1 <1>   0.0000 
  9 C       -0.3190     2.0910    -2.0070 C.3   1 <1>  -0.1600 
 10 N        3.1000     3.5790    -2.0920 N.2   1 <1>  -0.7070 
 11 C        3.1180     2.7230    -0.0100 C.ar  1 <1>   0.0000 
 12 C       -2.7990     1.2410     0.9050 C.3   1 <1>   0.2000 
 13 C       -1.4520     1.4000    -1.2250 C.3   1 <1>  -0.1600 
 14 C       -0.3930     1.2920     1.0920 C.3   1 <1>  -0.1600 
 15 N        3.7600     2.3980    -2.0740 N.pl3 1 <1>   0.3000 
 16 C        3.7860     1.8410    -0.8320 C.ar  1 <1>  -0.1520 
 17 C        2.9850     2.4270     1.3550 C.ar  1 <1>  -0.1500 
 18 O       -3.1370     1.9200     2.0630 O.3   1 <1>  -0.6800 
 19 C       -2.3650    -0.1620     1.3210 C.3   1 <1>  -0.1600 
 20 C       -0.8650    -0.0660     1.6310 C.3   1 <1>  -0.1600 
 21 C        4.3280     0.6490    -0.3370 C.ar  1 <1>  -0.1500 
 22 C        3.5130     1.2580     1.8480 C.ar  1 <1>  -0.1500 
 23 C        4.1850     0.3660     1.0010 C.ar  1 <1>  -0.1500 
 24 H        1.7090     5.6070    -1.2680 H     1 <1>   0.0800 
 25 H        2.5280     5.5480     0.2590 H     1 <1>   0.0800 
 26 H       -1.5990     3.7690     1.3050 H     1 <1>   0.0800 
 27 H       -2.4760     3.7750    -0.1900 H     1 <1>   0.0800 
 28 H       -1.2660     3.9900    -2.3360 H     1 <1>   0.0800 
 29 H        0.4690     4.0560    -2.3760 H     1 <1>   0.0800 
 30 H       -0.3900     1.8300    -3.0480 H     1 <1>   0.0800 
 31 H        0.6390     1.7470    -1.6600 H     1 <1>   0.0800 
 32 H       -3.6610     1.2370     0.2590 H     1 <1>   0.0800 
 33 H       -1.3080     0.3350    -1.2720 H     1 <1>   0.0800 
 34 H       -2.3810     1.6230    -1.7210 H     1 <1>   0.0800 
 35 H        0.5170     1.1940     0.5290 H     1 <1>   0.0800 
 36 H       -0.1900     1.9450     1.9240 H     1 <1>   0.0800 
 37 H        4.1910     1.9920    -2.9120 H     1 <1>   0.2700 
 38 H        2.4670     3.1180     1.9970 H     1 <1>   0.1500 
 39 H       -2.3750     1.8960     2.6740 H     1 <1>   0.4000 
 40 H       -2.9370    -0.5370     2.1520 H     1 <1>   0.0800 
 41 H       -2.5060    -0.8270     0.4880 H     1 <1>   0.0800 
 42 H       -0.6910    -0.1220     2.6920 H     1 <1>   0.0800 
 43 H       -0.3330    -0.8690     1.1510 H     1 <1>   0.0800 
 44 H        4.8440    -0.0270    -0.9960 H     1 <1>   0.1500 
 45 H        3.4160     1.0170     2.8920 H     1 <1>   0.1500 
 46 H        4.5900    -0.5420     1.4130 H     1 <1>   0.1500 
@<TRIPOS>BOND
  1   1   2  2   
  2   2   3  am  
  3   2   4  1   
  4   3   5  1   
  5   3   6  1   
  6   4   7  1   
  7   4  24  1   
  8   4  25  1   
  9   5   8  1   
 10   5  26  1   
 11   5  27  1   
 12   6   9  1   
 13   6  28  1   
 14   6  29  1   
 15   7  10  2   
 16   7  11  1   
 17   8  12  1   
 18   8  13  1   
 19   8  14  1   
 20   9  13  1   
 21   9  30  1   
 22   9  31  1   
 23  10  15  1   
 24  11  16  ar  
 25  11  17  ar  
 26  12  18  1   
 27  12  19  1   
 28  12  32  1   
 29  13  33  1   
 30  13  34  1   
 31  14  20  1   
 32  14  35  1   
 33  14  36  1   
 34  15  16  1   
 35  15  37  1   
 36  16  21  ar  
 37  17  22  ar  
 38  17  38  1   
 39  18  39  1   
 40  19  20  1   
 41  19  40  1   
 42  19  41  1   
 43  20  42  1   
 44  20  43  1   
 45  21  23  ar  
 46  21  44  1   
 47  22  23  ar  
 48  22  45  1   
 49  23  46  1   
@<TRIPOS>SUBSTRUCTURE
  1 ****  14 GROUP 4 **** **** 0

# MOE 2024.06 (io_trps.svl 2023.06)
