@<TRIPOS>MOLECULE
NONAME
45 48 1 0 0 
SMALL
USER_CHARGES


@<TRIPOS>ATOM
  1 O       -0.3760     0.2380     0.1570 O.2   1 <1>  -0.5700 
  2 C       -1.4190     0.8760     0.1470 C.2   1 <1>   0.7160 
  3 N       -2.5830     0.1490    -0.0440 N.am  1 <1>  -0.6600 
  4 C       -1.3960     2.3330     0.3230 C.2   1 <1>   0.2030 
  5 C       -3.9530     0.7100    -0.1390 C.3   1 <1>   0.1400 
  6 C       -2.6100    -1.3270    -0.1810 C.3   1 <1>   0.1400 
  7 N       -2.4240     3.1100     0.6440 N.2   1 <1>  -0.7070 
  8 C       -0.2460     3.1330     0.1780 C.2   1 <1>  -0.1810 
  9 C       -4.8540    -0.4910    -0.4250 C.3   1 <1>   0.2000 
 10 C       -4.0710    -1.7130     0.0510 C.3   1 <1>  -0.0800 
 11 N       -1.9380     4.3580     0.7100 N.pl3 1 <1>   0.3000 
 12 C       -0.6240     4.3950     0.4370 C.2   1 <1>  -0.3320 
 13 C        1.1810     2.7520    -0.1840 C.3   1 <1>   0.0210 
 14 O       -6.0570    -0.4080     0.2600 O.3   1 <1>  -0.6800 
 15 C       -4.5020    -3.0070    -0.6590 C.3   1 <1>  -0.0170 
 16 C        0.2730     5.6170     0.4120 C.3   1 <1>   0.0200 
 17 C        1.9940     4.0030    -0.5690 C.3   1 <1>  -0.1600 
 18 C       -3.7240    -4.2090    -0.1500 C.ar  1 <1>   0.1670 
 19 C        1.7480     5.1740     0.4030 C.3   1 <1>  -0.1600 
 20 N       -2.5660    -4.4580    -0.7390 N.ar  1 <1>  -0.6200 
 21 C       -4.2390    -4.9770     0.8930 C.ar  1 <1>   0.1600 
 22 C       -1.9630    -5.5150    -0.2200 C.ar  1 <1>   0.1600 
 23 N       -3.6380    -6.0340     1.4130 N.ar  1 <1>  -0.6200 
 24 C       -2.4810    -6.2770     0.8200 C.ar  1 <1>   0.1600 
 25 H       -4.2110     1.1720     0.7980 H     1 <1>   0.0800 
 26 H       -4.0060     1.4330    -0.9340 H     1 <1>   0.0800 
 27 H       -2.2920    -1.5930    -1.1750 H     1 <1>   0.0800 
 28 H       -1.9570    -1.7960     0.5370 H     1 <1>   0.0800 
 29 H       -5.0650    -0.5460    -1.4800 H     1 <1>   0.0800 
 30 H       -4.2020    -1.8270     1.1130 H     1 <1>   0.0800 
 31 H       -2.5240     5.1680     0.9470 H     1 <1>   0.2700 
 32 H        1.6320     2.2690     0.6640 H     1 <1>   0.0800 
 33 H        1.1810     2.0570    -1.0050 H     1 <1>   0.0800 
 34 H       -5.8920    -0.2500     1.2100 H     1 <1>   0.4000 
 35 H       -4.3500    -2.9130    -1.7210 H     1 <1>   0.0800 
 36 H       -5.5530    -3.1660    -0.4980 H     1 <1>   0.0800 
 37 H        0.0620     6.1890    -0.4750 H     1 <1>   0.0800 
 38 H        0.0890     6.2370     1.2720 H     1 <1>   0.0800 
 39 H        3.0410     3.7540    -0.5870 H     1 <1>   0.0800 
 40 H        1.7100     4.3090    -1.5610 H     1 <1>   0.0800 
 41 H        2.3710     6.0090     0.1370 H     1 <1>   0.0800 
 42 H        2.0220     4.8610     1.3960 H     1 <1>   0.0800 
 43 H       -5.1900    -4.7040     1.3160 H     1 <1>   0.1500 
 44 H       -1.0120    -5.7930    -0.6390 H     1 <1>   0.1500 
 45 H       -1.9150    -7.1200     1.1750 H     1 <1>   0.1500 
@<TRIPOS>BOND
  1   1   2  2   
  2   2   3  am  
  3   2   4  1   
  4   3   5  1   
  5   3   6  1   
  6   4   7  2   
  7   4   8  1   
  8   5   9  1   
  9   5  25  1   
 10   5  26  1   
 11   6  10  1   
 12   6  27  1   
 13   6  28  1   
 14   7  11  1   
 15   8  12  2   
 16   8  13  1   
 17   9  10  1   
 18   9  14  1   
 19   9  29  1   
 20  10  15  1   
 21  10  30  1   
 22  11  12  1   
 23  11  31  1   
 24  12  16  1   
 25  13  17  1   
 26  13  32  1   
 27  13  33  1   
 28  14  34  1   
 29  15  18  1   
 30  15  35  1   
 31  15  36  1   
 32  16  19  1   
 33  16  37  1   
 34  16  38  1   
 35  17  19  1   
 36  17  39  1   
 37  17  40  1   
 38  18  20  ar  
 39  18  21  ar  
 40  19  41  1   
 41  19  42  1   
 42  20  22  ar  
 43  21  23  ar  
 44  21  43  1   
 45  22  24  ar  
 46  22  44  1   
 47  23  24  ar  
 48  24  45  1   
@<TRIPOS>SUBSTRUCTURE
  1 ****   3 GROUP 4 **** **** 0

# MOE 2024.06 (io_trps.svl 2023.06)
