@<TRIPOS>MOLECULE
NONAME
57 59 1 0 0 
SMALL
USER_CHARGES


@<TRIPOS>ATOM
  1 O        1.9560     2.3230    -2.1910 O.co2 1 <1>  -0.9000 
  2 C        1.7460     1.6790    -1.1600 C.2   1 <1>   0.9060 
  3 O        1.2200     2.2090    -0.1780 O.co2 1 <1>  -0.9000 
  4 C        2.4610     0.3250    -0.9710 C.3   1 <1>  -0.1060 
  5 C        3.4530     0.5430     0.1890 C.3   1 <1>   0.4230 
  6 C        3.2940    -0.0720    -2.2350 C.3   1 <1>  -0.1600 
  7 C        1.4790    -0.8300    -0.6420 C.3   1 <1>  -0.1600 
  8 N        2.6970     0.7680     1.4730 N.4   1 <1>  -0.9590 
  9 C        4.4480     1.6920    -0.1750 C.3   1 <1>   0.3430 
 10 C        4.5390     0.7960    -2.5250 C.3   1 <1>   0.3430 
 11 C        0.8390    -0.6890     0.7490 C.3   1 <1>  -0.1600 
 12 C        1.8650    -0.4060     1.8500 C.3   1 <1>   0.3430 
 13 C        3.4790     1.3000     2.6270 C.3   1 <1>   0.2630 
 14 N        4.5510     1.9940    -1.6540 N.4   1 <1>  -0.9590 
 15 C        5.5800     3.0090    -1.9870 C.3   1 <1>   0.4860 
 16 C        5.4520     4.1540    -1.0030 C.ar  1 <1>  -0.1430 
 17 C        6.3450     4.2610     0.0560 C.ar  1 <1>   0.0830 
 18 C        4.4100     5.0580    -1.1180 C.ar  1 <1>  -0.1500 
 19 O        7.3430     3.3510     0.1330 O.3   1 <1>  -0.3620 
 20 C        6.1840     5.2460     1.0290 C.ar  1 <1>  -0.1430 
 21 C        4.2590     6.0600    -0.1780 C.ar  1 <1>  -0.1500 
 22 C        8.6270     3.7980    -0.2580 C.3   1 <1>   0.0400 
 23 C        5.1390     6.1580     0.8980 C.ar  1 <1>   0.0830 
 24 C        7.1110     5.3380     2.2420 C.3   1 <1>  -0.0970 
 25 O        5.0160     7.1210     1.8500 O.3   1 <1>  -0.3630 
 26 C        3.9960     8.0950     1.8010 C.3   1 <1>   0.0400 
 27 H        4.0320    -0.3570     0.3000 H     1 <1>   0.0800 
 28 H        2.6500    -0.0280    -3.0980 H     1 <1>   0.0800 
 29 H        3.6250    -1.0930    -2.1610 H     1 <1>   0.0800 
 30 H        0.7010    -0.8630    -1.3880 H     1 <1>   0.0800 
 31 H        1.9980    -1.7730    -0.6750 H     1 <1>   0.0800 
 32 H        1.9890     1.5010     1.1850 H     1 <1>   0.4500 
 33 H        5.4240     1.4490     0.2080 H     1 <1>   0.0800 
 34 H        4.1080     2.5880     0.3200 H     1 <1>   0.0800 
 35 H        4.5200     1.0990    -3.5600 H     1 <1>   0.0800 
 36 H        5.4330     0.2180    -2.3580 H     1 <1>   0.0800 
 37 H        0.3060    -1.5930     0.9900 H     1 <1>   0.0800 
 38 H        0.1120     0.1050     0.7380 H     1 <1>   0.0800 
 39 H        2.4930    -1.2700     1.9940 H     1 <1>   0.0800 
 40 H        1.3420    -0.2050     2.7710 H     1 <1>   0.0800 
 41 H        4.2400     0.5980     2.9240 H     1 <1>   0.0800 
 42 H        2.8240     1.4740     3.4660 H     1 <1>   0.0800 
 43 H        3.9440     2.2370     2.3680 H     1 <1>   0.0800 
 44 H        3.6350     2.4620    -1.8990 H     1 <1>   0.4500 
 45 H        6.5640     2.5760    -1.9200 H     1 <1>   0.0800 
 46 H        5.4290     3.3740    -2.9900 H     1 <1>   0.0800 
 47 H        3.6980     4.9860    -1.9260 H     1 <1>   0.1500 
 48 H        3.4420     6.7460    -0.2980 H     1 <1>   0.1500 
 49 H        9.3180     2.9810    -0.1550 H     1 <1>   0.0800 
 50 H        8.9310     4.6130     0.3750 H     1 <1>   0.0800 
 51 H        8.5890     4.1250    -1.2820 H     1 <1>   0.0800 
 52 H        6.5440     5.5540     3.1310 H     1 <1>   0.0800 
 53 H        7.8230     6.1290     2.0940 H     1 <1>   0.0800 
 54 H        7.6380     4.4180     2.4120 H     1 <1>   0.0800 
 55 H        4.1090     8.7410     2.6530 H     1 <1>   0.0800 
 56 H        3.0400     7.6040     1.8400 H     1 <1>   0.0800 
 57 H        4.1000     8.6660     0.8950 H     1 <1>   0.0800 
@<TRIPOS>BOND
  1   1   2  ar  
  2   2   3  ar  
  3   2   4  1   
  4   4   5  1   
  5   4   6  1   
  6   4   7  1   
  7   5   8  1   
  8   5   9  1   
  9   5  27  1   
 10   6  10  1   
 11   6  28  1   
 12   6  29  1   
 13   7  11  1   
 14   7  30  1   
 15   7  31  1   
 16   8  12  1   
 17   8  13  1   
 18   8  32  1   
 19   9  14  1   
 20   9  33  1   
 21   9  34  1   
 22  10  14  1   
 23  10  35  1   
 24  10  36  1   
 25  11  12  1   
 26  11  37  1   
 27  11  38  1   
 28  12  39  1   
 29  12  40  1   
 30  13  41  1   
 31  13  42  1   
 32  13  43  1   
 33  14  15  1   
 34  14  44  1   
 35  15  16  1   
 36  15  45  1   
 37  15  46  1   
 38  16  17  ar  
 39  16  18  ar  
 40  17  19  1   
 41  17  20  ar  
 42  18  21  ar  
 43  18  47  1   
 44  19  22  1   
 45  20  23  ar  
 46  20  24  1   
 47  21  23  ar  
 48  21  48  1   
 49  22  49  1   
 50  22  50  1   
 51  22  51  1   
 52  23  25  1   
 53  24  52  1   
 54  24  53  1   
 55  24  54  1   
 56  25  26  1   
 57  26  55  1   
 58  26  56  1   
 59  26  57  1   
@<TRIPOS>SUBSTRUCTURE
  1 ****   9 GROUP 4 **** **** 0

# MOE 2024.06 (io_trps.svl 2023.06)
