@<TRIPOS>MOLECULE
NONAME
53 56 1 0 0 
SMALL
USER_CHARGES


@<TRIPOS>ATOM
  1 O       -1.9430     0.4450    -1.8900 O.2   1 <1>  -0.5700 
  2 C       -1.9830     0.7500    -0.7250 C.2   1 <1>   0.5690 
  3 N       -1.9740    -0.1810     0.2580 N.am  1 <1>  -0.7300 
  4 C       -2.0420     2.2090    -0.3400 C.3   1 <1>  -0.0990 
  5 C       -1.8640    -1.6430     0.0420 C.3   1 <1>   0.2200 
  6 C       -0.6490     2.8570    -0.4290 C.3   1 <1>  -0.0160 
  7 C       -3.2010    -2.3380     0.2610 C.3   1 <1>  -0.0800 
  8 C       -1.0500    -2.2440     1.1790 C.3   1 <1>   0.1200 
  9 C       -0.5990     4.3280    -0.0110 C.ar  1 <1>   0.1660 
 10 C       -3.2390    -2.5460     1.7800 C.3   1 <1>   0.1200 
 11 C       -4.4360    -1.6210    -0.3140 C.3   1 <1>  -0.0170 
 12 O       -1.9390    -2.3320     2.2500 O.3   1 <1>  -0.5600 
 13 N       -1.6410     4.8460     0.5680 N.ar  1 <1>  -0.6200 
 14 C        0.5990     5.0610    -0.2670 C.ar  1 <1>   0.3930 
 15 C       -5.6880    -2.4620    -0.1220 C.ar  1 <1>  -0.1440 
 16 C       -1.5070     6.1550     0.9060 C.ar  1 <1>   0.3100 
 17 O        1.6200     4.4060    -0.8630 O.3   1 <1>  -0.3630 
 18 N        0.7600     6.3170     0.0450 N.ar  1 <1>  -0.6200 
 19 C       -6.0060    -3.4950    -0.9810 C.ar  1 <1>  -0.1500 
 20 C       -6.5700    -2.2400     0.9160 C.ar  1 <1>  -0.1500 
 21 C       -0.3180     6.8800     0.6450 C.ar  1 <1>   0.3100 
 22 C       -2.5770     6.8130     1.5320 C.ar  1 <1>  -0.1500 
 23 C        2.8380     5.0570    -1.1690 C.3   1 <1>   0.0400 
 24 C       -7.1530    -4.2390    -0.7620 C.ar  1 <1>   0.1600 
 25 C       -7.6910    -3.0430     1.0460 C.ar  1 <1>   0.1600 
 26 C       -0.2580     8.2300     1.0240 C.ar  1 <1>  -0.1500 
 27 C       -2.4900     8.1340     1.8920 C.ar  1 <1>  -0.1500 
 28 N       -8.0030    -4.0390     0.2320 N.ar  1 <1>  -0.6200 
 29 C       -1.3180     8.8490     1.6350 C.ar  1 <1>  -0.1500 
 30 H       -2.0310     0.0900     1.2430 H     1 <1>   0.3700 
 31 H       -2.7170     2.7150    -1.0060 H     1 <1>   0.0800 
 32 H       -2.4280     2.2990     0.6590 H     1 <1>   0.0800 
 33 H       -1.4370    -1.8540    -0.9240 H     1 <1>   0.0800 
 34 H       -0.3050     2.7730    -1.4460 H     1 <1>   0.0800 
 35 H        0.0350     2.3080     0.1930 H     1 <1>   0.0800 
 36 H       -3.1390    -3.3110    -0.1930 H     1 <1>   0.0800 
 37 H       -0.2040    -1.6390     1.4550 H     1 <1>   0.0800 
 38 H       -0.7260    -3.2400     0.9340 H     1 <1>   0.0800 
 39 H       -3.5450    -3.5450     2.0370 H     1 <1>   0.0800 
 40 H       -3.8820    -1.8320     2.2650 H     1 <1>   0.0800 
 41 H       -4.2860    -1.4390    -1.3650 H     1 <1>   0.0800 
 42 H       -4.5720    -0.6650     0.1600 H     1 <1>   0.0800 
 43 H       -5.3720    -3.7270    -1.8170 H     1 <1>   0.1500 
 44 H       -6.3990    -1.4510     1.6250 H     1 <1>   0.1500 
 45 H       -3.4690     6.2460     1.7210 H     1 <1>   0.1500 
 46 H        3.4930     4.3460    -1.6400 H     1 <1>   0.0800 
 47 H        3.2780     5.4200    -0.2570 H     1 <1>   0.0800 
 48 H        2.6360     5.8750    -1.8390 H     1 <1>   0.0800 
 49 H       -7.3850    -5.0410    -1.4420 H     1 <1>   0.1500 
 50 H       -8.3680    -2.8560     1.8620 H     1 <1>   0.1500 
 51 H        0.6510     8.7660     0.8190 H     1 <1>   0.1500 
 52 H       -3.3170     8.6300     2.3720 H     1 <1>   0.1500 
 53 H       -1.2600     9.8860     1.9210 H     1 <1>   0.1500 
@<TRIPOS>BOND
  1   1   2  2   
  2   2   3  am  
  3   2   4  1   
  4   3   5  1   
  5   3  30  1   
  6   4   6  1   
  7   4  31  1   
  8   4  32  1   
  9   5   7  1   
 10   5   8  1   
 11   5  33  1   
 12   6   9  1   
 13   6  34  1   
 14   6  35  1   
 15   7  10  1   
 16   7  11  1   
 17   7  36  1   
 18   8  12  1   
 19   8  37  1   
 20   8  38  1   
 21   9  13  ar  
 22   9  14  ar  
 23  10  12  1   
 24  10  39  1   
 25  10  40  1   
 26  11  15  1   
 27  11  41  1   
 28  11  42  1   
 29  13  16  ar  
 30  14  17  1   
 31  14  18  ar  
 32  15  19  ar  
 33  15  20  ar  
 34  16  21  ar  
 35  16  22  ar  
 36  17  23  1   
 37  18  21  ar  
 38  19  24  ar  
 39  19  43  1   
 40  20  25  ar  
 41  20  44  1   
 42  21  26  ar  
 43  22  27  ar  
 44  22  45  1   
 45  23  46  1   
 46  23  47  1   
 47  23  48  1   
 48  24  28  ar  
 49  24  49  1   
 50  25  28  ar  
 51  25  50  1   
 52  26  29  ar  
 53  26  51  1   
 54  27  29  ar  
 55  27  52  1   
 56  29  53  1   
@<TRIPOS>SUBSTRUCTURE
  1 ****   4 GROUP 4 **** **** 0

# MOE 2024.06 (io_trps.svl 2023.06)
