@<TRIPOS>MOLECULE
NONAME
47 48 1 0 0 
SMALL
USER_CHARGES


@<TRIPOS>ATOM
  1 O       -2.9160     0.5710    -1.2650 O.2   1 <1>  -0.5700 
  2 C       -2.3840     0.7490    -0.1960 C.2   1 <1>   0.5690 
  3 N       -2.0800    -0.2890     0.6260 N.am  1 <1>  -0.7300 
  4 C       -2.0380     2.1640     0.2690 C.3   1 <1>  -0.0190 
  5 C       -2.2780    -1.7220     0.2840 C.3   1 <1>   0.1400 
  6 C       -2.8870     3.2530    -0.4200 C.3   1 <1>  -0.1600 
  7 C       -0.5300     2.4520     0.0840 C.3   1 <1>  -0.1600 
  8 C       -3.7650    -2.0780     0.2750 C.3   1 <1>   0.1200 
  9 C       -2.6310     4.6560     0.1710 C.3   1 <1>   0.2000 
 10 C       -0.1790     3.9540     0.0740 C.3   1 <1>  -0.1600 
 11 O       -3.8800    -3.4610     0.1700 O.3   1 <1>  -0.5600 
 12 O       -2.7500     5.6050    -0.8600 O.3   1 <1>  -0.5600 
 13 C       -1.2270     4.7850     0.8190 C.3   1 <1>   0.2000 
 14 C       -5.1940    -3.9130     0.0480 C.3   1 <1>   0.2630 
 15 C       -4.0560     5.9160    -1.2360 C.3   1 <1>   0.0400 
 16 O       -0.8300     6.1050     0.7840 O.3   1 <1>  -0.6800 
 17 C       -5.1950    -5.4330    -0.0240 C.ar  1 <1>  -0.1440 
 18 C       -5.9840    -6.1800     0.8390 C.ar  1 <1>  -0.1500 
 19 C       -4.4140    -6.0890    -0.9640 C.ar  1 <1>  -0.1500 
 20 C       -5.9940    -7.5620     0.7600 C.ar  1 <1>  -0.1500 
 21 C       -4.4220    -7.4710    -1.0440 C.ar  1 <1>  -0.1500 
 22 C       -5.2140    -8.2090    -0.1820 C.ar  1 <1>  -0.1500 
 23 H       -1.6080    -0.1110     1.5130 H     1 <1>   0.3700 
 24 H       -2.2630     2.2070     1.3200 H     1 <1>   0.0800 
 25 H       -1.8630    -1.9150    -0.6910 H     1 <1>   0.0800 
 26 H       -1.7680    -2.3320     1.0090 H     1 <1>   0.0800 
 27 H       -3.9300     3.0110    -0.3210 H     1 <1>   0.0800 
 28 H       -2.6420     3.2560    -1.4690 H     1 <1>   0.0800 
 29 H        0.0150     1.9640     0.8730 H     1 <1>   0.0800 
 30 H       -0.1950     2.0240    -0.8470 H     1 <1>   0.0800 
 31 H       -4.2490    -1.6200    -0.5710 H     1 <1>   0.0800 
 32 H       -4.2310    -1.7670     1.1930 H     1 <1>   0.0800 
 33 H       -3.3630     4.8790     0.9290 H     1 <1>   0.0800 
 34 H       -0.1410     4.2940    -0.9470 H     1 <1>   0.0800 
 35 H        0.7910     4.1030     0.5160 H     1 <1>   0.0800 
 36 H       -1.2600     4.4780     1.8500 H     1 <1>   0.0800 
 37 H       -5.7540    -3.5730     0.9020 H     1 <1>   0.0800 
 38 H       -5.6170    -3.5030    -0.8520 H     1 <1>   0.0800 
 39 H       -4.0120     6.6660    -2.0060 H     1 <1>   0.0800 
 40 H       -4.5890     6.3040    -0.3850 H     1 <1>   0.0800 
 41 H       -4.5410     5.0360    -1.6200 H     1 <1>   0.0800 
 42 H       -1.2380     6.4840    -0.0280 H     1 <1>   0.4000 
 43 H       -6.5940    -5.6900     1.5770 H     1 <1>   0.1500 
 44 H       -3.7930    -5.5170    -1.6320 H     1 <1>   0.1500 
 45 H       -6.6080    -8.1350     1.4330 H     1 <1>   0.1500 
 46 H       -3.8110    -7.9690    -1.7760 H     1 <1>   0.1500 
 47 H       -5.2210    -9.2830    -0.2430 H     1 <1>   0.1500 
@<TRIPOS>BOND
  1   1   2  2   
  2   2   3  am  
  3   2   4  1   
  4   3   5  1   
  5   3  23  1   
  6   4   6  1   
  7   4   7  1   
  8   4  24  1   
  9   5   8  1   
 10   5  25  1   
 11   5  26  1   
 12   6   9  1   
 13   6  27  1   
 14   6  28  1   
 15   7  10  1   
 16   7  29  1   
 17   7  30  1   
 18   8  11  1   
 19   8  31  1   
 20   8  32  1   
 21   9  12  1   
 22   9  13  1   
 23   9  33  1   
 24  10  13  1   
 25  10  34  1   
 26  10  35  1   
 27  11  14  1   
 28  12  15  1   
 29  13  16  1   
 30  13  36  1   
 31  14  17  1   
 32  14  37  1   
 33  14  38  1   
 34  15  39  1   
 35  15  40  1   
 36  15  41  1   
 37  16  42  1   
 38  17  18  ar  
 39  17  19  ar  
 40  18  20  ar  
 41  18  43  1   
 42  19  21  ar  
 43  19  44  1   
 44  20  22  ar  
 45  20  45  1   
 46  21  22  ar  
 47  21  46  1   
 48  22  47  1   
@<TRIPOS>SUBSTRUCTURE
  1 ****   3 GROUP 4 **** **** 0

# MOE 2024.06 (io_trps.svl 2023.06)
