@<TRIPOS>MOLECULE
NONAME
52 54 1 0 0 
SMALL
USER_CHARGES


@<TRIPOS>ATOM
  1 O        2.7580    -0.4730    -1.3380 O.2   1 <1>  -0.5700 
  2 C        2.2570    -1.4820    -0.9050 C.2   1 <1>   0.9370 
  3 N        2.2900    -1.8090     0.4740 N.pl3 1 <1>  -0.5760 
  4 C        1.6060    -2.3430    -1.8250 C.2   1 <1>  -0.1360 
  5 C        1.7140    -2.9890     0.8500 C.cat 1 <1>   0.7390 
  6 C        2.8560    -1.0100     1.4670 C.2   1 <1>   0.2030 
  7 C        1.0670    -3.5050    -1.4220 C.2   1 <1>   0.2030 
  8 N        1.1820    -3.8160    -0.0840 N.pl3 1 <1>  -0.6450 
  9 C        1.6540    -3.3650     2.1980 C.2   1 <1>  -0.1800 
 10 C        2.8070    -1.3900     2.7830 C.2   1 <1>  -0.1500 
 11 C        3.5550     0.3150     1.1700 C.3   1 <1>  -0.1020 
 12 C        0.3180    -4.4780    -2.3530 C.3   1 <1>   0.4810 
 13 C        2.1960    -2.5810     3.1720 C.2   1 <1>  -0.1500 
 14 N       -0.9980    -4.8800    -1.7520 N.4   1 <1>  -0.9590 
 15 C       -1.6530    -5.9660    -2.5240 C.3   1 <1>   0.3430 
 16 C       -1.9340    -3.7310    -1.5050 C.3   1 <1>   0.2630 
 17 C       -2.5060    -6.8160    -1.5770 C.3   1 <1>  -0.1600 
 18 C       -1.7030    -7.8250    -0.7330 C.3   1 <1>   0.0960 
 19 N       -0.7630    -7.2370     0.2650 N.pl3 1 <1>   0.3140 
 20 N        0.4450    -6.7290    -0.0970 N.2   1 <1>  -0.7070 
 21 C       -0.8220    -7.4180     1.6020 C.2   1 <1>  -0.3320 
 22 C        1.1560    -6.7660     0.9910 C.2   1 <1>   0.1080 
 23 C        0.4000    -7.1300     2.0940 C.2   1 <1>  -0.1500 
 24 C       -2.0240    -7.9320     2.3820 C.3   1 <1>  -0.0600 
 25 C        2.6500    -6.5110     1.0410 C.3   1 <1>  -0.0590 
 26 H        1.5800    -1.9990    -2.8430 H     1 <1>   0.1500 
 27 H        0.9240    -4.7730     0.2320 H     1 <1>   0.4500 
 28 H        1.1670    -4.2830     2.4690 H     1 <1>   0.1500 
 29 H        3.2400    -0.7760     3.5560 H     1 <1>   0.1500 
 30 H        4.3890     0.1610     0.5090 H     1 <1>   0.0800 
 31 H        3.9350     0.7690     2.0670 H     1 <1>   0.0800 
 32 H        2.8690     1.0110     0.7210 H     1 <1>   0.0800 
 33 H        0.9260    -5.3580    -2.4920 H     1 <1>   0.0800 
 34 H        0.1610    -4.0200    -3.3160 H     1 <1>   0.0800 
 35 H        2.1630    -2.8520     4.2170 H     1 <1>   0.1500 
 36 H       -0.7460    -5.3380    -0.8550 H     1 <1>   0.4500 
 37 H       -0.9110    -6.5980    -2.9880 H     1 <1>   0.0800 
 38 H       -2.2710    -5.5430    -3.3010 H     1 <1>   0.0800 
 39 H       -2.2050    -3.2590    -2.4360 H     1 <1>   0.0800 
 40 H       -1.4740    -2.9960    -0.8650 H     1 <1>   0.0800 
 41 H       -2.8360    -4.0760    -1.0250 H     1 <1>   0.0800 
 42 H       -3.1720    -7.3950    -2.1940 H     1 <1>   0.0800 
 43 H       -3.1310    -6.2110    -0.9450 H     1 <1>   0.0800 
 44 H       -1.1240    -8.4570    -1.3830 H     1 <1>   0.0800 
 45 H       -2.3910    -8.4650    -0.2120 H     1 <1>   0.0800 
 46 H        0.7450    -7.2050     3.1120 H     1 <1>   0.1500 
 47 H       -2.8870    -7.3160     2.2030 H     1 <1>   0.0800 
 48 H       -1.8140    -7.9180     3.4380 H     1 <1>   0.0800 
 49 H       -2.2500    -8.9460     2.1030 H     1 <1>   0.0800 
 50 H        2.9790    -5.9540     0.1850 H     1 <1>   0.0800 
 51 H        3.1610    -7.4580     1.0370 H     1 <1>   0.0800 
 52 H        2.9200    -5.9900     1.9400 H     1 <1>   0.0800 
@<TRIPOS>BOND
  1   1   2  2   
  2   2   3  1   
  3   2   4  1   
  4   3   5  ar  
  5   3   6  1   
  6   4   7  2   
  7   4  26  1   
  8   5   8  ar  
  9   5   9  1   
 10   6  10  2   
 11   6  11  1   
 12   7   8  1   
 13   7  12  1   
 14   8  27  1   
 15   9  13  2   
 16   9  28  1   
 17  10  13  1   
 18  10  29  1   
 19  11  30  1   
 20  11  31  1   
 21  11  32  1   
 22  12  14  1   
 23  12  33  1   
 24  12  34  1   
 25  13  35  1   
 26  14  15  1   
 27  14  16  1   
 28  14  36  1   
 29  15  17  1   
 30  15  37  1   
 31  15  38  1   
 32  16  39  1   
 33  16  40  1   
 34  16  41  1   
 35  17  18  1   
 36  17  42  1   
 37  17  43  1   
 38  18  19  1   
 39  18  44  1   
 40  18  45  1   
 41  19  20  1   
 42  19  21  1   
 43  20  22  2   
 44  21  23  2   
 45  21  24  1   
 46  22  23  1   
 47  22  25  1   
 48  23  46  1   
 49  24  47  1   
 50  24  48  1   
 51  24  49  1   
 52  25  50  1   
 53  25  51  1   
 54  25  52  1   
@<TRIPOS>SUBSTRUCTURE
  1 ****   8 GROUP 4 **** **** 0

# MOE 2024.06 (io_trps.svl 2023.06)
