@<TRIPOS>MOLECULE
NONAME
44 45 1 0 0 
SMALL
USER_CHARGES


@<TRIPOS>ATOM
  1 S       -0.9950    -0.6210     0.4540 S.3   1 <1>  -0.3320 
  2 C       -0.5790     1.1200     0.2480 C.ar  1 <1>   0.1020 
  3 C       -2.2050    -0.7150     1.8630 C.3   1 <1>   0.1310 
  4 C        0.2550     1.4460    -0.8040 C.ar  1 <1>  -0.1500 
  5 C       -1.0660     2.1010     1.0980 C.ar  1 <1>  -0.1500 
  6 C       -2.7150    -2.1410     2.0360 C.2   1 <1>   0.5690 
  7 C        0.6120     2.7660    -1.0230 C.ar  1 <1>   0.0830 
  8 C       -0.7110     3.4220     0.8810 C.ar  1 <1>  -0.1500 
  9 O       -2.3050    -2.7570     2.9930 O.2   1 <1>  -0.5700 
 10 N       -3.6320    -2.6870     1.1740 N.am  1 <1>  -0.6600 
 11 O        1.4330     3.0120    -2.0750 O.3   1 <1>  -0.3630 
 12 C        0.1230     3.7570    -0.1730 C.ar  1 <1>  -0.1500 
 13 C       -4.0420    -4.1230     1.3110 C.3   1 <1>   0.3210 
 14 C       -4.2260    -1.9630    -0.0020 C.3   1 <1>   0.1400 
 15 C        1.8680     4.3190    -2.3770 C.3   1 <1>   0.0400 
 16 C       -3.7230    -4.9140     0.0480 C.2   1 <1>   0.0460 
 17 C       -5.6830    -1.5660     0.2610 C.3   1 <1>   0.1200 
 18 N       -4.6940    -5.2370    -0.8330 N.2   1 <1>  -0.5650 
 19 C       -2.5190    -5.3710    -0.3690 C.2   1 <1>  -0.3320 
 20 O       -5.7800    -0.9330     1.4930 O.3   1 <1>  -0.6800 
 21 C       -4.0640    -5.8860    -1.7580 C.2   1 <1>   0.0360 
 22 N       -2.7390    -6.0020    -1.5360 N.pl3 1 <1>   0.0330 
 23 C       -1.1440    -5.2390     0.2650 C.3   1 <1>  -0.0600 
 24 H       -3.0140    -0.0430     1.6520 H     1 <1>   0.0800 
 25 H       -1.6820    -0.4000     2.7470 H     1 <1>   0.0800 
 26 H        0.6290     0.6780    -1.4550 H     1 <1>   0.1500 
 27 H       -1.7100     1.8630     1.9220 H     1 <1>   0.1500 
 28 H       -1.0840     4.1920     1.5350 H     1 <1>   0.1500 
 29 H        0.3810     4.7880    -0.3170 H     1 <1>   0.1500 
 30 H       -5.0980    -4.1790     1.5060 H     1 <1>   0.0800 
 31 H       -3.5350    -4.5880     2.1380 H     1 <1>   0.0800 
 32 H       -4.1800    -2.5820    -0.8810 H     1 <1>   0.0800 
 33 H       -3.6670    -1.0750    -0.2310 H     1 <1>   0.0800 
 34 H        2.5080     4.2650    -3.2400 H     1 <1>   0.0800 
 35 H        2.4180     4.7070    -1.5380 H     1 <1>   0.0800 
 36 H        1.0110     4.9310    -2.5950 H     1 <1>   0.0800 
 37 H       -6.3150    -2.4370     0.2730 H     1 <1>   0.0800 
 38 H       -6.0360    -0.8890    -0.4980 H     1 <1>   0.0800 
 39 H       -5.4040    -1.5240     2.1770 H     1 <1>   0.4000 
 40 H       -4.5350    -6.3010    -2.6320 H     1 <1>   0.1500 
 41 H       -2.0500    -6.4690    -2.1320 H     1 <1>   0.2700 
 42 H       -1.2070    -4.6990     1.1940 H     1 <1>   0.0800 
 43 H       -0.4840    -4.7000    -0.3910 H     1 <1>   0.0800 
 44 H       -0.7290    -6.2100     0.4640 H     1 <1>   0.0800 
@<TRIPOS>BOND
  1   1   2  1   
  2   1   3  1   
  3   2   4  ar  
  4   2   5  ar  
  5   3   6  1   
  6   3  24  1   
  7   3  25  1   
  8   4   7  ar  
  9   4  26  1   
 10   5   8  ar  
 11   5  27  1   
 12   6   9  2   
 13   6  10  am  
 14   7  11  1   
 15   7  12  ar  
 16   8  12  ar  
 17   8  28  1   
 18  10  13  1   
 19  10  14  1   
 20  11  15  1   
 21  12  29  1   
 22  13  16  1   
 23  13  30  1   
 24  13  31  1   
 25  14  17  1   
 26  14  32  1   
 27  14  33  1   
 28  15  34  1   
 29  15  35  1   
 30  15  36  1   
 31  16  18  1   
 32  16  19  2   
 33  17  20  1   
 34  17  37  1   
 35  17  38  1   
 36  18  21  2   
 37  19  22  1   
 38  19  23  1   
 39  20  39  1   
 40  21  22  1   
 41  21  40  1   
 42  22  41  1   
 43  23  42  1   
 44  23  43  1   
 45  23  44  1   
@<TRIPOS>SUBSTRUCTURE
  1 ****   1 GROUP 4 **** **** 0

# MOE 2024.06 (io_trps.svl 2023.06)
