@<TRIPOS>MOLECULE
NONAME
55 59 1 0 0 
SMALL
USER_CHARGES


@<TRIPOS>ATOM
  1 O       -1.6700     1.0560     2.5250 O.2   1 <1>  -0.5700 
  2 C       -2.0700     1.0530     1.3740 C.2   1 <1>   0.7160 
  3 N       -2.7510    -0.0400     0.9160 N.am  1 <1>  -0.5100 
  4 C       -1.8090     2.1500     0.5020 C.2   1 <1>  -0.0860 
  5 C       -2.8810    -1.3420     1.6440 C.3   1 <1>   0.2250 
  6 C       -2.3800    -0.7950    -0.3240 C.3   1 <1>   0.2250 
  7 C       -2.7870     2.9800    -0.0470 C.2   1 <1>   0.3720 
  8 C       -0.6540     2.6360    -0.0210 C.2   1 <1>   0.0870 
  9 C       -3.1180    -2.0150     0.2750 C.3   1 <1>   0.0850 
 10 N       -2.2690     3.8680    -0.8200 N.2   1 <1>  -0.4100 
 11 N       -4.1530     2.8600     0.2050 N.pl3 1 <1>  -0.8210 
 12 O       -0.9810     3.6440    -0.7920 O.3   1 <1>  -0.0190 
 13 C        0.7230     2.2320     0.1020 C.ar  1 <1>   0.0530 
 14 N       -4.5630    -2.1030    -0.0650 N.pl3 1 <1>   0.4850 
 15 C       -4.8680     4.1420     0.4640 C.3   1 <1>   0.2090 
 16 C       -4.8890     2.0650    -0.8210 C.3   1 <1>   0.2090 
 17 C        1.5650     2.2450    -1.0100 C.ar  1 <1>  -0.1500 
 18 C        1.2680     1.8150     1.3160 C.ar  1 <1>  -0.1500 
 19 N       -5.1380    -1.4160    -1.0800 N.2   1 <1>  -0.7070 
 20 C       -5.4620    -2.9400     0.5140 C.2   1 <1>  -0.3320 
 21 C       -6.3400     3.8710     0.8290 C.3   1 <1>   0.1200 
 22 C       -6.3570     1.8740    -0.4070 C.3   1 <1>   0.1200 
 23 C        2.8870     1.8480    -0.9190 C.ar  1 <1>  -0.1500 
 24 C        2.5880     1.4150     1.4130 C.ar  1 <1>  -0.1500 
 25 C       -6.3680    -1.8200    -1.1110 C.2   1 <1>   0.1080 
 26 C       -6.6330    -2.7700    -0.1360 C.2   1 <1>  -0.1500 
 27 C       -5.1750    -3.8930     1.6640 C.3   1 <1>  -0.0600 
 28 O       -6.9750     3.1110    -0.1640 O.3   1 <1>  -0.5600 
 29 C        3.4010     1.4290     0.2940 C.ar  1 <1>  -0.1500 
 30 C       -7.3800    -1.3120    -2.1110 C.3   1 <1>  -0.0590 
 31 H       -3.7280    -1.3510     2.3050 H     1 <1>   0.0000 
 32 H       -1.9530    -1.6250     2.1090 H     1 <1>   0.0000 
 33 H       -1.3140    -0.9290    -0.3860 H     1 <1>   0.0000 
 34 H       -2.8110    -0.3770    -1.2150 H     1 <1>   0.0000 
 35 H       -2.6080    -2.9530     0.1450 H     1 <1>   0.0000 
 36 H       -4.8270     4.7690    -0.4110 H     1 <1>   0.0800 
 37 H       -4.3860     4.6620     1.2730 H     1 <1>   0.0800 
 38 H       -4.4290     1.1030    -0.9350 H     1 <1>   0.0800 
 39 H       -4.8480     2.5680    -1.7720 H     1 <1>   0.0800 
 40 H        1.1760     2.5700    -1.9590 H     1 <1>   0.1500 
 41 H        0.6570     1.8120     2.2010 H     1 <1>   0.1500 
 42 H       -6.8750     4.7980     0.9260 H     1 <1>   0.0800 
 43 H       -6.3980     3.3360     1.7610 H     1 <1>   0.0800 
 44 H       -6.4170     1.2720     0.4830 H     1 <1>   0.0800 
 45 H       -6.8990     1.3840    -1.1930 H     1 <1>   0.0800 
 46 H        3.5170     1.8650    -1.7920 H     1 <1>   0.1500 
 47 H        2.9840     1.0960     2.3620 H     1 <1>   0.1500 
 48 H       -7.5780    -3.2540     0.0340 H     1 <1>   0.1500 
 49 H       -4.3580    -4.5470     1.4150 H     1 <1>   0.0800 
 50 H       -6.0420    -4.4980     1.8650 H     1 <1>   0.0800 
 51 H       -4.9320    -3.3470     2.5570 H     1 <1>   0.0800 
 52 H        4.4280     1.1180     0.3690 H     1 <1>   0.1500 
 53 H       -6.9010    -0.6680    -2.8250 H     1 <1>   0.0800 
 54 H       -8.1500    -0.7620    -1.6030 H     1 <1>   0.0800 
 55 H       -7.8220    -2.1400    -2.6330 H     1 <1>   0.0800 
@<TRIPOS>BOND
  1   1   2  2   
  2   2   3  am  
  3   2   4  1   
  4   3   5  1   
  5   3   6  1   
  6   4   7  1   
  7   4   8  2   
  8   5   9  1   
  9   5  31  1   
 10   5  32  1   
 11   6   9  1   
 12   6  33  1   
 13   6  34  1   
 14   7  10  2   
 15   7  11  1   
 16   8  12  1   
 17   8  13  1   
 18   9  14  1   
 19   9  35  1   
 20  10  12  1   
 21  11  15  1   
 22  11  16  1   
 23  13  17  ar  
 24  13  18  ar  
 25  14  19  1   
 26  14  20  1   
 27  15  21  1   
 28  15  36  1   
 29  15  37  1   
 30  16  22  1   
 31  16  38  1   
 32  16  39  1   
 33  17  23  ar  
 34  17  40  1   
 35  18  24  ar  
 36  18  41  1   
 37  19  25  2   
 38  20  26  2   
 39  20  27  1   
 40  21  28  1   
 41  21  42  1   
 42  21  43  1   
 43  22  28  1   
 44  22  44  1   
 45  22  45  1   
 46  23  29  ar  
 47  23  46  1   
 48  24  29  ar  
 49  24  47  1   
 50  25  26  1   
 51  25  30  1   
 52  26  48  1   
 53  27  49  1   
 54  27  50  1   
 55  27  51  1   
 56  29  52  1   
 57  30  53  1   
 58  30  54  1   
 59  30  55  1   
@<TRIPOS>SUBSTRUCTURE
  1 ****   3 GROUP 4 **** **** 0

# MOE 2024.06 (io_trps.svl 2023.06)
