@<TRIPOS>MOLECULE
NONAME
55 59 1 0 0 
SMALL
USER_CHARGES


@<TRIPOS>ATOM
  1 S       -0.2260     0.0930    -0.7480 S.3   1 <1>  -0.3320 
  2 C        0.9130     0.8610     0.4180 C.ar  1 <1>   0.1020 
  3 C       -1.4540    -0.8570     0.2610 C.3   1 <1>   0.2500 
  4 C        1.9330     1.6260    -0.1180 C.ar  1 <1>  -0.1500 
  5 C        0.7880     0.7050     1.7900 C.ar  1 <1>  -0.1500 
  6 C       -2.4630    -1.5360    -0.6500 C.2   1 <1>  -0.0400 
  7 C        2.8420     2.2430     0.7240 C.ar  1 <1>  -0.1500 
  8 C        1.7000     1.3250     2.6280 C.ar  1 <1>  -0.1500 
  9 O       -3.3890    -2.2870    -0.0960 O.3   1 <1>  -0.2800 
 10 C       -2.6190    -1.5260    -1.9920 C.2   1 <1>  -0.1500 
 11 C        2.7240     2.0920     2.0960 C.ar  1 <1>  -0.1500 
 12 C       -4.1740    -2.7860    -1.0450 C.2   1 <1>   0.0550 
 13 C       -3.7260    -2.3340    -2.2500 C.2   1 <1>  -0.1500 
 14 C       -5.2790    -3.6580    -0.7180 C.2   1 <1>   0.7150 
 15 O       -5.6190    -3.8980     0.4310 O.2   1 <1>  -0.5700 
 16 N       -5.9590    -4.3390    -1.7020 N.am  1 <1>  -0.6600 
 17 C       -7.4540    -4.4150    -1.6090 C.3   1 <1>   0.1400 
 18 C       -5.3520    -5.6230    -2.1650 C.3   1 <1>   0.1400 
 19 C       -7.9270    -5.5660    -0.6790 C.3   1 <1>   0.4230 
 20 C       -5.8610    -6.8300    -1.3350 C.3   1 <1>   0.3430 
 21 N       -6.7710    -6.4140    -0.2060 N.4   1 <1>  -0.9590 
 22 C       -9.0140    -6.4420    -1.3440 C.3   1 <1>   0.1200 
 23 C       -7.2680    -7.5190     0.6650 C.3   1 <1>   0.5180 
 24 O       -9.4130    -7.4720    -0.4810 O.3   1 <1>  -0.5600 
 25 C       -6.0960    -8.4070     1.0990 C.3   1 <1>  -0.1950 
 26 C       -8.3880    -8.3220    -0.0340 C.3   1 <1>   0.1200 
 27 C       -6.0270    -8.9250     2.5020 C.3   1 <1>  -0.2000 
 28 C       -5.0370    -7.9000     2.0310 C.3   1 <1>  -0.2000 
 29 H       -0.9050    -1.5850     0.8300 H     1 <1>   0.0800 
 30 H       -1.9430    -0.1580     0.9140 H     1 <1>   0.0800 
 31 H        2.0140     1.7360    -1.1850 H     1 <1>   0.1500 
 32 H        0.0030     0.1170     2.2220 H     1 <1>   0.1500 
 33 H        3.6380     2.8400     0.3130 H     1 <1>   0.1500 
 34 H        1.6150     1.2120     3.6950 H     1 <1>   0.1500 
 35 H       -2.0300    -1.0110    -2.7320 H     1 <1>   0.1500 
 36 H        3.4310     2.5720     2.7510 H     1 <1>   0.1500 
 37 H       -4.1280    -2.5380    -3.2270 H     1 <1>   0.1500 
 38 H       -7.8360    -3.4820    -1.2280 H     1 <1>   0.0800 
 39 H       -7.8590    -4.5400    -2.5990 H     1 <1>   0.0800 
 40 H       -5.5830    -5.7750    -3.2050 H     1 <1>   0.0800 
 41 H       -4.2790    -5.5680    -2.0820 H     1 <1>   0.0800 
 42 H       -8.3840    -5.1050     0.1810 H     1 <1>   0.0800 
 43 H       -5.0070    -7.3550    -0.9390 H     1 <1>   0.0800 
 44 H       -6.3810    -7.5100    -1.9890 H     1 <1>   0.0800 
 45 H       -6.2120    -5.7680     0.3860 H     1 <1>   0.4500 
 46 H       -8.6600    -6.8790    -2.2610 H     1 <1>   0.0800 
 47 H       -9.8850    -5.8490    -1.5620 H     1 <1>   0.0800 
 48 H       -7.6930    -7.0830     1.5540 H     1 <1>   0.0800 
 49 H       -5.8000    -9.1100     0.3380 H     1 <1>   0.1000 
 50 H       -8.8240    -9.0200     0.6590 H     1 <1>   0.0800 
 51 H       -8.0060    -8.8730    -0.8750 H     1 <1>   0.0800 
 52 H       -6.7570    -8.6210     3.2340 H     1 <1>   0.1000 
 53 H       -5.6740    -9.9290     2.6770 H     1 <1>   0.1000 
 54 H       -4.0150    -8.2130     1.8920 H     1 <1>   0.1000 
 55 H       -5.1050    -6.9090     2.4490 H     1 <1>   0.1000 
@<TRIPOS>BOND
  1   1   2  1   
  2   1   3  1   
  3   2   4  ar  
  4   2   5  ar  
  5   3   6  1   
  6   3  29  1   
  7   3  30  1   
  8   4   7  ar  
  9   4  31  1   
 10   5   8  ar  
 11   5  32  1   
 12   6   9  1   
 13   6  10  2   
 14   7  11  ar  
 15   7  33  1   
 16   8  11  ar  
 17   8  34  1   
 18   9  12  1   
 19  10  13  1   
 20  10  35  1   
 21  11  36  1   
 22  12  13  2   
 23  12  14  1   
 24  13  37  1   
 25  14  15  2   
 26  14  16  am  
 27  16  17  1   
 28  16  18  1   
 29  17  19  1   
 30  17  38  1   
 31  17  39  1   
 32  18  20  1   
 33  18  40  1   
 34  18  41  1   
 35  19  21  1   
 36  19  22  1   
 37  19  42  1   
 38  20  21  1   
 39  20  43  1   
 40  20  44  1   
 41  21  23  1   
 42  21  45  1   
 43  22  24  1   
 44  22  46  1   
 45  22  47  1   
 46  23  25  1   
 47  23  26  1   
 48  23  48  1   
 49  24  26  1   
 50  25  27  1   
 51  25  28  1   
 52  25  49  1   
 53  26  50  1   
 54  26  51  1   
 55  27  28  1   
 56  27  52  1   
 57  27  53  1   
 58  28  54  1   
 59  28  55  1   
@<TRIPOS>SUBSTRUCTURE
  1 ****  12 GROUP 4 **** **** 0

# MOE 2024.06 (io_trps.svl 2023.06)
