@<TRIPOS>MOLECULE
NONAME
52 54 1 0 0 
SMALL
USER_CHARGES


@<TRIPOS>ATOM
  1 O       -0.0240     0.4570    -0.0970 O.2   1 <1>  -0.5700 
  2 C        0.0960     1.6610    -0.0100 C.2   1 <1>   0.5690 
  3 N       -0.8670     2.4770    -0.5770 N.am  1 <1>  -0.6600 
  4 C        1.3390     2.2050     0.7700 C.3   1 <1>   0.2040 
  5 C       -2.0680     1.8540    -1.2360 C.3   1 <1>   0.1400 
  6 C       -0.8180     3.9750    -0.6200 C.3   1 <1>   0.1400 
  7 C        2.2290     3.0970    -0.1240 C.ar  1 <1>  -0.1440 
  8 C        2.2560     1.0550     1.2460 C.3   1 <1>  -0.2400 
  9 C        0.8540     2.9230     2.0520 C.3   1 <1>  -0.2400 
 10 C       -3.3410     2.7120    -1.0440 C.3   1 <1>   0.0000 
 11 C       -1.6430     4.5250    -1.7860 C.3   1 <1>  -0.1600 
 12 C        2.4370     2.7310    -1.4500 C.ar  1 <1>  -0.1500 
 13 C        2.8490     4.2550     0.3390 C.ar  1 <1>  -0.1500 
 14 C       -3.7040     2.7500     0.4610 C.3   1 <1>   0.2000 
 15 C       -3.1210     4.0930    -1.7230 C.3   1 <1>  -0.1600 
 16 C       -4.5520     1.9850    -1.6520 C.3   1 <1>  -0.1600 
 17 C        3.2220     3.5000    -2.2910 C.ar  1 <1>  -0.1500 
 18 C        3.6340     5.0260    -0.5000 C.ar  1 <1>  -0.1500 
 19 O       -4.6330     3.7690     0.7090 O.3   1 <1>  -0.5600 
 20 C       -4.3940     1.4080     0.7300 C.3   1 <1>  -0.1600 
 21 C       -5.0210     0.9710    -0.6010 C.3   1 <1>  -0.1600 
 22 C        3.8210     4.6510    -1.8170 C.ar  1 <1>  -0.1500 
 23 C       -4.6410     4.2510     2.0150 C.3   1 <1>   0.0400 
 24 H       -1.8630     1.7490    -2.2870 H     1 <1>   0.0800 
 25 H       -2.2330     0.8660    -0.8450 H     1 <1>   0.0800 
 26 H       -1.2140     4.3680     0.3000 H     1 <1>   0.0800 
 27 H        0.1910     4.3220    -0.7310 H     1 <1>   0.0800 
 28 H        3.1160     1.4430     1.7620 H     1 <1>   0.0800 
 29 H        2.6000     0.4820     0.4030 H     1 <1>   0.0800 
 30 H        1.7230     0.3940     1.9060 H     1 <1>   0.0800 
 31 H        1.6740     3.1230     2.7170 H     1 <1>   0.0800 
 32 H        0.1500     2.2980     2.5730 H     1 <1>   0.0800 
 33 H        0.3720     3.8520     1.8190 H     1 <1>   0.0800 
 34 H       -1.5840     5.5990    -1.7940 H     1 <1>   0.0800 
 35 H       -1.2010     4.1730    -2.7020 H     1 <1>   0.0800 
 36 H        1.9880     1.8340    -1.8440 H     1 <1>   0.1500 
 37 H        2.7370     4.5790     1.3560 H     1 <1>   0.1500 
 38 H       -2.8400     2.8980     1.0850 H     1 <1>   0.0800 
 39 H       -3.4880     4.0570    -2.7340 H     1 <1>   0.0800 
 40 H       -3.6900     4.8540    -1.2210 H     1 <1>   0.0800 
 41 H       -5.3440     2.6980    -1.8070 H     1 <1>   0.0800 
 42 H       -4.3230     1.5160    -2.5930 H     1 <1>   0.0800 
 43 H        3.3660     3.1990    -3.3140 H     1 <1>   0.1500 
 44 H        4.1040     5.9190    -0.1260 H     1 <1>   0.1500 
 45 H       -3.6500     0.6870     1.0210 H     1 <1>   0.0800 
 46 H       -5.1280     1.4760     1.5120 H     1 <1>   0.0800 
 47 H       -4.6890    -0.0210    -0.8570 H     1 <1>   0.0800 
 48 H       -6.0960     0.9730    -0.5360 H     1 <1>   0.0800 
 49 H        4.4320     5.2510    -2.4700 H     1 <1>   0.1500 
 50 H       -5.4090     5.0000     2.0890 H     1 <1>   0.0800 
 51 H       -3.6840     4.6910     2.2340 H     1 <1>   0.0800 
 52 H       -4.8530     3.4460     2.6960 H     1 <1>   0.0800 
@<TRIPOS>BOND
  1   1   2  2   
  2   2   3  am  
  3   2   4  1   
  4   3   5  1   
  5   3   6  1   
  6   4   7  1   
  7   4   8  1   
  8   4   9  1   
  9   5  10  1   
 10   5  24  1   
 11   5  25  1   
 12   6  11  1   
 13   6  26  1   
 14   6  27  1   
 15   7  12  ar  
 16   7  13  ar  
 17   8  28  1   
 18   8  29  1   
 19   8  30  1   
 20   9  31  1   
 21   9  32  1   
 22   9  33  1   
 23  10  14  1   
 24  10  15  1   
 25  10  16  1   
 26  11  15  1   
 27  11  34  1   
 28  11  35  1   
 29  12  17  ar  
 30  12  36  1   
 31  13  18  ar  
 32  13  37  1   
 33  14  19  1   
 34  14  20  1   
 35  14  38  1   
 36  15  39  1   
 37  15  40  1   
 38  16  21  1   
 39  16  41  1   
 40  16  42  1   
 41  17  22  ar  
 42  17  43  1   
 43  18  22  ar  
 44  18  44  1   
 45  19  23  1   
 46  20  21  1   
 47  20  45  1   
 48  20  46  1   
 49  21  47  1   
 50  21  48  1   
 51  22  49  1   
 52  23  50  1   
 53  23  51  1   
 54  23  52  1   
@<TRIPOS>SUBSTRUCTURE
  1 ****   3 GROUP 4 **** **** 0

# MOE 2024.06 (io_trps.svl 2023.06)
