@<TRIPOS>MOLECULE
NONAME
48 51 1 0 0 
SMALL
USER_CHARGES


@<TRIPOS>ATOM
  1 O        0.3150    -0.6310     1.3110 O.3   1 <1>  -0.5600 
  2 C        0.4430    -1.4930     0.2190 C.3   1 <1>   0.2000 
  3 C       -0.9880    -0.4550     1.7710 C.3   1 <1>   0.0400 
  4 C        1.8210    -1.3650    -0.4530 C.3   1 <1>   0.0000 
  5 C        0.3230    -2.9600     0.6490 C.3   1 <1>  -0.1600 
  6 C        2.9490    -1.2230     0.6050 C.3   1 <1>   0.2090 
  7 C        1.8700    -0.1690    -1.4270 C.3   1 <1>  -0.1600 
  8 C        1.9210    -2.7120    -1.1900 C.3   1 <1>  -0.1600 
  9 C        1.2900    -3.7430    -0.2500 C.3   1 <1>  -0.1600 
 10 N        4.2920    -0.9910    -0.0170 N.pl3 1 <1>  -0.8380 
 11 C        3.2650    -0.0210    -2.0560 C.3   1 <1>  -0.1600 
 12 C        5.3390    -1.8660     0.1790 C.ar  1 <1>   0.4100 
 13 C        4.3580     0.1260    -0.9950 C.3   1 <1>   0.2090 
 14 N        5.0660    -3.1360     0.0870 N.ar  1 <1>  -0.6200 
 15 C        6.6580    -1.4120     0.4500 C.ar  1 <1>   0.0000 
 16 C        6.0910    -3.9850     0.1510 C.ar  1 <1>   0.4770 
 17 C        7.6500    -2.3980     0.4690 C.ar  1 <1>   0.3100 
 18 C        7.0380    -0.0810     0.7250 C.ar  1 <1>  -0.1500 
 19 N        7.3420    -3.7000     0.3110 N.ar  1 <1>  -0.6200 
 20 C        5.7140    -5.4390     0.0070 C.3   1 <1>  -0.0970 
 21 C        8.9860    -2.0290     0.6800 C.ar  1 <1>  -0.1500 
 22 C        8.3490     0.2600     0.9410 C.ar  1 <1>  -0.1500 
 23 C        9.3380    -0.7240     0.9080 C.ar  1 <1>  -0.1500 
 24 H       -0.3220    -1.2610    -0.5030 H     1 <1>   0.0800 
 25 H       -0.9600     0.2380     2.5940 H     1 <1>   0.0800 
 26 H       -1.3800    -1.3980     2.1080 H     1 <1>   0.0800 
 27 H       -1.5940    -0.0520     0.9790 H     1 <1>   0.0800 
 28 H        0.6200    -3.0720     1.6770 H     1 <1>   0.0800 
 29 H       -0.6860    -3.3080     0.5210 H     1 <1>   0.0800 
 30 H        2.9820    -2.0960     1.2330 H     1 <1>   0.0800 
 31 H        2.7360    -0.3830     1.2420 H     1 <1>   0.0800 
 32 H        1.1340    -0.2890    -2.2030 H     1 <1>   0.0800 
 33 H        1.6320     0.7300    -0.8840 H     1 <1>   0.0800 
 34 H        1.3430    -2.6720    -2.0970 H     1 <1>   0.0800 
 35 H        2.9320    -2.9700    -1.4470 H     1 <1>   0.0800 
 36 H        2.0590    -4.1950     0.3530 H     1 <1>   0.0800 
 37 H        0.7850    -4.5150    -0.8050 H     1 <1>   0.0800 
 38 H        3.2800     0.8430    -2.6960 H     1 <1>   0.0800 
 39 H        3.4890    -0.8790    -2.6650 H     1 <1>   0.0800 
 40 H        4.2290     1.0560    -0.4700 H     1 <1>   0.0800 
 41 H        5.3210     0.1340    -1.4770 H     1 <1>   0.0800 
 42 H        6.2760     0.6740     0.7740 H     1 <1>   0.1500 
 43 H        6.5870    -6.0620     0.0620 H     1 <1>   0.0800 
 44 H        5.2320    -5.5900    -0.9400 H     1 <1>   0.0800 
 45 H        5.0380    -5.7110     0.7950 H     1 <1>   0.0800 
 46 H        9.7270    -2.8070     0.6630 H     1 <1>   0.1500 
 47 H        8.6260     1.2800     1.1410 H     1 <1>   0.1500 
 48 H       10.3660    -0.4490     1.0710 H     1 <1>   0.1500 
@<TRIPOS>BOND
  1   1   2  1   
  2   1   3  1   
  3   2   4  1   
  4   2   5  1   
  5   2  24  1   
  6   3  25  1   
  7   3  26  1   
  8   3  27  1   
  9   4   6  1   
 10   4   7  1   
 11   4   8  1   
 12   5   9  1   
 13   5  28  1   
 14   5  29  1   
 15   6  10  1   
 16   6  30  1   
 17   6  31  1   
 18   7  11  1   
 19   7  32  1   
 20   7  33  1   
 21   8   9  1   
 22   8  34  1   
 23   8  35  1   
 24   9  36  1   
 25   9  37  1   
 26  10  12  1   
 27  10  13  1   
 28  11  13  1   
 29  11  38  1   
 30  11  39  1   
 31  12  14  ar  
 32  12  15  ar  
 33  13  40  1   
 34  13  41  1   
 35  14  16  ar  
 36  15  17  ar  
 37  15  18  ar  
 38  16  19  ar  
 39  16  20  1   
 40  17  19  ar  
 41  17  21  ar  
 42  18  22  ar  
 43  18  42  1   
 44  20  43  1   
 45  20  44  1   
 46  20  45  1   
 47  21  23  ar  
 48  21  46  1   
 49  22  23  ar  
 50  22  47  1   
 51  23  48  1   
@<TRIPOS>SUBSTRUCTURE
  1 ****  10 GROUP 4 **** **** 0

# MOE 2024.06 (io_trps.svl 2023.06)
