@<TRIPOS>MOLECULE
NONAME
47 49 1 0 0 
SMALL
USER_CHARGES


@<TRIPOS>ATOM
  1 S       -1.9500     2.0850     0.7340 S.3   1 <1>  -0.0800 
  2 C       -0.2460     2.0280     1.2090 C.2   1 <1>  -0.0450 
  3 C       -2.4030     0.8980     1.9380 C.2   1 <1>  -0.1100 
  4 C        0.7260     2.8680     0.5500 C.2   1 <1>   0.7150 
  5 C       -0.1170     1.1480     2.2350 C.2   1 <1>  -0.1500 
  6 C       -1.3250     0.5090     2.6420 C.2   1 <1>  -0.1500 
  7 O        1.7270     3.2070     1.1570 O.2   1 <1>  -0.5700 
  8 N        0.5900     3.2930    -0.7550 N.am  1 <1>  -0.6600 
  9 C        1.3170     4.5050    -1.2410 C.3   1 <1>   0.1400 
 10 C        0.1190     2.3900    -1.8400 C.3   1 <1>   0.1400 
 11 C        2.5380     4.0930    -2.0800 C.3   1 <1>   0.2890 
 12 C        1.3110     1.9690    -2.7110 C.3   1 <1>  -0.1600 
 13 N        3.2130     5.2750    -2.6530 N.pl3 1 <1>  -0.8690 
 14 C        2.1130     3.1750    -3.2320 C.3   1 <1>  -0.1600 
 15 C        3.8190     6.2630    -1.9410 C.ar  1 <1>   0.4100 
 16 N        3.8420     7.4240    -2.5680 N.ar  1 <1>  -0.6200 
 17 C        4.3610     6.0730    -0.6700 C.ar  1 <1>  -0.1500 
 18 C        4.4270     8.4210    -1.9250 C.ar  1 <1>   0.1600 
 19 C        4.9620     7.1220    -0.0180 C.ar  1 <1>  -0.1500 
 20 C        5.0160     8.3570    -0.6620 C.ar  1 <1>   0.0860 
 21 C        5.6400     9.5260    -0.0810 C.2   1 <1>   0.5440 
 22 O        5.4010    10.6360    -0.5170 O.2   1 <1>  -0.5700 
 23 N        6.5240     9.4140     0.9580 N.am  1 <1>  -0.7300 
 24 C        7.1890    10.5440     1.6360 C.3   1 <1>   0.1400 
 25 C        7.2860    10.2280     3.1230 C.3   1 <1>  -0.2400 
 26 H       -3.4390     0.6150     1.9960 H     1 <1>   0.1500 
 27 H        0.8160     0.9340     2.7280 H     1 <1>   0.1500 
 28 H       -1.3300    -0.2100     3.4430 H     1 <1>   0.1500 
 29 H        1.6360     5.1040    -0.4060 H     1 <1>   0.0800 
 30 H        0.6490     5.0950    -1.8430 H     1 <1>   0.0800 
 31 H       -0.6130     2.9080    -2.4360 H     1 <1>   0.0800 
 32 H       -0.3420     1.5080    -1.4300 H     1 <1>   0.0800 
 33 H        3.2300     3.5650    -1.4450 H     1 <1>   0.0800 
 34 H        0.9530     1.3890    -3.5440 H     1 <1>   0.0800 
 35 H        1.9560     1.3330    -2.1290 H     1 <1>   0.0800 
 36 H        2.8210     5.6210    -3.5310 H     1 <1>   0.4000 
 37 H        2.9880     2.8280    -3.7520 H     1 <1>   0.0800 
 38 H        1.5010     3.7300    -3.9210 H     1 <1>   0.0800 
 39 H        4.3060     5.1070    -0.2070 H     1 <1>   0.1500 
 40 H        4.4490     9.3710    -2.4350 H     1 <1>   0.1500 
 41 H        5.3720     6.9880     0.9670 H     1 <1>   0.1500 
 42 H        6.8320     8.4890     1.2550 H     1 <1>   0.3700 
 43 H        6.6220    11.4490     1.4870 H     1 <1>   0.0800 
 44 H        8.1710    10.6840     1.2170 H     1 <1>   0.0800 
 45 H        6.3030    10.0900     3.5370 H     1 <1>   0.0800 
 46 H        7.7570    11.0480     3.6340 H     1 <1>   0.0800 
 47 H        7.8750     9.3430     3.2850 H     1 <1>   0.0800 
@<TRIPOS>BOND
  1   1   2  1   
  2   1   3  1   
  3   2   4  1   
  4   2   5  2   
  5   3   6  2   
  6   3  26  1   
  7   4   7  2   
  8   4   8  am  
  9   5   6  1   
 10   5  27  1   
 11   6  28  1   
 12   8   9  1   
 13   8  10  1   
 14   9  11  1   
 15   9  29  1   
 16   9  30  1   
 17  10  12  1   
 18  10  31  1   
 19  10  32  1   
 20  11  13  1   
 21  11  14  1   
 22  11  33  1   
 23  12  14  1   
 24  12  34  1   
 25  12  35  1   
 26  13  15  1   
 27  13  36  1   
 28  14  37  1   
 29  14  38  1   
 30  15  16  ar  
 31  15  17  ar  
 32  16  18  ar  
 33  17  19  ar  
 34  17  39  1   
 35  18  20  ar  
 36  18  40  1   
 37  19  20  ar  
 38  19  41  1   
 39  20  21  1   
 40  21  22  2   
 41  21  23  am  
 42  23  24  1   
 43  23  42  1   
 44  24  25  1   
 45  24  43  1   
 46  24  44  1   
 47  25  45  1   
 48  25  46  1   
 49  25  47  1   
@<TRIPOS>SUBSTRUCTURE
  1 ****   9 GROUP 4 **** **** 0

# MOE 2024.06 (io_trps.svl 2023.06)
