@<TRIPOS>MOLECULE
NONAME
55 59 1 0 0 
SMALL
USER_CHARGES


@<TRIPOS>ATOM
  1 O       -0.9650     0.8710    -2.3500 O.2   1 <1>  -0.5700 
  2 C       -1.7660     1.1810    -1.4980 C.2   1 <1>   0.6300 
  3 N       -3.0000     0.5890    -1.4030 N.am  1 <1>  -0.6600 
  4 C       -1.3600     2.2680    -0.5130 C.3   1 <1>  -0.1000 
  5 C       -4.0650     0.9800    -0.4410 C.3   1 <1>   0.1400 
  6 C       -3.3680    -0.5840    -2.2410 C.3   1 <1>   0.1400 
  7 C        0.0340     2.2990     0.0440 C.3   1 <1>  -0.0680 
  8 C       -1.1190     1.9620     0.9370 C.3   1 <1>  -0.2000 
  9 C       -4.3310    -0.1890     0.5100 C.3   1 <1>  -0.1600 
 10 C       -3.6320    -1.7850    -1.3290 C.3   1 <1>  -0.1600 
 11 C        0.7460     3.6330     0.1600 C.ar  1 <1>  -0.0320 
 12 C       -4.6920    -1.4800    -0.2540 C.3   1 <1>   0.4240 
 13 C        0.9880     4.3840    -0.9780 C.ar  1 <1>  -0.1500 
 14 C        1.1650     4.1090     1.3920 C.ar  1 <1>  -0.1500 
 15 O       -5.8530    -1.1920    -1.0030 O.3   1 <1>  -0.5600 
 16 C       -4.9060    -2.6940     0.6960 C.ar  1 <1>  -0.1430 
 17 C        1.6350     5.6040    -0.8880 C.ar  1 <1>  -0.1500 
 18 C        1.8120     5.3300     1.4870 C.ar  1 <1>  -0.1500 
 19 C       -7.0850    -1.3180    -0.3720 C.3   1 <1>   0.1200 
 20 C       -3.8770    -3.2010     1.5030 C.ar  1 <1>   0.0820 
 21 C       -6.1540    -3.3120     0.7620 C.ar  1 <1>  -0.1430 
 22 C        2.0460     6.0780     0.3460 C.ar  1 <1>  -0.1500 
 23 C       -7.3100    -2.7900    -0.0670 C.3   1 <1>  -0.0170 
 24 O       -2.6570    -2.6020     1.4710 O.3   1 <1>  -0.3630 
 25 C       -4.1090    -4.3000     2.3280 C.ar  1 <1>  -0.1500 
 26 C       -6.3720    -4.4060     1.5830 C.ar  1 <1>  -0.1500 
 27 C       -1.5160    -3.1610     2.0820 C.3   1 <1>   0.0400 
 28 C       -5.3500    -4.9020     2.3650 C.ar  1 <1>  -0.1500 
 29 H       -1.8020     3.2140    -0.7640 H     1 <1>   0.1000 
 30 H       -3.7850     1.8520     0.1220 H     1 <1>   0.0800 
 31 H       -4.9610     1.2170    -0.9890 H     1 <1>   0.0800 
 32 H       -4.2500    -0.3490    -2.8120 H     1 <1>   0.0800 
 33 H       -2.5780    -0.8220    -2.9330 H     1 <1>   0.0800 
 34 H        0.6970     1.5000    -0.2440 H     1 <1>   0.1000 
 35 H       -1.4410     2.6790     1.6710 H     1 <1>   0.1000 
 36 H       -1.2190     0.9450     1.2760 H     1 <1>   0.1000 
 37 H       -5.1150     0.0630     1.1960 H     1 <1>   0.0800 
 38 H       -3.4460    -0.3390     1.0950 H     1 <1>   0.0800 
 39 H       -2.6980    -2.0590    -0.8810 H     1 <1>   0.0800 
 40 H       -3.9600    -2.6230    -1.9150 H     1 <1>   0.0800 
 41 H        0.6710     4.0120    -1.9380 H     1 <1>   0.1500 
 42 H        0.9870     3.5280     2.2790 H     1 <1>   0.1500 
 43 H        1.8180     6.1830    -1.7760 H     1 <1>   0.1500 
 44 H        2.1340     5.6950     2.4460 H     1 <1>   0.1500 
 45 H       -7.0910    -0.7270     0.5260 H     1 <1>   0.0800 
 46 H       -7.8400    -0.9520    -1.0450 H     1 <1>   0.0800 
 47 H        2.5490     7.0270     0.4180 H     1 <1>   0.1500 
 48 H       -8.2350    -2.9020     0.4680 H     1 <1>   0.0800 
 49 H       -7.3780    -3.3430    -0.9870 H     1 <1>   0.0800 
 50 H       -3.3380    -4.7040     2.9540 H     1 <1>   0.1500 
 51 H       -7.3390    -4.8770     1.6170 H     1 <1>   0.1500 
 52 H       -0.6690    -2.5490     1.8300 H     1 <1>   0.0800 
 53 H       -1.3710    -4.1580     1.7050 H     1 <1>   0.0800 
 54 H       -1.6580    -3.1670     3.1480 H     1 <1>   0.0800 
 55 H       -5.5220    -5.7510     3.0030 H     1 <1>   0.1500 
@<TRIPOS>BOND
  1   1   2  2   
  2   2   3  am  
  3   2   4  1   
  4   3   5  1   
  5   3   6  1   
  6   4   7  1   
  7   4   8  1   
  8   4  29  1   
  9   5   9  1   
 10   5  30  1   
 11   5  31  1   
 12   6  10  1   
 13   6  32  1   
 14   6  33  1   
 15   7   8  1   
 16   7  11  1   
 17   7  34  1   
 18   8  35  1   
 19   8  36  1   
 20   9  12  1   
 21   9  37  1   
 22   9  38  1   
 23  10  12  1   
 24  10  39  1   
 25  10  40  1   
 26  11  13  ar  
 27  11  14  ar  
 28  12  15  1   
 29  12  16  1   
 30  13  17  ar  
 31  13  41  1   
 32  14  18  ar  
 33  14  42  1   
 34  15  19  1   
 35  16  20  ar  
 36  16  21  ar  
 37  17  22  ar  
 38  17  43  1   
 39  18  22  ar  
 40  18  44  1   
 41  19  23  1   
 42  19  45  1   
 43  19  46  1   
 44  20  24  1   
 45  20  25  ar  
 46  21  23  1   
 47  21  26  ar  
 48  22  47  1   
 49  23  48  1   
 50  23  49  1   
 51  24  27  1   
 52  25  28  ar  
 53  25  50  1   
 54  26  28  ar  
 55  26  51  1   
 56  27  52  1   
 57  27  53  1   
 58  27  54  1   
 59  28  55  1   
@<TRIPOS>SUBSTRUCTURE
  1 ****   3 GROUP 4 **** **** 0

# MOE 2024.06 (io_trps.svl 2023.06)
