@<TRIPOS>MOLECULE
NONAME
48 50 1 0 0 
SMALL
USER_CHARGES


@<TRIPOS>ATOM
  1 F       -0.6940     0.1790     0.8420 F     1 <1>  -0.3400 
  2 C       -1.3300     0.6440    -0.2230 C.3   1 <1>   1.1640 
  3 F       -0.6620     0.2190    -1.2850 F     1 <1>  -0.3400 
  4 F       -2.5100     0.0380    -0.2520 F     1 <1>  -0.3400 
  5 C       -1.4580     2.1800    -0.1950 C.ar  1 <1>  -0.1440 
  6 C       -2.6760     2.8300    -0.1970 C.ar  1 <1>  -0.1500 
  7 C       -0.2950     2.9600    -0.1670 C.ar  1 <1>  -0.1500 
  8 C       -2.7640     4.2310    -0.1710 C.ar  1 <1>   0.3610 
  9 C       -0.3610     4.3290    -0.1420 C.ar  1 <1>  -0.1500 
 10 N       -3.9890     4.8630    -0.1730 N.ar  1 <1>  -0.1790 
 11 C       -1.5930     5.0110    -0.1430 C.ar  1 <1>   0.0000 
 12 C       -4.1110     6.2020    -0.1500 C.ar  1 <1>   0.2180 
 13 C       -1.7080     6.4350    -0.1180 C.ar  1 <1>   0.1000 
 14 C       -2.9880     6.9890    -0.1220 C.ar  1 <1>  -0.1500 
 15 C       -5.5080     6.8030    -0.1560 C.3   1 <1>  -0.0970 
 16 N       -0.6050     7.2070    -0.0950 N.pl3 1 <1>  -0.8690 
 17 C       -0.4340     8.6780    -0.0510 C.3   1 <1>   0.3890 
 18 C        1.0410     8.9940     0.1680 C.2   1 <1>   0.0060 
 19 N        2.0080     8.1830    -0.1120 N.2   1 <1>  -0.3380 
 20 N        1.5040    10.1460     0.6720 N.pl3 1 <1>   0.0480 
 21 N        3.1450     8.7980     0.2070 N.2   1 <1>  -0.3380 
 22 C        2.8250     9.9560     0.6680 C.2   1 <1>   0.0360 
 23 C        0.7850    11.3450     1.1570 C.3   1 <1>   0.0960 
 24 C        0.1780    12.1310    -0.0100 C.3   1 <1>  -0.1600 
 25 C       -0.5370    13.3860     0.4850 C.3   1 <1>   0.1200 
 26 O       -1.1800    13.9420    -0.6080 O.3   1 <1>  -0.5600 
 27 C       -1.8460    15.1330    -0.3330 C.3   1 <1>   0.0400 
 28 H       -3.5870     2.2570    -0.2180 H     1 <1>   0.1500 
 29 H        0.6700     2.4750    -0.1650 H     1 <1>   0.1500 
 30 H        0.5570     4.8920    -0.1200 H     1 <1>   0.1500 
 31 H       -4.8250     4.2760    -0.1940 H     1 <1>   0.4570 
 32 H       -3.0860     8.0580    -0.1060 H     1 <1>   0.1500 
 33 H       -6.0610     6.4780     0.7070 H     1 <1>   0.0800 
 34 H       -6.0390     6.5110    -1.0450 H     1 <1>   0.0800 
 35 H       -5.4590     7.8780    -0.1360 H     1 <1>   0.0800 
 36 H        0.3410     6.7900    -0.1230 H     1 <1>   0.4000 
 37 H       -1.0240     9.0830     0.7510 H     1 <1>   0.0800 
 38 H       -0.7560     9.1030    -0.9860 H     1 <1>   0.0800 
 39 H        3.5300    10.6900     1.0120 H     1 <1>   0.1500 
 40 H        1.4800    11.9670     1.6930 H     1 <1>   0.0800 
 41 H        0.0150    11.0330     1.8400 H     1 <1>   0.0800 
 42 H       -0.5340    11.5190    -0.5330 H     1 <1>   0.0800 
 43 H        0.9570    12.4240    -0.6930 H     1 <1>   0.0800 
 44 H        0.1660    14.1010     0.8780 H     1 <1>   0.0800 
 45 H       -1.2780    13.1450     1.2290 H     1 <1>   0.0800 
 46 H       -2.3120    15.4720    -1.2420 H     1 <1>   0.0800 
 47 H       -1.1360    15.8680     0.0050 H     1 <1>   0.0800 
 48 H       -2.5980    14.9580     0.4160 H     1 <1>   0.0800 
@<TRIPOS>BOND
  1   1   2  1   
  2   2   3  1   
  3   2   4  1   
  4   2   5  1   
  5   5   6  ar  
  6   5   7  ar  
  7   6   8  ar  
  8   6  28  1   
  9   7   9  ar  
 10   7  29  1   
 11   8  10  ar  
 12   8  11  ar  
 13   9  11  ar  
 14   9  30  1   
 15  10  12  ar  
 16  10  31  1   
 17  11  13  ar  
 18  12  14  ar  
 19  12  15  1   
 20  13  14  ar  
 21  13  16  1   
 22  14  32  1   
 23  15  33  1   
 24  15  34  1   
 25  15  35  1   
 26  16  17  1   
 27  16  36  1   
 28  17  18  1   
 29  17  37  1   
 30  17  38  1   
 31  18  19  2   
 32  18  20  1   
 33  19  21  1   
 34  20  22  1   
 35  20  23  1   
 36  21  22  2   
 37  22  39  1   
 38  23  24  1   
 39  23  40  1   
 40  23  41  1   
 41  24  25  1   
 42  24  42  1   
 43  24  43  1   
 44  25  26  1   
 45  25  44  1   
 46  25  45  1   
 47  26  27  1   
 48  27  46  1   
 49  27  47  1   
 50  27  48  1   
@<TRIPOS>SUBSTRUCTURE
  1 ****  16 GROUP 4 **** **** 0

# MOE 2024.06 (io_trps.svl 2023.06)
