@<TRIPOS>MOLECULE
NONAME
41 43 1 0 0 
SMALL
USER_CHARGES


@<TRIPOS>ATOM
  1 F       -1.4820    -0.3500    -1.3480 F     1 <1>  -0.1900 
  2 C       -2.1300     0.5350    -0.6380 C.ar  1 <1>   0.1900 
  3 C       -2.9650     0.0940     0.3810 C.ar  1 <1>  -0.1440 
  4 C       -1.9620     1.8710    -0.9440 C.ar  1 <1>  -0.1500 
  5 C       -3.6630     1.0390     1.1250 C.ar  1 <1>  -0.1500 
  6 C       -3.1040    -1.3870     0.6750 C.3   1 <1>   0.4870 
  7 C       -2.6720     2.7790    -0.1840 C.ar  1 <1>   0.1900 
  8 C       -3.5170     2.3900     0.8420 C.ar  1 <1>  -0.1500 
  9 N       -3.7780    -2.0620    -0.4700 N.4   1 <1>  -0.9590 
 10 F       -2.5440     4.0510    -0.4430 F     1 <1>  -0.1900 
 11 C       -5.1870    -1.5770    -0.6320 C.3   1 <1>   0.3430 
 12 C       -3.8550    -3.5380    -0.2400 C.3   1 <1>   0.3430 
 13 C       -6.0590    -2.5980     0.1030 C.3   1 <1>   0.2000 
 14 C       -5.3430    -3.9090    -0.2130 C.3   1 <1>  -0.0800 
 15 O       -5.9870    -2.3350     1.4700 O.3   1 <1>  -0.6800 
 16 C       -5.6530    -5.1080     0.7070 C.3   1 <1>   0.0200 
 17 C       -4.7240    -6.2640     0.3920 C.2   1 <1>  -0.0400 
 18 O       -4.5400    -6.6290    -0.8490 O.3   1 <1>  -0.0190 
 19 C       -3.9680    -7.0530     1.1700 C.2   1 <1>  -0.1500 
 20 N       -3.6890    -7.6050    -0.9440 N.2   1 <1>  -0.4100 
 21 C       -3.3340    -7.8910     0.2570 C.2   1 <1>   0.1080 
 22 C       -2.3600    -8.9920     0.6160 C.3   1 <1>  -0.0590 
 23 H       -1.3110     2.1960    -1.7350 H     1 <1>   0.1500 
 24 H       -4.3180     0.7390     1.9270 H     1 <1>   0.1500 
 25 H       -3.6790    -1.5290     1.5760 H     1 <1>   0.0800 
 26 H       -2.1250    -1.8110     0.8250 H     1 <1>   0.0800 
 27 H       -4.0470     3.1380     1.4070 H     1 <1>   0.1500 
 28 H       -3.2250    -1.8480    -1.3140 H     1 <1>   0.4500 
 29 H       -5.3320    -0.5840    -0.2400 H     1 <1>   0.0800 
 30 H       -5.4490    -1.5820    -1.6770 H     1 <1>   0.0800 
 31 H       -3.3460    -4.0860    -1.0180 H     1 <1>   0.0800 
 32 H       -3.4060    -3.7890     0.7080 H     1 <1>   0.0800 
 33 H       -7.0900    -2.5680    -0.2120 H     1 <1>   0.0800 
 34 H       -5.6100    -4.1930    -1.2170 H     1 <1>   0.0800 
 35 H       -6.7460    -2.7350     1.9470 H     1 <1>   0.4000 
 36 H       -6.6700    -5.4250     0.5590 H     1 <1>   0.0800 
 37 H       -5.5290    -4.8480     1.7440 H     1 <1>   0.0800 
 38 H       -3.8480    -7.0710     2.2380 H     1 <1>   0.1500 
 39 H       -1.5240    -8.5820     1.1530 H     1 <1>   0.0800 
 40 H       -1.9990    -9.4700    -0.2770 H     1 <1>   0.0800 
 41 H       -2.8490    -9.7270     1.2280 H     1 <1>   0.0800 
@<TRIPOS>BOND
  1   1   2  1   
  2   2   3  ar  
  3   2   4  ar  
  4   3   5  ar  
  5   3   6  1   
  6   4   7  ar  
  7   4  23  1   
  8   5   8  ar  
  9   5  24  1   
 10   6   9  1   
 11   6  25  1   
 12   6  26  1   
 13   7   8  ar  
 14   7  10  1   
 15   8  27  1   
 16   9  11  1   
 17   9  12  1   
 18   9  28  1   
 19  11  13  1   
 20  11  29  1   
 21  11  30  1   
 22  12  14  1   
 23  12  31  1   
 24  12  32  1   
 25  13  14  1   
 26  13  15  1   
 27  13  33  1   
 28  14  16  1   
 29  14  34  1   
 30  15  35  1   
 31  16  17  1   
 32  16  36  1   
 33  16  37  1   
 34  17  18  1   
 35  17  19  2   
 36  18  20  1   
 37  19  21  1   
 38  19  38  1   
 39  20  21  2   
 40  21  22  1   
 41  22  39  1   
 42  22  40  1   
 43  22  41  1   
@<TRIPOS>SUBSTRUCTURE
  1 ****   9 GROUP 4 **** **** 0

# MOE 2024.06 (io_trps.svl 2023.06)
