@<TRIPOS>MOLECULE
NONAME
40 42 1 0 0 
SMALL
USER_CHARGES


@<TRIPOS>ATOM
  1 CL      -1.8390     0.9780    -1.2820 Cl    1 <1>  -0.1230 
  2 C       -3.0930     1.1320    -0.0630 C.2   1 <1>   0.1230 
  3 C       -3.6650     0.0860     0.6670 C.2   1 <1>   0.2030 
  4 C       -3.6870     2.2740     0.3180 C.2   1 <1>  -0.3020 
  5 N       -4.5980     0.5880     1.4680 N.2   1 <1>  -0.7070 
  6 C       -3.2270    -1.2970     0.5250 C.2   1 <1>   0.7160 
  7 N       -4.5900     1.9170     1.2510 N.pl3 1 <1>   0.3000 
  8 O       -2.0520    -1.5430     0.7460 O.2   1 <1>  -0.5700 
  9 N       -4.0410    -2.3630     0.1370 N.am  1 <1>  -0.6600 
 10 C       -5.4130    -2.2850    -0.4480 C.3   1 <1>   0.2200 
 11 C       -3.5440    -3.7670     0.2600 C.3   1 <1>   0.0600 
 12 C       -6.4710    -2.0100     0.6160 C.3   1 <1>  -0.1600 
 13 C       -5.5810    -1.2490    -1.5600 C.3   1 <1>  -0.1600 
 14 C       -7.5630    -1.1690    -0.0570 C.3   1 <1>  -0.0800 
 15 C       -6.9940    -0.6710    -1.4060 C.3   1 <1>  -0.0800 
 16 C       -8.0910    -0.0630     0.8760 C.3   1 <1>   0.1400 
 17 C       -7.0240     0.8600    -1.5640 C.3   1 <1>  -0.0990 
 18 N       -8.8420     0.9570     0.1010 N.am  1 <1>  -0.6600 
 19 C       -8.3380     1.4350    -1.0770 C.2   1 <1>   0.5690 
 20 C      -10.1160     1.4450     0.6900 C.3   1 <1>   0.0600 
 21 O       -8.8790     2.2950    -1.7290 O.2   1 <1>  -0.5700 
 22 H       -3.5250     3.2830    -0.0110 H     1 <1>   0.1500 
 23 H       -5.2150     2.5620     1.7540 H     1 <1>   0.2700 
 24 H       -5.6550    -3.2390    -0.8890 H     1 <1>   0.0800 
 25 H       -4.3150    -4.3970     0.6670 H     1 <1>   0.0800 
 26 H       -2.6900    -3.8230     0.9140 H     1 <1>   0.0800 
 27 H       -3.2590    -4.1350    -0.7110 H     1 <1>   0.0800 
 28 H       -6.8780    -2.9350     0.9840 H     1 <1>   0.0800 
 29 H       -6.0400    -1.4870     1.4470 H     1 <1>   0.0800 
 30 H       -4.8480    -0.4720    -1.5070 H     1 <1>   0.0800 
 31 H       -5.4790    -1.7260    -2.5190 H     1 <1>   0.0800 
 32 H       -8.3910    -1.8210    -0.2790 H     1 <1>   0.0800 
 33 H       -7.6160    -1.0860    -2.1830 H     1 <1>   0.0800 
 34 H       -7.2710     0.4280     1.3700 H     1 <1>   0.0800 
 35 H       -8.7240    -0.4990     1.6300 H     1 <1>   0.0800 
 36 H       -6.8760     1.1270    -2.5950 H     1 <1>   0.0800 
 37 H       -6.2420     1.3120    -0.9870 H     1 <1>   0.0800 
 38 H       -9.9290     1.8720     1.6590 H     1 <1>   0.0800 
 39 H      -10.8080     0.6270     0.7870 H     1 <1>   0.0800 
 40 H      -10.5600     2.1970     0.0600 H     1 <1>   0.0800 
@<TRIPOS>BOND
  1   1   2  1   
  2   2   3  1   
  3   2   4  2   
  4   3   5  2   
  5   3   6  1   
  6   4   7  1   
  7   4  22  1   
  8   5   7  1   
  9   6   8  2   
 10   6   9  am  
 11   7  23  1   
 12   9  10  1   
 13   9  11  1   
 14  10  12  1   
 15  10  13  1   
 16  10  24  1   
 17  11  25  1   
 18  11  26  1   
 19  11  27  1   
 20  12  14  1   
 21  12  28  1   
 22  12  29  1   
 23  13  15  1   
 24  13  30  1   
 25  13  31  1   
 26  14  15  1   
 27  14  16  1   
 28  14  32  1   
 29  15  17  1   
 30  15  33  1   
 31  16  18  1   
 32  16  34  1   
 33  16  35  1   
 34  17  19  1   
 35  17  36  1   
 36  17  37  1   
 37  18  19  am  
 38  18  20  1   
 39  19  21  2   
 40  20  38  1   
 41  20  39  1   
 42  20  40  1   
@<TRIPOS>SUBSTRUCTURE
  1 ****  13 GROUP 4 **** **** 0

# MOE 2024.06 (io_trps.svl 2023.06)
