@<TRIPOS>MOLECULE
NONAME
49 52 1 0 0 
SMALL
USER_CHARGES


@<TRIPOS>ATOM
  1 O       -2.6810     0.5230    -2.1620 O.2   1 <1>  -0.5700 
  2 C       -2.3760     1.0140    -1.0920 C.2   1 <1>   0.5440 
  3 N       -2.5760     0.2330     0.0230 N.am  1 <1>  -0.6600 
  4 C       -1.8950     2.3820    -0.9980 C.ar  1 <1>   0.0860 
  5 C       -3.5350     0.6750     1.0780 C.3   1 <1>   0.1400 
  6 C       -2.4690    -1.2490    -0.1050 C.3   1 <1>   0.1400 
  7 C       -1.1130     2.8040     0.0840 C.ar  1 <1>  -0.1500 
  8 C       -2.2030     3.3230    -1.9940 C.ar  1 <1>  -0.1500 
  9 C       -4.9330     0.0350     0.8780 C.3   1 <1>   0.4230 
 10 C       -3.8580    -1.8550    -0.3690 C.3   1 <1>   0.3430 
 11 C       -0.6920     4.1150     0.1400 C.ar  1 <1>   0.0830 
 12 C       -1.7710     4.6400    -1.9260 C.ar  1 <1>  -0.1500 
 13 N       -4.8580    -1.4750     0.7040 N.4   1 <1>  -0.9590 
 14 C       -5.6810     0.6890    -0.3080 C.3   1 <1>   0.1200 
 15 O        0.0490     4.7060     1.0820 O.3   1 <1>  -0.3630 
 16 C       -1.0110     5.0130    -0.8360 C.ar  1 <1>   0.0830 
 17 C       -6.2410    -2.0160     0.4480 C.3   1 <1>   0.4230 
 18 O       -6.9490     0.1150    -0.4530 O.3   1 <1>  -0.5600 
 19 C        0.2290     6.0620     0.6720 C.3   1 <1>   0.4000 
 20 O       -0.4860     6.2050    -0.5540 O.3   1 <1>  -0.3630 
 21 C       -6.9420    -1.2610    -0.7080 C.3   1 <1>   0.1200 
 22 C       -6.1970    -3.5380     0.2280 C.3   1 <1>  -0.1600 
 23 C       -7.5850    -4.1870     0.3480 C.3   1 <1>  -0.1600 
 24 C       -7.4880    -5.7080     0.2060 C.3   1 <1>  -0.2400 
 25 H       -3.1470     0.3990     2.0430 H     1 <1>   0.0800 
 26 H       -3.6280     1.7480     1.0650 H     1 <1>   0.0800 
 27 H       -1.8120    -1.4960    -0.9220 H     1 <1>   0.0800 
 28 H       -2.0440    -1.6620     0.7930 H     1 <1>   0.0800 
 29 H       -0.8270     2.1250     0.8660 H     1 <1>   0.1500 
 30 H       -2.7910     3.0110    -2.8420 H     1 <1>   0.1500 
 31 H       -5.5130     0.2530     1.7590 H     1 <1>   0.0800 
 32 H       -3.7630    -2.9260    -0.4250 H     1 <1>   0.0800 
 33 H       -4.1980    -1.5020    -1.3290 H     1 <1>   0.0800 
 34 H       -2.0090     5.3570    -2.6910 H     1 <1>   0.1500 
 35 H       -4.5300    -1.8740     1.5910 H     1 <1>   0.4500 
 36 H       -5.1430     0.5740    -1.2340 H     1 <1>   0.0800 
 37 H       -5.8220     1.7400    -0.1270 H     1 <1>   0.0800 
 38 H       -6.8340    -1.8420     1.3310 H     1 <1>   0.0800 
 39 H       -0.1850     6.7240     1.4120 H     1 <1>   0.0800 
 40 H        1.2740     6.2540     0.5050 H     1 <1>   0.0800 
 41 H       -7.9680    -1.5720    -0.7920 H     1 <1>   0.0800 
 42 H       -6.4540    -1.4380    -1.6510 H     1 <1>   0.0800 
 43 H       -5.7990    -3.7630    -0.7460 H     1 <1>   0.0800 
 44 H       -5.5590    -3.9820     0.9730 H     1 <1>   0.0800 
 45 H       -8.0210    -3.9550     1.3070 H     1 <1>   0.0800 
 46 H       -8.2460    -3.8150    -0.4170 H     1 <1>   0.0800 
 47 H       -6.8640    -6.1270     0.9770 H     1 <1>   0.0800 
 48 H       -7.0820    -5.9780    -0.7530 H     1 <1>   0.0800 
 49 H       -8.4670    -6.1480     0.2920 H     1 <1>   0.0800 
@<TRIPOS>BOND
  1   1   2  2   
  2   2   3  am  
  3   2   4  1   
  4   3   5  1   
  5   3   6  1   
  6   4   7  ar  
  7   4   8  ar  
  8   5   9  1   
  9   5  25  1   
 10   5  26  1   
 11   6  10  1   
 12   6  27  1   
 13   6  28  1   
 14   7  11  ar  
 15   7  29  1   
 16   8  12  ar  
 17   8  30  1   
 18   9  13  1   
 19   9  14  1   
 20   9  31  1   
 21  10  13  1   
 22  10  32  1   
 23  10  33  1   
 24  11  15  1   
 25  11  16  ar  
 26  12  16  ar  
 27  12  34  1   
 28  13  17  1   
 29  13  35  1   
 30  14  18  1   
 31  14  36  1   
 32  14  37  1   
 33  15  19  1   
 34  16  20  1   
 35  17  21  1   
 36  17  22  1   
 37  17  38  1   
 38  18  21  1   
 39  19  20  1   
 40  19  39  1   
 41  19  40  1   
 42  21  41  1   
 43  21  42  1   
 44  22  23  1   
 45  22  43  1   
 46  22  44  1   
 47  23  24  1   
 48  23  45  1   
 49  23  46  1   
 50  24  47  1   
 51  24  48  1   
 52  24  49  1   
@<TRIPOS>SUBSTRUCTURE
  1 ****   3 GROUP 4 **** **** 0

# MOE 2024.06 (io_trps.svl 2023.06)
