@<TRIPOS>MOLECULE
NONAME
45 46 1 0 0 
SMALL
USER_CHARGES


@<TRIPOS>ATOM
  1 S        1.6510    -0.6880    -1.3180 S.3   1 <1>  -0.0800 
  2 C        1.4610    -1.5790     0.1740 C.2   1 <1>   0.1980 
  3 C        2.1200     0.7100    -0.3940 C.2   1 <1>  -0.1400 
  4 N        1.7130    -0.9050     1.2230 N.2   1 <1>  -0.5650 
  5 C        1.0020    -3.0240     0.0600 C.3   1 <1>   0.5230 
  6 C        2.0900     0.3900     0.9120 C.2   1 <1>   0.0460 
  7 C        2.4610     1.9630    -1.1790 C.3   1 <1>  -0.0600 
  8 N       -0.4720    -3.1010    -0.1350 N.4   1 <1>  -0.9590 
  9 C        2.4220     1.2860     2.0880 C.3   1 <1>  -0.0590 
 10 C       -0.9190    -4.4670    -0.5580 C.3   1 <1>   0.3430 
 11 C       -1.2020    -2.6350     1.0880 C.3   1 <1>   0.3430 
 12 C       -2.4170    -4.4110    -0.9160 C.3   1 <1>   0.2000 
 13 C       -2.7140    -2.6160     0.8200 C.3   1 <1>  -0.1600 
 14 O       -2.5690    -3.4580    -1.9270 O.3   1 <1>  -0.6800 
 15 C       -3.2200    -4.0110     0.3470 C.3   1 <1>  -0.1060 
 16 C       -2.8550    -5.0770     1.4010 C.2   1 <1>   0.9060 
 17 C       -4.7650    -4.0430     0.1630 C.3   1 <1>  -0.1600 
 18 O       -2.6120    -4.7280     2.5580 O.co2 1 <1>  -0.9000 
 19 O       -2.6620    -6.2350     1.0210 O.co2 1 <1>  -0.9000 
 20 C       -5.4070    -3.0180    -0.7910 C.3   1 <1>  -0.1600 
 21 C       -6.9340    -3.1010    -0.7180 C.3   1 <1>  -0.2400 
 22 H        1.2740    -3.5490     0.9600 H     1 <1>   0.0800 
 23 H        1.5090    -3.4840    -0.7710 H     1 <1>   0.0800 
 24 H        2.7370     2.7650    -0.5200 H     1 <1>   0.0800 
 25 H        1.6130     2.2730    -1.7610 H     1 <1>   0.0800 
 26 H        3.2840     1.7660    -1.8420 H     1 <1>   0.0800 
 27 H       -0.7640    -2.4830    -0.9060 H     1 <1>   0.4500 
 28 H        2.6950     2.2700     1.7600 H     1 <1>   0.0800 
 29 H        3.2410     0.8640     2.6410 H     1 <1>   0.0800 
 30 H        1.5680     1.3600     2.7370 H     1 <1>   0.0800 
 31 H       -0.3710    -4.7940    -1.4240 H     1 <1>   0.0800 
 32 H       -0.7540    -5.1810     0.2340 H     1 <1>   0.0800 
 33 H       -0.9920    -3.2960     1.9150 H     1 <1>   0.0800 
 34 H       -0.8750    -1.6450     1.3640 H     1 <1>   0.0800 
 35 H       -2.7460    -5.3650    -1.2940 H     1 <1>   0.0800 
 36 H       -3.2150    -2.3480     1.7350 H     1 <1>   0.0800 
 37 H       -2.9310    -1.8500     0.1000 H     1 <1>   0.0800 
 38 H       -3.5240    -3.3630    -2.1190 H     1 <1>   0.4000 
 39 H       -5.0460    -5.0340    -0.1560 H     1 <1>   0.0800 
 40 H       -5.2020    -3.9060     1.1390 H     1 <1>   0.0800 
 41 H       -5.1090    -2.0190    -0.5270 H     1 <1>   0.0800 
 42 H       -5.1170    -3.2090    -1.8070 H     1 <1>   0.0800 
 43 H       -7.2760    -2.8840     0.2790 H     1 <1>   0.0800 
 44 H       -7.2710    -4.0860    -0.9900 H     1 <1>   0.0800 
 45 H       -7.3770    -2.3890    -1.3920 H     1 <1>   0.0800 
@<TRIPOS>BOND
  1   1   2  1   
  2   1   3  1   
  3   2   4  2   
  4   2   5  1   
  5   3   6  2   
  6   3   7  1   
  7   4   6  1   
  8   5   8  1   
  9   5  22  1   
 10   5  23  1   
 11   6   9  1   
 12   7  24  1   
 13   7  25  1   
 14   7  26  1   
 15   8  10  1   
 16   8  11  1   
 17   8  27  1   
 18   9  28  1   
 19   9  29  1   
 20   9  30  1   
 21  10  12  1   
 22  10  31  1   
 23  10  32  1   
 24  11  13  1   
 25  11  33  1   
 26  11  34  1   
 27  12  14  1   
 28  12  15  1   
 29  12  35  1   
 30  13  15  1   
 31  13  36  1   
 32  13  37  1   
 33  14  38  1   
 34  15  16  1   
 35  15  17  1   
 36  16  18  ar  
 37  16  19  ar  
 38  17  20  1   
 39  17  39  1   
 40  17  40  1   
 41  20  21  1   
 42  20  41  1   
 43  20  42  1   
 44  21  43  1   
 45  21  44  1   
 46  21  45  1   
@<TRIPOS>SUBSTRUCTURE
  1 ****  11 GROUP 4 **** **** 0

# MOE 2024.06 (io_trps.svl 2023.06)
