@<TRIPOS>MOLECULE
NONAME
42 44 1 0 0 
SMALL
USER_CHARGES


@<TRIPOS>ATOM
  1 O       -0.1920     0.0850     1.5280 O.3   1 <1>  -0.5600 
  2 C        0.6350     0.2950     0.4290 C.3   1 <1>   0.1200 
  3 C       -1.5280     0.2010     1.1400 C.3   1 <1>   0.1200 
  4 C       -0.0760     1.3830    -0.3670 C.3   1 <1>   0.2890 
  5 C       -1.5250     0.9200    -0.2180 C.3   1 <1>  -0.0800 
  6 N        0.1400     2.6800     0.3370 N.pl3 1 <1>  -0.8690 
  7 C       -2.6150     2.0020    -0.3490 C.3   1 <1>  -0.0170 
  8 C        0.6390     3.8770    -0.0580 C.ar  1 <1>   0.4610 
  9 C       -4.0010     1.3890    -0.2240 C.ar  1 <1>  -0.1440 
 10 N        0.9290     4.1200    -1.3470 N.ar  1 <1>  -0.1790 
 11 C        0.8770     4.9050     0.8230 C.ar  1 <1>  -0.1500 
 12 C       -4.7410     1.4830     0.9380 C.ar  1 <1>  -0.1500 
 13 C       -4.5930     0.7040    -1.2670 C.ar  1 <1>  -0.1500 
 14 C        1.4320     5.3040    -1.7490 C.ar  1 <1>   0.7710 
 15 C        1.3890     6.0940     0.3470 C.ar  1 <1>   0.3930 
 16 C       -5.9950     0.8990     1.0020 C.ar  1 <1>   0.1600 
 17 C       -5.8550     0.1570    -1.0990 C.ar  1 <1>   0.1600 
 18 N        1.6710     6.3030    -0.9370 N.ar  1 <1>  -0.6200 
 19 N        1.7110     5.5050    -3.0370 N.pl3 1 <1>  -0.9000 
 20 O        1.6070     7.0690     1.2250 O.3   1 <1>  -0.3620 
 21 N       -6.5680     0.2360     0.0110 N.ar  1 <1>  -0.6200 
 22 C        2.1330     8.3340     0.8690 C.3   1 <1>   0.0400 
 23 H        1.6150     0.5850     0.7650 H     1 <1>   0.0800 
 24 H        0.6920    -0.6260    -0.1250 H     1 <1>   0.0800 
 25 H       -1.9570    -0.7840     1.0670 H     1 <1>   0.0800 
 26 H       -2.0430     0.7630     1.9010 H     1 <1>   0.0800 
 27 H        0.2510     1.4150    -1.3910 H     1 <1>   0.0800 
 28 H       -1.7100     0.1700    -0.9670 H     1 <1>   0.0800 
 29 H       -0.0190     2.5290     1.3480 H     1 <1>   0.4000 
 30 H       -2.5340     2.4880    -1.3050 H     1 <1>   0.0800 
 31 H       -2.4950     2.7530     0.4120 H     1 <1>   0.0800 
 32 H        0.7650     3.4100    -2.0400 H     1 <1>   0.4570 
 33 H        0.6710     4.7970     1.8710 H     1 <1>   0.1500 
 34 H       -4.3600     2.0030     1.7980 H     1 <1>   0.1500 
 35 H       -4.0920     0.5860    -2.2100 H     1 <1>   0.1500 
 36 H       -6.5580     0.9820     1.9170 H     1 <1>   0.1500 
 37 H       -6.3020    -0.3750    -1.9230 H     1 <1>   0.1500 
 38 H        1.6100     4.8670    -3.8280 H     1 <1>   0.4000 
 39 H        2.0920     6.4220    -3.2970 H     1 <1>   0.4000 
 40 H        2.2110     8.9320     1.7590 H     1 <1>   0.0800 
 41 H        1.4670     8.8040     0.1670 H     1 <1>   0.0800 
 42 H        3.1060     8.1980     0.4310 H     1 <1>   0.0800 
@<TRIPOS>BOND
  1   1   2  1   
  2   1   3  1   
  3   2   4  1   
  4   2  23  1   
  5   2  24  1   
  6   3   5  1   
  7   3  25  1   
  8   3  26  1   
  9   4   5  1   
 10   4   6  1   
 11   4  27  1   
 12   5   7  1   
 13   5  28  1   
 14   6   8  1   
 15   6  29  1   
 16   7   9  1   
 17   7  30  1   
 18   7  31  1   
 19   8  10  ar  
 20   8  11  ar  
 21   9  12  ar  
 22   9  13  ar  
 23  10  14  ar  
 24  10  32  1   
 25  11  15  ar  
 26  11  33  1   
 27  12  16  ar  
 28  12  34  1   
 29  13  17  ar  
 30  13  35  1   
 31  14  18  ar  
 32  14  19  1   
 33  15  18  ar  
 34  15  20  1   
 35  16  21  ar  
 36  16  36  1   
 37  17  21  ar  
 38  17  37  1   
 39  19  38  1   
 40  19  39  1   
 41  20  22  1   
 42  22  40  1   
 43  22  41  1   
 44  22  42  1   
@<TRIPOS>SUBSTRUCTURE
  1 ****   6 GROUP 4 **** **** 0

# MOE 2024.06 (io_trps.svl 2023.06)
