@<TRIPOS>MOLECULE
NONAME
43 44 1 0 0 
SMALL
USER_CHARGES


@<TRIPOS>ATOM
  1 S        0.1830    -0.0180    -0.0030 S.o2  1 <1>   1.3330 
  2 O        0.0230     1.3740     0.3290 O.2   1 <1>  -0.6500 
  3 O        0.9780    -0.4210    -1.1330 O.2   1 <1>  -0.6500 
  4 N        1.0020    -0.6480     1.2880 N.am  1 <1>  -0.9780 
  5 C       -1.4070    -0.8560     0.0170 C.3   1 <1>  -0.0550 
  6 C       -1.3180    -2.3880    -0.1140 C.3   1 <1>  -0.1600 
  7 C       -2.7110    -3.0490    -0.1110 C.3   1 <1>  -0.0990 
  8 C       -2.6800    -4.5700    -0.2270 C.2   1 <1>   0.5690 
  9 O       -1.6140    -5.1390    -0.2240 O.2   1 <1>  -0.5700 
 10 N       -3.8560    -5.2590    -0.3280 N.am  1 <1>  -0.6600 
 11 C       -5.2250    -4.6890    -0.2790 C.3   1 <1>   0.1400 
 12 C       -3.9100    -6.7380    -0.4310 C.3   1 <1>   0.1400 
 13 C       -6.1650    -5.8940    -0.3620 C.3   1 <1>   0.2000 
 14 C       -5.3230    -7.1120     0.0180 C.3   1 <1>  -0.0800 
 15 O       -7.2320    -5.7650     0.5130 O.3   1 <1>  -0.6800 
 16 C       -5.8580    -8.4150    -0.6000 C.3   1 <1>  -0.0170 
 17 C       -5.0190    -9.6150    -0.1960 C.ar  1 <1>   0.1670 
 18 N       -3.9390    -9.8490    -0.9260 N.ar  1 <1>  -0.6200 
 19 C       -5.4050   -10.3900     0.8880 C.ar  1 <1>  -0.1500 
 20 C       -3.2130   -10.8930    -0.5590 C.ar  1 <1>   0.1600 
 21 C       -4.6410   -11.4760     1.2580 C.ar  1 <1>  -0.1500 
 22 C       -3.5130   -11.7250     0.5060 C.ar  1 <1>  -0.1500 
 23 H        1.5000     0.1520     1.6700 H     1 <1>   0.4200 
 24 H        1.7120    -1.2380     0.8580 H     1 <1>   0.4200 
 25 H       -1.9090    -0.6160     0.9350 H     1 <1>   0.0800 
 26 H       -2.0040    -0.4740    -0.7880 H     1 <1>   0.0800 
 27 H       -0.8070    -2.6400    -1.0290 H     1 <1>   0.0800 
 28 H       -0.7380    -2.7840     0.7030 H     1 <1>   0.0800 
 29 H       -3.2830    -2.6630    -0.9350 H     1 <1>   0.0800 
 30 H       -3.2180    -2.7980     0.8020 H     1 <1>   0.0800 
 31 H       -5.3610    -4.1590     0.6470 H     1 <1>   0.0800 
 32 H       -5.3850    -4.0310    -1.1150 H     1 <1>   0.0800 
 33 H       -3.7420    -7.0250    -1.4560 H     1 <1>   0.0800 
 34 H       -3.1610    -7.2020     0.1900 H     1 <1>   0.0800 
 35 H       -6.5550    -5.9820    -1.3620 H     1 <1>   0.0800 
 36 H       -5.2960    -7.2120     1.0890 H     1 <1>   0.0800 
 37 H       -6.9150    -5.7620     1.4370 H     1 <1>   0.4000 
 38 H       -5.8630    -8.3390    -1.6740 H     1 <1>   0.0800 
 39 H       -6.8740    -8.5670    -0.2830 H     1 <1>   0.0800 
 40 H       -6.2950   -10.1480     1.4390 H     1 <1>   0.1500 
 41 H       -2.3290   -11.0970    -1.1390 H     1 <1>   0.1500 
 42 H       -4.9110   -12.0980     2.0940 H     1 <1>   0.1500 
 43 H       -2.8710   -12.5540     0.7400 H     1 <1>   0.1500 
@<TRIPOS>BOND
  1   1   2  2   
  2   1   3  2   
  3   1   4  am  
  4   1   5  1   
  5   4  23  1   
  6   4  24  1   
  7   5   6  1   
  8   5  25  1   
  9   5  26  1   
 10   6   7  1   
 11   6  27  1   
 12   6  28  1   
 13   7   8  1   
 14   7  29  1   
 15   7  30  1   
 16   8   9  2   
 17   8  10  am  
 18  10  11  1   
 19  10  12  1   
 20  11  13  1   
 21  11  31  1   
 22  11  32  1   
 23  12  14  1   
 24  12  33  1   
 25  12  34  1   
 26  13  14  1   
 27  13  15  1   
 28  13  35  1   
 29  14  16  1   
 30  14  36  1   
 31  15  37  1   
 32  16  17  1   
 33  16  38  1   
 34  16  39  1   
 35  17  18  ar  
 36  17  19  ar  
 37  18  20  ar  
 38  19  21  ar  
 39  19  40  1   
 40  20  22  ar  
 41  20  41  1   
 42  21  22  ar  
 43  21  42  1   
 44  22  43  1   
@<TRIPOS>SUBSTRUCTURE
  1 ****  10 GROUP 4 **** **** 0

# MOE 2024.06 (io_trps.svl 2023.06)
