@<TRIPOS>MOLECULE
NONAME
47 48 1 0 0 
SMALL
USER_CHARGES


@<TRIPOS>ATOM
  1 CL      -2.0100    -1.9680     2.2730 Cl    1 <1>  -0.1770 
  2 C       -2.7220    -0.4350     1.8190 C.ar  1 <1>   0.1770 
  3 C       -3.5070    -0.3330     0.6760 C.ar  1 <1>  -0.1440 
  4 C       -2.4840     0.6580     2.6320 C.ar  1 <1>  -0.1500 
  5 C       -4.0580     0.9010     0.3620 C.ar  1 <1>  -0.1500 
  6 C       -3.7740    -1.5330    -0.2210 C.3   1 <1>  -0.0160 
  7 C       -3.0390     1.8830     2.3060 C.ar  1 <1>  -0.1500 
  8 C       -3.8250     2.0010     1.1720 C.ar  1 <1>  -0.1500 
  9 C       -4.9130    -2.3840     0.3490 C.3   1 <1>  -0.0990 
 10 C       -5.0930    -3.6500    -0.4530 C.2   1 <1>   0.5690 
 11 O       -5.9150    -3.6800    -1.3370 O.2   1 <1>  -0.5700 
 12 N       -4.3280    -4.7250    -0.1450 N.am  1 <1>  -0.7300 
 13 C       -4.4750    -6.0470    -0.7900 C.3   1 <1>   0.2200 
 14 C       -5.6690    -6.7690    -0.1730 C.3   1 <1>  -0.0800 
 15 C       -3.2940    -6.9640    -0.4790 C.3   1 <1>   0.1200 
 16 C       -5.0680    -8.0450     0.4180 C.3   1 <1>   0.1200 
 17 C       -6.7840    -7.0130    -1.2060 C.3   1 <1>  -0.0550 
 18 O       -3.7130    -7.7730     0.5700 O.3   1 <1>  -0.5600 
 19 S       -8.3370    -7.5410    -0.4830 S.o2  1 <1>   1.3330 
 20 O       -8.0860    -8.7450     0.2770 O.2   1 <1>  -0.6500 
 21 O       -9.3560    -7.5450    -1.5070 O.2   1 <1>  -0.6500 
 22 N       -8.7230    -6.3060     0.6160 N.am  1 <1>  -0.8490 
 23 C       -9.7560    -6.7310     1.5630 C.3   1 <1>   0.1160 
 24 C       -9.1270    -5.0530    -0.0340 C.3   1 <1>   0.1160 
 25 H       -1.8720     0.5470     3.5080 H     1 <1>   0.1500 
 26 H       -4.6730     1.0120    -0.5140 H     1 <1>   0.1500 
 27 H       -4.0390    -1.2030    -1.2110 H     1 <1>   0.0800 
 28 H       -2.8800    -2.1250    -0.3130 H     1 <1>   0.0800 
 29 H       -2.8600     2.7400     2.9310 H     1 <1>   0.1500 
 30 H       -4.2580     2.9540     0.9170 H     1 <1>   0.1500 
 31 H       -5.8290    -1.8220     0.3280 H     1 <1>   0.0800 
 32 H       -4.7080    -2.6430     1.3710 H     1 <1>   0.0800 
 33 H       -3.7340    -4.7130     0.6880 H     1 <1>   0.3700 
 34 H       -4.5740    -5.9160    -1.8550 H     1 <1>   0.0800 
 35 H       -6.0670    -6.1890     0.6410 H     1 <1>   0.0800 
 36 H       -2.4080    -6.4280    -0.1890 H     1 <1>   0.0800 
 37 H       -3.0800    -7.6040    -1.3180 H     1 <1>   0.0800 
 38 H       -5.1670    -8.8840    -0.2500 H     1 <1>   0.0800 
 39 H       -5.4910    -8.2920     1.3770 H     1 <1>   0.0800 
 40 H       -6.4580    -7.7440    -1.9200 H     1 <1>   0.0800 
 41 H       -6.9560    -6.0990    -1.7420 H     1 <1>   0.0800 
 42 H       -9.9610    -5.9450     2.2690 H     1 <1>   0.0800 
 43 H       -9.4200    -7.5960     2.1100 H     1 <1>   0.0800 
 44 H      -10.6630    -6.9850     1.0390 H     1 <1>   0.0800 
 45 H       -9.3210    -4.2980     0.7080 H     1 <1>   0.0800 
 46 H      -10.0170    -5.2010    -0.6240 H     1 <1>   0.0800 
 47 H       -8.3410    -4.6920    -0.6760 H     1 <1>   0.0800 
@<TRIPOS>BOND
  1   1   2  1   
  2   2   3  ar  
  3   2   4  ar  
  4   3   5  ar  
  5   3   6  1   
  6   4   7  ar  
  7   4  25  1   
  8   5   8  ar  
  9   5  26  1   
 10   6   9  1   
 11   6  27  1   
 12   6  28  1   
 13   7   8  ar  
 14   7  29  1   
 15   8  30  1   
 16   9  10  1   
 17   9  31  1   
 18   9  32  1   
 19  10  11  2   
 20  10  12  am  
 21  12  13  1   
 22  12  33  1   
 23  13  14  1   
 24  13  15  1   
 25  13  34  1   
 26  14  16  1   
 27  14  17  1   
 28  14  35  1   
 29  15  18  1   
 30  15  36  1   
 31  15  37  1   
 32  16  18  1   
 33  16  38  1   
 34  16  39  1   
 35  17  19  1   
 36  17  40  1   
 37  17  41  1   
 38  19  20  2   
 39  19  21  2   
 40  19  22  am  
 41  22  23  1   
 42  22  24  1   
 43  23  42  1   
 44  23  43  1   
 45  23  44  1   
 46  24  45  1   
 47  24  46  1   
 48  24  47  1   
@<TRIPOS>SUBSTRUCTURE
  1 ****  10 GROUP 4 **** **** 0

# MOE 2024.06 (io_trps.svl 2023.06)
