@<TRIPOS>MOLECULE
NONAME
49 52 1 0 0 
SMALL
USER_CHARGES


@<TRIPOS>ATOM
  1 O        3.1310    -1.2530     2.5970 O.2   1 <1>  -0.5700 
  2 C        2.9140    -1.2220     1.4000 C.2   1 <1>   0.6160 
  3 N        3.1930    -0.0580     0.7080 N.am  1 <1>  -0.6600 
  4 C        2.3720    -2.3890     0.7410 C.2   1 <1>   0.0140 
  5 C        3.7350     1.1360     1.4620 C.3   1 <1>   0.2200 
  6 C        3.1750    -0.0380    -0.7950 C.3   1 <1>   0.1400 
  7 C        1.0450    -2.6680     0.7810 C.2   1 <1>  -0.1780 
  8 C        3.3150    -3.2430     0.0570 C.2   1 <1>  -0.1500 
  9 C        3.1270     2.4700     1.0000 C.3   1 <1>   0.1200 
 10 C        5.2810     1.1580     1.4230 C.3   1 <1>   0.3430 
 11 C        4.0670     1.0310    -1.4590 C.3   1 <1>  -0.0800 
 12 C        0.3410    -3.7770     0.1900 C.ar  1 <1>   0.0280 
 13 C        3.0710    -4.0180    -1.0120 C.2   1 <1>  -0.0730 
 14 O        3.8190     3.0010    -0.0890 O.3   1 <1>  -0.5600 
 15 N        5.8160     0.3920     0.2580 N.4   1 <1>  -0.9590 
 16 C        3.5010     2.4500    -1.3220 C.3   1 <1>   0.1200 
 17 C        5.5620     0.9590    -1.0940 C.3   1 <1>   0.3430 
 18 C        0.7610    -4.4610    -0.9630 C.ar  1 <1>   0.0820 
 19 C       -0.8460    -4.2000     0.7840 C.ar  1 <1>  -0.1500 
 20 O        1.8830    -4.1140    -1.6550 O.3   1 <1>  -0.1590 
 21 C        7.2240    -0.1430     0.3930 C.3   1 <1>   0.2370 
 22 C        0.0190    -5.5070    -1.4810 C.ar  1 <1>  -0.1500 
 23 C       -1.5870    -5.2500     0.2680 C.ar  1 <1>  -0.1500 
 24 C        7.3690    -1.4720    -0.3590 C.2   1 <1>   0.9060 
 25 C       -1.1560    -5.9070    -0.8670 C.ar  1 <1>  -0.1500 
 26 O        8.4830    -1.8770    -0.6800 O.co2 1 <1>  -0.9000 
 27 O        6.3090    -2.0470    -0.6570 O.co2 1 <1>  -0.9000 
 28 H        3.4480     1.0500     2.4950 H     1 <1>   0.0800 
 29 H        3.5040    -0.9950    -1.1650 H     1 <1>   0.0800 
 30 H        2.1570     0.0940    -1.1220 H     1 <1>   0.0800 
 31 H        0.4130    -2.0010     1.3390 H     1 <1>   0.1500 
 32 H        4.3150    -3.2180     0.4590 H     1 <1>   0.1500 
 33 H        3.2200     3.1880     1.7960 H     1 <1>   0.0800 
 34 H        2.0810     2.3670     0.7640 H     1 <1>   0.0800 
 35 H        5.6370     0.7030     2.3310 H     1 <1>   0.0800 
 36 H        5.6350     2.1750     1.3980 H     1 <1>   0.0800 
 37 H        4.0190     0.8230    -2.5130 H     1 <1>   0.0800 
 38 H        3.8340    -4.6190    -1.4770 H     1 <1>   0.1500 
 39 H        5.2760    -0.5020     0.2340 H     1 <1>   0.4500 
 40 H        2.4320     2.4700    -1.4570 H     1 <1>   0.0800 
 41 H        3.9430     3.0890    -2.0680 H     1 <1>   0.0800 
 42 H        6.0060     1.9380    -1.1720 H     1 <1>   0.0800 
 43 H        6.0440     0.3190    -1.8170 H     1 <1>   0.0800 
 44 H       -1.1980    -3.7030     1.6710 H     1 <1>   0.1500 
 45 H        7.9420     0.5550     0.0020 H     1 <1>   0.0800 
 46 H        7.4510    -0.3390     1.4240 H     1 <1>   0.0800 
 47 H        0.3590    -6.0090    -2.3690 H     1 <1>   0.1500 
 48 H       -2.4990    -5.5540     0.7520 H     1 <1>   0.1500 
 49 H       -1.7280    -6.7230    -1.2740 H     1 <1>   0.1500 
@<TRIPOS>BOND
  1   1   2  2   
  2   2   3  am  
  3   2   4  1   
  4   3   5  1   
  5   3   6  1   
  6   4   7  2   
  7   4   8  1   
  8   5   9  1   
  9   5  10  1   
 10   5  28  1   
 11   6  11  1   
 12   6  29  1   
 13   6  30  1   
 14   7  12  1   
 15   7  31  1   
 16   8  13  2   
 17   8  32  1   
 18   9  14  1   
 19   9  33  1   
 20   9  34  1   
 21  10  15  1   
 22  10  35  1   
 23  10  36  1   
 24  11  16  1   
 25  11  17  1   
 26  11  37  1   
 27  12  18  ar  
 28  12  19  ar  
 29  13  20  1   
 30  13  38  1   
 31  14  16  1   
 32  15  17  1   
 33  15  21  1   
 34  15  39  1   
 35  16  40  1   
 36  16  41  1   
 37  17  42  1   
 38  17  43  1   
 39  18  20  1   
 40  18  22  ar  
 41  19  23  ar  
 42  19  44  1   
 43  21  24  1   
 44  21  45  1   
 45  21  46  1   
 46  22  25  ar  
 47  22  47  1   
 48  23  25  ar  
 49  23  48  1   
 50  24  26  ar  
 51  24  27  ar  
 52  25  49  1   
@<TRIPOS>SUBSTRUCTURE
  1 ****   4 GROUP 4 **** **** 0

# MOE 2024.06 (io_trps.svl 2023.06)
