@<TRIPOS>MOLECULE
NONAME
44 46 1 0 0 
SMALL
USER_CHARGES


@<TRIPOS>ATOM
  1 S        0.3170    -0.6930    -0.5190 S.3   1 <1>  -0.0800 
  2 C       -1.3440    -0.6840     0.0860 C.2   1 <1>  -0.0450 
  3 C        0.3160     1.0380    -0.7730 C.2   1 <1>  -0.1400 
  4 C       -1.9460    -1.9330     0.4810 C.2   1 <1>   0.7150 
  5 C       -1.7990     0.5970     0.0700 C.2   1 <1>  -0.1500 
  6 C       -0.8690     1.5620    -0.4140 C.2   1 <1>  -0.1500 
  7 C        1.5810     1.6600    -1.3270 C.3   1 <1>  -0.0600 
  8 O       -1.2650    -2.9020     0.7740 O.2   1 <1>  -0.5700 
  9 N       -3.3160    -2.0850     0.4960 N.am  1 <1>  -0.6600 
 10 C       -3.9050    -3.2140     1.2870 C.3   1 <1>   0.1400 
 11 C       -4.0840    -1.6780    -0.7300 C.3   1 <1>   0.1400 
 12 C       -4.2630    -4.2990     0.2600 C.3   1 <1>   0.4230 
 13 C       -5.4710    -2.3430    -0.8320 C.3   1 <1>  -0.1600 
 14 N       -4.3590    -5.7150     0.7340 N.4   1 <1>  -0.9590 
 15 C       -5.5440    -3.8650    -0.4730 C.3   1 <1>  -0.1060 
 16 C       -4.5040    -6.6470    -0.4190 C.3   1 <1>   0.3430 
 17 C       -3.2730    -6.1270     1.6630 C.3   1 <1>   0.2630 
 18 C       -6.7720    -4.0890     0.4280 C.2   1 <1>   0.9060 
 19 C       -5.6500    -4.7510    -1.7340 C.3   1 <1>  -0.1600 
 20 C       -5.6660    -6.2410    -1.3390 C.3   1 <1>  -0.1600 
 21 O       -7.8740    -3.7270     0.0220 O.co2 1 <1>  -0.9000 
 22 O       -6.6360    -4.6640     1.5200 O.co2 1 <1>  -0.9000 
 23 H       -2.7770     0.9000     0.3990 H     1 <1>   0.1500 
 24 H       -1.1280     2.6050    -0.4680 H     1 <1>   0.1500 
 25 H        1.4560     2.7220    -1.4360 H     1 <1>   0.0800 
 26 H        1.8080     1.2350    -2.2880 H     1 <1>   0.0800 
 27 H        2.4030     1.4720    -0.6600 H     1 <1>   0.0800 
 28 H       -3.1930    -3.5640     2.0090 H     1 <1>   0.0800 
 29 H       -4.7790    -2.8730     1.8160 H     1 <1>   0.0800 
 30 H       -4.2120    -0.6090    -0.7330 H     1 <1>   0.0800 
 31 H       -3.5080    -1.9410    -1.6020 H     1 <1>   0.0800 
 32 H       -3.4600    -4.2770    -0.4560 H     1 <1>   0.0800 
 33 H       -6.1140    -1.7990    -0.1590 H     1 <1>   0.0800 
 34 H       -5.8810    -2.1750    -1.8130 H     1 <1>   0.0800 
 35 H       -5.2780    -5.6920     1.2540 H     1 <1>   0.4500 
 36 H       -3.5900    -6.6440    -0.9900 H     1 <1>   0.0800 
 37 H       -4.6730    -7.6480    -0.0580 H     1 <1>   0.0800 
 38 H       -2.3110    -5.9970     1.1940 H     1 <1>   0.0800 
 39 H       -3.3950    -7.1600     1.9410 H     1 <1>   0.0800 
 40 H       -3.3070    -5.5300     2.5590 H     1 <1>   0.0800 
 41 H       -6.5590    -4.5160    -2.2640 H     1 <1>   0.0800 
 42 H       -4.8210    -4.5560    -2.3930 H     1 <1>   0.0800 
 43 H       -5.6370    -6.8450    -2.2280 H     1 <1>   0.0800 
 44 H       -6.5930    -6.4690    -0.8390 H     1 <1>   0.0800 
@<TRIPOS>BOND
  1   1   2  1   
  2   1   3  1   
  3   2   4  1   
  4   2   5  2   
  5   3   6  2   
  6   3   7  1   
  7   4   8  2   
  8   4   9  am  
  9   5   6  1   
 10   5  23  1   
 11   6  24  1   
 12   7  25  1   
 13   7  26  1   
 14   7  27  1   
 15   9  10  1   
 16   9  11  1   
 17  10  12  1   
 18  10  28  1   
 19  10  29  1   
 20  11  13  1   
 21  11  30  1   
 22  11  31  1   
 23  12  14  1   
 24  12  15  1   
 25  12  32  1   
 26  13  15  1   
 27  13  33  1   
 28  13  34  1   
 29  14  16  1   
 30  14  17  1   
 31  14  35  1   
 32  15  18  1   
 33  15  19  1   
 34  16  20  1   
 35  16  36  1   
 36  16  37  1   
 37  17  38  1   
 38  17  39  1   
 39  17  40  1   
 40  18  21  ar  
 41  18  22  ar  
 42  19  20  1   
 43  19  41  1   
 44  19  42  1   
 45  20  43  1   
 46  20  44  1   
@<TRIPOS>SUBSTRUCTURE
  1 ****   9 GROUP 4 **** **** 0

# MOE 2024.06 (io_trps.svl 2023.06)
