@<TRIPOS>MOLECULE
NONAME
50 52 1 0 0 
SMALL
USER_CHARGES


@<TRIPOS>ATOM
  1 O        5.2640    -1.5690    -0.9590 O.2   1 <1>  -0.5700 
  2 C        4.0460    -1.5370    -0.9550 C.2   1 <1>   0.5440 
  3 N        3.4610    -0.5390    -1.7010 N.am  1 <1>  -0.6600 
  4 C        3.2730    -2.4540    -0.1480 C.ar  1 <1>   0.0860 
  5 C        4.0310    -0.1400    -3.0320 C.3   1 <1>   0.1400 
  6 C        2.5950     0.4770    -1.0480 C.3   1 <1>   0.1400 
  7 C        1.9590    -2.7840    -0.4790 C.ar  1 <1>   0.1600 
  8 C        3.7910    -3.0520     0.9950 C.ar  1 <1>  -0.1500 
  9 C        5.3630     0.6370    -2.9200 C.3   1 <1>   0.3430 
 10 C        3.4510     1.5120    -0.3030 C.3   1 <1>  -0.1600 
 11 N        1.1610    -3.5860     0.1980 N.ar  1 <1>  -0.6200 
 12 C        2.9770    -3.8970     1.7100 C.ar  1 <1>  -0.1500 
 13 N        5.5690     1.2080    -1.5560 N.4   1 <1>  -0.9590 
 14 C        4.5280     2.1970    -1.1520 C.3   1 <1>   0.3430 
 15 C        1.6720    -4.1480     1.2900 C.ar  1 <1>   0.4100 
 16 C        6.9800     1.6730    -1.3210 C.3   1 <1>   0.5240 
 17 N        0.8560    -5.0040     2.0040 N.pl3 1 <1>  -0.8380 
 18 C        7.2540     2.0130     0.1450 C.2   1 <1>   0.3350 
 19 C       -0.6250    -4.8790     1.9190 C.3   1 <1>   0.1290 
 20 C        1.3470    -6.3400     2.4350 C.3   1 <1>   0.1290 
 21 N        7.7310     1.1980     0.9970 N.2   1 <1>  -0.4100 
 22 N        6.9910     3.2130     0.6490 N.2   1 <1>  -0.5650 
 23 O        7.8220     1.8340     2.1260 O.3   1 <1>  -0.0190 
 24 C        7.3690     3.0320     1.8520 C.2   1 <1>   0.2980 
 25 C        7.3340     4.0660     2.9550 C.3   1 <1>  -0.0600 
 26 H        3.3130     0.4590    -3.5640 H     1 <1>   0.0800 
 27 H        4.1980    -1.0260    -3.6210 H     1 <1>   0.0800 
 28 H        1.9320    -0.0030    -0.3470 H     1 <1>   0.0800 
 29 H        1.9830     0.9630    -1.7900 H     1 <1>   0.0800 
 30 H        1.5420    -2.3510    -1.3710 H     1 <1>   0.1500 
 31 H        4.8020    -2.8540     1.3080 H     1 <1>   0.1500 
 32 H        5.3990     1.4110    -3.6690 H     1 <1>   0.0800 
 33 H        6.1600    -0.0590    -3.1290 H     1 <1>   0.0800 
 34 H        3.9080     1.0550     0.5570 H     1 <1>   0.0800 
 35 H        2.7910     2.2740     0.0700 H     1 <1>   0.0800 
 36 H        3.3320    -4.3690     2.6060 H     1 <1>   0.1500 
 37 H        5.4440     0.3760    -0.9410 H     1 <1>   0.4500 
 38 H        4.9720     2.9850    -0.5660 H     1 <1>   0.0800 
 39 H        4.0820     2.6470    -2.0240 H     1 <1>   0.0800 
 40 H        7.1860     2.5430    -1.9190 H     1 <1>   0.0800 
 41 H        7.6640     0.8930    -1.6100 H     1 <1>   0.0800 
 42 H       -0.9010    -3.8460     1.7890 H     1 <1>   0.0800 
 43 H       -1.0790    -5.2450     2.8220 H     1 <1>   0.0800 
 44 H       -0.9890    -5.4440     1.0780 H     1 <1>   0.0800 
 45 H        2.3660    -6.4890     2.1240 H     1 <1>   0.0800 
 46 H        0.7420    -7.1120     1.9920 H     1 <1>   0.0800 
 47 H        1.2900    -6.4170     3.5060 H     1 <1>   0.0800 
 48 H        6.9420     4.9940     2.5810 H     1 <1>   0.0800 
 49 H        8.3290     4.2320     3.3270 H     1 <1>   0.0800 
 50 H        6.7110     3.7200     3.7590 H     1 <1>   0.0800 
@<TRIPOS>BOND
  1   1   2  2   
  2   2   3  am  
  3   2   4  1   
  4   3   5  1   
  5   3   6  1   
  6   4   7  ar  
  7   4   8  ar  
  8   5   9  1   
  9   5  26  1   
 10   5  27  1   
 11   6  10  1   
 12   6  28  1   
 13   6  29  1   
 14   7  11  ar  
 15   7  30  1   
 16   8  12  ar  
 17   8  31  1   
 18   9  13  1   
 19   9  32  1   
 20   9  33  1   
 21  10  14  1   
 22  10  34  1   
 23  10  35  1   
 24  11  15  ar  
 25  12  15  ar  
 26  12  36  1   
 27  13  14  1   
 28  13  16  1   
 29  13  37  1   
 30  14  38  1   
 31  14  39  1   
 32  15  17  1   
 33  16  18  1   
 34  16  40  1   
 35  16  41  1   
 36  17  19  1   
 37  17  20  1   
 38  18  21  2   
 39  18  22  1   
 40  19  42  1   
 41  19  43  1   
 42  19  44  1   
 43  20  45  1   
 44  20  46  1   
 45  20  47  1   
 46  21  23  1   
 47  22  24  2   
 48  23  24  1   
 49  24  25  1   
 50  25  48  1   
 51  25  49  1   
 52  25  50  1   
@<TRIPOS>SUBSTRUCTURE
  1 ****   2 GROUP 4 **** **** 0

# MOE 2024.06 (io_trps.svl 2023.06)
