@<TRIPOS>MOLECULE
NONAME
24 23 1 0 0 
SMALL
USER_CHARGES


@<TRIPOS>ATOM
  1 O        0.0460     0.6090    -0.0650 O.co2 1 <1>  -0.9000 
  2 C       -0.2010     1.6740    -0.6560 C.2   1 <1>   0.9060 
  3 O       -0.6470     1.7040    -1.8100 O.co2 1 <1>  -0.9000 
  4 C        0.0510     2.9890     0.0940 C.3   1 <1>   0.0940 
  5 O        0.6220     2.7280     1.3550 O.3   1 <1>  -0.6800 
  6 C       -1.2770     3.7470     0.2410 C.3   1 <1>   0.1200 
  7 O       -1.0880     5.0580     0.7250 O.3   1 <1>  -0.5600 
  8 C       -1.2140     6.1430    -0.1400 C.3   1 <1>   0.2800 
  9 C       -2.6770     6.2860    -0.5750 C.3   1 <1>  -0.2400 
 10 C       -0.2660     6.0090    -1.3370 C.3   1 <1>  -0.2400 
 11 C       -0.8110     7.3580     0.6940 C.3   1 <1>  -0.2400 
 12 H        0.7520     3.5620    -0.4780 H     1 <1>   0.0800 
 13 H        0.6510     1.7380     1.3980 H     1 <1>   0.4000 
 14 H       -1.9050     3.2240     0.9390 H     1 <1>   0.0800 
 15 H       -1.7830     3.7700    -0.7060 H     1 <1>   0.0800 
 16 H       -2.9690     5.4880    -1.2310 H     1 <1>   0.0800 
 17 H       -2.8110     7.2100    -1.1060 H     1 <1>   0.0800 
 18 H       -3.3180     6.2910     0.2870 H     1 <1>   0.0800 
 19 H       -0.5460     5.1850    -1.9690 H     1 <1>   0.0800 
 20 H        0.7430     5.8670    -0.9940 H     1 <1>   0.0800 
 21 H       -0.2990     6.9020    -1.9320 H     1 <1>   0.0800 
 22 H       -1.4570     7.4500     1.5470 H     1 <1>   0.0800 
 23 H       -0.8790     8.2560     0.1090 H     1 <1>   0.0800 
 24 H        0.2020     7.2460     1.0360 H     1 <1>   0.0800 
@<TRIPOS>BOND
  1   1   2  ar  
  2   2   3  ar  
  3   2   4  1   
  4   4   5  1   
  5   4   6  1   
  6   4  12  1   
  7   5  13  1   
  8   6   7  1   
  9   6  14  1   
 10   6  15  1   
 11   7   8  1   
 12   8   9  1   
 13   8  10  1   
 14   8  11  1   
 15   9  16  1   
 16   9  17  1   
 17   9  18  1   
 18  10  19  1   
 19  10  20  1   
 20  10  21  1   
 21  11  22  1   
 22  11  23  1   
 23  11  24  1   
@<TRIPOS>SUBSTRUCTURE
  1 ****   6 GROUP 4 **** **** 0

# MOE 2024.06 (io_trps.svl 2023.06)
