@<TRIPOS>MOLECULE
NONAME
28 28 1 0 0 
SMALL
USER_CHARGES


@<TRIPOS>ATOM
  1 F       -0.1540     0.3110    -0.2740 F     1 <1>  -0.1900 
  2 C       -0.0430     1.6000    -0.0830 C.ar  1 <1>   0.1900 
  3 C       -1.1910     2.3590     0.0990 C.ar  1 <1>  -0.1440 
  4 C        1.2270     2.1440    -0.0730 C.ar  1 <1>  -0.1500 
  5 C       -1.0380     3.7230     0.2980 C.ar  1 <1>  -0.1500 
  6 C       -2.5730     1.7240     0.0810 C.3   1 <1>  -0.0960 
  7 C        1.3620     3.5130     0.1280 C.ar  1 <1>   0.0830 
  8 C        0.2270     4.2900     0.3120 C.ar  1 <1>  -0.1500 
  9 O        2.5550     4.1580     0.1580 O.3   1 <1>  -0.3630 
 10 C        3.7660     3.4680    -0.0170 C.3   1 <1>   0.1200 
 11 C        4.8860     4.5050     0.0770 C.3   1 <1>  -0.1600 
 12 C        6.2550     3.8560    -0.1000 C.3   1 <1>   0.3430 
 13 N        7.3010     4.9000     0.0000 N.4   1 <1>  -0.8530 
 14 H        2.0630     1.4910    -0.2210 H     1 <1>   0.1500 
 15 H       -1.9010     4.3510     0.4440 H     1 <1>   0.1500 
 16 H       -2.6450     0.9830     0.8580 H     1 <1>   0.0800 
 17 H       -2.7450     1.2480    -0.8670 H     1 <1>   0.0800 
 18 H       -3.3390     2.4610     0.2390 H     1 <1>   0.0800 
 19 H        0.3370     5.3490     0.4680 H     1 <1>   0.1500 
 20 H        3.7460     2.9950    -0.9840 H     1 <1>   0.0800 
 21 H        3.8460     2.7280     0.7630 H     1 <1>   0.0800 
 22 H        4.8280     4.9760     1.0430 H     1 <1>   0.0800 
 23 H        4.7280     5.2410    -0.6920 H     1 <1>   0.0800 
 24 H        6.3050     3.3720    -1.0640 H     1 <1>   0.0800 
 25 H        6.4040     3.1080     0.6650 H     1 <1>   0.0800 
 26 H        7.1710     5.6180    -0.7230 H     1 <1>   0.4500 
 27 H        8.2410     4.5020    -0.1150 H     1 <1>   0.4500 
 28 H        7.2640     5.3680     0.9130 H     1 <1>   0.4500 
@<TRIPOS>BOND
  1   1   2  1   
  2   2   3  ar  
  3   2   4  ar  
  4   3   5  ar  
  5   3   6  1   
  6   4   7  ar  
  7   4  14  1   
  8   5   8  ar  
  9   5  15  1   
 10   6  16  1   
 11   6  17  1   
 12   6  18  1   
 13   7   8  ar  
 14   7   9  1   
 15   8  19  1   
 16   9  10  1   
 17  10  11  1   
 18  10  20  1   
 19  10  21  1   
 20  11  12  1   
 21  11  22  1   
 22  11  23  1   
 23  12  13  1   
 24  12  24  1   
 25  12  25  1   
 26  13  26  1   
 27  13  27  1   
 28  13  28  1   
@<TRIPOS>SUBSTRUCTURE
  1 ****   7 GROUP 4 **** **** 0

# MOE 2024.06 (io_trps.svl 2023.06)
