@<TRIPOS>MOLECULE
NONAME
47 49 1 0 0 
SMALL
USER_CHARGES


@<TRIPOS>ATOM
  1 CL      -0.1800     0.2620    -0.9050 Cl    1 <1>  -0.1770 
  2 C       -1.5970    -0.6960    -0.5270 C.ar  1 <1>   0.1770 
  3 C       -2.8790    -0.1510    -0.4160 C.ar  1 <1>   0.0820 
  4 C       -1.4000    -2.0540    -0.3640 C.ar  1 <1>  -0.1500 
  5 O       -3.1950     1.1630    -0.5450 O.3   1 <1>  -0.3630 
  6 C       -3.9430    -1.0020    -0.1610 C.ar  1 <1>  -0.1500 
  7 C       -2.4790    -2.8810    -0.1010 C.ar  1 <1>  -0.1500 
  8 C       -2.3760     2.1670     0.0090 C.3   1 <1>   0.1200 
  9 C       -3.7690    -2.3710     0.0040 C.ar  1 <1>  -0.0090 
 10 C       -3.2630     3.3600     0.3520 C.3   1 <1>  -0.2400 
 11 S       -5.1830    -3.4650     0.3100 S.o2  1 <1>   1.4470 
 12 O       -6.3060    -2.7140     0.8180 O.2   1 <1>  -0.6500 
 13 O       -4.7410    -4.6590     0.9900 O.2   1 <1>  -0.6500 
 14 N       -5.6820    -3.8730    -1.2420 N.am  1 <1>  -0.9140 
 15 C       -6.2490    -5.2040    -1.4930 C.3   1 <1>   0.2760 
 16 C       -7.3260    -5.6770    -0.5050 C.3   1 <1>  -0.0800 
 17 C       -5.2260    -6.3440    -1.5150 C.3   1 <1>   0.1200 
 18 C       -6.7750    -7.0230    -0.0250 C.3   1 <1>   0.1200 
 19 C       -8.6950    -5.8210    -1.1940 C.3   1 <1>  -0.0170 
 20 O       -5.9160    -7.4500    -1.0290 O.3   1 <1>  -0.5600 
 21 C       -9.7680    -6.2770    -0.2170 C.ar  1 <1>  -0.1430 
 22 C      -10.3140    -7.5440    -0.2680 C.ar  1 <1>  -0.1500 
 23 C      -10.2520    -5.4460     0.7730 C.ar  1 <1>  -0.1500 
 24 C      -11.2880    -7.9080     0.6470 C.ar  1 <1>   0.1600 
 25 C      -11.2290    -5.9080     1.6390 C.ar  1 <1>   0.1600 
 26 N      -11.7590    -7.1200     1.6000 N.ar  1 <1>  -0.6200 
 27 H       -0.4080    -2.4600    -0.4490 H     1 <1>   0.1500 
 28 H       -4.9290    -0.5760    -0.0860 H     1 <1>   0.1500 
 29 H       -2.3170    -3.9400     0.0240 H     1 <1>   0.1500 
 30 H       -1.8980     1.7820     0.8940 H     1 <1>   0.0800 
 31 H       -1.6390     2.4460    -0.7230 H     1 <1>   0.0800 
 32 H       -4.0070     3.0730     1.0730 H     1 <1>   0.0800 
 33 H       -3.7460     3.7280    -0.5360 H     1 <1>   0.0800 
 34 H       -2.6650     4.1490     0.7700 H     1 <1>   0.0800 
 35 H       -6.4210    -3.1950    -1.4190 H     1 <1>   0.4200 
 36 H       -6.6750    -5.1780    -2.4810 H     1 <1>   0.0800 
 37 H       -7.4380    -5.0290     0.3430 H     1 <1>   0.0800 
 38 H       -4.3880    -6.1650    -0.8670 H     1 <1>   0.0800 
 39 H       -4.8850    -6.5610    -2.5120 H     1 <1>   0.0800 
 40 H       -7.5330    -7.7700     0.1350 H     1 <1>   0.0800 
 41 H       -6.1950    -6.9000     0.8750 H     1 <1>   0.0800 
 42 H       -8.6210    -6.5250    -2.0060 H     1 <1>   0.0800 
 43 H       -8.9910    -4.8730    -1.6080 H     1 <1>   0.0800 
 44 H       -9.9910    -8.2540    -1.0080 H     1 <1>   0.1500 
 45 H       -9.8790    -4.4430     0.8810 H     1 <1>   0.1500 
 46 H      -11.7020    -8.9000     0.5910 H     1 <1>   0.1500 
 47 H      -11.5930    -5.2450     2.4050 H     1 <1>   0.1500 
@<TRIPOS>BOND
  1   1   2  1   
  2   2   3  ar  
  3   2   4  ar  
  4   3   5  1   
  5   3   6  ar  
  6   4   7  ar  
  7   4  27  1   
  8   5   8  1   
  9   6   9  ar  
 10   6  28  1   
 11   7   9  ar  
 12   7  29  1   
 13   8  10  1   
 14   8  30  1   
 15   8  31  1   
 16   9  11  1   
 17  10  32  1   
 18  10  33  1   
 19  10  34  1   
 20  11  12  2   
 21  11  13  2   
 22  11  14  am  
 23  14  15  1   
 24  14  35  1   
 25  15  16  1   
 26  15  17  1   
 27  15  36  1   
 28  16  18  1   
 29  16  19  1   
 30  16  37  1   
 31  17  20  1   
 32  17  38  1   
 33  17  39  1   
 34  18  20  1   
 35  18  40  1   
 36  18  41  1   
 37  19  21  1   
 38  19  42  1   
 39  19  43  1   
 40  21  22  ar  
 41  21  23  ar  
 42  22  24  ar  
 43  22  44  1   
 44  23  25  ar  
 45  23  45  1   
 46  24  26  ar  
 47  24  46  1   
 48  25  26  ar  
 49  25  47  1   
@<TRIPOS>SUBSTRUCTURE
  1 ****  11 GROUP 4 **** **** 0

# MOE 2024.06 (io_trps.svl 2023.06)
