@<TRIPOS>MOLECULE
NONAME
52 54 1 0 0 
SMALL
USER_CHARGES


@<TRIPOS>ATOM
  1 S       -1.0720    -0.5160     0.7090 S.3   1 <1>  -0.0800 
  2 C       -2.3650     0.6700     0.9220 C.2   1 <1>  -0.0450 
  3 C        0.1120     0.7240     0.3600 C.2   1 <1>  -0.1100 
  4 C       -3.6900     0.1960     1.2480 C.2   1 <1>   0.7150 
  5 C       -1.8440     1.9110     0.7310 C.2   1 <1>  -0.1500 
  6 C       -0.4540     1.9420     0.4120 C.2   1 <1>  -0.1500 
  7 O       -3.8310    -0.8040     1.9300 O.2   1 <1>  -0.5700 
  8 N       -4.8210     0.8540     0.8070 N.am  1 <1>  -0.6600 
  9 C       -4.8100     1.7360    -0.3940 C.3   1 <1>   0.1400 
 10 C       -6.1530     0.5330     1.3930 C.3   1 <1>   0.1400 
 11 C       -6.1620     1.6760    -1.1060 C.3   1 <1>  -0.1600 
 12 C       -7.1080     1.7220     1.2510 C.3   1 <1>  -0.1600 
 13 C       -7.2980     2.2230    -0.2070 C.3   1 <1>   0.2800 
 14 O       -7.1190     3.6250    -0.1370 O.3   1 <1>  -0.5600 
 15 C       -8.7360     1.8690    -0.7360 C.3   1 <1>   0.2000 
 16 C       -7.6940     4.4220    -1.1280 C.3   1 <1>   0.1200 
 17 O       -8.7230     1.6060    -2.1190 O.3   1 <1>  -0.6800 
 18 C       -9.7500     3.0170    -0.4420 C.3   1 <1>   0.3000 
 19 C       -9.2280     4.3050    -1.1130 C.3   1 <1>  -0.1600 
 20 N       -9.8210     3.3300     1.0070 N.am  1 <1>  -0.7300 
 21 C      -11.1630     2.7180    -0.9680 C.3   1 <1>  -0.2400 
 22 C      -10.4040     2.7480     2.0890 C.2   1 <1>   0.5690 
 23 O      -10.1930     3.2330     3.1730 O.2   1 <1>  -0.5700 
 24 C      -11.3080     1.5140     2.0300 C.3   1 <1>   0.1810 
 25 O      -10.6610     0.4070     1.4550 O.3   1 <1>  -0.5600 
 26 C      -11.4340    -0.7480     1.4250 C.3   1 <1>   0.0400 
 27 H        1.1190     0.4060     0.1520 H     1 <1>   0.1500 
 28 H       -2.4040     2.8260     0.8170 H     1 <1>   0.1500 
 29 H        0.0570     2.8730     0.2400 H     1 <1>   0.1500 
 30 H       -4.6100     2.7490    -0.0880 H     1 <1>   0.0800 
 31 H       -4.0350     1.4200    -1.0720 H     1 <1>   0.0800 
 32 H       -6.5590    -0.3290     0.8910 H     1 <1>   0.0800 
 33 H       -6.0400     0.2870     2.4360 H     1 <1>   0.0800 
 34 H       -6.3600     0.6520    -1.3680 H     1 <1>   0.0800 
 35 H       -6.1040     2.2300    -2.0230 H     1 <1>   0.0800 
 36 H       -6.7310     2.5180     1.8700 H     1 <1>   0.0800 
 37 H       -8.0460     1.4190     1.6740 H     1 <1>   0.0800 
 38 H       -9.0700     0.9560    -0.2810 H     1 <1>   0.0800 
 39 H       -7.3960     5.4400    -0.9410 H     1 <1>   0.0800 
 40 H       -7.2920     4.1240    -2.0800 H     1 <1>   0.0800 
 41 H       -8.3790     2.3790    -2.6020 H     1 <1>   0.4000 
 42 H       -9.6550     5.1690    -0.6340 H     1 <1>   0.0800 
 43 H       -9.5520     4.3430    -2.1370 H     1 <1>   0.0800 
 44 H       -9.1180     4.0280     1.2650 H     1 <1>   0.3700 
 45 H      -11.1730     2.7220    -2.0430 H     1 <1>   0.0800 
 46 H      -11.8630     3.4570    -0.6220 H     1 <1>   0.0800 
 47 H      -11.4840     1.7400    -0.6660 H     1 <1>   0.0800 
 48 H      -12.1930     1.7400     1.4650 H     1 <1>   0.0800 
 49 H      -11.5930     1.2510     3.0330 H     1 <1>   0.0800 
 50 H      -10.8530    -1.5290     0.9650 H     1 <1>   0.0800 
 51 H      -12.3230    -0.5680     0.8440 H     1 <1>   0.0800 
 52 H      -11.6890    -1.0330     2.4320 H     1 <1>   0.0800 
@<TRIPOS>BOND
  1   1   2  1   
  2   1   3  1   
  3   2   4  1   
  4   2   5  2   
  5   3   6  2   
  6   3  27  1   
  7   4   7  2   
  8   4   8  am  
  9   5   6  1   
 10   5  28  1   
 11   6  29  1   
 12   8   9  1   
 13   8  10  1   
 14   9  11  1   
 15   9  30  1   
 16   9  31  1   
 17  10  12  1   
 18  10  32  1   
 19  10  33  1   
 20  11  13  1   
 21  11  34  1   
 22  11  35  1   
 23  12  13  1   
 24  12  36  1   
 25  12  37  1   
 26  13  14  1   
 27  13  15  1   
 28  14  16  1   
 29  15  17  1   
 30  15  18  1   
 31  15  38  1   
 32  16  19  1   
 33  16  39  1   
 34  16  40  1   
 35  17  41  1   
 36  18  19  1   
 37  18  20  1   
 38  18  21  1   
 39  19  42  1   
 40  19  43  1   
 41  20  22  am  
 42  20  44  1   
 43  21  45  1   
 44  21  46  1   
 45  21  47  1   
 46  22  23  2   
 47  22  24  1   
 48  24  25  1   
 49  24  48  1   
 50  24  49  1   
 51  25  26  1   
 52  26  50  1   
 53  26  51  1   
 54  26  52  1   
@<TRIPOS>SUBSTRUCTURE
  1 ****  12 GROUP 4 **** **** 0

# MOE 2024.06 (io_trps.svl 2023.06)
