@<TRIPOS>MOLECULE
NONAME
54 56 1 0 0 
SMALL
USER_CHARGES


@<TRIPOS>ATOM
  1 O       -0.6090     0.3150     0.0870 O.2   1 <1>  -0.5700 
  2 C       -1.6980     0.8150    -0.0650 C.2   1 <1>   0.5690 
  3 N       -2.8190     0.0440    -0.1910 N.am  1 <1>  -0.6600 
  4 C       -1.8170     2.3360    -0.1040 C.3   1 <1>  -0.0990 
  5 C       -4.2130     0.5160    -0.3780 C.3   1 <1>   0.1400 
  6 C       -2.7670    -1.4360    -0.1380 C.3   1 <1>   0.1400 
  7 C       -0.4570     3.0590    -0.2100 C.3   1 <1>  -0.1600 
  8 C       -5.0410    -0.7580    -0.5600 C.3   1 <1>   0.2000 
  9 C       -4.2160    -1.8820     0.0640 C.3   1 <1>  -0.0800 
 10 C       -0.5600     4.5910    -0.3330 C.3   1 <1>  -0.0800 
 11 O       -6.2700    -0.6600     0.0720 O.3   1 <1>  -0.6800 
 12 C       -4.5290    -3.2590    -0.5410 C.3   1 <1>  -0.0170 
 13 C        0.8320     5.1750    -0.6240 C.3   1 <1>  -0.1600 
 14 C       -1.1420     5.2400     0.9360 C.3   1 <1>  -0.1600 
 15 C       -3.6950    -4.3490     0.1130 C.ar  1 <1>  -0.1440 
 16 C        0.8230     6.7030    -0.6620 C.3   1 <1>   0.3430 
 17 C       -1.1020     6.7690     0.8730 C.3   1 <1>   0.3430 
 18 C       -4.0760    -4.9350     1.3030 C.ar  1 <1>  -0.1500 
 19 C       -2.5180    -4.8090    -0.4430 C.ar  1 <1>  -0.1500 
 20 N        0.2940     7.2290     0.6280 N.4   1 <1>  -0.9590 
 21 C       -3.2830    -5.9230     1.8650 C.ar  1 <1>   0.1600 
 22 C       -1.7980    -5.8010     0.2020 C.ar  1 <1>   0.1600 
 23 C        0.3870     8.7190     0.6790 C.3   1 <1>   0.2630 
 24 N       -2.1530    -6.3700     1.3430 N.ar  1 <1>  -0.6200 
 25 H       -2.4200     2.6070    -0.9510 H     1 <1>   0.0800 
 26 H       -2.3270     2.6400     0.7900 H     1 <1>   0.0800 
 27 H       -4.5270     1.0550     0.4990 H     1 <1>   0.0800 
 28 H       -4.2880     1.1400    -1.2510 H     1 <1>   0.0800 
 29 H       -2.3750    -1.8020    -1.0720 H     1 <1>   0.0800 
 30 H       -2.1340    -1.7720     0.6680 H     1 <1>   0.0800 
 31 H        0.0520     2.6730    -1.0780 H     1 <1>   0.0800 
 32 H        0.1430     2.8020     0.6470 H     1 <1>   0.0800 
 33 H       -5.2120    -0.9310    -1.6090 H     1 <1>   0.0800 
 34 H       -4.3920    -1.9100     1.1250 H     1 <1>   0.0800 
 35 H       -1.2040     4.8230    -1.1670 H     1 <1>   0.0800 
 36 H       -6.1530    -0.5820     1.0380 H     1 <1>   0.4000 
 37 H       -4.3430    -3.2480    -1.6010 H     1 <1>   0.0800 
 38 H       -5.5730    -3.4800    -0.4000 H     1 <1>   0.0800 
 39 H        1.1800     4.8110    -1.5750 H     1 <1>   0.0800 
 40 H        1.5370     4.8460     0.1200 H     1 <1>   0.0800 
 41 H       -0.5990     4.9080     1.8040 H     1 <1>   0.0800 
 42 H       -2.1660     4.9380     1.0630 H     1 <1>   0.0800 
 43 H        0.2020     7.0390    -1.4770 H     1 <1>   0.0800 
 44 H        1.8260     7.0630    -0.8270 H     1 <1>   0.0800 
 45 H       -1.4680     7.1750     1.8030 H     1 <1>   0.0800 
 46 H       -1.7440     7.1120     0.0770 H     1 <1>   0.0800 
 47 H       -4.9810    -4.6350     1.7980 H     1 <1>   0.1500 
 48 H       -2.1500    -4.4070    -1.3690 H     1 <1>   0.1500 
 49 H        0.8800     6.8330     1.3780 H     1 <1>   0.4500 
 50 H       -3.5970    -6.3680     2.7940 H     1 <1>   0.1500 
 51 H       -0.8810    -6.1460    -0.2450 H     1 <1>   0.1500 
 52 H       -0.2170     9.1600    -0.0970 H     1 <1>   0.0800 
 53 H        1.4080     9.0360     0.5420 H     1 <1>   0.0800 
 54 H        0.0410     9.0840     1.6330 H     1 <1>   0.0800 
@<TRIPOS>BOND
  1   1   2  2   
  2   2   3  am  
  3   2   4  1   
  4   3   5  1   
  5   3   6  1   
  6   4   7  1   
  7   4  25  1   
  8   4  26  1   
  9   5   8  1   
 10   5  27  1   
 11   5  28  1   
 12   6   9  1   
 13   6  29  1   
 14   6  30  1   
 15   7  10  1   
 16   7  31  1   
 17   7  32  1   
 18   8   9  1   
 19   8  11  1   
 20   8  33  1   
 21   9  12  1   
 22   9  34  1   
 23  10  13  1   
 24  10  14  1   
 25  10  35  1   
 26  11  36  1   
 27  12  15  1   
 28  12  37  1   
 29  12  38  1   
 30  13  16  1   
 31  13  39  1   
 32  13  40  1   
 33  14  17  1   
 34  14  41  1   
 35  14  42  1   
 36  15  18  ar  
 37  15  19  ar  
 38  16  20  1   
 39  16  43  1   
 40  16  44  1   
 41  17  20  1   
 42  17  45  1   
 43  17  46  1   
 44  18  21  ar  
 45  18  47  1   
 46  19  22  ar  
 47  19  48  1   
 48  20  23  1   
 49  20  49  1   
 50  21  24  ar  
 51  21  50  1   
 52  22  24  ar  
 53  22  51  1   
 54  23  52  1   
 55  23  53  1   
 56  23  54  1   
@<TRIPOS>SUBSTRUCTURE
  1 ****   2 GROUP 4 **** **** 0

# MOE 2024.06 (io_trps.svl 2023.06)
