@<TRIPOS>MOLECULE
NONAME
28 29 1 0 0 
SMALL
USER_CHARGES


@<TRIPOS>ATOM
  1 CL       0.8430    -1.0870     3.0850 Cl    1 <1>  -0.1770 
  2 C        1.7030    -1.3820     1.5840 C.ar  1 <1>   0.1770 
  3 C        1.5460    -2.5770     0.8930 C.ar  1 <1>   0.4100 
  4 C        2.5480    -0.4390     1.0670 C.ar  1 <1>   0.1600 
  5 N        2.2030    -2.7890    -0.2330 N.ar  1 <1>  -0.6200 
  6 N        0.7090    -3.5770     1.3400 N.pl3 1 <1>  -0.8690 
  7 N        3.2090    -0.6430    -0.0610 N.ar  1 <1>  -0.6200 
  8 C        2.9920    -1.8110    -0.6430 C.ar  1 <1>   0.4770 
  9 C        0.7280    -4.9520     0.8130 C.3   1 <1>   0.2890 
 10 C        3.7440    -2.0530    -1.9300 C.3   1 <1>  -0.0970 
 11 C       -0.1300    -5.0540    -0.4390 C.3   1 <1>  -0.0550 
 12 C        0.1370    -5.9120     1.8470 C.3   1 <1>  -0.1600 
 13 S       -0.5030    -6.7790    -0.6190 S.o2  1 <1>   1.0900 
 14 C       -0.1890    -7.2060     1.0890 C.3   1 <1>  -0.0550 
 15 O       -1.9090    -6.9390    -0.9050 O.2   1 <1>  -0.6500 
 16 O        0.5160    -7.4030    -1.4300 O.2   1 <1>  -0.6500 
 17 H        2.6900     0.4960     1.5790 H     1 <1>   0.1500 
 18 H        0.3030    -3.4560     2.2730 H     1 <1>   0.4000 
 19 H        1.7400    -5.2480     0.5800 H     1 <1>   0.0800 
 20 H        3.3720    -2.9300    -2.4270 H     1 <1>   0.0800 
 21 H        4.7870    -2.1880    -1.7130 H     1 <1>   0.0800 
 22 H        3.6260    -1.2070    -2.5810 H     1 <1>   0.0800 
 23 H        0.3920    -4.6720    -1.2940 H     1 <1>   0.0800 
 24 H       -1.0370    -4.5010    -0.2920 H     1 <1>   0.0800 
 25 H       -0.7770    -5.5010     2.2400 H     1 <1>   0.0800 
 26 H        0.8270    -6.0960     2.6510 H     1 <1>   0.0800 
 27 H       -1.0350    -7.7020     1.5260 H     1 <1>   0.0800 
 28 H        0.6560    -7.8670     1.1350 H     1 <1>   0.0800 
@<TRIPOS>BOND
  1   1   2  1   
  2   2   3  ar  
  3   2   4  ar  
  4   3   5  ar  
  5   3   6  1   
  6   4   7  ar  
  7   4  17  1   
  8   5   8  ar  
  9   6   9  1   
 10   6  18  1   
 11   7   8  ar  
 12   8  10  1   
 13   9  11  1   
 14   9  12  1   
 15   9  19  1   
 16  10  20  1   
 17  10  21  1   
 18  10  22  1   
 19  11  13  1   
 20  11  23  1   
 21  11  24  1   
 22  12  14  1   
 23  12  25  1   
 24  12  26  1   
 25  13  14  1   
 26  13  15  2   
 27  13  16  2   
 28  14  27  1   
 29  14  28  1   
@<TRIPOS>SUBSTRUCTURE
  1 ****   6 GROUP 4 **** **** 0

# MOE 2024.06 (io_trps.svl 2023.06)
