@<TRIPOS>MOLECULE
NONAME
50 52 1 0 0 
SMALL
USER_CHARGES


@<TRIPOS>ATOM
  1 O        0.1040    -1.5060    -1.0130 O.2   1 <1>  -0.5700 
  2 C       -0.6550    -0.5720    -1.1420 C.2   1 <1>   0.5690 
  3 N       -1.8810    -0.5650    -0.5360 N.am  1 <1>  -0.6600 
  4 C       -0.2120     0.5930    -2.0160 C.3   1 <1>   0.0440 
  5 C       -2.8780     0.5350    -0.5660 C.3   1 <1>   0.1400 
  6 C       -2.3620    -1.6760     0.3150 C.3   1 <1>   0.1400 
  7 C        0.1220     1.8480    -1.2160 C.ar  1 <1>  -0.1440 
  8 C       -3.9260     0.1350     0.4760 C.3   1 <1>  -0.0800 
  9 C       -3.8550    -1.4010     0.4990 C.3   1 <1>  -0.0800 
 10 C       -0.4550     3.0660    -1.5400 C.ar  1 <1>  -0.1500 
 11 C        1.0100     1.7820    -0.1540 C.ar  1 <1>  -0.1500 
 12 C       -5.3450     0.7170     0.2580 C.3   1 <1>   0.2800 
 13 C       -4.6580    -2.0540    -0.6470 C.3   1 <1>  -0.1600 
 14 C       -0.1590     4.2080    -0.8130 C.ar  1 <1>   0.0820 
 15 C        1.3130     2.9170     0.5790 C.ar  1 <1>  -0.1500 
 16 O       -5.2140     2.0370    -0.1150 O.3   1 <1>  -0.6800 
 17 C       -6.0740     0.0120    -0.9010 C.3   1 <1>  -0.1600 
 18 C       -6.2060     0.6810     1.5460 C.3   1 <1>  -0.1600 
 19 C       -6.0880    -1.5160    -0.7400 C.3   1 <1>  -0.1600 
 20 O       -0.7750     5.3540    -1.2000 O.3   1 <1>  -0.3620 
 21 C        0.7310     4.1300     0.2540 C.ar  1 <1>  -0.1500 
 22 C       -5.7480     1.5940     2.7000 C.3   1 <1>  -0.2400 
 23 C       -0.5910     6.5580    -0.4910 C.3   1 <1>   0.0400 
 24 H        0.6610     0.2940    -2.5670 H     1 <1>   0.0800 
 25 H       -0.9880     0.7970    -2.7290 H     1 <1>   0.0800 
 26 H       -2.4310     1.4800    -0.3080 H     1 <1>   0.0800 
 27 H       -3.3130     0.5960    -1.5470 H     1 <1>   0.0800 
 28 H       -2.1730    -2.6280    -0.1510 H     1 <1>   0.0800 
 29 H       -1.8500    -1.6330     1.2610 H     1 <1>   0.0800 
 30 H       -3.5520     0.4920     1.4170 H     1 <1>   0.0800 
 31 H       -4.1990    -1.7870     1.4430 H     1 <1>   0.0800 
 32 H       -1.1440     3.1490    -2.3600 H     1 <1>   0.1500 
 33 H        1.4690     0.8420     0.1090 H     1 <1>   0.1500 
 34 H       -4.1630    -1.8690    -1.5860 H     1 <1>   0.0800 
 35 H       -4.6830    -3.1210    -0.5030 H     1 <1>   0.0800 
 36 H        2.0020     2.8530     1.4020 H     1 <1>   0.1500 
 37 H       -6.0920     2.4590    -0.1190 H     1 <1>   0.4000 
 38 H       -7.0870     0.3660    -0.9710 H     1 <1>   0.0800 
 39 H       -5.5810     0.2480    -1.8270 H     1 <1>   0.0800 
 40 H       -7.2180     0.9440     1.2940 H     1 <1>   0.0800 
 41 H       -6.2360    -0.3280     1.9140 H     1 <1>   0.0800 
 42 H       -6.6420    -1.7960     0.1390 H     1 <1>   0.0800 
 43 H       -6.5790    -1.9590    -1.5900 H     1 <1>   0.0800 
 44 H        0.9820     4.9940     0.8370 H     1 <1>   0.1500 
 45 H       -5.7000     2.6210     2.3830 H     1 <1>   0.0800 
 46 H       -4.7820     1.3040     3.0690 H     1 <1>   0.0800 
 47 H       -6.4470     1.5270     3.5140 H     1 <1>   0.0800 
 48 H       -1.1900     7.3170    -0.9620 H     1 <1>   0.0800 
 49 H        0.4480     6.8330    -0.5350 H     1 <1>   0.0800 
 50 H       -0.9120     6.4170     0.5250 H     1 <1>   0.0800 
@<TRIPOS>BOND
  1   1   2  2   
  2   2   3  am  
  3   2   4  1   
  4   3   5  1   
  5   3   6  1   
  6   4   7  1   
  7   4  24  1   
  8   4  25  1   
  9   5   8  1   
 10   5  26  1   
 11   5  27  1   
 12   6   9  1   
 13   6  28  1   
 14   6  29  1   
 15   7  10  ar  
 16   7  11  ar  
 17   8   9  1   
 18   8  12  1   
 19   8  30  1   
 20   9  13  1   
 21   9  31  1   
 22  10  14  ar  
 23  10  32  1   
 24  11  15  ar  
 25  11  33  1   
 26  12  16  1   
 27  12  17  1   
 28  12  18  1   
 29  13  19  1   
 30  13  34  1   
 31  13  35  1   
 32  14  20  1   
 33  14  21  ar  
 34  15  21  ar  
 35  15  36  1   
 36  16  37  1   
 37  17  19  1   
 38  17  38  1   
 39  17  39  1   
 40  18  22  1   
 41  18  40  1   
 42  18  41  1   
 43  19  42  1   
 44  19  43  1   
 45  20  23  1   
 46  21  44  1   
 47  22  45  1   
 48  22  46  1   
 49  22  47  1   
 50  23  48  1   
 51  23  49  1   
 52  23  50  1   
@<TRIPOS>SUBSTRUCTURE
  1 ****   5 GROUP 4 **** **** 0

# MOE 2024.06 (io_trps.svl 2023.06)
