@<TRIPOS>MOLECULE
NONAME
48 50 1 0 0 
SMALL
USER_CHARGES


@<TRIPOS>ATOM
  1 CL       1.3860     0.9250    -2.4700 Cl    1 <1>  -0.1230 
  2 C        2.7340     0.2820    -1.5470 C.2   1 <1>   0.1230 
  3 C        3.7270     1.0220    -0.9030 C.2   1 <1>   0.2030 
  4 C        2.9860    -1.0160    -1.3210 C.2   1 <1>  -0.3020 
  5 N        4.5620     0.1860    -0.2900 N.2   1 <1>  -0.7070 
  6 C        3.7960     2.4760    -0.9430 C.2   1 <1>   0.7160 
  7 N        4.0960    -1.0490    -0.5620 N.pl3 1 <1>   0.3140 
  8 O        3.6630     3.0570    -2.0050 O.2   1 <1>  -0.5700 
  9 N        4.0830     3.2550     0.1750 N.am  1 <1>  -0.6600 
 10 C        4.7510    -2.2690    -0.0690 C.3   1 <1>   0.0160 
 11 C        4.6760     2.6870     1.4170 C.3   1 <1>   0.1400 
 12 C        4.0190     4.7420     0.1300 C.3   1 <1>   0.1400 
 13 C        6.1720     2.3790     1.2030 C.3   1 <1>   0.3430 
 14 C        5.4180     5.3640     0.2360 C.3   1 <1>  -0.1600 
 15 N        7.0290     3.5830     0.9030 N.4   1 <1>  -0.9590 
 16 C        6.5510     4.4450    -0.2290 C.3   1 <1>   0.3430 
 17 C        8.4300     3.1510     0.6660 C.3   1 <1>   0.5230 
 18 C        9.3230     4.3680     0.7570 C.2   1 <1>  -0.1400 
 19 S        9.3360     5.2350     2.2840 S.3   1 <1>  -0.0800 
 20 C       10.1470     4.9640    -0.1270 C.2   1 <1>  -0.1500 
 21 C       10.4820     6.4030     1.6570 C.2   1 <1>  -0.1100 
 22 C       10.8120     6.1300     0.3780 C.2   1 <1>   0.0190 
 23 C       11.7160     6.8820    -0.4370 C.1   1 <1>  -0.0190 
 24 C       12.4670     7.5130    -1.1100 C.1   1 <1>  -0.2000 
 25 C       13.4090     8.3100    -1.9410 C.3   1 <1>   0.3200 
 26 O       12.7980     9.5140    -2.2150 O.3   1 <1>  -0.6800 
 27 H        2.4500    -1.8880    -1.6470 H     1 <1>   0.1500 
 28 H        5.0490    -2.8730    -0.9060 H     1 <1>   0.0800 
 29 H        4.0620    -2.8170     0.5470 H     1 <1>   0.0800 
 30 H        5.6170    -2.0020     0.5080 H     1 <1>   0.0800 
 31 H        4.1570     1.7820     1.6810 H     1 <1>   0.0800 
 32 H        4.5530     3.3720     2.2380 H     1 <1>   0.0800 
 33 H        3.3930     5.0990     0.9310 H     1 <1>   0.0800 
 34 H        3.5580     5.0640    -0.7900 H     1 <1>   0.0800 
 35 H        6.2550     1.6740     0.3930 H     1 <1>   0.0800 
 36 H        6.5430     1.8920     2.0890 H     1 <1>   0.0800 
 37 H        5.5970     5.7060     1.2390 H     1 <1>   0.0800 
 38 H        5.4190     6.2400    -0.3880 H     1 <1>   0.0800 
 39 H        7.0670     4.1830     1.7360 H     1 <1>   0.4500 
 40 H        7.3630     5.0700    -0.5680 H     1 <1>   0.0800 
 41 H        6.2260     3.8410    -1.0630 H     1 <1>   0.0800 
 42 H        8.5220     2.6910    -0.3050 H     1 <1>   0.0800 
 43 H        8.7330     2.4380     1.4160 H     1 <1>   0.0800 
 44 H       10.3360     4.6440    -1.1380 H     1 <1>   0.1500 
 45 H       10.8040     7.1930     2.3130 H     1 <1>   0.1500 
 46 H       13.6170     7.8120    -2.8720 H     1 <1>   0.0800 
 47 H       14.3280     8.5070    -1.4160 H     1 <1>   0.0800 
 48 H       11.8560     9.3540    -2.4100 H     1 <1>   0.4000 
@<TRIPOS>BOND
  1   1   2  1   
  2   2   3  1   
  3   2   4  2   
  4   3   5  2   
  5   3   6  1   
  6   4   7  1   
  7   4  27  1   
  8   5   7  1   
  9   6   8  2   
 10   6   9  am  
 11   7  10  1   
 12   9  11  1   
 13   9  12  1   
 14  10  28  1   
 15  10  29  1   
 16  10  30  1   
 17  11  13  1   
 18  11  31  1   
 19  11  32  1   
 20  12  14  1   
 21  12  33  1   
 22  12  34  1   
 23  13  15  1   
 24  13  35  1   
 25  13  36  1   
 26  14  16  1   
 27  14  37  1   
 28  14  38  1   
 29  15  16  1   
 30  15  17  1   
 31  15  39  1   
 32  16  40  1   
 33  16  41  1   
 34  17  18  1   
 35  17  42  1   
 36  17  43  1   
 37  18  19  1   
 38  18  20  2   
 39  19  21  1   
 40  20  22  1   
 41  20  44  1   
 42  21  22  2   
 43  21  45  1   
 44  22  23  1   
 45  23  24  3   
 46  24  25  1   
 47  25  26  1   
 48  25  46  1   
 49  25  47  1   
 50  26  48  1   
@<TRIPOS>SUBSTRUCTURE
  1 ****  16 GROUP 4 **** **** 0

# MOE 2024.06 (io_trps.svl 2023.06)
