@<TRIPOS>MOLECULE
NONAME
34 36 1 0 0 
SMALL
USER_CHARGES


@<TRIPOS>ATOM
  1 O        2.8510     2.2410     2.6660 O.2   1 <1>  -0.5700 
  2 C        3.0150     1.2600     1.9790 C.2   1 <1>   0.7800 
  3 O        3.8960     0.3270     2.2990 O.3   1 <1>  -0.4300 
  4 N        2.5340     1.0950     0.7220 N.am  1 <1>  -0.6600 
  5 C        4.0530    -0.5940     1.2430 C.3   1 <1>   0.1200 
  6 C        3.3560     0.0710     0.0460 C.3   1 <1>   0.2200 
  7 C        2.0820     2.2670    -0.0800 C.3   1 <1>   0.1400 
  8 C        4.3680     0.7470    -0.9270 C.3   1 <1>   0.3430 
  9 C        3.2900     3.0000    -0.7110 C.3   1 <1>   0.3430 
 10 N        4.5750     2.2050    -0.6010 N.4   1 <1>  -0.9590 
 11 C        5.7020     2.8560    -1.3110 C.3   1 <1>   0.5240 
 12 C        5.9610     4.1780    -0.6260 C.2   1 <1>  -0.1810 
 13 C        6.2850     5.3650    -1.2720 C.2   1 <1>   0.1390 
 14 C        5.9310     4.5030     0.6890 C.2   1 <1>  -0.3020 
 15 N        6.4310     6.3450    -0.4390 N.2   1 <1>  -0.7070 
 16 N        6.2190     5.8170     0.7760 N.pl3 1 <1>   0.3140 
 17 C        6.3130     6.6290     1.9960 C.3   1 <1>   0.0160 
 18 H        3.5520    -1.5060     1.5230 H     1 <1>   0.0800 
 19 H        5.1000    -0.7850     1.0860 H     1 <1>   0.0800 
 20 H        2.7460    -0.6480    -0.4750 H     1 <1>   0.0800 
 21 H        1.5320     2.9510     0.5470 H     1 <1>   0.0800 
 22 H        1.4130     1.9310    -0.8540 H     1 <1>   0.0800 
 23 H        3.9880     0.6590    -1.9320 H     1 <1>   0.0800 
 24 H        5.3050     0.2160    -0.8890 H     1 <1>   0.0800 
 25 H        3.4130     3.9490    -0.2130 H     1 <1>   0.0800 
 26 H        3.0680     3.2090    -1.7450 H     1 <1>   0.0800 
 27 H        4.8230     2.2610     0.3990 H     1 <1>   0.4500 
 28 H        5.4520     3.0160    -2.3480 H     1 <1>   0.0800 
 29 H        6.5890     2.2470    -1.2540 H     1 <1>   0.0800 
 30 H        6.4040     5.4900    -2.3370 H     1 <1>   0.1500 
 31 H        5.7300     3.9100     1.5640 H     1 <1>   0.1500 
 32 H        5.7600     6.1600     2.7880 H     1 <1>   0.0800 
 33 H        5.9070     7.6040     1.7990 H     1 <1>   0.0800 
 34 H        7.3460     6.7220     2.2750 H     1 <1>   0.0800 
@<TRIPOS>BOND
  1   1   2  2   
  2   2   3  1   
  3   2   4  am  
  4   3   5  1   
  5   4   6  1   
  6   4   7  1   
  7   5   6  1   
  8   5  18  1   
  9   5  19  1   
 10   6   8  1   
 11   6  20  1   
 12   7   9  1   
 13   7  21  1   
 14   7  22  1   
 15   8  10  1   
 16   8  23  1   
 17   8  24  1   
 18   9  10  1   
 19   9  25  1   
 20   9  26  1   
 21  10  11  1   
 22  10  27  1   
 23  11  12  1   
 24  11  28  1   
 25  11  29  1   
 26  12  13  1   
 27  12  14  2   
 28  13  15  2   
 29  13  30  1   
 30  14  16  1   
 31  14  31  1   
 32  15  16  1   
 33  16  17  1   
 34  17  32  1   
 35  17  33  1   
 36  17  34  1   
@<TRIPOS>SUBSTRUCTURE
  1 ****  10 GROUP 4 **** **** 0

# MOE 2024.06 (io_trps.svl 2023.06)
