@<TRIPOS>MOLECULE
NONAME
54 57 1 0 0 
SMALL
USER_CHARGES


@<TRIPOS>ATOM
  1 O       -3.3480     2.9960     1.5770 O.2   1 <1>  -0.5700 
  2 C       -3.4550     2.5020     0.4740 C.2   1 <1>   0.5690 
  3 N       -4.4830     1.6320     0.1810 N.am  1 <1>  -0.6600 
  4 C       -2.3900     2.8850    -0.5820 C.3   1 <1>   0.2810 
  5 C       -4.7420     1.0000    -1.1430 C.3   1 <1>   0.1400 
  6 C       -5.4360     1.1760     1.2310 C.3   1 <1>   0.1400 
  7 N       -1.0870     3.2160     0.0460 N.am  1 <1>  -0.7300 
  8 C       -2.8220     4.1000    -1.4060 C.3   1 <1>  -0.2400 
  9 C       -4.5680    -0.5130    -1.0050 C.3   1 <1>  -0.1600 
 10 C       -5.2840    -0.3360     1.4090 C.3   1 <1>  -0.1600 
 11 C        0.1170     2.7560    -0.3630 C.2   1 <1>   0.5690 
 12 C       -5.4860    -1.0830     0.0830 C.3   1 <1>   0.4600 
 13 O        0.2390     2.0720    -1.3500 O.2   1 <1>  -0.5700 
 14 C        1.3430     3.1080     0.4580 C.3   1 <1>  -0.0990 
 15 O       -6.8060    -0.8720    -0.3700 O.3   1 <1>  -0.5600 
 16 C       -5.2430    -2.5780     0.2490 C.2   1 <1>  -0.3320 
 17 C        1.7360     4.5880     0.3300 C.3   1 <1>  -0.2400 
 18 C       -7.8310    -1.6680     0.1760 C.3   1 <1>   0.1200 
 19 N       -4.0490    -3.1810     0.5350 N.pl3 1 <1>   0.0330 
 20 C       -6.1990    -3.5200     0.1300 C.2   1 <1>  -0.1810 
 21 C       -7.6300    -3.1520    -0.1740 C.3   1 <1>   0.0210 
 22 C       -4.2620    -4.5380     0.5920 C.ar  1 <1>  -0.1520 
 23 C       -5.6090    -4.7840     0.3370 C.ar  1 <1>   0.0000 
 24 C       -3.3780    -5.5890     0.8460 C.ar  1 <1>  -0.1500 
 25 C       -6.0840    -6.0990     0.3340 C.ar  1 <1>  -0.1500 
 26 C       -3.8590    -6.8780     0.8410 C.ar  1 <1>  -0.1500 
 27 C       -5.2120    -7.1330     0.5850 C.ar  1 <1>  -0.1500 
 28 H       -2.2370     2.0480    -1.2380 H     1 <1>   0.0800 
 29 H       -4.0850     1.3760    -1.9040 H     1 <1>   0.0800 
 30 H       -5.7520     1.2220    -1.4460 H     1 <1>   0.0800 
 31 H       -6.4410     1.4140     0.9260 H     1 <1>   0.0800 
 32 H       -5.2450     1.6720     2.1680 H     1 <1>   0.0800 
 33 H       -1.1870     3.6950     0.9450 H     1 <1>   0.3700 
 34 H       -2.9600     4.9530    -0.7660 H     1 <1>   0.0800 
 35 H       -3.7520     3.8940    -1.9050 H     1 <1>   0.0800 
 36 H       -2.0770     4.3240    -2.1490 H     1 <1>   0.0800 
 37 H       -3.5420    -0.7220    -0.7660 H     1 <1>   0.0800 
 38 H       -4.7910    -0.9970    -1.9390 H     1 <1>   0.0800 
 39 H       -5.9770    -0.6940     2.1450 H     1 <1>   0.0800 
 40 H       -4.2970    -0.5340     1.7820 H     1 <1>   0.0800 
 41 H        2.1620     2.4950     0.1270 H     1 <1>   0.0800 
 42 H        1.1500     2.8700     1.4870 H     1 <1>   0.0800 
 43 H        1.9370     4.8270    -0.7000 H     1 <1>   0.0800 
 44 H        2.6200     4.7890     0.9090 H     1 <1>   0.0800 
 45 H        0.9410     5.2220     0.6810 H     1 <1>   0.0800 
 46 H       -8.7670    -1.3160    -0.2210 H     1 <1>   0.0800 
 47 H       -7.8370    -1.5340     1.2430 H     1 <1>   0.0800 
 48 H       -3.1460    -2.7210     0.6780 H     1 <1>   0.2700 
 49 H       -7.8340    -3.3150    -1.2170 H     1 <1>   0.0800 
 50 H       -8.3010    -3.7560     0.4080 H     1 <1>   0.0800 
 51 H       -2.3410    -5.3840     1.0410 H     1 <1>   0.1500 
 52 H       -7.1230    -6.2790     0.1350 H     1 <1>   0.1500 
 53 H       -3.1980    -7.7050     1.0340 H     1 <1>   0.1500 
 54 H       -5.5620    -8.1510     0.5860 H     1 <1>   0.1500 
@<TRIPOS>BOND
  1   1   2  2   
  2   2   3  am  
  3   2   4  1   
  4   3   5  1   
  5   3   6  1   
  6   4   7  1   
  7   4   8  1   
  8   4  28  1   
  9   5   9  1   
 10   5  29  1   
 11   5  30  1   
 12   6  10  1   
 13   6  31  1   
 14   6  32  1   
 15   7  11  am  
 16   7  33  1   
 17   8  34  1   
 18   8  35  1   
 19   8  36  1   
 20   9  12  1   
 21   9  37  1   
 22   9  38  1   
 23  10  12  1   
 24  10  39  1   
 25  10  40  1   
 26  11  13  2   
 27  11  14  1   
 28  12  15  1   
 29  12  16  1   
 30  14  17  1   
 31  14  41  1   
 32  14  42  1   
 33  15  18  1   
 34  16  19  1   
 35  16  20  2   
 36  17  43  1   
 37  17  44  1   
 38  17  45  1   
 39  18  21  1   
 40  18  46  1   
 41  18  47  1   
 42  19  22  1   
 43  19  48  1   
 44  20  21  1   
 45  20  23  1   
 46  21  49  1   
 47  21  50  1   
 48  22  23  ar  
 49  22  24  ar  
 50  23  25  ar  
 51  24  26  ar  
 52  24  51  1   
 53  25  27  ar  
 54  25  52  1   
 55  26  27  ar  
 56  26  53  1   
 57  27  54  1   
@<TRIPOS>SUBSTRUCTURE
  1 ****   9 GROUP 4 **** **** 0

# MOE 2024.06 (io_trps.svl 2023.06)
