@<TRIPOS>MOLECULE
NONAME
48 49 1 0 0 
SMALL
USER_CHARGES


@<TRIPOS>ATOM
  1 S       -0.3710     0.1120     0.0040 S.o2  1 <1>   1.3330 
  2 O       -0.6280    -0.2550     1.3780 O.2   1 <1>  -0.6500 
  3 O       -0.9650     1.3150    -0.5340 O.2   1 <1>  -0.6500 
  4 N       -0.8340    -1.1940    -0.9760 N.am  1 <1>  -0.8490 
  5 C        1.3970     0.2040    -0.2810 C.3   1 <1>  -0.0550 
  6 C       -0.6630    -2.4990    -0.3270 C.3   1 <1>   0.1160 
  7 C       -2.2080    -1.0600    -1.4690 C.3   1 <1>   0.1160 
  8 C        2.0770     1.3880     0.4350 C.3   1 <1>  -0.0800 
  9 C        3.5150     1.5520    -0.0250 C.3   1 <1>   0.2200 
 10 C        2.2500     1.1320     1.9370 C.3   1 <1>   0.1200 
 11 N        3.9460     2.9460     0.2220 N.am  1 <1>  -0.7300 
 12 C        4.2570     0.6130     0.9190 C.3   1 <1>   0.1200 
 13 O        3.5330     0.6080     2.1150 O.3   1 <1>  -0.5600 
 14 C        4.3760     3.8230    -0.7340 C.2   1 <1>   0.5440 
 15 O        4.4360     3.4320    -1.8840 O.2   1 <1>  -0.5700 
 16 C        4.7630     5.1760    -0.3790 C.ar  1 <1>   0.0860 
 17 C        5.6970     5.8780    -1.1420 C.ar  1 <1>  -0.1500 
 18 C        4.2260     5.8320     0.7300 C.ar  1 <1>  -0.1500 
 19 C        6.0950     7.1640    -0.8180 C.ar  1 <1>  -0.1440 
 20 C        4.6110     7.1150     1.0690 C.ar  1 <1>  -0.1500 
 21 C        5.5520     7.7930     0.2990 C.ar  1 <1>   0.0820 
 22 C        7.1200     7.8800    -1.6860 C.3   1 <1>  -0.0970 
 23 O        5.9700     9.0510     0.5840 O.3   1 <1>  -0.3620 
 24 C        5.4690     9.7800     1.6820 C.3   1 <1>   0.0400 
 25 H        1.8580    -0.7150     0.0240 H     1 <1>   0.0800 
 26 H        1.5520     0.3120    -1.3380 H     1 <1>   0.0800 
 27 H       -0.8810    -3.2900    -1.0230 H     1 <1>   0.0800 
 28 H       -1.3220    -2.5870     0.5220 H     1 <1>   0.0800 
 29 H        0.3520    -2.6150     0.0120 H     1 <1>   0.0800 
 30 H       -2.4630    -1.8960    -2.0980 H     1 <1>   0.0800 
 31 H       -2.3040    -0.1600    -2.0540 H     1 <1>   0.0800 
 32 H       -2.9000    -1.0120    -0.6440 H     1 <1>   0.0800 
 33 H        1.5060     2.2820     0.2480 H     1 <1>   0.0800 
 34 H        3.6650     1.2850    -1.0580 H     1 <1>   0.0800 
 35 H        1.5340     0.4400     2.3440 H     1 <1>   0.0800 
 36 H        2.1990     2.0560     2.4870 H     1 <1>   0.0800 
 37 H        4.0370     3.1900     1.2100 H     1 <1>   0.3700 
 38 H        5.2680     0.9280     1.1080 H     1 <1>   0.0800 
 39 H        4.2550    -0.3920     0.5340 H     1 <1>   0.0800 
 40 H        6.1140     5.3930    -2.0070 H     1 <1>   0.1500 
 41 H        3.4880     5.3350     1.3330 H     1 <1>   0.1500 
 42 H        4.1680     7.5750     1.9310 H     1 <1>   0.1500 
 43 H        7.4360     7.2620    -2.5070 H     1 <1>   0.0800 
 44 H        7.9810     8.1360    -1.0960 H     1 <1>   0.0800 
 45 H        6.6930     8.7840    -2.0820 H     1 <1>   0.0800 
 46 H        5.9500    10.7420     1.6900 H     1 <1>   0.0800 
 47 H        5.7000     9.2490     2.5880 H     1 <1>   0.0800 
 48 H        4.4070     9.9030     1.5640 H     1 <1>   0.0800 
@<TRIPOS>BOND
  1   1   2  2   
  2   1   3  2   
  3   1   4  am  
  4   1   5  1   
  5   4   6  1   
  6   4   7  1   
  7   5   8  1   
  8   5  25  1   
  9   5  26  1   
 10   6  27  1   
 11   6  28  1   
 12   6  29  1   
 13   7  30  1   
 14   7  31  1   
 15   7  32  1   
 16   8   9  1   
 17   8  10  1   
 18   8  33  1   
 19   9  11  1   
 20   9  12  1   
 21   9  34  1   
 22  10  13  1   
 23  10  35  1   
 24  10  36  1   
 25  11  14  am  
 26  11  37  1   
 27  12  13  1   
 28  12  38  1   
 29  12  39  1   
 30  14  15  2   
 31  14  16  1   
 32  16  17  ar  
 33  16  18  ar  
 34  17  19  ar  
 35  17  40  1   
 36  18  20  ar  
 37  18  41  1   
 38  19  21  ar  
 39  19  22  1   
 40  20  21  ar  
 41  20  42  1   
 42  21  23  1   
 43  22  43  1   
 44  22  44  1   
 45  22  45  1   
 46  23  24  1   
 47  24  46  1   
 48  24  47  1   
 49  24  48  1   
@<TRIPOS>SUBSTRUCTURE
  1 ****  11 GROUP 4 **** **** 0

# MOE 2024.06 (io_trps.svl 2023.06)
