@<TRIPOS>MOLECULE
NONAME
46 48 1 0 0 
SMALL
USER_CHARGES


@<TRIPOS>ATOM
  1 F       -1.2630    -0.2840     1.0980 F     1 <1>  -0.1900 
  2 C       -2.2710    -1.0400     0.7210 C.ar  1 <1>   0.1900 
  3 C       -3.5700    -0.8760     1.1880 C.ar  1 <1>   0.3920 
  4 C       -2.0250    -2.0400    -0.1800 C.ar  1 <1>   0.1600 
  5 O       -3.9820     0.0590     2.0760 O.3   1 <1>  -0.3630 
  6 N       -4.5320    -1.6680     0.7680 N.ar  1 <1>  -0.6200 
  7 N       -2.9820    -2.8370    -0.6050 N.ar  1 <1>  -0.6200 
  8 C       -3.1400     1.0090     2.6910 C.3   1 <1>   0.0400 
  9 C       -4.1990    -2.6140    -0.1060 C.ar  1 <1>   0.7200 
 10 N       -5.2060    -3.4460    -0.5430 N.pl3 1 <1>  -0.8380 
 11 C       -4.9980    -4.3040    -1.7730 C.3   1 <1>   0.2700 
 12 C       -6.6230    -3.2770    -0.0940 C.3   1 <1>   0.2090 
 13 C       -6.1990    -5.1400    -2.2490 C.2   1 <1>   0.5690 
 14 C       -7.4020    -4.6010    -0.1320 C.3   1 <1>   0.1400 
 15 O       -6.1230    -5.6720    -3.3340 O.2   1 <1>  -0.5700 
 16 N       -7.3140    -5.2720    -1.4630 N.am  1 <1>  -0.6600 
 17 C       -8.4500    -6.1530    -1.8520 C.3   1 <1>   0.2840 
 18 C       -8.8320    -7.0770    -0.7040 C.ar  1 <1>  -0.1430 
 19 C       -7.9480    -8.0580    -0.2830 C.ar  1 <1>  -0.1500 
 20 C      -10.0580    -6.9490    -0.0700 C.ar  1 <1>  -0.1500 
 21 C       -8.2790    -8.9040     0.7620 C.ar  1 <1>  -0.1430 
 22 C      -10.3990    -7.7880     0.9780 C.ar  1 <1>  -0.1430 
 23 C       -9.5060    -8.7630     1.3880 C.ar  1 <1>  -0.1500 
 24 C       -7.3040    -9.9730     1.2200 C.3   1 <1>  -0.0970 
 25 C      -11.7420    -7.6480     1.6720 C.3   1 <1>  -0.0970 
 26 H       -1.0290    -2.1880    -0.5580 H     1 <1>   0.1500 
 27 H       -3.7410     1.6060     3.3530 H     1 <1>   0.0800 
 28 H       -2.7040     1.6360     1.9330 H     1 <1>   0.0800 
 29 H       -2.3810     0.4950     3.2540 H     1 <1>   0.0800 
 30 H       -4.1890    -4.9850    -1.5830 H     1 <1>   0.0800 
 31 H       -4.7010    -3.6680    -2.5880 H     1 <1>   0.0800 
 32 H       -7.1100    -2.5580    -0.7290 H     1 <1>   0.0800 
 33 H       -6.6550    -2.9020     0.9150 H     1 <1>   0.0800 
 34 H       -8.4320    -4.4010     0.1030 H     1 <1>   0.0800 
 35 H       -7.0130    -5.2640     0.6220 H     1 <1>   0.0800 
 36 H       -8.1850    -6.7510    -2.7070 H     1 <1>   0.0800 
 37 H       -9.2870    -5.5380    -2.1290 H     1 <1>   0.0800 
 38 H       -6.9950    -8.1550    -0.7740 H     1 <1>   0.1500 
 39 H      -10.7520    -6.1930    -0.3930 H     1 <1>   0.1500 
 40 H       -9.7680    -9.4180     2.2000 H     1 <1>   0.1500 
 41 H       -6.6440   -10.2510     0.4170 H     1 <1>   0.0800 
 42 H       -7.8360   -10.8510     1.5400 H     1 <1>   0.0800 
 43 H       -6.7170    -9.6010     2.0390 H     1 <1>   0.0800 
 44 H      -12.1450    -6.6630     1.5270 H     1 <1>   0.0800 
 45 H      -11.6340    -7.8190     2.7280 H     1 <1>   0.0800 
 46 H      -12.4330    -8.3680     1.2720 H     1 <1>   0.0800 
@<TRIPOS>BOND
  1   1   2  1   
  2   2   3  ar  
  3   2   4  ar  
  4   3   5  1   
  5   3   6  ar  
  6   4   7  ar  
  7   4  26  1   
  8   5   8  1   
  9   6   9  ar  
 10   7   9  ar  
 11   8  27  1   
 12   8  28  1   
 13   8  29  1   
 14   9  10  1   
 15  10  11  1   
 16  10  12  1   
 17  11  13  1   
 18  11  30  1   
 19  11  31  1   
 20  12  14  1   
 21  12  32  1   
 22  12  33  1   
 23  13  15  2   
 24  13  16  am  
 25  14  16  1   
 26  14  34  1   
 27  14  35  1   
 28  16  17  1   
 29  17  18  1   
 30  17  36  1   
 31  17  37  1   
 32  18  19  ar  
 33  18  20  ar  
 34  19  21  ar  
 35  19  38  1   
 36  20  22  ar  
 37  20  39  1   
 38  21  23  ar  
 39  21  24  1   
 40  22  23  ar  
 41  22  25  1   
 42  23  40  1   
 43  24  41  1   
 44  24  42  1   
 45  24  43  1   
 46  25  44  1   
 47  25  45  1   
 48  25  46  1   
@<TRIPOS>SUBSTRUCTURE
  1 ****  14 GROUP 4 **** **** 0

# MOE 2024.06 (io_trps.svl 2023.06)
