@<TRIPOS>MOLECULE
NONAME
48 51 1 0 0 
SMALL
USER_CHARGES


@<TRIPOS>ATOM
  1 O       -1.2710    -1.4420    -0.3710 O.2   1 <1>  -0.5700 
  2 C       -0.1640    -1.8360    -0.0970 C.2   1 <1>   0.5690 
  3 N        0.5200    -2.7840    -0.7700 N.am  1 <1>  -0.6600 
  4 C        0.6260    -1.3440     1.0830 C.3   1 <1>  -0.0990 
  5 C        1.8190    -3.1050    -0.1600 C.3   1 <1>   0.1400 
  6 C        0.0290    -3.5380    -1.9650 C.3   1 <1>   0.2010 
  7 C        1.9970    -2.0240     0.9170 C.3   1 <1>  -0.1600 
  8 C       -0.1620    -5.0360    -1.7030 C.2   1 <1>   0.5690 
  9 O        0.6310    -5.7910    -2.2170 O.2   1 <1>  -0.5700 
 10 N       -1.1820    -5.5090    -0.9130 N.am  1 <1>  -0.6600 
 11 C       -1.3050    -6.9640    -0.5750 C.3   1 <1>   0.1400 
 12 C       -2.2270    -4.6610    -0.2540 C.3   1 <1>   0.1400 
 13 C       -2.7600    -7.4530    -0.6960 C.3   1 <1>   0.3430 
 14 C       -3.6290    -5.2920    -0.3720 C.3   1 <1>   0.2950 
 15 O       -3.6110    -6.6240     0.0500 O.3   1 <1>  -0.5600 
 16 C       -2.8850    -8.8920    -0.2020 C.ar  1 <1>  -0.1440 
 17 C       -4.6500    -4.5490     0.4940 C.3   1 <1>  -0.1950 
 18 C       -3.1320    -9.1810     1.1330 C.ar  1 <1>  -0.1500 
 19 C       -2.7360    -9.9400    -1.1000 C.ar  1 <1>  -0.1500 
 20 C       -6.1130    -4.5950     0.1850 C.3   1 <1>  -0.2000 
 21 C       -5.3400    -3.3210    -0.0110 C.3   1 <1>  -0.2000 
 22 C       -3.2270   -10.4930     1.5640 C.ar  1 <1>  -0.1500 
 23 C       -2.8300   -11.2520    -0.6710 C.ar  1 <1>  -0.1500 
 24 C       -3.0750   -11.5300     0.6620 C.ar  1 <1>  -0.1500 
 25 H        0.7040    -0.2720     1.0620 H     1 <1>   0.0800 
 26 H        0.1390    -1.6620     1.9860 H     1 <1>   0.0800 
 27 H        1.7780    -4.0880     0.2800 H     1 <1>   0.0800 
 28 H        2.6060    -3.0640    -0.8940 H     1 <1>   0.0800 
 29 H       -0.9000    -3.1170    -2.3030 H     1 <1>   0.0800 
 30 H        0.7420    -3.4200    -2.7610 H     1 <1>   0.0800 
 31 H        2.3480    -2.4500     1.8400 H     1 <1>   0.0800 
 32 H        2.7200    -1.3050     0.5730 H     1 <1>   0.0800 
 33 H       -0.6850    -7.5560    -1.2240 H     1 <1>   0.0800 
 34 H       -0.9670    -7.1210     0.4340 H     1 <1>   0.0800 
 35 H       -1.9780    -4.5390     0.7850 H     1 <1>   0.0800 
 36 H       -2.2670    -3.6860    -0.6990 H     1 <1>   0.0800 
 37 H       -3.0720    -7.4060    -1.7250 H     1 <1>   0.0800 
 38 H       -3.9500    -5.2700    -1.3990 H     1 <1>   0.0800 
 39 H       -4.3700    -4.5530     1.5340 H     1 <1>   0.1000 
 40 H       -3.2550    -8.3800     1.8430 H     1 <1>   0.1500 
 41 H       -2.5430    -9.7410    -2.1400 H     1 <1>   0.1500 
 42 H       -6.4400    -5.1490    -0.6780 H     1 <1>   0.1000 
 43 H       -6.8050    -4.6680     1.0060 H     1 <1>   0.1000 
 44 H       -5.5040    -2.5040     0.6720 H     1 <1>   0.1000 
 45 H       -5.1530    -2.9820    -1.0150 H     1 <1>   0.1000 
 46 H       -3.4200   -10.7040     2.6010 H     1 <1>   0.1500 
 47 H       -2.7130   -12.0580    -1.3740 H     1 <1>   0.1500 
 48 H       -3.1490   -12.5500     0.9960 H     1 <1>   0.1500 
@<TRIPOS>BOND
  1   1   2  2   
  2   2   3  am  
  3   2   4  1   
  4   3   5  1   
  5   3   6  1   
  6   4   7  1   
  7   4  25  1   
  8   4  26  1   
  9   5   7  1   
 10   5  27  1   
 11   5  28  1   
 12   6   8  1   
 13   6  29  1   
 14   6  30  1   
 15   7  31  1   
 16   7  32  1   
 17   8   9  2   
 18   8  10  am  
 19  10  11  1   
 20  10  12  1   
 21  11  13  1   
 22  11  33  1   
 23  11  34  1   
 24  12  14  1   
 25  12  35  1   
 26  12  36  1   
 27  13  15  1   
 28  13  16  1   
 29  13  37  1   
 30  14  15  1   
 31  14  17  1   
 32  14  38  1   
 33  16  18  ar  
 34  16  19  ar  
 35  17  20  1   
 36  17  21  1   
 37  17  39  1   
 38  18  22  ar  
 39  18  40  1   
 40  19  23  ar  
 41  19  41  1   
 42  20  21  1   
 43  20  42  1   
 44  20  43  1   
 45  21  44  1   
 46  21  45  1   
 47  22  24  ar  
 48  22  46  1   
 49  23  24  ar  
 50  23  47  1   
 51  24  48  1   
@<TRIPOS>SUBSTRUCTURE
  1 ****  10 GROUP 4 **** **** 0

# MOE 2024.06 (io_trps.svl 2023.06)
