@<TRIPOS>MOLECULE
NONAME
42 44 1 0 0 
SMALL
USER_CHARGES


@<TRIPOS>ATOM
  1 F       -0.4600    -0.1130    -0.7930 F     1 <1>  -0.1900 
  2 C       -1.4650    -0.9060    -0.4790 C.ar  1 <1>   0.1900 
  3 C       -2.7160    -0.4030    -0.1200 C.ar  1 <1>   0.4100 
  4 C       -1.2750    -2.2590    -0.5210 C.ar  1 <1>   0.1600 
  5 N       -3.6940    -1.2430     0.1650 N.ar  1 <1>  -0.6200 
  6 N       -3.0140     0.9570    -0.0400 N.pl3 1 <1>  -0.8380 
  7 N       -2.2470    -3.1020    -0.2300 N.ar  1 <1>  -0.6200 
  8 C       -3.4010    -2.5300     0.1030 C.ar  1 <1>   0.7200 
  9 C       -4.4170     1.4360    -0.1820 C.3   1 <1>   0.1290 
 10 C       -2.0950     1.8970     0.6560 C.3   1 <1>   0.1290 
 11 N       -4.4390    -3.3390     0.4130 N.pl3 1 <1>  -0.8690 
 12 C       -4.5610    -4.7040    -0.1220 C.3   1 <1>   0.2090 
 13 C       -5.8680    -5.3140     0.3800 C.3   1 <1>  -0.1600 
 14 C       -6.0570    -6.7490    -0.1220 C.3   1 <1>   0.2000 
 15 O       -7.3700    -7.1450     0.2220 O.3   1 <1>  -0.3630 
 16 C       -5.0430    -7.7450     0.4730 C.3   1 <1>   0.1200 
 17 C       -7.6590    -8.4690     0.1380 C.ar  1 <1>   0.0830 
 18 O       -5.3370    -9.0620     0.0460 O.3   1 <1>  -0.3630 
 19 C       -6.6450    -9.4240     0.0360 C.ar  1 <1>   0.0830 
 20 C       -8.9840    -8.8680     0.1500 C.ar  1 <1>  -0.1500 
 21 C       -6.9670   -10.7650    -0.0730 C.ar  1 <1>  -0.1500 
 22 C       -9.3020   -10.2130     0.0470 C.ar  1 <1>  -0.1500 
 23 C       -8.2960   -11.1600    -0.0670 C.ar  1 <1>  -0.1500 
 24 H       -0.3160    -2.6570    -0.7990 H     1 <1>   0.1500 
 25 H       -4.9570     0.8040    -0.8660 H     1 <1>   0.0800 
 26 H       -4.4260     2.4420    -0.5640 H     1 <1>   0.0800 
 27 H       -4.9080     1.4120     0.7760 H     1 <1>   0.0800 
 28 H       -1.3010     1.3590     1.1430 H     1 <1>   0.0800 
 29 H       -2.6330     2.4560     1.4020 H     1 <1>   0.0800 
 30 H       -1.6700     2.5800    -0.0590 H     1 <1>   0.0800 
 31 H       -5.3040    -2.8050     0.4840 H     1 <1>   0.4000 
 32 H       -3.7180    -5.2840     0.2130 H     1 <1>   0.0800 
 33 H       -4.5500    -4.6680    -1.1990 H     1 <1>   0.0800 
 34 H       -6.6870    -4.7150     0.0210 H     1 <1>   0.0800 
 35 H       -5.8730    -5.3100     1.4560 H     1 <1>   0.0800 
 36 H       -5.9900    -6.7700    -1.1970 H     1 <1>   0.0800 
 37 H       -5.0840    -7.7260     1.5470 H     1 <1>   0.0800 
 38 H       -4.0420    -7.5190     0.1550 H     1 <1>   0.0800 
 39 H       -9.7580    -8.1270     0.2370 H     1 <1>   0.1500 
 40 H       -6.1800   -11.4920    -0.1580 H     1 <1>   0.1500 
 41 H      -10.3330   -10.5220     0.0550 H     1 <1>   0.1500 
 42 H       -8.5470   -12.2030    -0.1490 H     1 <1>   0.1500 
@<TRIPOS>BOND
  1   1   2  1   
  2   2   3  ar  
  3   2   4  ar  
  4   3   5  ar  
  5   3   6  1   
  6   4   7  ar  
  7   4  24  1   
  8   5   8  ar  
  9   6   9  1   
 10   6  10  1   
 11   7   8  ar  
 12   8  11  1   
 13   9  25  1   
 14   9  26  1   
 15   9  27  1   
 16  10  28  1   
 17  10  29  1   
 18  10  30  1   
 19  11  12  1   
 20  11  31  1   
 21  12  13  1   
 22  12  32  1   
 23  12  33  1   
 24  13  14  1   
 25  13  34  1   
 26  13  35  1   
 27  14  15  1   
 28  14  16  1   
 29  14  36  1   
 30  15  17  1   
 31  16  18  1   
 32  16  37  1   
 33  16  38  1   
 34  17  19  ar  
 35  17  20  ar  
 36  18  19  1   
 37  19  21  ar  
 38  20  22  ar  
 39  20  39  1   
 40  21  23  ar  
 41  21  40  1   
 42  22  23  ar  
 43  22  41  1   
 44  23  42  1   
@<TRIPOS>SUBSTRUCTURE
  1 ****  12 GROUP 4 **** **** 0

# MOE 2024.06 (io_trps.svl 2023.06)
