@<TRIPOS>MOLECULE
NONAME
40 41 1 0 0 
SMALL
USER_CHARGES


@<TRIPOS>ATOM
  1 O       -2.6940     1.5020    -2.5810 O.2   1 <1>  -0.5700 
  2 C       -2.1610     1.4900    -1.4980 C.2   1 <1>   0.5690 
  3 N       -2.0760     0.3580    -0.7560 N.am  1 <1>  -0.7300 
  4 C       -1.5710     2.7870    -0.9450 C.3   1 <1>   0.1810 
  5 C       -2.5510    -0.9850    -1.1480 C.3   1 <1>   0.2200 
  6 O       -0.8610     2.5760     0.2560 O.3   1 <1>  -0.5600 
  7 C       -3.6910    -1.3960    -0.2320 C.3   1 <1>  -0.0800 
  8 C       -1.4870    -2.0210    -0.8030 C.3   1 <1>   0.1200 
  9 C       -0.3450     3.7610     0.8200 C.3   1 <1>   0.1810 
 10 C       -2.9420    -1.9510     0.9840 C.3   1 <1>   0.1200 
 11 C       -4.5950    -2.4540    -0.8950 C.3   1 <1>  -0.0170 
 12 O       -1.6690    -2.3330     0.5470 O.3   1 <1>  -0.5600 
 13 C        0.4640     3.4970     2.0910 C.2   1 <1>   0.5690 
 14 C       -5.7480    -2.8500     0.0160 C.ar  1 <1>  -0.1440 
 15 O        0.7970     4.4260     2.7820 O.2   1 <1>  -0.5700 
 16 N        0.8100     2.2400     2.4340 N.am  1 <1>  -0.8000 
 17 C       -5.7750    -4.0580     0.6820 C.ar  1 <1>  -0.1500 
 18 C       -6.8290    -2.0170     0.2200 C.ar  1 <1>  -0.1500 
 19 C       -6.8490    -4.3640     1.5020 C.ar  1 <1>   0.1600 
 20 C       -7.8530    -2.4180     1.0620 C.ar  1 <1>   0.1600 
 21 N       -7.8880    -3.5720     1.7100 N.ar  1 <1>  -0.6200 
 22 H       -1.5970     0.4150     0.1470 H     1 <1>   0.3700 
 23 H       -2.3720     3.4790    -0.7570 H     1 <1>   0.0800 
 24 H       -0.9000     3.2030    -1.6740 H     1 <1>   0.0800 
 25 H       -2.8140    -1.0000    -2.1930 H     1 <1>   0.0800 
 26 H       -4.2950    -0.5490     0.0400 H     1 <1>   0.0800 
 27 H       -0.4870    -1.6550    -0.9590 H     1 <1>   0.0800 
 28 H       -1.6360    -2.9230    -1.3690 H     1 <1>   0.0800 
 29 H        0.2920     4.2390     0.0990 H     1 <1>   0.0800 
 30 H       -1.1660     4.4120     1.0610 H     1 <1>   0.0800 
 31 H       -3.4270    -2.8010     1.4310 H     1 <1>   0.0800 
 32 H       -2.8110    -1.1860     1.7290 H     1 <1>   0.0800 
 33 H       -4.0220    -3.3280    -1.1510 H     1 <1>   0.0800 
 34 H       -5.0010    -2.0540    -1.8080 H     1 <1>   0.0800 
 35 H        1.3450     2.0630     3.2840 H     1 <1>   0.3700 
 36 H        0.5260     1.4370     1.8730 H     1 <1>   0.3700 
 37 H       -4.9730    -4.7650     0.5750 H     1 <1>   0.1500 
 38 H       -6.8850    -1.0600    -0.2660 H     1 <1>   0.1500 
 39 H       -6.8530    -5.3110     2.0150 H     1 <1>   0.1500 
 40 H       -8.6880    -1.7550     1.2100 H     1 <1>   0.1500 
@<TRIPOS>BOND
  1   1   2  2   
  2   2   3  am  
  3   2   4  1   
  4   3   5  1   
  5   3  22  1   
  6   4   6  1   
  7   4  23  1   
  8   4  24  1   
  9   5   7  1   
 10   5   8  1   
 11   5  25  1   
 12   6   9  1   
 13   7  10  1   
 14   7  11  1   
 15   7  26  1   
 16   8  12  1   
 17   8  27  1   
 18   8  28  1   
 19   9  13  1   
 20   9  29  1   
 21   9  30  1   
 22  10  12  1   
 23  10  31  1   
 24  10  32  1   
 25  11  14  1   
 26  11  33  1   
 27  11  34  1   
 28  13  15  2   
 29  13  16  am  
 30  14  17  ar  
 31  14  18  ar  
 32  16  35  1   
 33  16  36  1   
 34  17  19  ar  
 35  17  37  1   
 36  18  20  ar  
 37  18  38  1   
 38  19  21  ar  
 39  19  39  1   
 40  20  21  ar  
 41  20  40  1   
@<TRIPOS>SUBSTRUCTURE
  1 ****   7 GROUP 4 **** **** 0

# MOE 2024.06 (io_trps.svl 2023.06)
