@<TRIPOS>MOLECULE
NONAME
58 61 1 0 0 
SMALL
USER_CHARGES


@<TRIPOS>ATOM
  1 O        0.6050     0.4360     0.1020 O.2   1 <1>  -0.5700 
  2 C        1.7430     0.1650    -0.1920 C.2   1 <1>   0.5690 
  3 N        2.3480    -1.0340    -0.0360 N.am  1 <1>  -0.6600 
  4 C        2.6890     1.1600    -0.7980 C.3   1 <1>  -0.0990 
  5 C        3.7340    -1.0290    -0.5350 C.3   1 <1>   0.1400 
  6 C        1.6980    -2.2680     0.4530 C.3   1 <1>   0.1400 
  7 C        4.0640     0.4680    -0.6690 C.3   1 <1>  -0.0800 
  8 C        2.2120    -2.5950     1.8520 C.3   1 <1>  -0.2400 
  9 C        4.8300     0.9370     0.5760 C.3   1 <1>   0.1400 
 10 N        5.1370     2.3770     0.4630 N.am  1 <1>  -0.7300 
 11 C        6.3050     2.9420     0.0530 C.2   1 <1>   0.7160 
 12 O        7.2600     2.2140    -0.1310 O.2   1 <1>  -0.5700 
 13 C        6.3710     4.3580    -0.1640 C.2   1 <1>  -0.0860 
 14 C        5.2720     5.2250    -0.2530 C.2   1 <1>   0.3720 
 15 C        7.4340     5.1890    -0.3580 C.2   1 <1>   0.0870 
 16 N        5.6450     6.4330    -0.4860 N.2   1 <1>  -0.4100 
 17 N        3.9240     4.8560    -0.1200 N.pl3 1 <1>  -0.8210 
 18 O        6.9480     6.3900    -0.5480 O.3   1 <1>  -0.0190 
 19 C        8.8630     5.0000    -0.3800 C.ar  1 <1>   0.0530 
 20 C        3.0970     5.1360    -1.3300 C.3   1 <1>   0.2090 
 21 C        3.2440     5.4570     1.0610 C.3   1 <1>   0.2090 
 22 C        9.5140     4.1330     0.4980 C.ar  1 <1>  -0.1500 
 23 C        9.6570     5.7070    -1.2850 C.ar  1 <1>  -0.1500 
 24 C        1.9560     6.0330    -0.8710 C.3   1 <1>  -0.1600 
 25 C        1.8180     5.7360     0.6130 C.3   1 <1>  -0.1600 
 26 C       10.8860     3.9680     0.4730 C.ar  1 <1>  -0.1500 
 27 C       11.0300     5.5500    -1.3160 C.ar  1 <1>  -0.1500 
 28 C       11.6580     4.6790    -0.4410 C.ar  1 <1>   0.0820 
 29 O       13.0050     4.5770    -0.5350 O.3   1 <1>  -0.3620 
 30 C       13.7340     3.6850     0.2780 C.3   1 <1>   0.0400 
 31 H        2.6240     2.1000    -0.2830 H     1 <1>   0.0800 
 32 H        2.4260     1.2950    -1.8300 H     1 <1>   0.0800 
 33 H        3.7660    -1.5140    -1.4950 H     1 <1>   0.0800 
 34 H        4.3970    -1.5330     0.1480 H     1 <1>   0.0800 
 35 H        1.9040    -3.0780    -0.2250 H     1 <1>   0.0800 
 36 H        0.6310    -2.1170     0.4870 H     1 <1>   0.0800 
 37 H        4.6780     0.6360    -1.5370 H     1 <1>   0.0800 
 38 H        3.2670    -2.7950     1.8340 H     1 <1>   0.0800 
 39 H        1.7060    -3.4660     2.2260 H     1 <1>   0.0800 
 40 H        2.0110    -1.7740     2.5170 H     1 <1>   0.0800 
 41 H        5.7490     0.3820     0.6730 H     1 <1>   0.0800 
 42 H        4.2410     0.7700     1.4630 H     1 <1>   0.0800 
 43 H        4.3360     3.0260     0.4520 H     1 <1>   0.3700 
 44 H        2.7060     4.2060    -1.7060 H     1 <1>   0.0800 
 45 H        3.6720     5.6120    -2.1080 H     1 <1>   0.0800 
 46 H        3.7270     6.3800     1.3390 H     1 <1>   0.0800 
 47 H        3.2640     4.7800     1.8980 H     1 <1>   0.0800 
 48 H        8.9350     3.5790     1.2140 H     1 <1>   0.1500 
 49 H        9.1890     6.3870    -1.9740 H     1 <1>   0.1500 
 50 H        1.0500     5.8420    -1.4170 H     1 <1>   0.0800 
 51 H        2.2440     7.0610    -1.0130 H     1 <1>   0.0800 
 52 H        1.3800     6.5520     1.1590 H     1 <1>   0.0800 
 53 H        1.2230     4.8510     0.7600 H     1 <1>   0.0800 
 54 H       11.3350     3.2840     1.1670 H     1 <1>   0.1500 
 55 H       11.6270     6.1010    -2.0200 H     1 <1>   0.1500 
 56 H       14.7730     3.7660     0.0150 H     1 <1>   0.0800 
 57 H       13.3860     2.6830     0.0950 H     1 <1>   0.0800 
 58 H       13.5940     3.9590     1.3090 H     1 <1>   0.0800 
@<TRIPOS>BOND
  1   1   2  2   
  2   2   3  am  
  3   2   4  1   
  4   3   5  1   
  5   3   6  1   
  6   4   7  1   
  7   4  31  1   
  8   4  32  1   
  9   5   7  1   
 10   5  33  1   
 11   5  34  1   
 12   6   8  1   
 13   6  35  1   
 14   6  36  1   
 15   7   9  1   
 16   7  37  1   
 17   8  38  1   
 18   8  39  1   
 19   8  40  1   
 20   9  10  1   
 21   9  41  1   
 22   9  42  1   
 23  10  11  am  
 24  10  43  1   
 25  11  12  2   
 26  11  13  1   
 27  13  14  1   
 28  13  15  2   
 29  14  16  2   
 30  14  17  1   
 31  15  18  1   
 32  15  19  1   
 33  16  18  1   
 34  17  20  1   
 35  17  21  1   
 36  19  22  ar  
 37  19  23  ar  
 38  20  24  1   
 39  20  44  1   
 40  20  45  1   
 41  21  25  1   
 42  21  46  1   
 43  21  47  1   
 44  22  26  ar  
 45  22  48  1   
 46  23  27  ar  
 47  23  49  1   
 48  24  25  1   
 49  24  50  1   
 50  24  51  1   
 51  25  52  1   
 52  25  53  1   
 53  26  28  ar  
 54  26  54  1   
 55  27  28  ar  
 56  27  55  1   
 57  28  29  1   
 58  29  30  1   
 59  30  56  1   
 60  30  57  1   
 61  30  58  1   
@<TRIPOS>SUBSTRUCTURE
  1 ****  11 GROUP 4 **** **** 0

# MOE 2024.06 (io_trps.svl 2023.06)
