@<TRIPOS>MOLECULE
NONAME
36 37 1 0 0 
SMALL
USER_CHARGES


@<TRIPOS>ATOM
  1 CL       0.5670    -0.1150    -0.1920 Cl    1 <1>  -0.1770 
  2 C        1.4390     1.3820    -0.0020 C.ar  1 <1>   0.1770 
  3 C        1.0790     2.4810    -0.7560 C.ar  1 <1>  -0.1500 
  4 C        2.4810     1.4530     0.9000 C.ar  1 <1>  -0.1500 
  5 C        1.7740     3.6670    -0.6030 C.ar  1 <1>  -0.1500 
  6 C        3.1700     2.6440     1.0460 C.ar  1 <1>  -0.1500 
  7 C        2.8360     3.7790     0.3020 C.ar  1 <1>   0.0280 
  8 C        3.5720     5.0100     0.4740 C.2   1 <1>  -0.1670 
  9 C        4.6080     5.3090     1.2800 C.2   1 <1>  -0.1360 
 10 C        3.2370     6.2690    -0.3190 C.3   1 <1>   0.2780 
 11 C        5.0200     6.6550     1.1190 C.2   1 <1>   0.6160 
 12 N        4.2280     7.2540     0.1780 N.am  1 <1>  -0.4200 
 13 O        5.9300     7.1780     1.7250 O.2   1 <1>  -0.5700 
 14 C        4.2410     8.5310    -0.3130 C.2   1 <1>   0.7800 
 15 O        3.4410     8.8720    -1.1600 O.2   1 <1>  -0.5700 
 16 O        5.1470     9.3820     0.1620 O.3   1 <1>  -0.4300 
 17 C        5.3440    10.7320    -0.1930 C.3   1 <1>   0.2800 
 18 C        6.5170    11.2020     0.6680 C.3   1 <1>  -0.2400 
 19 C        5.7260    10.8390    -1.6740 C.3   1 <1>  -0.2400 
 20 C        4.0980    11.5550     0.1520 C.3   1 <1>  -0.2400 
 21 H        0.2640     2.4020    -1.4530 H     1 <1>   0.1500 
 22 H        2.7460     0.5860     1.4780 H     1 <1>   0.1500 
 23 H        1.4750     4.5080    -1.2010 H     1 <1>   0.1500 
 24 H        3.9790     2.6870     1.7520 H     1 <1>   0.1500 
 25 H        5.1190     4.6800     1.9830 H     1 <1>   0.1500 
 26 H        2.2380     6.6130    -0.1100 H     1 <1>   0.0800 
 27 H        3.3680     6.1150    -1.3770 H     1 <1>   0.0800 
 28 H        7.3910    10.6120     0.4580 H     1 <1>   0.0800 
 29 H        6.2750    11.1040     1.7110 H     1 <1>   0.0800 
 30 H        6.7430    12.2320     0.4650 H     1 <1>   0.0800 
 31 H        6.5590    10.1950    -1.8920 H     1 <1>   0.0800 
 32 H        6.0070    11.8490    -1.9070 H     1 <1>   0.0800 
 33 H        4.8990    10.5770    -2.3080 H     1 <1>   0.0800 
 34 H        3.8210    11.4010     1.1790 H     1 <1>   0.0800 
 35 H        3.2710    11.2940    -0.4830 H     1 <1>   0.0800 
 36 H        4.3000    12.6010     0.0070 H     1 <1>   0.0800 
@<TRIPOS>BOND
  1   1   2  1   
  2   2   3  ar  
  3   2   4  ar  
  4   3   5  ar  
  5   3  21  1   
  6   4   6  ar  
  7   4  22  1   
  8   5   7  ar  
  9   5  23  1   
 10   6   7  ar  
 11   6  24  1   
 12   7   8  1   
 13   8   9  2   
 14   8  10  1   
 15   9  11  1   
 16   9  25  1   
 17  10  12  1   
 18  10  26  1   
 19  10  27  1   
 20  11  12  am  
 21  11  13  2   
 22  12  14  am  
 23  14  15  2   
 24  14  16  1   
 25  16  17  1   
 26  17  18  1   
 27  17  19  1   
 28  17  20  1   
 29  18  28  1   
 30  18  29  1   
 31  18  30  1   
 32  19  31  1   
 33  19  32  1   
 34  19  33  1   
 35  20  34  1   
 36  20  35  1   
 37  20  36  1   
@<TRIPOS>SUBSTRUCTURE
  1 ****  10 GROUP 4 **** **** 0

# MOE 2024.06 (io_trps.svl 2023.06)
