@<TRIPOS>MOLECULE
NONAME
55 58 1 0 0 
SMALL
USER_CHARGES


@<TRIPOS>ATOM
  1 O       -0.7600     0.2810    -1.0650 O.2   1 <1>  -0.5700 
  2 C       -0.7270     1.3560    -0.5090 C.2   1 <1>   0.5690 
  3 N       -1.8550     2.0040    -0.0730 N.am  1 <1>  -0.5090 
  4 C        0.6450     2.0150    -0.3340 C.3   1 <1>   0.1810 
  5 C       -1.7800     3.3930     0.4830 C.3   1 <1>   0.3640 
  6 C       -3.1960     1.3690    -0.0700 C.3   1 <1>   0.0490 
  7 O        0.6370     3.1080     0.5520 O.3   1 <1>  -0.5600 
  8 C       -2.8230     4.3100    -0.1630 C.ar  1 <1>  -0.1440 
  9 C       -0.3930     4.0400     0.2960 C.3   1 <1>   0.2610 
 10 C       -3.9280     1.2400     1.2300 C.3   1 <1>  -0.2000 
 11 C       -3.3770     0.0240     0.5590 C.3   1 <1>  -0.2000 
 12 C       -3.5360     5.1980     0.6320 C.ar  1 <1>  -0.1500 
 13 C       -3.0450     4.3060    -1.5350 C.ar  1 <1>  -0.1500 
 14 C       -0.2990     5.2750     1.2070 C.2   1 <1>   0.5690 
 15 C       -4.4470     6.0740     0.0700 C.ar  1 <1>  -0.1500 
 16 C       -3.9550     5.1820    -2.0980 C.ar  1 <1>  -0.1500 
 17 O       -0.4160     5.1070     2.4020 O.2   1 <1>  -0.5700 
 18 N       -0.1450     6.5390     0.6870 N.am  1 <1>  -0.6600 
 19 C       -4.6570     6.0730    -1.3050 C.ar  1 <1>   0.0830 
 20 C       -0.0800     7.7320     1.5630 C.3   1 <1>   0.2200 
 21 C       -0.4430     6.9350    -0.7060 C.3   1 <1>   0.2200 
 22 O       -5.5210     6.9050    -1.9380 O.3   1 <1>  -0.3630 
 23 C       -0.3990     8.9260     0.6610 C.3   1 <1>  -0.1600 
 24 C        1.3050     7.8450     2.1990 C.3   1 <1>  -0.2400 
 25 C       -1.0560     8.3240    -0.5770 C.3   1 <1>  -0.1600 
 26 C        0.8590     6.9440    -1.5090 C.3   1 <1>  -0.2400 
 27 C       -6.3220     7.8160    -1.2190 C.3   1 <1>   0.0400 
 28 H        1.0020     2.3550    -1.2880 H     1 <1>   0.0800 
 29 H        1.3370     1.2900     0.0540 H     1 <1>   0.0800 
 30 H       -1.9800     3.3280     1.5380 H     1 <1>   0.0800 
 31 H       -3.7620     1.5920    -0.9590 H     1 <1>   0.1000 
 32 H       -0.2840     4.3440    -0.7260 H     1 <1>   0.0800 
 33 H       -3.4630     1.5580     2.1460 H     1 <1>   0.1000 
 34 H       -4.9940     1.3780     1.2360 H     1 <1>   0.1000 
 35 H       -4.0600    -0.6670     0.0990 H     1 <1>   0.1000 
 36 H       -2.5140    -0.4660     0.9780 H     1 <1>   0.1000 
 37 H       -3.3770     5.2180     1.6980 H     1 <1>   0.1500 
 38 H       -2.5120     3.6220    -2.1730 H     1 <1>   0.1500 
 39 H       -4.9770     6.7480     0.7150 H     1 <1>   0.1500 
 40 H       -4.1280     5.1800    -3.1590 H     1 <1>   0.1500 
 41 H       -0.8330     7.6440     2.3300 H     1 <1>   0.0800 
 42 H       -1.1570     6.2720    -1.1620 H     1 <1>   0.0800 
 43 H       -1.0420     9.6310     1.1570 H     1 <1>   0.0800 
 44 H        0.5080     9.4300     0.3770 H     1 <1>   0.0800 
 45 H        2.0680     7.8760     1.4430 H     1 <1>   0.0800 
 46 H        1.4820     7.0020     2.8430 H     1 <1>   0.0800 
 47 H        1.3640     8.7390     2.7920 H     1 <1>   0.0800 
 48 H       -0.9080     8.9240    -1.4570 H     1 <1>   0.0800 
 49 H       -2.1140     8.2140    -0.4090 H     1 <1>   0.0800 
 50 H        1.5670     7.6290    -1.0780 H     1 <1>   0.0800 
 51 H        0.6610     7.2490    -2.5200 H     1 <1>   0.0800 
 52 H        1.2930     5.9620    -1.5300 H     1 <1>   0.0800 
 53 H       -6.9350     8.3490    -1.9230 H     1 <1>   0.0800 
 54 H       -5.6840     8.5050    -0.6950 H     1 <1>   0.0800 
 55 H       -6.9450     7.2680    -0.5340 H     1 <1>   0.0800 
@<TRIPOS>BOND
  1   1   2  2   
  2   2   3  am  
  3   2   4  1   
  4   3   5  1   
  5   3   6  1   
  6   4   7  1   
  7   4  28  1   
  8   4  29  1   
  9   5   8  1   
 10   5   9  1   
 11   5  30  1   
 12   6  10  1   
 13   6  11  1   
 14   6  31  1   
 15   7   9  1   
 16   8  12  ar  
 17   8  13  ar  
 18   9  14  1   
 19   9  32  1   
 20  10  11  1   
 21  10  33  1   
 22  10  34  1   
 23  11  35  1   
 24  11  36  1   
 25  12  15  ar  
 26  12  37  1   
 27  13  16  ar  
 28  13  38  1   
 29  14  17  2   
 30  14  18  am  
 31  15  19  ar  
 32  15  39  1   
 33  16  19  ar  
 34  16  40  1   
 35  18  20  1   
 36  18  21  1   
 37  19  22  1   
 38  20  23  1   
 39  20  24  1   
 40  20  41  1   
 41  21  25  1   
 42  21  26  1   
 43  21  42  1   
 44  22  27  1   
 45  23  25  1   
 46  23  43  1   
 47  23  44  1   
 48  24  45  1   
 49  24  46  1   
 50  24  47  1   
 51  25  48  1   
 52  25  49  1   
 53  26  50  1   
 54  26  51  1   
 55  26  52  1   
 56  27  53  1   
 57  27  54  1   
 58  27  55  1   
@<TRIPOS>SUBSTRUCTURE
  1 ****   8 GROUP 4 **** **** 0

# MOE 2024.06 (io_trps.svl 2023.06)
