@<TRIPOS>MOLECULE
NONAME
55 58 1 0 0 
SMALL
USER_CHARGES


@<TRIPOS>ATOM
  1 O       -0.0560     0.4780    -0.7170 O.2   1 <1>  -0.5700 
  2 C       -0.0110     1.6660    -0.4390 C.2   1 <1>   0.7150 
  3 N       -1.2100     2.3540    -0.3640 N.am  1 <1>  -0.6600 
  4 C        1.2760     2.2930    -0.1900 C.2   1 <1>   0.0550 
  5 C       -2.4670     1.7360    -0.8830 C.3   1 <1>   0.1400 
  6 C       -1.3340     3.6790     0.3120 C.3   1 <1>   0.1400 
  7 O        1.4840     3.5760    -0.4860 O.3   1 <1>  -0.2800 
  8 C        2.4400     1.7850     0.3160 C.2   1 <1>  -0.1810 
  9 C       -3.4760     2.8180    -1.2720 C.3   1 <1>  -0.1600 
 10 C       -2.7120     3.8060     0.9570 C.3   1 <1>  -0.1600 
 11 C        2.7230     3.8970    -0.1910 C.2   1 <1>  -0.0400 
 12 C        3.3690     2.8260     0.3140 C.2   1 <1>  -0.1500 
 13 C        2.7550     0.3830     0.8050 C.3   1 <1>  -0.0590 
 14 C       -3.8310     3.7490    -0.0980 C.3   1 <1>   0.4180 
 15 C        3.1940     5.3170    -0.4520 C.3   1 <1>   0.3000 
 16 O       -3.9770     5.0250    -0.6710 O.3   1 <1>  -0.5600 
 17 C       -5.1420     3.2920     0.5420 C.2   1 <1>  -0.2880 
 18 O        4.5310     5.4640    -0.0210 O.3   1 <1>  -0.3630 
 19 C       -4.7620     5.9660     0.0100 C.3   1 <1>   0.1200 
 20 C       -6.2350     4.0520     0.6440 C.2   1 <1>  -0.2760 
 21 C        5.1820     6.6470    -0.1430 C.ar  1 <1>   0.0820 
 22 C       -6.2120     5.4800     0.1350 C.3   1 <1>  -0.0220 
 23 C       -7.5540     3.5910     1.2370 C.3   1 <1>  -0.1020 
 24 C        4.6220     7.7880    -0.7140 C.ar  1 <1>  -0.1500 
 25 C        6.4800     6.6940     0.3390 C.ar  1 <1>  -0.1500 
 26 C        5.3620     8.9550    -0.7950 C.ar  1 <1>  -0.1500 
 27 C        7.2180     7.8610     0.2570 C.ar  1 <1>  -0.1500 
 28 C        6.6590     8.9930    -0.3100 C.ar  1 <1>  -0.1500 
 29 H       -2.8840     1.0960    -0.1230 H     1 <1>   0.0800 
 30 H       -2.2430     1.1300    -1.7450 H     1 <1>   0.0800 
 31 H       -1.1950     4.4630    -0.4130 H     1 <1>   0.0800 
 32 H       -0.5760     3.7750     1.0720 H     1 <1>   0.0800 
 33 H       -4.3690     2.3550    -1.6500 H     1 <1>   0.0800 
 34 H       -3.0450     3.3910    -2.0740 H     1 <1>   0.0800 
 35 H       -2.7710     4.7150     1.5240 H     1 <1>   0.0800 
 36 H       -2.8290     2.9950     1.6520 H     1 <1>   0.0800 
 37 H        4.3900     2.7660     0.6480 H     1 <1>   0.1500 
 38 H        1.8680    -0.2230     0.8360 H     1 <1>   0.0800 
 39 H        3.1740     0.4260     1.7940 H     1 <1>   0.0800 
 40 H        3.4650    -0.0810     0.1450 H     1 <1>   0.0800 
 41 H        2.5830     6.0120     0.0940 H     1 <1>   0.0800 
 42 H        3.1500     5.5270    -1.5060 H     1 <1>   0.0800 
 43 H       -5.0990     2.2780     0.8950 H     1 <1>   0.1500 
 44 H       -4.7240     6.8880    -0.5440 H     1 <1>   0.0800 
 45 H       -4.3390     6.1310     0.9840 H     1 <1>   0.0800 
 46 H       -6.6990     5.5360    -0.8220 H     1 <1>   0.0800 
 47 H       -6.7310     6.1290     0.8160 H     1 <1>   0.0800 
 48 H       -7.8120     4.1970     2.0880 H     1 <1>   0.0800 
 49 H       -7.4860     2.5660     1.5570 H     1 <1>   0.0800 
 50 H       -8.3370     3.6680     0.5040 H     1 <1>   0.0800 
 51 H        3.6210     7.7920    -1.1000 H     1 <1>   0.1500 
 52 H        6.9080     5.8110     0.7780 H     1 <1>   0.1500 
 53 H        4.9310     9.8370    -1.2360 H     1 <1>   0.1500 
 54 H        8.2260     7.8890     0.6340 H     1 <1>   0.1500 
 55 H        7.2320     9.9020    -0.3740 H     1 <1>   0.1500 
@<TRIPOS>BOND
  1   1   2  2   
  2   2   3  am  
  3   2   4  1   
  4   3   5  1   
  5   3   6  1   
  6   4   7  1   
  7   4   8  2   
  8   5   9  1   
  9   5  29  1   
 10   5  30  1   
 11   6  10  1   
 12   6  31  1   
 13   6  32  1   
 14   7  11  1   
 15   8  12  1   
 16   8  13  1   
 17   9  14  1   
 18   9  33  1   
 19   9  34  1   
 20  10  14  1   
 21  10  35  1   
 22  10  36  1   
 23  11  12  2   
 24  11  15  1   
 25  12  37  1   
 26  13  38  1   
 27  13  39  1   
 28  13  40  1   
 29  14  16  1   
 30  14  17  1   
 31  15  18  1   
 32  15  41  1   
 33  15  42  1   
 34  16  19  1   
 35  17  20  2   
 36  17  43  1   
 37  18  21  1   
 38  19  22  1   
 39  19  44  1   
 40  19  45  1   
 41  20  22  1   
 42  20  23  1   
 43  21  24  ar  
 44  21  25  ar  
 45  22  46  1   
 46  22  47  1   
 47  23  48  1   
 48  23  49  1   
 49  23  50  1   
 50  24  26  ar  
 51  24  51  1   
 52  25  27  ar  
 53  25  52  1   
 54  26  28  ar  
 55  26  53  1   
 56  27  28  ar  
 57  27  54  1   
 58  28  55  1   
@<TRIPOS>SUBSTRUCTURE
  1 ****   7 GROUP 4 **** **** 0

# MOE 2024.06 (io_trps.svl 2023.06)
