@<TRIPOS>MOLECULE
NONAME
40 41 1 0 0 
SMALL
USER_CHARGES


@<TRIPOS>ATOM
  1 S        0.4240     0.2280    -1.4830 S.o2  1 <1>   1.3330 
  2 O       -0.4960     1.1230    -2.1480 O.2   1 <1>  -0.6500 
  3 O        0.7520    -1.0430    -2.0880 O.2   1 <1>  -0.6500 
  4 N       -0.2080    -0.0820     0.0640 N.am  1 <1>  -0.8490 
  5 C        1.9600     1.0950    -1.1510 C.3   1 <1>  -0.0550 
  6 C       -0.9280     1.0620     0.6360 C.3   1 <1>   0.1160 
  7 C       -1.0720    -1.2660     0.0800 C.3   1 <1>   0.1160 
  8 C        3.0540     0.2210    -0.5010 C.3   1 <1>  -0.0800 
  9 C        4.4170     0.8860    -0.3800 C.3   1 <1>   0.2200 
 10 C        2.7680    -0.2290     0.9380 C.3   1 <1>   0.1200 
 11 N        4.2820     2.2840     0.0960 N.am  1 <1>  -0.7300 
 12 C        5.0290     0.0550     0.7380 C.3   1 <1>   0.1200 
 13 O        3.9810    -0.1560     1.6330 O.3   1 <1>  -0.5600 
 14 C        4.3470     3.3980    -0.6880 C.2   1 <1>   0.5440 
 15 O        4.4370     3.2440    -1.8900 O.2   1 <1>  -0.5700 
 16 C        4.2740     4.7290    -0.1110 C.ar  1 <1>   0.0860 
 17 C        3.9490     5.8420    -0.8740 C.ar  1 <1>  -0.1500 
 18 C        4.5180     4.9980     1.2310 C.ar  1 <1>  -0.1500 
 19 C        3.8730     7.0940    -0.2950 C.ar  1 <1>   0.1600 
 20 C        4.4160     6.2890     1.7150 C.ar  1 <1>   0.1600 
 21 N        4.0950     7.3420     0.9840 N.ar  1 <1>  -0.6200 
 22 H        2.3430     1.4630    -2.0840 H     1 <1>   0.0800 
 23 H        1.7580     1.9480    -0.5340 H     1 <1>   0.0800 
 24 H       -1.2260     0.8430     1.6470 H     1 <1>   0.0800 
 25 H       -1.8060     1.2850     0.0530 H     1 <1>   0.0800 
 26 H       -0.2940     1.9320     0.6510 H     1 <1>   0.0800 
 27 H       -1.4490    -1.4420     1.0730 H     1 <1>   0.0800 
 28 H       -0.5140    -2.1350    -0.2260 H     1 <1>   0.0800 
 29 H       -1.9010    -1.1330    -0.5960 H     1 <1>   0.0800 
 30 H        3.1770    -0.6660    -1.0990 H     1 <1>   0.0800 
 31 H        4.9910     0.8420    -1.2910 H     1 <1>   0.0800 
 32 H        2.4020    -1.2410     0.9740 H     1 <1>   0.0800 
 33 H        2.0720     0.4260     1.4340 H     1 <1>   0.0800 
 34 H        4.0930     2.3530     1.0980 H     1 <1>   0.3700 
 35 H        5.8420     0.5540     1.2360 H     1 <1>   0.0800 
 36 H        5.3530    -0.9040     0.3720 H     1 <1>   0.0800 
 37 H        3.7540     5.7270    -1.9260 H     1 <1>   0.1500 
 38 H        4.7940     4.2090     1.9040 H     1 <1>   0.1500 
 39 H        3.6180     7.9370    -0.9150 H     1 <1>   0.1500 
 40 H        4.6110     6.4690     2.7590 H     1 <1>   0.1500 
@<TRIPOS>BOND
  1   1   2  2   
  2   1   3  2   
  3   1   4  am  
  4   1   5  1   
  5   4   6  1   
  6   4   7  1   
  7   5   8  1   
  8   5  22  1   
  9   5  23  1   
 10   6  24  1   
 11   6  25  1   
 12   6  26  1   
 13   7  27  1   
 14   7  28  1   
 15   7  29  1   
 16   8   9  1   
 17   8  10  1   
 18   8  30  1   
 19   9  11  1   
 20   9  12  1   
 21   9  31  1   
 22  10  13  1   
 23  10  32  1   
 24  10  33  1   
 25  11  14  am  
 26  11  34  1   
 27  12  13  1   
 28  12  35  1   
 29  12  36  1   
 30  14  15  2   
 31  14  16  1   
 32  16  17  ar  
 33  16  18  ar  
 34  17  19  ar  
 35  17  37  1   
 36  18  20  ar  
 37  18  38  1   
 38  19  21  ar  
 39  19  39  1   
 40  20  21  ar  
 41  20  40  1   
@<TRIPOS>SUBSTRUCTURE
  1 ****  11 GROUP 4 **** **** 0

# MOE 2024.06 (io_trps.svl 2023.06)
