@<TRIPOS>MOLECULE
NONAME
49 51 1 0 0 
SMALL
USER_CHARGES


@<TRIPOS>ATOM
  1 S        0.9640    -1.0060     1.7160 S.o2  1 <1>   1.4470 
  2 O        0.7120    -0.5620     3.0700 O.2   1 <1>  -0.6500 
  3 O        1.8980    -2.0920     1.5070 O.2   1 <1>  -0.6500 
  4 N        1.5910     0.3160     0.8560 N.am  1 <1>  -0.8490 
  5 C       -0.6340    -1.3510     0.9030 C.ar  1 <1>  -0.0090 
  6 C        2.5180     1.1420     1.6610 C.3   1 <1>   0.1960 
  7 C        2.1440    -0.0760    -0.4520 C.3   1 <1>   0.1960 
  8 C       -1.3030    -2.5670     1.0600 C.ar  1 <1>  -0.1440 
  9 C       -1.2390    -0.3770     0.1140 C.ar  1 <1>  -0.1500 
 10 C        2.8600     2.5340     1.0630 C.3   1 <1>   0.2200 
 11 C        2.3670     1.1030    -1.4190 C.3   1 <1>  -0.0190 
 12 C       -2.5140    -2.7900     0.4210 C.ar  1 <1>  -0.1500 
 13 C       -0.7340    -3.6790     1.9330 C.3   1 <1>  -0.0960 
 14 C       -2.4470    -0.6000    -0.5360 C.ar  1 <1>   0.0830 
 15 N        1.8310     3.0250     0.0890 N.am  1 <1>  -0.6600 
 16 C        4.2700     2.5780     0.4420 C.3   1 <1>   0.1200 
 17 C        1.5500     2.3300    -1.0570 C.2   1 <1>   0.5690 
 18 C        3.8480     1.4620    -1.6050 C.3   1 <1>   0.1200 
 19 C       -3.0910    -1.8190    -0.3780 C.ar  1 <1>  -0.1430 
 20 O       -3.0350     0.3310    -1.3330 O.3   1 <1>  -0.3630 
 21 C        1.0130     4.1890     0.5290 C.3   1 <1>   0.0600 
 22 O        4.5320     1.4860    -0.3900 O.3   1 <1>  -0.5600 
 23 O        0.6680     2.6640    -1.8150 O.2   1 <1>  -0.5700 
 24 C       -4.4180    -2.0920    -1.0700 C.3   1 <1>  -0.0970 
 25 C       -2.3420     1.4870    -1.7570 C.3   1 <1>   0.0400 
 26 H        2.0630     1.3380     2.6170 H     1 <1>   0.0800 
 27 H        3.4210     0.5890     1.8570 H     1 <1>   0.0800 
 28 H        3.0620    -0.6250    -0.3110 H     1 <1>   0.0800 
 29 H        1.4470    -0.7480    -0.9240 H     1 <1>   0.0800 
 30 H       -0.7560     0.5760     0.0120 H     1 <1>   0.1500 
 31 H        2.8860     3.2270     1.8860 H     1 <1>   0.0800 
 32 H        2.0240     0.7820    -2.3860 H     1 <1>   0.0800 
 33 H       -3.0160    -3.7330     0.5470 H     1 <1>   0.1500 
 34 H       -1.4530    -4.4650     2.0750 H     1 <1>   0.0800 
 35 H       -0.4680    -3.2980     2.9040 H     1 <1>   0.0800 
 36 H        0.1400    -4.1020     1.4720 H     1 <1>   0.0800 
 37 H        5.0000     2.5370     1.2310 H     1 <1>   0.0800 
 38 H        4.4220     3.4900    -0.1080 H     1 <1>   0.0800 
 39 H        3.9630     2.4130    -2.0980 H     1 <1>   0.0800 
 40 H        4.3230     0.7090    -2.2090 H     1 <1>   0.0800 
 41 H        1.6530     5.0280     0.7380 H     1 <1>   0.0800 
 42 H        0.4620     3.9290     1.4170 H     1 <1>   0.0800 
 43 H        0.3130     4.4750    -0.2370 H     1 <1>   0.0800 
 44 H       -4.7870    -3.0740    -0.8380 H     1 <1>   0.0800 
 45 H       -4.2950    -2.0120    -2.1350 H     1 <1>   0.0800 
 46 H       -5.1470    -1.3670    -0.7530 H     1 <1>   0.0800 
 47 H       -2.9730     2.0250    -2.4400 H     1 <1>   0.0800 
 48 H       -1.4370     1.1880    -2.2560 H     1 <1>   0.0800 
 49 H       -2.1220     2.1030    -0.9040 H     1 <1>   0.0800 
@<TRIPOS>BOND
  1   1   2  2   
  2   1   3  2   
  3   1   4  am  
  4   1   5  1   
  5   4   6  1   
  6   4   7  1   
  7   5   8  ar  
  8   5   9  ar  
  9   6  10  1   
 10   6  26  1   
 11   6  27  1   
 12   7  11  1   
 13   7  28  1   
 14   7  29  1   
 15   8  12  ar  
 16   8  13  1   
 17   9  14  ar  
 18   9  30  1   
 19  10  15  1   
 20  10  16  1   
 21  10  31  1   
 22  11  17  1   
 23  11  18  1   
 24  11  32  1   
 25  12  19  ar  
 26  12  33  1   
 27  13  34  1   
 28  13  35  1   
 29  13  36  1   
 30  14  19  ar  
 31  14  20  1   
 32  15  17  am  
 33  15  21  1   
 34  16  22  1   
 35  16  37  1   
 36  16  38  1   
 37  17  23  2   
 38  18  22  1   
 39  18  39  1   
 40  18  40  1   
 41  19  24  1   
 42  20  25  1   
 43  21  41  1   
 44  21  42  1   
 45  21  43  1   
 46  24  44  1   
 47  24  45  1   
 48  24  46  1   
 49  25  47  1   
 50  25  48  1   
 51  25  49  1   
@<TRIPOS>SUBSTRUCTURE
  1 ****   4 GROUP 4 **** **** 0

# MOE 2024.06 (io_trps.svl 2023.06)
