@<TRIPOS>MOLECULE
NONAME
44 45 1 0 0 
SMALL
USER_CHARGES


@<TRIPOS>ATOM
  1 S        0.1100     0.0430    -0.7650 S.o2  1 <1>   1.3330 
  2 O        1.5440     0.1210    -0.9280 O.2   1 <1>  -0.6500 
  3 O       -0.7440     0.0620    -1.9310 O.2   1 <1>  -0.6500 
  4 N       -0.2370    -1.3580     0.1280 N.am  1 <1>  -0.8490 
  5 C       -0.4310     1.3610     0.3200 C.3   1 <1>  -0.0550 
  6 C        0.7880    -1.6820     1.1250 C.3   1 <1>   0.1160 
  7 C       -0.4750    -2.5190    -0.7360 C.3   1 <1>   0.1160 
  8 C       -0.2790     2.7620    -0.3060 C.3   1 <1>  -0.0800 
  9 C       -0.8800     3.8940     0.5310 C.3   1 <1>   0.2000 
 10 C        1.1770     3.1920    -0.5370 C.3   1 <1>   0.1400 
 11 O       -0.5090     3.7220     1.8560 O.3   1 <1>  -0.6800 
 12 C       -0.1800     5.1420     0.0000 C.3   1 <1>   0.1400 
 13 N        1.1800     4.6670    -0.3620 N.am  1 <1>  -0.6600 
 14 C        2.3320     5.4320    -0.4010 C.2   1 <1>   0.5440 
 15 O        3.3900     4.8260    -0.4410 O.2   1 <1>  -0.5700 
 16 C        2.3450     6.9000    -0.3720 C.ar  1 <1>   0.3960 
 17 N        1.3030     7.6140    -0.7940 N.ar  1 <1>  -0.6200 
 18 C        3.4710     7.5570     0.0980 C.ar  1 <1>  -0.1500 
 19 C        1.4270     8.9200    -0.7120 C.ar  1 <1>   0.7200 
 20 C        3.4810     8.9290     0.1240 C.ar  1 <1>   0.1670 
 21 N        2.4540     9.6260    -0.2830 N.ar  1 <1>  -0.6200 
 22 N        0.3840     9.6300    -1.1400 N.pl3 1 <1>  -0.9000 
 23 C        4.6830     9.7000     0.6260 C.3   1 <1>  -0.0970 
 24 H       -1.4650     1.2040     0.5590 H     1 <1>   0.0800 
 25 H        0.1230     1.3160     1.2370 H     1 <1>   0.0800 
 26 H        0.4750    -2.5250     1.7170 H     1 <1>   0.0800 
 27 H        0.9430    -0.8450     1.7850 H     1 <1>   0.0800 
 28 H        1.7230    -1.9190     0.6430 H     1 <1>   0.0800 
 29 H       -0.7090    -3.3850    -0.1420 H     1 <1>   0.0800 
 30 H        0.3970    -2.7230    -1.3360 H     1 <1>   0.0800 
 31 H       -1.3080    -2.3260    -1.3910 H     1 <1>   0.0800 
 32 H       -0.7730     2.7640    -1.2630 H     1 <1>   0.0800 
 33 H       -1.9540     3.9500     0.4750 H     1 <1>   0.0800 
 34 H        1.5170     2.9280    -1.5250 H     1 <1>   0.0800 
 35 H        1.8360     2.7490     0.1900 H     1 <1>   0.0800 
 36 H        0.4540     3.8830     1.9300 H     1 <1>   0.4000 
 37 H       -0.1560     5.9280     0.7350 H     1 <1>   0.0800 
 38 H       -0.6740     5.4950    -0.8890 H     1 <1>   0.0800 
 39 H        4.3210     6.9930     0.4340 H     1 <1>   0.1500 
 40 H       -0.2300     9.1630    -1.8000 H     1 <1>   0.4000 
 41 H        0.5830    10.6110    -1.3230 H     1 <1>   0.4000 
 42 H        5.4700     9.0360     0.9330 H     1 <1>   0.0800 
 43 H        4.3960    10.3100     1.4630 H     1 <1>   0.0800 
 44 H        5.0530    10.3390    -0.1550 H     1 <1>   0.0800 
@<TRIPOS>BOND
  1   1   2  2   
  2   1   3  2   
  3   1   4  am  
  4   1   5  1   
  5   4   6  1   
  6   4   7  1   
  7   5   8  1   
  8   5  24  1   
  9   5  25  1   
 10   6  26  1   
 11   6  27  1   
 12   6  28  1   
 13   7  29  1   
 14   7  30  1   
 15   7  31  1   
 16   8   9  1   
 17   8  10  1   
 18   8  32  1   
 19   9  11  1   
 20   9  12  1   
 21   9  33  1   
 22  10  13  1   
 23  10  34  1   
 24  10  35  1   
 25  11  36  1   
 26  12  13  1   
 27  12  37  1   
 28  12  38  1   
 29  13  14  am  
 30  14  15  2   
 31  14  16  1   
 32  16  17  ar  
 33  16  18  ar  
 34  17  19  ar  
 35  18  20  ar  
 36  18  39  1   
 37  19  21  ar  
 38  19  22  1   
 39  20  21  ar  
 40  20  23  1   
 41  22  40  1   
 42  22  41  1   
 43  23  42  1   
 44  23  43  1   
 45  23  44  1   
@<TRIPOS>SUBSTRUCTURE
  1 ****  13 GROUP 4 **** **** 0

# MOE 2024.06 (io_trps.svl 2023.06)
