@<TRIPOS>MOLECULE
NONAME
55 57 1 0 0 
SMALL
USER_CHARGES


@<TRIPOS>ATOM
  1 O       -0.5160     1.5090    -1.0580 O.2   1 <1>  -0.5700 
  2 C        0.6740     1.5370    -0.8100 C.2   1 <1>   0.5440 
  3 N        1.1240     2.6210    -0.1130 N.am  1 <1>  -0.5470 
  4 C        1.5550     0.5080    -1.2970 C.ar  1 <1>   0.0860 
  5 C        2.4150     3.0030     0.2940 C.ar  1 <1>   0.1170 
  6 C        1.5630    -0.7830    -0.7350 C.ar  1 <1>   0.4100 
  7 C        2.4320     0.7700    -2.3380 C.ar  1 <1>  -0.1500 
  8 C        2.7760     4.3540     0.2480 C.ar  1 <1>   0.0820 
  9 C        3.3380     2.0750     0.7610 C.ar  1 <1>  -0.1500 
 10 N        2.3420    -1.7780    -1.1670 N.ar  1 <1>  -0.6200 
 11 N        0.7410    -1.1070     0.3280 N.pl3 1 <1>  -0.8380 
 12 C        3.2480    -0.2480    -2.7720 C.ar  1 <1>  -0.1500 
 13 O        1.8250     5.2340    -0.1880 O.3   1 <1>  -0.3620 
 14 C        4.0510     4.7520     0.6360 C.ar  1 <1>  -0.1500 
 15 C        4.6050     2.4750     1.1440 C.ar  1 <1>  -0.1500 
 16 C        3.1610    -1.4860    -2.1610 C.ar  1 <1>   0.1600 
 17 C       -0.7060    -1.2940     0.0650 C.3   1 <1>   0.2090 
 18 C        1.1410    -2.0780     1.3790 C.3   1 <1>   0.2090 
 19 C        2.0840     6.6170    -0.2850 C.3   1 <1>   0.0400 
 20 C        4.9710     3.8080     1.0820 C.ar  1 <1>   0.0830 
 21 C       -0.9310    -2.7900     0.2750 C.3   1 <1>   0.2000 
 22 C        0.1200    -3.2330     1.3190 C.3   1 <1>   0.4230 
 23 O        6.2380     4.1070     1.4750 O.3   1 <1>  -0.3630 
 24 O       -2.2150    -3.0830     0.7350 O.3   1 <1>  -0.6800 
 25 N        0.7190    -4.6030     1.0460 N.4   1 <1>  -0.9590 
 26 C        6.7090     5.4370     1.4810 C.3   1 <1>   0.0400 
 27 C        1.5230    -4.6470    -0.2220 C.3   1 <1>   0.2630 
 28 C       -0.3540    -5.6470     1.0360 C.3   1 <1>   0.2630 
 29 H        0.4310     3.3700    -0.0560 H     1 <1>   0.3700 
 30 H        2.4680     1.7480    -2.7880 H     1 <1>   0.1500 
 31 H        3.0710     1.0380     0.8370 H     1 <1>   0.1500 
 32 H        3.9450    -0.0870    -3.5760 H     1 <1>   0.1500 
 33 H        4.3290     5.7840     0.5940 H     1 <1>   0.1500 
 34 H        5.3190     1.7530     1.5000 H     1 <1>   0.1500 
 35 H        3.8070    -2.2720    -2.5170 H     1 <1>   0.1500 
 36 H       -1.2720    -0.7070     0.7700 H     1 <1>   0.0800 
 37 H       -0.9600    -1.0040    -0.9410 H     1 <1>   0.0800 
 38 H        2.1540    -2.4130     1.2490 H     1 <1>   0.0800 
 39 H        1.0660    -1.5860     2.3340 H     1 <1>   0.0800 
 40 H        1.1950     7.0980    -0.6520 H     1 <1>   0.0800 
 41 H        2.8940     6.7730    -0.9750 H     1 <1>   0.0800 
 42 H        2.3270     6.9970     0.6910 H     1 <1>   0.0800 
 43 H       -0.7850    -3.2900    -0.6650 H     1 <1>   0.0800 
 44 H       -0.3720    -3.2600     2.2770 H     1 <1>   0.0800 
 45 H       -2.8990    -2.6970     0.1460 H     1 <1>   0.4000 
 46 H        1.3570    -4.8180     1.8260 H     1 <1>   0.4500 
 47 H        7.7240     5.4290     1.8360 H     1 <1>   0.0800 
 48 H        6.0960     6.0220     2.1440 H     1 <1>   0.0800 
 49 H        6.6760     5.8240     0.4780 H     1 <1>   0.0800 
 50 H        0.9190    -4.3620    -1.0680 H     1 <1>   0.0800 
 51 H        1.9050    -5.6410    -0.3910 H     1 <1>   0.0800 
 52 H        2.3590    -3.9690    -0.1620 H     1 <1>   0.0800 
 53 H       -1.0430    -5.4700     0.2250 H     1 <1>   0.0800 
 54 H       -0.9090    -5.6220     1.9610 H     1 <1>   0.0800 
 55 H        0.0750    -6.6280     0.9170 H     1 <1>   0.0800 
@<TRIPOS>BOND
  1   1   2  2   
  2   2   3  am  
  3   2   4  1   
  4   3   5  1   
  5   3  29  1   
  6   4   6  ar  
  7   4   7  ar  
  8   5   8  ar  
  9   5   9  ar  
 10   6  10  ar  
 11   6  11  1   
 12   7  12  ar  
 13   7  30  1   
 14   8  13  1   
 15   8  14  ar  
 16   9  15  ar  
 17   9  31  1   
 18  10  16  ar  
 19  11  17  1   
 20  11  18  1   
 21  12  16  ar  
 22  12  32  1   
 23  13  19  1   
 24  14  20  ar  
 25  14  33  1   
 26  15  20  ar  
 27  15  34  1   
 28  16  35  1   
 29  17  21  1   
 30  17  36  1   
 31  17  37  1   
 32  18  22  1   
 33  18  38  1   
 34  18  39  1   
 35  19  40  1   
 36  19  41  1   
 37  19  42  1   
 38  20  23  1   
 39  21  22  1   
 40  21  24  1   
 41  21  43  1   
 42  22  25  1   
 43  22  44  1   
 44  23  26  1   
 45  24  45  1   
 46  25  27  1   
 47  25  28  1   
 48  25  46  1   
 49  26  47  1   
 50  26  48  1   
 51  26  49  1   
 52  27  50  1   
 53  27  51  1   
 54  27  52  1   
 55  28  53  1   
 56  28  54  1   
 57  28  55  1   
@<TRIPOS>SUBSTRUCTURE
  1 ****   4 GROUP 4 **** **** 0

# MOE 2024.06 (io_trps.svl 2023.06)
