@<TRIPOS>MOLECULE
NONAME
40 42 1 0 0 
SMALL
USER_CHARGES


@<TRIPOS>ATOM
  1 F       -1.5930     0.7820    -2.3590 F     1 <1>  -0.1900 
  2 C       -2.2720     1.1140    -1.2940 C.ar  1 <1>   0.1900 
  3 C       -1.7930     2.1140    -0.4640 C.ar  1 <1>   0.1600 
  4 C       -3.4530     0.4650    -1.0230 C.ar  1 <1>  -0.1500 
  5 N       -2.4200     2.5100     0.6360 N.ar  1 <1>  -0.6200 
  6 C       -4.1340     0.8660     0.1190 C.ar  1 <1>   0.0860 
  7 C       -3.5560     1.8720     0.8970 C.ar  1 <1>   0.1600 
  8 C       -5.3900     0.2630     0.5040 C.2   1 <1>   0.5440 
  9 O       -5.4600    -0.9480     0.5690 O.2   1 <1>  -0.5700 
 10 N       -6.5060     1.0210     0.7910 N.am  1 <1>  -0.6600 
 11 C       -7.7080     0.4290     1.4470 C.3   1 <1>   0.1400 
 12 C       -6.7090     2.4260     0.3340 C.3   1 <1>   0.1400 
 13 C       -8.8890     0.4640     0.4760 C.3   1 <1>  -0.1600 
 14 C       -7.8790     2.4690    -0.6510 C.3   1 <1>  -0.1600 
 15 C       -9.1580     1.8810    -0.0390 C.3   1 <1>   0.4180 
 16 O       -9.5290     2.6440     1.0840 O.3   1 <1>  -0.5600 
 17 C      -10.2900     1.8490    -1.0610 C.2   1 <1>  -0.2880 
 18 C      -10.2370     3.8310     0.8540 C.3   1 <1>   0.1200 
 19 C      -11.4050     2.5780    -0.9690 C.2   1 <1>  -0.2760 
 20 C      -11.5900     3.5360     0.1930 C.3   1 <1>  -0.0220 
 21 C      -12.5540     2.5230    -1.9600 C.3   1 <1>  -0.1020 
 22 H       -0.8650     2.5970    -0.7170 H     1 <1>   0.1500 
 23 H       -3.8310    -0.3170    -1.6570 H     1 <1>   0.1500 
 24 H       -4.0760     2.1640     1.7940 H     1 <1>   0.1500 
 25 H       -7.9440     0.9990     2.3290 H     1 <1>   0.0800 
 26 H       -7.5170    -0.5860     1.7510 H     1 <1>   0.0800 
 27 H       -5.8290     2.8100    -0.1490 H     1 <1>   0.0800 
 28 H       -6.9260     3.0460     1.1880 H     1 <1>   0.0800 
 29 H       -9.7720     0.0910     0.9620 H     1 <1>   0.0800 
 30 H       -8.6710    -0.1880    -0.3500 H     1 <1>   0.0800 
 31 H       -7.6140     1.8990    -1.5220 H     1 <1>   0.0800 
 32 H       -8.0540     3.4770    -0.9740 H     1 <1>   0.0800 
 33 H      -10.1010     1.1650    -1.8690 H     1 <1>   0.1500 
 34 H       -9.6430     4.4710     0.2270 H     1 <1>   0.0800 
 35 H      -10.3830     4.3160     1.8030 H     1 <1>   0.0800 
 36 H      -12.0120     4.4630    -0.1510 H     1 <1>   0.0800 
 37 H      -12.2620     3.1070     0.9150 H     1 <1>   0.0800 
 38 H      -13.4590     2.2270    -1.4600 H     1 <1>   0.0800 
 39 H      -12.3460     1.8110    -2.7390 H     1 <1>   0.0800 
 40 H      -12.7040     3.4880    -2.4110 H     1 <1>   0.0800 
@<TRIPOS>BOND
  1   1   2  1   
  2   2   3  ar  
  3   2   4  ar  
  4   3   5  ar  
  5   3  22  1   
  6   4   6  ar  
  7   4  23  1   
  8   5   7  ar  
  9   6   7  ar  
 10   6   8  1   
 11   7  24  1   
 12   8   9  2   
 13   8  10  am  
 14  10  11  1   
 15  10  12  1   
 16  11  13  1   
 17  11  25  1   
 18  11  26  1   
 19  12  14  1   
 20  12  27  1   
 21  12  28  1   
 22  13  15  1   
 23  13  29  1   
 24  13  30  1   
 25  14  15  1   
 26  14  31  1   
 27  14  32  1   
 28  15  16  1   
 29  15  17  1   
 30  16  18  1   
 31  17  19  2   
 32  17  33  1   
 33  18  20  1   
 34  18  34  1   
 35  18  35  1   
 36  19  20  1   
 37  19  21  1   
 38  20  36  1   
 39  20  37  1   
 40  21  38  1   
 41  21  39  1   
 42  21  40  1   
@<TRIPOS>SUBSTRUCTURE
  1 ****  12 GROUP 4 **** **** 0

# MOE 2024.06 (io_trps.svl 2023.06)
