@<TRIPOS>MOLECULE
NONAME
58 62 1 0 0 
SMALL
USER_CHARGES


@<TRIPOS>ATOM
  1 S       -0.2650    -0.1040    -0.3770 S.3   1 <1>  -0.0800 
  2 C        0.8140     1.2840    -0.4150 C.2   1 <1>  -0.1120 
  3 C       -1.6110     0.8840    -1.0180 C.2   1 <1>  -0.0450 
  4 N        2.1000     1.5350    -0.0950 N.pl3 1 <1>   0.5930 
  5 C        0.1970     2.3850    -0.8700 C.2   1 <1>   0.0000 
  6 C       -2.8840     0.2380    -1.2260 C.2   1 <1>   0.7150 
  7 C       -1.1700     2.1580    -1.2170 C.2   1 <1>  -0.1500 
  8 N        2.3290     2.8650    -0.3450 N.2   1 <1>  -0.7070 
  9 C        3.0820     0.6500     0.4350 C.ar  1 <1>  -0.0230 
 10 C        1.2120     3.3470    -0.8020 C.2   1 <1>   0.1080 
 11 O       -2.9310    -0.9420    -1.5270 O.2   1 <1>  -0.5700 
 12 N       -4.0740     0.9260    -1.1050 N.am  1 <1>  -0.6600 
 13 C        3.1350    -0.6890     0.0510 C.ar  1 <1>  -0.1500 
 14 C        4.0190     1.1090     1.3580 C.ar  1 <1>  -0.1500 
 15 C        1.0450     4.7930    -1.2090 C.3   1 <1>  -0.0590 
 16 C       -5.3300     0.3370    -1.6560 C.3   1 <1>   0.1400 
 17 C       -4.2170     2.1550    -0.2690 C.3   1 <1>   0.1400 
 18 C        4.0860    -1.5420     0.5810 C.ar  1 <1>  -0.1500 
 19 C        4.9720     0.2580     1.8880 C.ar  1 <1>  -0.1500 
 20 C       -6.4090     1.4140    -1.7850 C.3   1 <1>  -0.1600 
 21 C       -5.5290     2.0860     0.5110 C.3   1 <1>  -0.1600 
 22 C        5.0050    -1.0700     1.5010 C.ar  1 <1>  -0.1500 
 23 C       -6.7610     2.0720    -0.4300 C.3   1 <1>   0.2800 
 24 O       -7.0400     3.4010    -0.7670 O.3   1 <1>  -0.5600 
 25 C       -7.9910     1.3630     0.2160 C.3   1 <1>  -0.1600 
 26 C       -7.6880     4.2870     0.1190 C.3   1 <1>   0.1200 
 27 C       -9.1740     2.2780     0.5690 C.3   1 <1>   0.2800 
 28 C       -8.6410     3.6150     1.1240 C.3   1 <1>   0.2000 
 29 O       -9.8930     2.5280    -0.5850 O.3   1 <1>  -0.6800 
 30 C      -10.1560     1.5870     1.5200 C.3   1 <1>  -0.2400 
 31 O       -7.9530     3.4080     2.3230 O.3   1 <1>  -0.6800 
 32 H       -1.7660     2.9610    -1.6100 H     1 <1>   0.1500 
 33 H        2.4330    -1.0720    -0.6690 H     1 <1>   0.1500 
 34 H        4.0010     2.1430     1.6590 H     1 <1>   0.1500 
 35 H        0.3440     5.2760    -0.5540 H     1 <1>   0.0800 
 36 H        0.6860     4.8480    -2.2200 H     1 <1>   0.0800 
 37 H        1.9890     5.3020    -1.1470 H     1 <1>   0.0800 
 38 H       -5.1270    -0.0910    -2.6230 H     1 <1>   0.0800 
 39 H       -5.6670    -0.4510    -1.0040 H     1 <1>   0.0800 
 40 H       -3.3960     2.2300     0.4240 H     1 <1>   0.0800 
 41 H       -4.2150     3.0250    -0.9050 H     1 <1>   0.0800 
 42 H        4.1130    -2.5740     0.2760 H     1 <1>   0.1500 
 43 H        5.6880     0.6300     2.6000 H     1 <1>   0.1500 
 44 H       -7.2830     0.9950    -2.2480 H     1 <1>   0.0800 
 45 H       -6.0330     2.1590    -2.4650 H     1 <1>   0.0800 
 46 H       -5.5740     2.9150     1.1890 H     1 <1>   0.0800 
 47 H       -5.4930     1.1880     1.1010 H     1 <1>   0.0800 
 48 H        5.7460    -1.7330     1.9130 H     1 <1>   0.1500 
 49 H       -8.3440     0.5560    -0.3970 H     1 <1>   0.0800 
 50 H       -7.6670     0.8890     1.1230 H     1 <1>   0.0800 
 51 H       -6.9440     4.8730     0.6290 H     1 <1>   0.0800 
 52 H       -8.2640     4.9490    -0.5020 H     1 <1>   0.0800 
 53 H       -9.4600     4.2750     1.3500 H     1 <1>   0.0800 
 54 H      -10.2250     1.6920    -0.9580 H     1 <1>   0.4000 
 55 H       -9.6760     1.3630     2.4550 H     1 <1>   0.0800 
 56 H      -10.5160     0.6650     1.0990 H     1 <1>   0.0800 
 57 H      -10.9900     2.2350     1.7240 H     1 <1>   0.0800 
 58 H       -7.1820     2.8350     2.1590 H     1 <1>   0.4000 
@<TRIPOS>BOND
  1   1   2  1   
  2   1   3  1   
  3   2   4  1   
  4   2   5  2   
  5   3   6  1   
  6   3   7  2   
  7   4   8  1   
  8   4   9  1   
  9   5   7  1   
 10   5  10  1   
 11   6  11  2   
 12   6  12  am  
 13   7  32  1   
 14   8  10  2   
 15   9  13  ar  
 16   9  14  ar  
 17  10  15  1   
 18  12  16  1   
 19  12  17  1   
 20  13  18  ar  
 21  13  33  1   
 22  14  19  ar  
 23  14  34  1   
 24  15  35  1   
 25  15  36  1   
 26  15  37  1   
 27  16  20  1   
 28  16  38  1   
 29  16  39  1   
 30  17  21  1   
 31  17  40  1   
 32  17  41  1   
 33  18  22  ar  
 34  18  42  1   
 35  19  22  ar  
 36  19  43  1   
 37  20  23  1   
 38  20  44  1   
 39  20  45  1   
 40  21  23  1   
 41  21  46  1   
 42  21  47  1   
 43  22  48  1   
 44  23  24  1   
 45  23  25  1   
 46  24  26  1   
 47  25  27  1   
 48  25  49  1   
 49  25  50  1   
 50  26  28  1   
 51  26  51  1   
 52  26  52  1   
 53  27  28  1   
 54  27  29  1   
 55  27  30  1   
 56  28  31  1   
 57  28  53  1   
 58  29  54  1   
 59  30  55  1   
 60  30  56  1   
 61  30  57  1   
 62  31  58  1   
@<TRIPOS>SUBSTRUCTURE
  1 ****   3 GROUP 4 **** **** 0

# MOE 2024.06 (io_trps.svl 2023.06)
