@<TRIPOS>MOLECULE
NONAME
47 49 1 0 0 
SMALL
USER_CHARGES


@<TRIPOS>ATOM
  1 O       -0.8200     0.2110    -1.2490 O.2   1 <1>  -0.5700 
  2 C       -1.7130     0.7910    -0.6570 C.2   1 <1>   0.5440 
  3 N       -2.7270     0.0640    -0.0890 N.am  1 <1>  -0.6600 
  4 C       -1.6810     2.2400    -0.5680 C.ar  1 <1>   0.0860 
  5 C       -4.0280     0.6290     0.3740 C.3   1 <1>   0.2350 
  6 C       -2.8120    -1.4230    -0.1380 C.3   1 <1>   0.2350 
  7 C       -1.4630     3.0180    -1.7040 C.ar  1 <1>  -0.1500 
  8 C       -1.8560     2.9090     0.6430 C.ar  1 <1>  -0.1500 
  9 C       -5.0520    -0.4710     0.1650 C.3   1 <1>  -0.2420 
 10 C       -4.2980    -1.7440    -0.1380 C.3   1 <1>  -0.2420 
 11 C       -1.4370     4.3990    -1.6380 C.ar  1 <1>  -0.1500 
 12 C       -1.8310     4.2900     0.7150 C.ar  1 <1>  -0.1500 
 13 C       -6.3110    -0.1910     0.9920 C.2   1 <1>   0.9470 
 14 C       -5.2010    -1.1360    -1.1800 C.3   1 <1>  -0.2000 
 15 C       -4.5430    -3.1850     0.3160 C.2   1 <1>   0.9470 
 16 C       -1.6240     5.0440    -0.4280 C.ar  1 <1>  -0.1430 
 17 O       -7.4170    -0.1590     0.4350 O.co2 1 <1>  -0.9000 
 18 O       -6.1820     0.1730     2.1700 O.co2 1 <1>  -0.9000 
 19 O       -4.0620    -3.5650     1.3930 O.co2 1 <1>  -0.9000 
 20 O       -5.0770    -3.9870    -0.4630 O.co2 1 <1>  -0.9000 
 21 C       -1.5930     6.5620    -0.3580 C.3   1 <1>  -0.0170 
 22 C       -0.1470     7.0550    -0.1800 C.3   1 <1>  -0.1600 
 23 C        0.0240     8.5840    -0.1380 C.3   1 <1>   0.2800 
 24 O       -0.5160     9.1070    -1.2830 O.3   1 <1>  -0.6800 
 25 C        1.5020     8.9640    -0.1360 C.3   1 <1>  -0.2400 
 26 C       -0.7030     9.2390     1.0360 C.3   1 <1>  -0.2400 
 27 H       -3.9560     0.8690     1.4210 H     1 <1>   0.0800 
 28 H       -4.3010     1.5060    -0.1850 H     1 <1>   0.0800 
 29 H       -2.3370    -1.8160    -1.0200 H     1 <1>   0.0800 
 30 H       -2.3420    -1.8340     0.7390 H     1 <1>   0.0800 
 31 H       -1.3140     2.5200    -2.6460 H     1 <1>   0.1500 
 32 H       -2.0130     2.3300     1.5370 H     1 <1>   0.1500 
 33 H       -1.2690     4.9720    -2.5340 H     1 <1>   0.1500 
 34 H       -1.9740     4.7740     1.6650 H     1 <1>   0.1500 
 35 H       -4.7710    -0.6790    -2.0510 H     1 <1>   0.1000 
 36 H       -6.1280    -1.6430    -1.3930 H     1 <1>   0.1000 
 37 H       -2.0110     6.9680    -1.2630 H     1 <1>   0.0800 
 38 H       -2.2070     6.8920     0.4610 H     1 <1>   0.0800 
 39 H        0.4460     6.6670    -0.9890 H     1 <1>   0.0800 
 40 H        0.2490     6.6380     0.7280 H     1 <1>   0.0800 
 41 H       -0.3830    10.0720    -1.2900 H     1 <1>   0.4000 
 42 H        1.9800     8.5680     0.7420 H     1 <1>   0.0800 
 43 H        1.6260    10.0320    -0.1330 H     1 <1>   0.0800 
 44 H        1.9960     8.5550    -1.0000 H     1 <1>   0.0800 
 45 H       -0.3620     8.8110     1.9610 H     1 <1>   0.0800 
 46 H       -1.7650     9.0910     0.9630 H     1 <1>   0.0800 
 47 H       -0.5040    10.2950     1.0640 H     1 <1>   0.0800 
@<TRIPOS>BOND
  1   1   2  2   
  2   2   3  am  
  3   2   4  1   
  4   3   5  1   
  5   3   6  1   
  6   4   7  ar  
  7   4   8  ar  
  8   5   9  1   
  9   5  27  1   
 10   5  28  1   
 11   6  10  1   
 12   6  29  1   
 13   6  30  1   
 14   7  11  ar  
 15   7  31  1   
 16   8  12  ar  
 17   8  32  1   
 18   9  10  1   
 19   9  13  1   
 20   9  14  1   
 21  10  14  1   
 22  10  15  1   
 23  11  16  ar  
 24  11  33  1   
 25  12  16  ar  
 26  12  34  1   
 27  13  17  ar  
 28  13  18  ar  
 29  14  35  1   
 30  14  36  1   
 31  15  19  ar  
 32  15  20  ar  
 33  16  21  1   
 34  21  22  1   
 35  21  37  1   
 36  21  38  1   
 37  22  23  1   
 38  22  39  1   
 39  22  40  1   
 40  23  24  1   
 41  23  25  1   
 42  23  26  1   
 43  24  41  1   
 44  25  42  1   
 45  25  43  1   
 46  25  44  1   
 47  26  45  1   
 48  26  46  1   
 49  26  47  1   
@<TRIPOS>SUBSTRUCTURE
  1 ****   4 GROUP 4 **** **** 0

# MOE 2024.06 (io_trps.svl 2023.06)
