@<TRIPOS>MOLECULE
NONAME
49 52 1 0 0 
SMALL
USER_CHARGES


@<TRIPOS>ATOM
  1 O       -2.1710    -1.1740    -2.7150 O.2   1 <1>  -0.5200 
  2 N       -3.0730    -2.0300    -2.7740 N.pl3 1 <1>   0.8360 
  3 O       -3.4560    -2.4470    -3.8820 O.2   1 <1>  -0.5200 
  4 C       -3.5260    -2.6400    -1.5990 C.2   1 <1>   0.2190 
  5 C       -4.7510    -2.1610    -1.0600 C.2   1 <1>   0.6160 
  6 C       -2.8400    -3.6450    -0.9740 C.2   1 <1>  -0.1500 
  7 O       -5.3890    -1.2540    -1.5870 O.2   1 <1>  -0.5700 
  8 N       -5.2330    -2.7330     0.1140 N.am  1 <1>  -0.4690 
  9 C       -3.3680    -4.2220     0.1970 C.2   1 <1>  -0.1500 
 10 C       -4.5470    -3.7800     0.7200 C.2   1 <1>  -0.0290 
 11 C       -6.4670    -2.1250     0.7180 C.3   1 <1>   0.1400 
 12 C       -5.1420    -4.4670     1.9540 C.3   1 <1>   0.0580 
 13 C       -7.0940    -2.9500     1.8570 C.3   1 <1>  -0.0800 
 14 C       -6.0230    -5.6460     1.5010 C.3   1 <1>   0.1400 
 15 C       -5.9870    -3.4860     2.7730 C.3   1 <1>  -0.1600 
 16 C       -7.9740    -4.0960     1.3150 C.3   1 <1>   0.1400 
 17 N       -7.1470    -5.1480     0.6510 N.am  1 <1>  -0.6600 
 18 C       -7.2550    -5.5370    -0.6650 C.2   1 <1>   0.5690 
 19 O       -6.5440    -6.4020    -1.1250 O.2   1 <1>  -0.5700 
 20 C       -8.2510    -4.8880    -1.6200 C.3   1 <1>   0.0440 
 21 C       -9.7140    -5.1160    -1.2470 C.ar  1 <1>  -0.1440 
 22 C      -10.1510    -6.3640    -0.8270 C.ar  1 <1>  -0.1500 
 23 C      -10.6230    -4.0710    -1.3250 C.ar  1 <1>  -0.1500 
 24 C      -11.4750    -6.5660    -0.4780 C.ar  1 <1>  -0.1500 
 25 C      -11.9470    -4.2700    -0.9760 C.ar  1 <1>  -0.1500 
 26 C      -12.3830    -5.5130    -0.5490 C.ar  1 <1>   0.0820 
 27 O      -13.6950    -5.6230    -0.2220 O.3   1 <1>  -0.3620 
 28 C      -14.2460    -6.8540     0.1890 C.3   1 <1>   0.0400 
 29 H       -1.9070    -4.0150    -1.3640 H     1 <1>   0.1500 
 30 H       -2.8240    -5.0330     0.6520 H     1 <1>   0.1500 
 31 H       -6.1940    -1.1580     1.1040 H     1 <1>   0.0800 
 32 H       -7.2030    -1.9680    -0.0520 H     1 <1>   0.0800 
 33 H       -4.3490    -4.8510     2.5710 H     1 <1>   0.0800 
 34 H       -7.7320    -2.2940     2.4220 H     1 <1>   0.0800 
 35 H       -6.4310    -6.1530     2.3580 H     1 <1>   0.0800 
 36 H       -5.4190    -6.3520     0.9590 H     1 <1>   0.0800 
 37 H       -6.4160    -3.9850     3.6250 H     1 <1>   0.0800 
 38 H       -5.3710    -2.6780     3.1280 H     1 <1>   0.0800 
 39 H       -8.7060    -3.6910     0.6430 H     1 <1>   0.0800 
 40 H       -8.5080    -4.5530     2.1310 H     1 <1>   0.0800 
 41 H       -8.0320    -3.8380    -1.6660 H     1 <1>   0.0800 
 42 H       -8.0890    -5.2880    -2.6050 H     1 <1>   0.0800 
 43 H       -9.4590    -7.1880    -0.7700 H     1 <1>   0.1500 
 44 H      -10.3090    -3.0980    -1.6600 H     1 <1>   0.1500 
 45 H      -11.7770    -7.5440    -0.1560 H     1 <1>   0.1500 
 46 H      -12.6540    -3.4630    -1.0350 H     1 <1>   0.1500 
 47 H      -15.2930    -6.7030     0.3810 H     1 <1>   0.0800 
 48 H      -13.7520    -7.1740     1.0900 H     1 <1>   0.0800 
 49 H      -14.1190    -7.5740    -0.5990 H     1 <1>   0.0800 
@<TRIPOS>BOND
  1   1   2  2   
  2   2   3  2   
  3   2   4  1   
  4   4   5  1   
  5   4   6  2   
  6   5   7  2   
  7   5   8  am  
  8   6   9  1   
  9   6  29  1   
 10   8  10  1   
 11   8  11  1   
 12   9  10  2   
 13   9  30  1   
 14  10  12  1   
 15  11  13  1   
 16  11  31  1   
 17  11  32  1   
 18  12  14  1   
 19  12  15  1   
 20  12  33  1   
 21  13  15  1   
 22  13  16  1   
 23  13  34  1   
 24  14  17  1   
 25  14  35  1   
 26  14  36  1   
 27  15  37  1   
 28  15  38  1   
 29  16  17  1   
 30  16  39  1   
 31  16  40  1   
 32  17  18  am  
 33  18  19  2   
 34  18  20  1   
 35  20  21  1   
 36  20  41  1   
 37  20  42  1   
 38  21  22  ar  
 39  21  23  ar  
 40  22  24  ar  
 41  22  43  1   
 42  23  25  ar  
 43  23  44  1   
 44  24  26  ar  
 45  24  45  1   
 46  25  26  ar  
 47  25  46  1   
 48  26  27  1   
 49  27  28  1   
 50  28  47  1   
 51  28  48  1   
 52  28  49  1   
@<TRIPOS>SUBSTRUCTURE
  1 ****  18 GROUP 4 **** **** 0

# MOE 2024.06 (io_trps.svl 2023.06)
