@<TRIPOS>MOLECULE
NONAME
61 64 1 0 0 
SMALL
USER_CHARGES


@<TRIPOS>ATOM
  1 O       -1.2520     0.3170    -0.7960 O.2   1 <1>  -0.5700 
  2 C       -2.3530     0.7430    -0.5390 C.2   1 <1>   0.5690 
  3 N       -3.4400    -0.0860    -0.4970 N.am  1 <1>  -0.6600 
  4 C       -2.4730     2.2470    -0.2720 C.3   1 <1>  -0.0190 
  5 C       -4.8670     0.2810    -0.3040 C.3   1 <1>   0.1400 
  6 C       -3.3080    -1.5480    -0.7210 C.3   1 <1>   0.1400 
  7 C       -2.1240     3.0460    -1.5430 C.3   1 <1>  -0.1600 
  8 C       -1.5530     2.6640     0.8930 C.3   1 <1>  -0.1600 
  9 C       -5.6500    -1.0050    -0.5750 C.3   1 <1>   0.2000 
 10 C       -4.6630    -2.1450    -0.3410 C.3   1 <1>  -0.0800 
 11 C       -2.0540     4.5500    -1.2850 C.3   1 <1>   0.3430 
 12 C       -1.5010     4.1780     1.0830 C.3   1 <1>   0.3430 
 13 O       -6.7330    -1.1270     0.2800 O.3   1 <1>  -0.6800 
 14 C       -5.0180    -3.4160    -1.1300 C.3   1 <1>  -0.0160 
 15 N       -1.0760     4.8210    -0.1940 N.4   1 <1>  -0.9590 
 16 C       -4.0280    -4.5390    -0.8360 C.ar  1 <1>  -0.1440 
 17 C       -0.8650     6.3000    -0.0460 C.3   1 <1>   0.3430 
 18 C       -4.0880    -5.3100     0.3500 C.ar  1 <1>   0.0000 
 19 C       -3.0340    -4.8270    -1.7250 C.ar  1 <1>  -0.1500 
 20 C        0.3410     6.6480     0.8340 C.3   1 <1>   0.1200 
 21 C       -3.1020    -6.3100     0.5330 C.ar  1 <1>   0.3100 
 22 C       -5.0650    -5.1490     1.3600 C.ar  1 <1>  -0.1500 
 23 C       -2.1130    -5.8440    -1.4490 C.ar  1 <1>   0.1600 
 24 O        0.4370     8.0310     0.8620 O.3   1 <1>  -0.5600 
 25 N       -2.1260    -6.5650    -0.3740 N.ar  1 <1>  -0.6200 
 26 C       -3.1280    -7.0820     1.7060 C.ar  1 <1>  -0.1500 
 27 C       -5.0630    -5.9210     2.4900 C.ar  1 <1>  -0.1500 
 28 C        1.5070     8.5220     1.6080 C.3   1 <1>   0.0400 
 29 C       -4.0820    -6.8990     2.6690 C.ar  1 <1>  -0.1500 
 30 H       -3.4820     2.4840     0.0070 H     1 <1>   0.0800 
 31 H       -5.0160     0.6090     0.7100 H     1 <1>   0.0800 
 32 H       -5.1590     1.0490    -0.9980 H     1 <1>   0.0800 
 33 H       -3.0870    -1.7200    -1.7610 H     1 <1>   0.0800 
 34 H       -2.5140    -1.9610    -0.1200 H     1 <1>   0.0800 
 35 H       -2.8640     2.8520    -2.2990 H     1 <1>   0.0800 
 36 H       -1.1770     2.7160    -1.9360 H     1 <1>   0.0800 
 37 H       -0.5520     2.3030     0.7220 H     1 <1>   0.0800 
 38 H       -1.9020     2.2050     1.8020 H     1 <1>   0.0800 
 39 H       -6.0160    -1.0020    -1.5880 H     1 <1>   0.0800 
 40 H       -4.6210    -2.3690     0.7110 H     1 <1>   0.0800 
 41 H       -3.0280     4.9180    -1.0050 H     1 <1>   0.0800 
 42 H       -1.7490     5.0530    -2.1900 H     1 <1>   0.0800 
 43 H       -0.8040     4.4120     1.8710 H     1 <1>   0.0800 
 44 H       -2.4740     4.5430     1.3720 H     1 <1>   0.0800 
 45 H       -6.4340    -1.2220     1.2050 H     1 <1>   0.4000 
 46 H       -5.0110    -3.1960    -2.1830 H     1 <1>   0.0800 
 47 H       -6.0160    -3.7360    -0.8890 H     1 <1>   0.0800 
 48 H       -0.1850     4.3910    -0.4810 H     1 <1>   0.4500 
 49 H       -0.6980     6.7350    -1.0180 H     1 <1>   0.0800 
 50 H       -1.7460     6.7520     0.3790 H     1 <1>   0.0800 
 51 H       -2.9270    -4.2880    -2.6490 H     1 <1>   0.1500 
 52 H        1.2500     6.2530     0.4120 H     1 <1>   0.0800 
 53 H        0.2050     6.3010     1.8430 H     1 <1>   0.0800 
 54 H       -5.8310    -4.4080     1.2420 H     1 <1>   0.1500 
 55 H       -1.3440    -6.0370    -2.1780 H     1 <1>   0.1500 
 56 H       -2.3650    -7.8290     1.8200 H     1 <1>   0.1500 
 57 H       -5.8120    -5.7880     3.2520 H     1 <1>   0.1500 
 58 H        1.4830     9.5970     1.5600 H     1 <1>   0.0800 
 59 H        2.4320     8.1650     1.1880 H     1 <1>   0.0800 
 60 H        1.4070     8.2060     2.6320 H     1 <1>   0.0800 
 61 H       -4.0890    -7.4980     3.5630 H     1 <1>   0.1500 
@<TRIPOS>BOND
  1   1   2  2   
  2   2   3  am  
  3   2   4  1   
  4   3   5  1   
  5   3   6  1   
  6   4   7  1   
  7   4   8  1   
  8   4  30  1   
  9   5   9  1   
 10   5  31  1   
 11   5  32  1   
 12   6  10  1   
 13   6  33  1   
 14   6  34  1   
 15   7  11  1   
 16   7  35  1   
 17   7  36  1   
 18   8  12  1   
 19   8  37  1   
 20   8  38  1   
 21   9  10  1   
 22   9  13  1   
 23   9  39  1   
 24  10  14  1   
 25  10  40  1   
 26  11  15  1   
 27  11  41  1   
 28  11  42  1   
 29  12  15  1   
 30  12  43  1   
 31  12  44  1   
 32  13  45  1   
 33  14  16  1   
 34  14  46  1   
 35  14  47  1   
 36  15  17  1   
 37  15  48  1   
 38  16  18  ar  
 39  16  19  ar  
 40  17  20  1   
 41  17  49  1   
 42  17  50  1   
 43  18  21  ar  
 44  18  22  ar  
 45  19  23  ar  
 46  19  51  1   
 47  20  24  1   
 48  20  52  1   
 49  20  53  1   
 50  21  25  ar  
 51  21  26  ar  
 52  22  27  ar  
 53  22  54  1   
 54  23  25  ar  
 55  23  55  1   
 56  24  28  1   
 57  26  29  ar  
 58  26  56  1   
 59  27  29  ar  
 60  27  57  1   
 61  28  58  1   
 62  28  59  1   
 63  28  60  1   
 64  29  61  1   
@<TRIPOS>SUBSTRUCTURE
  1 ****   3 GROUP 4 **** **** 0

# MOE 2024.06 (io_trps.svl 2023.06)
