@<TRIPOS>MOLECULE
NONAME
36 37 1 0 0 
SMALL
USER_CHARGES


@<TRIPOS>ATOM
  1 O        0.0470     0.6950     2.4630 O.2   1 <1>  -0.5700 
  2 C        0.7500    -0.0770     1.8640 C.2   1 <1>   0.5690 
  3 N        1.7620     0.2950     1.0280 N.am  1 <1>  -0.4940 
  4 C        0.4880    -1.5620     2.0340 C.3   1 <1>  -0.0990 
  5 C        2.2260     1.5760     0.7090 C.2   1 <1>   0.2040 
  6 C       -0.0830    -2.1950     0.7550 C.3   1 <1>  -0.1600 
  7 O        1.8170     2.6510     1.3390 O.3   1 <1>  -0.0190 
  8 C        3.1250     1.9630    -0.2180 C.2   1 <1>  -0.1810 
  9 C       -0.4010    -3.6840     0.9530 C.3   1 <1>   0.0960 
 10 N        2.3990     3.7320     0.8850 N.2   1 <1>  -0.4100 
 11 C        3.1890     3.3450    -0.0510 C.2   1 <1>   0.1080 
 12 C        3.8960     1.1190    -1.2200 C.3   1 <1>   0.0210 
 13 N       -0.7860    -4.3040    -0.3280 N.pl3 1 <1>   0.3140 
 14 C        4.0560     4.2970    -0.8470 C.3   1 <1>  -0.0590 
 15 C        5.2680     0.7400    -0.6610 C.3   1 <1>  -0.2400 
 16 N        0.1030    -4.6290    -1.2570 N.2   1 <1>  -0.7070 
 17 C       -2.0050    -4.6220    -0.7730 C.2   1 <1>   0.0360 
 18 C       -0.6430    -5.1220    -2.1920 C.2   1 <1>   0.3660 
 19 N       -1.9590    -5.1410    -1.9460 N.2   1 <1>  -0.5650 
 20 H        2.2480    -0.4610     0.5540 H     1 <1>   0.3700 
 21 H       -0.2100    -1.6890     2.8430 H     1 <1>   0.0800 
 22 H        1.4060    -2.0450     2.3140 H     1 <1>   0.0800 
 23 H        0.6320    -2.0930    -0.0440 H     1 <1>   0.0800 
 24 H       -0.9830    -1.6730     0.4720 H     1 <1>   0.0800 
 25 H       -1.2030    -3.8090     1.6580 H     1 <1>   0.0800 
 26 H        0.4660    -4.2030     1.3200 H     1 <1>   0.0800 
 27 H        4.0130     1.6650    -2.1400 H     1 <1>   0.0800 
 28 H        3.3400     0.2250    -1.4420 H     1 <1>   0.0800 
 29 H        5.0910     4.0330    -0.7320 H     1 <1>   0.0800 
 30 H        3.9150     5.3020    -0.4940 H     1 <1>   0.0800 
 31 H        3.7890     4.2540    -1.8860 H     1 <1>   0.0800 
 32 H        5.8450     1.6240    -0.4560 H     1 <1>   0.0800 
 33 H        5.8050     0.1370    -1.3720 H     1 <1>   0.0800 
 34 H        5.1590     0.1830     0.2520 H     1 <1>   0.0800 
 35 H       -2.9010    -4.4550    -0.2040 H     1 <1>   0.1500 
 36 H       -0.2520    -5.5000    -3.1230 H     1 <1>   0.1500 
@<TRIPOS>BOND
  1   1   2  2   
  2   2   3  am  
  3   2   4  1   
  4   3   5  1   
  5   3  20  1   
  6   4   6  1   
  7   4  21  1   
  8   4  22  1   
  9   5   7  1   
 10   5   8  2   
 11   6   9  1   
 12   6  23  1   
 13   6  24  1   
 14   7  10  1   
 15   8  11  1   
 16   8  12  1   
 17   9  13  1   
 18   9  25  1   
 19   9  26  1   
 20  10  11  2   
 21  11  14  1   
 22  12  15  1   
 23  12  27  1   
 24  12  28  1   
 25  13  16  1   
 26  13  17  1   
 27  14  29  1   
 28  14  30  1   
 29  14  31  1   
 30  15  32  1   
 31  15  33  1   
 32  15  34  1   
 33  16  18  2   
 34  17  19  2   
 35  17  35  1   
 36  18  19  1   
 37  18  36  1   
@<TRIPOS>SUBSTRUCTURE
  1 ****   3 GROUP 4 **** **** 0

# MOE 2024.06 (io_trps.svl 2023.06)
