@<TRIPOS>MOLECULE
NONAME
48 51 1 0 0 
SMALL
USER_CHARGES


@<TRIPOS>ATOM
  1 O        3.0100    -0.7490     3.0450 O.2   1 <1>  -0.5700 
  2 C        2.8410    -0.1230     2.0230 C.2   1 <1>   0.6900 
  3 N        2.5980    -0.6430     0.7700 N.am  1 <1>  -0.4770 
  4 N        2.8760     1.2260     1.9970 N.am  1 <1>  -0.4900 
  5 C        2.3780    -1.9720     0.3720 C.ar  1 <1>   0.1170 
  6 C        2.4680     0.5080    -0.1730 C.3   1 <1>   0.2010 
  7 C        2.6630     1.6910     0.7540 C.2   1 <1>   0.5690 
  8 C        2.6710    -2.3910    -0.9230 C.ar  1 <1>  -0.1500 
  9 C        1.8490    -2.9180     1.2460 C.ar  1 <1>  -0.1500 
 10 O        2.6360     2.8490     0.4320 O.2   1 <1>  -0.5700 
 11 C        2.4410    -3.6930    -1.3230 C.ar  1 <1>  -0.1500 
 12 C        1.6210    -4.2200     0.8440 C.ar  1 <1>  -0.1500 
 13 C        1.9140    -4.6490    -0.4530 C.ar  1 <1>   0.0860 
 14 C        1.6850    -6.0120    -0.8960 C.2   1 <1>   0.5440 
 15 O        1.5560    -6.2710    -2.0770 O.2   1 <1>  -0.5700 
 16 N        1.6110    -7.0440    -0.0040 N.am  1 <1>  -0.7300 
 17 C        1.3870    -8.4630    -0.3630 C.3   1 <1>   0.2200 
 18 C       -0.0630    -8.8210    -0.0900 C.3   1 <1>  -0.0800 
 19 C        2.1210    -9.3650     0.6230 C.3   1 <1>   0.1200 
 20 C       -0.0370    -9.1520     1.4070 C.3   1 <1>   0.1200 
 21 C       -0.5210   -10.0170    -0.9460 C.3   1 <1>  -0.0170 
 22 O        1.2790    -9.5000     1.7290 O.3   1 <1>  -0.5600 
 23 C       -1.9840   -10.3510    -0.6970 C.ar  1 <1>  -0.1430 
 24 C       -3.0010    -9.5690    -1.2050 C.ar  1 <1>  -0.1500 
 25 C       -2.3720   -11.4470     0.0470 C.ar  1 <1>  -0.1500 
 26 C       -4.3200    -9.9080    -0.9480 C.ar  1 <1>   0.1600 
 27 C       -3.7200   -11.6970     0.2450 C.ar  1 <1>   0.1600 
 28 N       -4.7030   -10.9520    -0.2330 N.ar  1 <1>  -0.6200 
 29 H        3.0440     1.7960     2.8200 H     1 <1>   0.3700 
 30 H        3.2410     0.4880    -0.9190 H     1 <1>   0.0800 
 31 H        1.4920     0.5290    -0.6210 H     1 <1>   0.0800 
 32 H        3.0890    -1.7020    -1.6330 H     1 <1>   0.1500 
 33 H        1.6060    -2.6330     2.2540 H     1 <1>   0.1500 
 34 H        2.6760    -3.9880    -2.3320 H     1 <1>   0.1500 
 35 H        1.2020    -4.9120     1.5520 H     1 <1>   0.1500 
 36 H        1.7490    -6.8810     0.9940 H     1 <1>   0.3700 
 37 H        1.6870    -8.6450    -1.3820 H     1 <1>   0.0800 
 38 H       -0.7120    -7.9860    -0.2890 H     1 <1>   0.0800 
 39 H        3.0670    -8.9570     0.9340 H     1 <1>   0.0800 
 40 H        2.2680   -10.3450     0.2040 H     1 <1>   0.0800 
 41 H       -0.6900    -9.9640     1.6730 H     1 <1>   0.0800 
 42 H       -0.2930    -8.2840     1.9900 H     1 <1>   0.0800 
 43 H        0.0860   -10.8800    -0.7400 H     1 <1>   0.0800 
 44 H       -0.3980    -9.7750    -1.9880 H     1 <1>   0.0800 
 45 H       -2.7820    -8.7000    -1.7990 H     1 <1>   0.1500 
 46 H       -1.6410   -12.1080     0.4760 H     1 <1>   0.1500 
 47 H       -5.0990    -9.2850    -1.3530 H     1 <1>   0.1500 
 48 H       -4.0040   -12.5560     0.8290 H     1 <1>   0.1500 
@<TRIPOS>BOND
  1   1   2  2   
  2   2   3  am  
  3   2   4  am  
  4   3   5  1   
  5   3   6  1   
  6   4   7  am  
  7   4  29  1   
  8   5   8  ar  
  9   5   9  ar  
 10   6   7  1   
 11   6  30  1   
 12   6  31  1   
 13   7  10  2   
 14   8  11  ar  
 15   8  32  1   
 16   9  12  ar  
 17   9  33  1   
 18  11  13  ar  
 19  11  34  1   
 20  12  13  ar  
 21  12  35  1   
 22  13  14  1   
 23  14  15  2   
 24  14  16  am  
 25  16  17  1   
 26  16  36  1   
 27  17  18  1   
 28  17  19  1   
 29  17  37  1   
 30  18  20  1   
 31  18  21  1   
 32  18  38  1   
 33  19  22  1   
 34  19  39  1   
 35  19  40  1   
 36  20  22  1   
 37  20  41  1   
 38  20  42  1   
 39  21  23  1   
 40  21  43  1   
 41  21  44  1   
 42  23  24  ar  
 43  23  25  ar  
 44  24  26  ar  
 45  24  45  1   
 46  25  27  ar  
 47  25  46  1   
 48  26  28  ar  
 49  26  47  1   
 50  27  28  ar  
 51  27  48  1   
@<TRIPOS>SUBSTRUCTURE
  1 ****  14 GROUP 4 **** **** 0

# MOE 2024.06 (io_trps.svl 2023.06)
