@<TRIPOS>MOLECULE
NONAME
57 59 1 0 0 
SMALL
USER_CHARGES


@<TRIPOS>ATOM
  1 O       -1.3180     0.3110    -1.3670 O.3   1 <1>  -0.0190 
  2 N       -1.2950    -0.8680    -0.8260 N.2   1 <1>  -0.4100 
  3 C       -1.5320     1.1200    -0.3580 C.2   1 <1>   0.2980 
  4 C       -1.4970    -0.7130     0.4240 C.2   1 <1>   0.3350 
  5 N       -1.6620     0.5540     0.7760 N.2   1 <1>  -0.5650 
  6 C       -1.6330     2.6190    -0.6350 C.3   1 <1>   0.2900 
  7 C       -1.5570    -1.8140     1.4660 C.3   1 <1>   0.0210 
  8 N       -0.3230     3.3300    -0.6840 N.3   1 <1>  -0.8100 
  9 C       -1.3820    -3.2030     0.8520 C.3   1 <1>   0.1200 
 10 C       -0.5150     4.7780    -0.7040 C.3   1 <1>   0.1100 
 11 C        0.5300     2.8780    -1.7850 C.3   1 <1>   0.1100 
 12 O       -1.4640    -4.1480     1.8710 O.3   1 <1>  -0.5600 
 13 C        0.8340     5.4520    -0.4640 C.3   1 <1>  -0.1600 
 14 C        1.9230     3.4730    -1.5980 C.3   1 <1>  -0.1600 
 15 C       -1.3170    -5.4600     1.4330 C.3   1 <1>   0.0400 
 16 C        1.8840     5.0040    -1.4910 C.3   1 <1>   0.4230 
 17 N        3.2310     5.5180    -1.0990 N.4   1 <1>  -0.9590 
 18 C        3.3220     7.0010    -0.8730 C.3   1 <1>   0.3430 
 19 C        4.3670     5.0790    -1.9840 C.3   1 <1>   0.3430 
 20 C        4.6820     7.3910    -0.2420 C.3   1 <1>   0.1100 
 21 C        5.7350     5.5670    -1.4450 C.3   1 <1>   0.1100 
 22 N        5.6110     6.2370    -0.1310 N.3   1 <1>  -0.8100 
 23 C        6.9390     6.6390     0.3820 C.3   1 <1>   0.1100 
 24 C        6.8930     6.9780     1.8770 C.3   1 <1>   0.1200 
 25 O        8.1670     7.3150     2.3040 O.3   1 <1>  -0.6800 
 26 H       -2.2240     3.0420     0.1590 H     1 <1>   0.0800 
 27 H       -2.1670     2.7690    -1.5570 H     1 <1>   0.0800 
 28 H       -2.5090    -1.7630     1.9610 H     1 <1>   0.0800 
 29 H       -0.7800    -1.6440     2.1880 H     1 <1>   0.0800 
 30 H       -0.4190    -3.2850     0.3780 H     1 <1>   0.0800 
 31 H       -2.1610    -3.3970     0.1350 H     1 <1>   0.0800 
 32 H       -1.1940     5.0660     0.0830 H     1 <1>   0.0800 
 33 H       -0.9360     5.0860    -1.6480 H     1 <1>   0.0800 
 34 H        0.1070     3.1730    -2.7320 H     1 <1>   0.0800 
 35 H        0.6210     1.8060    -1.7710 H     1 <1>   0.0800 
 36 H        1.1570     5.2000     0.5310 H     1 <1>   0.0800 
 37 H        0.6760     6.5120    -0.5200 H     1 <1>   0.0800 
 38 H        2.5180     3.1670    -2.4380 H     1 <1>   0.0800 
 39 H        2.3430     3.0500    -0.7020 H     1 <1>   0.0800 
 40 H       -1.3950    -6.1090     2.2880 H     1 <1>   0.0800 
 41 H       -0.3490    -5.5770     0.9760 H     1 <1>   0.0800 
 42 H       -2.0990    -5.6910     0.7310 H     1 <1>   0.0800 
 43 H        1.6100     5.4050    -2.4540 H     1 <1>   0.0800 
 44 H        3.4720     5.1160    -0.1800 H     1 <1>   0.4500 
 45 H        2.5390     7.3300    -0.2110 H     1 <1>   0.0800 
 46 H        3.2010     7.5230    -1.8080 H     1 <1>   0.0800 
 47 H        4.2250     5.4530    -2.9840 H     1 <1>   0.0800 
 48 H        4.3950     4.0040    -2.0380 H     1 <1>   0.0800 
 49 H        4.4940     7.7970     0.7370 H     1 <1>   0.0800 
 50 H        5.1310     8.1720    -0.8320 H     1 <1>   0.0800 
 51 H        6.1770     6.2410    -2.1600 H     1 <1>   0.0800 
 52 H        6.3910     4.7170    -1.3560 H     1 <1>   0.0800 
 53 H        7.3070     7.4880    -0.1700 H     1 <1>   0.0800 
 54 H        7.6270     5.8210     0.2500 H     1 <1>   0.0800 
 55 H        6.5520     6.1370     2.4550 H     1 <1>   0.0800 
 56 H        6.2620     7.8290     2.0610 H     1 <1>   0.0800 
 57 H        8.7430     6.5270     2.3530 H     1 <1>   0.4000 
@<TRIPOS>BOND
  1   1   2  1   
  2   1   3  1   
  3   2   4  2   
  4   3   5  2   
  5   3   6  1   
  6   4   5  1   
  7   4   7  1   
  8   6   8  1   
  9   6  26  1   
 10   6  27  1   
 11   7   9  1   
 12   7  28  1   
 13   7  29  1   
 14   8  10  1   
 15   8  11  1   
 16   9  12  1   
 17   9  30  1   
 18   9  31  1   
 19  10  13  1   
 20  10  32  1   
 21  10  33  1   
 22  11  14  1   
 23  11  34  1   
 24  11  35  1   
 25  12  15  1   
 26  13  16  1   
 27  13  36  1   
 28  13  37  1   
 29  14  16  1   
 30  14  38  1   
 31  14  39  1   
 32  15  40  1   
 33  15  41  1   
 34  15  42  1   
 35  16  17  1   
 36  16  43  1   
 37  17  18  1   
 38  17  19  1   
 39  17  44  1   
 40  18  20  1   
 41  18  45  1   
 42  18  46  1   
 43  19  21  1   
 44  19  47  1   
 45  19  48  1   
 46  20  22  1   
 47  20  49  1   
 48  20  50  1   
 49  21  22  1   
 50  21  51  1   
 51  21  52  1   
 52  22  23  1   
 53  23  24  1   
 54  23  53  1   
 55  23  54  1   
 56  24  25  1   
 57  24  55  1   
 58  24  56  1   
 59  25  57  1   
@<TRIPOS>SUBSTRUCTURE
  1 ****  14 GROUP 4 **** **** 0

# MOE 2024.06 (io_trps.svl 2023.06)
