@<TRIPOS>MOLECULE
NONAME
50 53 1 0 0 
SMALL
USER_CHARGES


@<TRIPOS>ATOM
  1 F       -0.2900    -0.7120     1.2200 F     1 <1>  -0.1900 
  2 C       -1.4560    -1.3060     1.1860 C.ar  1 <1>   0.1900 
  3 C       -1.6050    -2.4740     0.3980 C.ar  1 <1>   0.3100 
  4 C       -2.4630    -0.7500     1.9240 C.ar  1 <1>  -0.1500 
  5 N       -0.5530    -2.9580    -0.3180 N.ar  1 <1>  -0.6200 
  6 C       -2.8810    -3.0950     0.3930 C.ar  1 <1>   0.0000 
  7 C       -3.7000    -1.3820     1.8850 C.ar  1 <1>   0.1900 
  8 C       -0.7430    -4.0260    -1.0300 C.ar  1 <1>   0.1660 
  9 C       -3.0390    -4.2730    -0.3800 C.ar  1 <1>   0.1000 
 10 C       -3.9240    -2.5130     1.1500 C.ar  1 <1>  -0.1500 
 11 F       -4.6720    -0.8610     2.5830 F     1 <1>  -0.1900 
 12 C       -1.9550    -4.7090    -1.0900 C.ar  1 <1>  -0.1500 
 13 C        0.4440    -4.5300    -1.8250 C.3   1 <1>  -0.0960 
 14 N       -4.2200    -4.9910    -0.4370 N.pl3 1 <1>  -0.8380 
 15 C       -4.6380    -5.8150     0.7340 C.3   1 <1>   0.2090 
 16 C       -5.3380    -4.4910    -1.2880 C.3   1 <1>   0.2090 
 17 C       -5.4800    -7.0170     0.2430 C.3   1 <1>   0.4230 
 18 C       -6.2120    -5.6730    -1.7330 C.3   1 <1>  -0.1600 
 19 N       -5.9130    -7.9820     1.3150 N.4   1 <1>  -0.9590 
 20 C       -6.7230    -6.5230    -0.5330 C.3   1 <1>  -0.1060 
 21 C       -6.6230    -9.1900     0.7980 C.3   1 <1>   0.3430 
 22 C       -4.9060    -8.3040     2.3600 C.3   1 <1>   0.2630 
 23 C       -7.5710    -5.6720     0.4300 C.2   1 <1>   0.9060 
 24 C       -7.5750    -7.7180    -1.0580 C.3   1 <1>  -0.1600 
 25 C       -6.9710    -9.0830    -0.6930 C.3   1 <1>  -0.1600 
 26 O       -7.6720    -6.0480     1.6090 O.co2 1 <1>  -0.9000 
 27 O       -8.1200    -4.6470     0.0300 O.co2 1 <1>  -0.9000 
 28 H       -2.3190     0.1380     2.5120 H     1 <1>   0.1500 
 29 H       -4.9030    -2.9560     1.1500 H     1 <1>   0.1500 
 30 H       -2.0450    -5.5880    -1.6980 H     1 <1>   0.1500 
 31 H        0.1920    -5.4080    -2.3900 H     1 <1>   0.0800 
 32 H        1.2500    -4.7650    -1.1550 H     1 <1>   0.0800 
 33 H        0.7720    -3.7630    -2.5020 H     1 <1>   0.0800 
 34 H       -3.7520    -6.1630     1.2330 H     1 <1>   0.0800 
 35 H       -5.2060    -5.2090     1.4190 H     1 <1>   0.0800 
 36 H       -5.9280    -3.7790    -0.7350 H     1 <1>   0.0800 
 37 H       -4.9380    -3.9870    -2.1510 H     1 <1>   0.0800 
 38 H       -4.8540    -7.5540    -0.4470 H     1 <1>   0.0800 
 39 H       -7.0540    -5.2800    -2.2770 H     1 <1>   0.0800 
 40 H       -5.6430    -6.2840    -2.4100 H     1 <1>   0.0800 
 41 H       -6.6710    -7.4030     1.7690 H     1 <1>   0.4500 
 42 H       -6.0160   -10.0670     0.9510 H     1 <1>   0.0800 
 43 H       -7.5360    -9.3150     1.3600 H     1 <1>   0.0800 
 44 H       -4.0630    -8.8130     1.9230 H     1 <1>   0.0800 
 45 H       -5.3460    -8.9380     3.1130 H     1 <1>   0.0800 
 46 H       -4.5640    -7.4010     2.8380 H     1 <1>   0.0800 
 47 H       -8.5640    -7.6570    -0.6320 H     1 <1>   0.0800 
 48 H       -7.7010    -7.6580    -2.1250 H     1 <1>   0.0800 
 49 H       -6.0830    -9.2550    -1.2770 H     1 <1>   0.0800 
 50 H       -7.6690    -9.8620    -0.9460 H     1 <1>   0.0800 
@<TRIPOS>BOND
  1   1   2  1   
  2   2   3  ar  
  3   2   4  ar  
  4   3   5  ar  
  5   3   6  ar  
  6   4   7  ar  
  7   4  28  1   
  8   5   8  ar  
  9   6   9  ar  
 10   6  10  ar  
 11   7  10  ar  
 12   7  11  1   
 13   8  12  ar  
 14   8  13  1   
 15   9  12  ar  
 16   9  14  1   
 17  10  29  1   
 18  12  30  1   
 19  13  31  1   
 20  13  32  1   
 21  13  33  1   
 22  14  15  1   
 23  14  16  1   
 24  15  17  1   
 25  15  34  1   
 26  15  35  1   
 27  16  18  1   
 28  16  36  1   
 29  16  37  1   
 30  17  19  1   
 31  17  20  1   
 32  17  38  1   
 33  18  20  1   
 34  18  39  1   
 35  18  40  1   
 36  19  21  1   
 37  19  22  1   
 38  19  41  1   
 39  20  23  1   
 40  20  24  1   
 41  21  25  1   
 42  21  42  1   
 43  21  43  1   
 44  22  44  1   
 45  22  45  1   
 46  22  46  1   
 47  23  26  ar  
 48  23  27  ar  
 49  24  25  1   
 50  24  47  1   
 51  24  48  1   
 52  25  49  1   
 53  25  50  1   
@<TRIPOS>SUBSTRUCTURE
  1 ****  14 GROUP 4 **** **** 0

# MOE 2024.06 (io_trps.svl 2023.06)
