@<TRIPOS>MOLECULE
NONAME
53 55 1 0 0 
SMALL
USER_CHARGES


@<TRIPOS>ATOM
  1 O        0.3560     0.4390     0.8980 O.2   1 <1>  -0.5700 
  2 C        1.1070    -0.5070     0.8830 C.2   1 <1>   0.5690 
  3 N        2.3300    -0.4760     1.4990 N.am  1 <1>  -0.6600 
  4 C        0.6330    -1.7450     0.1550 C.3   1 <1>  -0.0990 
  5 C        2.8180     0.7850     2.1390 C.3   1 <1>   0.3210 
  6 C        3.3570    -1.5600     1.4590 C.3   1 <1>   0.0600 
  7 C        0.0880    -2.7740     1.1550 C.3   1 <1>   0.1760 
  8 C        3.8900     1.4500     1.2870 C.2   1 <1>   0.1080 
  9 N        0.0980    -4.1350     0.5440 N.pl3 1 <1>   0.3140 
 10 C       -1.2770    -2.3840     1.7490 C.3   1 <1>  -0.2400 
 11 N        5.1670     1.4500     1.5650 N.2   1 <1>  -0.7070 
 12 C        3.6310     2.1390     0.1090 C.2   1 <1>  -0.1810 
 13 N        1.1030    -4.9600     0.8790 N.2   1 <1>  -0.7070 
 14 C       -0.7200    -4.7200    -0.3630 C.2   1 <1>  -0.3320 
 15 N        5.7420     2.1480     0.5570 N.pl3 1 <1>   0.3000 
 16 C        4.8120     2.5640    -0.3220 C.2   1 <1>  -0.3320 
 17 C        2.5050     2.5360    -0.8020 C.3   1 <1>   0.0210 
 18 C        0.9030    -6.0420     0.2070 C.2   1 <1>   0.1080 
 19 C       -0.2430    -5.9850    -0.5970 C.2   1 <1>  -0.0860 
 20 C       -1.9210    -4.0370    -1.0080 C.3   1 <1>  -0.0600 
 21 C        4.7500     3.3420    -1.6050 C.3   1 <1>   0.0200 
 22 C        3.2230     3.4160    -1.8590 C.3   1 <1>  -0.1600 
 23 C        1.8450    -7.2220     0.3250 C.3   1 <1>  -0.0590 
 24 C       -0.7200    -7.0670    -1.4220 C.2   1 <1>   0.5950 
 25 O       -0.0020    -7.8850    -1.9410 O.2   1 <1>  -0.5700 
 26 C       -2.2060    -7.2450    -1.6480 C.3   1 <1>  -0.1790 
 27 H        1.4510    -2.1580    -0.4050 H     1 <1>   0.0800 
 28 H       -0.1310    -1.4610    -0.5430 H     1 <1>   0.0800 
 29 H        3.2290     0.5590     3.1060 H     1 <1>   0.0800 
 30 H        2.0090     1.4780     2.2810 H     1 <1>   0.0800 
 31 H        2.9240    -2.5180     1.2310 H     1 <1>   0.0800 
 32 H        3.8470    -1.6340     2.4140 H     1 <1>   0.0800 
 33 H        4.0980    -1.3250     0.7130 H     1 <1>   0.0800 
 34 H        0.7770    -2.8240     1.9790 H     1 <1>   0.0800 
 35 H       -1.9930    -2.1560     0.9820 H     1 <1>   0.0800 
 36 H       -1.1660    -1.5060     2.3600 H     1 <1>   0.0800 
 37 H       -1.6510    -3.1790     2.3690 H     1 <1>   0.0800 
 38 H        6.7530     2.3180     0.5050 H     1 <1>   0.2700 
 39 H        1.7530     3.0860    -0.2660 H     1 <1>   0.0800 
 40 H        2.0700     1.6600    -1.2500 H     1 <1>   0.0800 
 41 H       -1.6900    -3.0200    -1.2630 H     1 <1>   0.0800 
 42 H       -2.7600    -4.0480    -0.3340 H     1 <1>   0.0800 
 43 H       -2.2040    -4.5330    -1.9170 H     1 <1>   0.0800 
 44 H        5.2500     2.8080    -2.3940 H     1 <1>   0.0800 
 45 H        5.1770     4.3230    -1.4890 H     1 <1>   0.0800 
 46 H        2.8950     4.4350    -1.7500 H     1 <1>   0.0800 
 47 H        2.9850     3.0820    -2.8530 H     1 <1>   0.0800 
 48 H        2.5750    -7.0370     1.0910 H     1 <1>   0.0800 
 49 H        2.3520    -7.3760    -0.6100 H     1 <1>   0.0800 
 50 H        1.2930    -8.1090     0.5760 H     1 <1>   0.0800 
 51 H       -2.7640    -6.7800    -0.8570 H     1 <1>   0.0800 
 52 H       -2.4400    -8.2930    -1.6620 H     1 <1>   0.0800 
 53 H       -2.4800    -6.8160    -2.5920 H     1 <1>   0.0800 
@<TRIPOS>BOND
  1   1   2  2   
  2   2   3  am  
  3   2   4  1   
  4   3   5  1   
  5   3   6  1   
  6   4   7  1   
  7   4  27  1   
  8   4  28  1   
  9   5   8  1   
 10   5  29  1   
 11   5  30  1   
 12   6  31  1   
 13   6  32  1   
 14   6  33  1   
 15   7   9  1   
 16   7  10  1   
 17   7  34  1   
 18   8  11  2   
 19   8  12  1   
 20   9  13  1   
 21   9  14  1   
 22  10  35  1   
 23  10  36  1   
 24  10  37  1   
 25  11  15  1   
 26  12  16  2   
 27  12  17  1   
 28  13  18  2   
 29  14  19  2   
 30  14  20  1   
 31  15  16  1   
 32  15  38  1   
 33  16  21  1   
 34  17  22  1   
 35  17  39  1   
 36  17  40  1   
 37  18  19  1   
 38  18  23  1   
 39  19  24  1   
 40  20  41  1   
 41  20  42  1   
 42  20  43  1   
 43  21  22  1   
 44  21  44  1   
 45  21  45  1   
 46  22  46  1   
 47  22  47  1   
 48  23  48  1   
 49  23  49  1   
 50  23  50  1   
 51  24  25  2   
 52  24  26  1   
 53  26  51  1   
 54  26  52  1   
 55  26  53  1   
@<TRIPOS>SUBSTRUCTURE
  1 ****   4 GROUP 4 **** **** 0

# MOE 2024.06 (io_trps.svl 2023.06)
