@<TRIPOS>MOLECULE
NONAME
53 56 1 0 0 
SMALL
USER_CHARGES


@<TRIPOS>ATOM
  1 O        1.0510    -0.1790    -0.1340 O.3   1 <1>  -0.5600 
  2 C        2.0070    -1.1290    -0.5590 C.3   1 <1>   0.4240 
  3 C       -0.3010    -0.5240    -0.2450 C.3   1 <1>   0.1200 
  4 C        1.5690    -2.5770    -0.2670 C.ar  1 <1>  -0.1440 
  5 C        3.2850    -0.7990     0.2220 C.3   1 <1>  -0.1600 
  6 C        2.2550    -0.8870    -2.0610 C.3   1 <1>  -0.1600 
  7 C       -0.5920    -1.7150     0.6630 C.3   1 <1>  -0.0160 
  8 C        0.3410    -2.8560     0.3150 C.ar  1 <1>  -0.1440 
  9 C        2.4040    -3.6420    -0.5770 C.ar  1 <1>  -0.1500 
 10 C        3.7490     0.6480     0.0270 C.3   1 <1>   0.3430 
 11 C        3.1400     0.3310    -2.3530 C.3   1 <1>   0.3430 
 12 C       -0.0320    -4.1640     0.5790 C.ar  1 <1>  -0.1500 
 13 C        2.0510    -4.9560    -0.3260 C.ar  1 <1>   0.0830 
 14 N        3.1390     1.2600    -1.1950 N.4   1 <1>  -0.9590 
 15 C        0.8060    -5.2320     0.2670 C.ar  1 <1>   0.0830 
 16 O        3.0050    -5.8570    -0.7050 O.3   1 <1>  -0.3630 
 17 C        3.7230     2.6070    -1.5070 C.3   1 <1>   0.4860 
 18 O        0.4320    -6.5190     0.5300 O.3   1 <1>  -0.3630 
 19 C        2.8660    -7.2510    -0.5540 C.3   1 <1>   0.0400 
 20 C        3.5650     3.5920    -0.3500 C.ar  1 <1>   0.1670 
 21 C       -0.7850    -6.8430     1.1660 C.3   1 <1>   0.0400 
 22 N        4.4520     3.5010     0.6330 N.ar  1 <1>  -0.6200 
 23 C        2.5290     4.5160    -0.3760 C.ar  1 <1>  -0.1500 
 24 C        4.3040     4.3680     1.6240 C.ar  1 <1>   0.1600 
 25 C        2.3860     5.4080     0.6650 C.ar  1 <1>  -0.1500 
 26 C        3.3050     5.3230     1.6880 C.ar  1 <1>  -0.1500 
 27 H       -0.5250    -0.7640    -1.2700 H     1 <1>   0.0800 
 28 H       -0.8880     0.3260     0.0560 H     1 <1>   0.0800 
 29 H        4.0780    -1.4520    -0.0890 H     1 <1>   0.0800 
 30 H        3.1240    -0.9850     1.2690 H     1 <1>   0.0800 
 31 H        1.3180    -0.7910    -2.5760 H     1 <1>   0.0800 
 32 H        2.7440    -1.7410    -2.4900 H     1 <1>   0.0800 
 33 H       -1.6160    -2.0180     0.5310 H     1 <1>   0.0800 
 34 H       -0.4550    -1.4300     1.6910 H     1 <1>   0.0800 
 35 H        3.3650    -3.4750    -1.0270 H     1 <1>   0.1500 
 36 H        4.8250     0.6800    -0.0330 H     1 <1>   0.0800 
 37 H        3.4520     1.2250     0.8890 H     1 <1>   0.0800 
 38 H        2.7770     0.8300    -3.2370 H     1 <1>   0.0800 
 39 H        4.1500     0.0030    -2.5410 H     1 <1>   0.0800 
 40 H       -0.9890    -4.3310     1.0330 H     1 <1>   0.1500 
 41 H        2.1470     1.3840    -0.9230 H     1 <1>   0.4500 
 42 H        3.2410     3.0180    -2.3770 H     1 <1>   0.0800 
 43 H        4.7740     2.5070    -1.7230 H     1 <1>   0.0800 
 44 H        3.7540    -7.7200    -0.9360 H     1 <1>   0.0800 
 45 H        2.0090    -7.5790    -1.1150 H     1 <1>   0.0800 
 46 H        2.7520    -7.4790     0.4910 H     1 <1>   0.0800 
 47 H       -0.8300    -7.9120     1.2750 H     1 <1>   0.0800 
 48 H       -1.6020    -6.5050     0.5530 H     1 <1>   0.0800 
 49 H       -0.8080    -6.3780     2.1360 H     1 <1>   0.0800 
 50 H        1.8350     4.5510    -1.1980 H     1 <1>   0.1500 
 51 H        5.0170     4.3180     2.4310 H     1 <1>   0.1500 
 52 H        1.5950     6.1400     0.6810 H     1 <1>   0.1500 
 53 H        3.2500     5.9930     2.5280 H     1 <1>   0.1500 
@<TRIPOS>BOND
  1   1   2  1   
  2   1   3  1   
  3   2   4  1   
  4   2   5  1   
  5   2   6  1   
  6   3   7  1   
  7   3  27  1   
  8   3  28  1   
  9   4   8  ar  
 10   4   9  ar  
 11   5  10  1   
 12   5  29  1   
 13   5  30  1   
 14   6  11  1   
 15   6  31  1   
 16   6  32  1   
 17   7   8  1   
 18   7  33  1   
 19   7  34  1   
 20   8  12  ar  
 21   9  13  ar  
 22   9  35  1   
 23  10  14  1   
 24  10  36  1   
 25  10  37  1   
 26  11  14  1   
 27  11  38  1   
 28  11  39  1   
 29  12  15  ar  
 30  12  40  1   
 31  13  15  ar  
 32  13  16  1   
 33  14  17  1   
 34  14  41  1   
 35  15  18  1   
 36  16  19  1   
 37  17  20  1   
 38  17  42  1   
 39  17  43  1   
 40  18  21  1   
 41  19  44  1   
 42  19  45  1   
 43  19  46  1   
 44  20  22  ar  
 45  20  23  ar  
 46  21  47  1   
 47  21  48  1   
 48  21  49  1   
 49  22  24  ar  
 50  23  25  ar  
 51  23  50  1   
 52  24  26  ar  
 53  24  51  1   
 54  25  26  ar  
 55  25  52  1   
 56  26  53  1   
@<TRIPOS>SUBSTRUCTURE
  1 ****   2 GROUP 4 **** **** 0

# MOE 2024.06 (io_trps.svl 2023.06)
