@<TRIPOS>MOLECULE
NONAME
52 55 1 0 0 
SMALL
USER_CHARGES


@<TRIPOS>ATOM
  1 O        1.4320    -0.8630    -1.3490 O.3   1 <1>  -0.0190 
  2 N        1.7550     0.3930    -1.4480 N.2   1 <1>  -0.4100 
  3 C        1.6600    -1.3320    -0.1500 C.2   1 <1>  -0.0400 
  4 C        2.2000     0.7430    -0.2910 C.2   1 <1>   0.1080 
  5 C        2.1650    -0.3350     0.5920 C.2   1 <1>  -0.1500 
  6 C        1.3540    -2.7850     0.1670 C.3   1 <1>   0.2900 
  7 C        2.6950     2.1380     0.0740 C.3   1 <1>   0.1010 
  8 N       -0.0430    -2.9650     0.6010 N.3   1 <1>  -0.8100 
  9 C        1.5650     3.1740    -0.0550 C.3   1 <1>  -0.1600 
 10 C        3.9020     2.5400    -0.7920 C.3   1 <1>  -0.1600 
 11 C       -1.0340    -2.4900    -0.3770 C.3   1 <1>   0.1100 
 12 C       -0.3780    -4.3690     0.8950 C.3   1 <1>   0.1100 
 13 C        2.0530     4.5900     0.2840 C.3   1 <1>  -0.1600 
 14 C        4.3950     3.9550    -0.4530 C.3   1 <1>  -0.1600 
 15 C       -2.3160    -3.2150     0.0110 C.3   1 <1>   0.2000 
 16 C       -1.8180    -4.6050     0.3980 C.3   1 <1>  -0.0800 
 17 C        3.2600     4.9810    -0.5800 C.3   1 <1>  -0.1600 
 18 O       -2.8080    -2.6100     1.1510 O.3   1 <1>  -0.6800 
 19 C       -1.8690    -5.5640    -0.8070 C.3   1 <1>  -0.0170 
 20 C       -1.3320    -6.9440    -0.4590 C.ar  1 <1>  -0.1430 
 21 C       -1.9910    -7.7820     0.4180 C.ar  1 <1>  -0.1500 
 22 C       -0.1590    -7.4320    -1.0020 C.ar  1 <1>  -0.1500 
 23 C       -1.4580    -9.0270     0.7080 C.ar  1 <1>   0.1600 
 24 C        0.2870    -8.6940    -0.6460 C.ar  1 <1>   0.1600 
 25 N       -0.3320    -9.5020     0.1990 N.ar  1 <1>  -0.6200 
 26 H        2.4720    -0.3360     1.6200 H     1 <1>   0.1500 
 27 H        2.0030    -3.1070     0.9620 H     1 <1>   0.0800 
 28 H        1.5570    -3.3880    -0.7010 H     1 <1>   0.0800 
 29 H        3.0140     2.1190     1.1010 H     1 <1>   0.0800 
 30 H        1.1890     3.1600    -1.0640 H     1 <1>   0.0800 
 31 H        0.7550     2.9030     0.5990 H     1 <1>   0.0800 
 32 H        4.7000     1.8340    -0.6450 H     1 <1>   0.0800 
 33 H        3.6190     2.5030    -1.8300 H     1 <1>   0.0800 
 34 H       -1.1510    -1.4200    -0.3370 H     1 <1>   0.0800 
 35 H       -0.7410    -2.7780    -1.3720 H     1 <1>   0.0800 
 36 H        0.3120    -5.0400     0.4120 H     1 <1>   0.0800 
 37 H       -0.3200    -4.5290     1.9580 H     1 <1>   0.0800 
 38 H        1.2540     5.2930     0.1240 H     1 <1>   0.0800 
 39 H        2.3290     4.6340     1.3240 H     1 <1>   0.0800 
 40 H        4.7780     3.9690     0.5530 H     1 <1>   0.0800 
 41 H        5.1980     4.2240    -1.1170 H     1 <1>   0.0800 
 42 H       -3.0790    -3.2030    -0.7490 H     1 <1>   0.0800 
 43 H       -2.4240    -5.0160     1.1870 H     1 <1>   0.0800 
 44 H        3.6170     5.9520    -0.2840 H     1 <1>   0.0800 
 45 H        2.9530     5.0430    -1.6100 H     1 <1>   0.0800 
 46 H       -2.0290    -2.4150     1.7150 H     1 <1>   0.4000 
 47 H       -1.3060    -5.1530    -1.6260 H     1 <1>   0.0800 
 48 H       -2.8890    -5.6660    -1.1350 H     1 <1>   0.0800 
 49 H       -2.9130    -7.4800     0.8790 H     1 <1>   0.1500 
 50 H        0.4120    -6.8460    -1.6980 H     1 <1>   0.1500 
 51 H       -1.9850    -9.6670     1.3950 H     1 <1>   0.1500 
 52 H        1.2030    -9.0590    -1.0790 H     1 <1>   0.1500 
@<TRIPOS>BOND
  1   1   2  1   
  2   1   3  1   
  3   2   4  2   
  4   3   5  2   
  5   3   6  1   
  6   4   5  1   
  7   4   7  1   
  8   5  26  1   
  9   6   8  1   
 10   6  27  1   
 11   6  28  1   
 12   7   9  1   
 13   7  10  1   
 14   7  29  1   
 15   8  11  1   
 16   8  12  1   
 17   9  13  1   
 18   9  30  1   
 19   9  31  1   
 20  10  14  1   
 21  10  32  1   
 22  10  33  1   
 23  11  15  1   
 24  11  34  1   
 25  11  35  1   
 26  12  16  1   
 27  12  36  1   
 28  12  37  1   
 29  13  17  1   
 30  13  38  1   
 31  13  39  1   
 32  14  17  1   
 33  14  40  1   
 34  14  41  1   
 35  15  16  1   
 36  15  18  1   
 37  15  42  1   
 38  16  19  1   
 39  16  43  1   
 40  17  44  1   
 41  17  45  1   
 42  18  46  1   
 43  19  20  1   
 44  19  47  1   
 45  19  48  1   
 46  20  21  ar  
 47  20  22  ar  
 48  21  23  ar  
 49  21  49  1   
 50  22  24  ar  
 51  22  50  1   
 52  23  25  ar  
 53  23  51  1   
 54  24  25  ar  
 55  24  52  1   
@<TRIPOS>SUBSTRUCTURE
  1 ****   6 GROUP 4 **** **** 0

# MOE 2024.06 (io_trps.svl 2023.06)
