@<TRIPOS>MOLECULE
NONAME
45 48 1 0 0 
SMALL
USER_CHARGES


@<TRIPOS>ATOM
  1 S       -0.1930    -0.8160     0.6550 S.3   1 <1>  -0.0800 
  2 C       -0.9500     0.7410     0.3980 C.2   1 <1>  -0.1400 
  3 C       -1.7180    -1.6340     0.3560 C.2   1 <1>  -0.1100 
  4 C       -2.2510     0.6100     0.0960 C.2   1 <1>  -0.1810 
  5 C       -0.1440     2.0130     0.5280 C.3   1 <1>   0.0200 
  6 C       -2.7030    -0.7540     0.0720 C.2   1 <1>  -0.1810 
  7 C       -3.1230     1.8290    -0.1740 C.3   1 <1>   0.0210 
  8 C       -1.1050     3.2140     0.5920 C.3   1 <1>  -0.1600 
  9 C       -4.1550    -1.0910    -0.2360 C.3   1 <1>   0.3210 
 10 C       -2.2590     3.0840    -0.4220 C.3   1 <1>  -0.1600 
 11 N       -4.3250    -2.5430    -0.3980 N.am  1 <1>  -0.7300 
 12 C       -5.3490    -3.2950     0.0900 C.2   1 <1>   0.7160 
 13 O       -6.2850    -2.7270     0.6280 O.2   1 <1>  -0.5700 
 14 C       -5.2950    -4.7430    -0.0460 C.2   1 <1>   0.2030 
 15 N       -4.3080    -5.4220    -0.6070 N.2   1 <1>  -0.7070 
 16 C       -6.2780    -5.6220     0.3970 C.2   1 <1>  -0.1500 
 17 N       -4.6630    -6.7080    -0.5190 N.pl3 1 <1>   0.3140 
 18 C       -5.8590    -6.8780     0.0920 C.2   1 <1>  -0.2370 
 19 C       -3.7720    -7.7530    -1.0410 C.3   1 <1>   0.0960 
 20 C       -6.5330    -8.1210     0.3310 C.2   1 <1>   0.7150 
 21 C       -3.4790    -8.7670     0.0620 C.3   1 <1>   0.2000 
 22 O       -7.7020    -8.1210     0.6450 O.2   1 <1>  -0.5700 
 23 N       -5.9690    -9.3520     0.2330 N.am  1 <1>  -0.7300 
 24 O       -2.2800    -9.4050    -0.2320 O.3   1 <1>  -0.6800 
 25 C       -4.5640    -9.8440     0.2130 C.3   1 <1>   0.1400 
 26 H       -1.7130    -2.7060     0.4310 H     1 <1>   0.1500 
 27 H        0.5050     2.1010    -0.3260 H     1 <1>   0.0800 
 28 H        0.4610     1.9790     1.4170 H     1 <1>   0.0800 
 29 H       -3.7600     1.9900     0.6780 H     1 <1>   0.0800 
 30 H       -3.7430     1.6590    -1.0350 H     1 <1>   0.0800 
 31 H       -0.5560     4.1220     0.4120 H     1 <1>   0.0800 
 32 H       -1.5210     3.2720     1.5830 H     1 <1>   0.0800 
 33 H       -4.4500    -0.6090    -1.1520 H     1 <1>   0.0800 
 34 H       -4.7850    -0.7300     0.5590 H     1 <1>   0.0800 
 35 H       -2.8830     3.9590    -0.3800 H     1 <1>   0.0800 
 36 H       -1.8420     3.0250    -1.4130 H     1 <1>   0.0800 
 37 H       -3.5550    -3.0470    -0.8400 H     1 <1>   0.3700 
 38 H       -7.1940    -5.3350     0.8860 H     1 <1>   0.1500 
 39 H       -2.8590    -7.2790    -1.3530 H     1 <1>   0.0800 
 40 H       -4.2430    -8.2200    -1.8860 H     1 <1>   0.0800 
 41 H       -3.3300    -8.2570     1.0000 H     1 <1>   0.0800 
 42 H       -6.6600   -10.0850     0.4150 H     1 <1>   0.3700 
 43 H       -2.3110    -9.8640    -1.0950 H     1 <1>   0.4000 
 44 H       -4.3800   -10.3830     1.1270 H     1 <1>   0.0800 
 45 H       -4.4780   -10.5390    -0.6050 H     1 <1>   0.0800 
@<TRIPOS>BOND
  1   1   2  1   
  2   1   3  1   
  3   2   4  2   
  4   2   5  1   
  5   3   6  2   
  6   3  26  1   
  7   4   6  1   
  8   4   7  1   
  9   5   8  1   
 10   5  27  1   
 11   5  28  1   
 12   6   9  1   
 13   7  10  1   
 14   7  29  1   
 15   7  30  1   
 16   8  10  1   
 17   8  31  1   
 18   8  32  1   
 19   9  11  1   
 20   9  33  1   
 21   9  34  1   
 22  10  35  1   
 23  10  36  1   
 24  11  12  am  
 25  11  37  1   
 26  12  13  2   
 27  12  14  1   
 28  14  15  2   
 29  14  16  1   
 30  15  17  1   
 31  16  18  2   
 32  16  38  1   
 33  17  18  1   
 34  17  19  1   
 35  18  20  1   
 36  19  21  1   
 37  19  39  1   
 38  19  40  1   
 39  20  22  2   
 40  20  23  am  
 41  21  24  1   
 42  21  25  1   
 43  21  41  1   
 44  23  25  1   
 45  23  42  1   
 46  24  43  1   
 47  25  44  1   
 48  25  45  1   
@<TRIPOS>SUBSTRUCTURE
  1 ****  11 GROUP 4 **** **** 0

# MOE 2024.06 (io_trps.svl 2023.06)
