@<TRIPOS>MOLECULE
NONAME
53 55 1 0 0 
SMALL
USER_CHARGES


@<TRIPOS>ATOM
  1 O        0.4130     0.4070    -2.1460 O.2   1 <1>  -0.5700 
  2 C        1.0920    -0.5880    -2.2390 C.2   1 <1>   0.5690 
  3 N        2.3520    -0.5560    -2.7740 N.am  1 <1>  -0.6600 
  4 C        0.4970    -1.8710    -1.7060 C.3   1 <1>  -0.0990 
  5 C        2.9680     0.7570    -3.1330 C.3   1 <1>   0.3210 
  6 C        3.3020    -1.7070    -2.8770 C.3   1 <1>   0.0600 
  7 C        1.0940    -2.2090    -0.3330 C.3   1 <1>   0.1760 
  8 C        3.8400     1.2590    -1.9900 C.2   1 <1>   0.1080 
  9 N        0.8550    -3.6470    -0.0170 N.pl3 1 <1>   0.3140 
 10 C        0.6380    -1.2530     0.7840 C.3   1 <1>  -0.2400 
 11 N        5.1410     1.2670    -2.0140 N.2   1 <1>  -0.7070 
 12 C        3.3350     1.7540    -0.7920 C.2   1 <1>  -0.1500 
 13 N        1.8610    -4.5080    -0.2410 N.2   1 <1>  -0.7070 
 14 C       -0.2460    -4.3010     0.4230 C.2   1 <1>  -0.3320 
 15 N        5.4960     1.7730    -0.8150 N.pl3 1 <1>   0.3000 
 16 C        4.4220     2.0730    -0.0580 C.2   1 <1>  -0.2370 
 17 C        1.4000    -5.6700     0.0740 C.2   1 <1>   0.1080 
 18 C        0.0730    -5.6310     0.5220 C.2   1 <1>  -0.0860 
 19 C       -1.5890    -3.6350     0.7050 C.3   1 <1>  -0.0600 
 20 C        4.5180     2.6500     1.3390 C.3   1 <1>  -0.0150 
 21 C        2.2590    -6.9120    -0.0450 C.3   1 <1>  -0.0590 
 22 C       -0.6750    -6.7810     0.9700 C.2   1 <1>   0.5950 
 23 C        3.4490     3.5620     1.8490 C.3   1 <1>  -0.2000 
 24 C        4.8060     4.1060     1.5140 C.3   1 <1>  -0.2000 
 25 O       -0.5070    -7.8980     0.5490 O.2   1 <1>  -0.5700 
 26 C       -1.7150    -6.6260     2.0580 C.3   1 <1>  -0.1790 
 27 H        0.6860    -2.6630    -2.4060 H     1 <1>   0.0800 
 28 H       -0.5670    -1.7520    -1.6290 H     1 <1>   0.0800 
 29 H        2.2070     1.4870    -3.3430 H     1 <1>   0.0800 
 30 H        3.5700     0.6450    -4.0170 H     1 <1>   0.0800 
 31 H        2.8460    -2.6370    -2.5910 H     1 <1>   0.0800 
 32 H        4.1490    -1.5330    -2.2350 H     1 <1>   0.0800 
 33 H        3.6510    -1.7980    -3.8900 H     1 <1>   0.0800 
 34 H        2.1620    -2.1040    -0.4030 H     1 <1>   0.0800 
 35 H       -0.4300    -1.1540     0.8120 H     1 <1>   0.0800 
 36 H        1.0500    -0.2740     0.6100 H     1 <1>   0.0800 
 37 H        0.9960    -1.6000     1.7370 H     1 <1>   0.0800 
 38 H        2.2930     1.8430    -0.5400 H     1 <1>   0.1500 
 39 H        6.4760     1.9050    -0.5400 H     1 <1>   0.2700 
 40 H       -1.8250    -2.9170    -0.0580 H     1 <1>   0.0800 
 41 H       -1.5640    -3.1390     1.6590 H     1 <1>   0.0800 
 42 H       -2.3840    -4.3570     0.7130 H     1 <1>   0.0800 
 43 H        4.9500     1.9630     2.0460 H     1 <1>   0.1000 
 44 H        3.2670    -6.6400    -0.3010 H     1 <1>   0.0800 
 45 H        1.8660    -7.5520    -0.8120 H     1 <1>   0.0800 
 46 H        2.2680    -7.4430     0.8880 H     1 <1>   0.0800 
 47 H        3.1580     3.4840     2.8820 H     1 <1>   0.1000 
 48 H        2.6230     3.8060     1.2040 H     1 <1>   0.1000 
 49 H        4.9060     4.7250     0.6390 H     1 <1>   0.1000 
 50 H        5.4520     4.4140     2.3170 H     1 <1>   0.1000 
 51 H       -1.5140    -5.7530     2.6480 H     1 <1>   0.0800 
 52 H       -1.6890    -7.4880     2.7000 H     1 <1>   0.0800 
 53 H       -2.6900    -6.5550     1.6150 H     1 <1>   0.0800 
@<TRIPOS>BOND
  1   1   2  2   
  2   2   3  am  
  3   2   4  1   
  4   3   5  1   
  5   3   6  1   
  6   4   7  1   
  7   4  27  1   
  8   4  28  1   
  9   5   8  1   
 10   5  29  1   
 11   5  30  1   
 12   6  31  1   
 13   6  32  1   
 14   6  33  1   
 15   7   9  1   
 16   7  10  1   
 17   7  34  1   
 18   8  11  2   
 19   8  12  1   
 20   9  13  1   
 21   9  14  1   
 22  10  35  1   
 23  10  36  1   
 24  10  37  1   
 25  11  15  1   
 26  12  16  2   
 27  12  38  1   
 28  13  17  2   
 29  14  18  2   
 30  14  19  1   
 31  15  16  1   
 32  15  39  1   
 33  16  20  1   
 34  17  18  1   
 35  17  21  1   
 36  18  22  1   
 37  19  40  1   
 38  19  41  1   
 39  19  42  1   
 40  20  23  1   
 41  20  24  1   
 42  20  43  1   
 43  21  44  1   
 44  21  45  1   
 45  21  46  1   
 46  22  25  2   
 47  22  26  1   
 48  23  24  1   
 49  23  47  1   
 50  23  48  1   
 51  24  49  1   
 52  24  50  1   
 53  26  51  1   
 54  26  52  1   
 55  26  53  1   
@<TRIPOS>SUBSTRUCTURE
  1 ****   7 GROUP 4 **** **** 0

# MOE 2024.06 (io_trps.svl 2023.06)
