@<TRIPOS>MOLECULE
NONAME
55 57 1 0 0 
SMALL
USER_CHARGES


@<TRIPOS>ATOM
  1 O        0.2700     3.1140     1.9590 O.2   1 <1>  -0.5700 
  2 C       -0.1120     2.5390     0.9620 C.2   1 <1>   0.5440 
  3 N        0.7040     1.5690     0.4820 N.am  1 <1>  -0.8000 
  4 C       -1.3760     2.8180     0.3320 C.ar  1 <1>   0.0860 
  5 C       -1.6170     3.9970    -0.3990 C.ar  1 <1>   0.4100 
  6 C       -2.4020     1.8900     0.4170 C.ar  1 <1>  -0.1500 
  7 N       -2.7590     4.2400    -1.0320 N.ar  1 <1>  -0.6200 
  8 N       -0.6860     5.0030    -0.5380 N.pl3 1 <1>  -0.8380 
  9 C       -3.5940     2.1510    -0.2230 C.ar  1 <1>  -0.1430 
 10 C       -3.7130     3.3390    -0.9390 C.ar  1 <1>   0.1670 
 11 C       -0.4460     5.9250     0.6000 C.3   1 <1>   0.4330 
 12 C        0.5520     4.7900    -1.3140 C.3   1 <1>   0.2090 
 13 C       -4.7290     1.1400    -0.1230 C.3   1 <1>  -0.0970 
 14 C       -4.9940     3.6840    -1.6750 C.3   1 <1>  -0.0970 
 15 C       -1.4470     7.0810     0.6670 C.ar  1 <1>  -0.1430 
 16 C        0.9810     6.4260     0.3930 C.3   1 <1>  -0.1600 
 17 C        1.6650     5.3420    -0.4330 C.3   1 <1>  -0.1600 
 18 C       -2.2020     7.4680    -0.4320 C.ar  1 <1>  -0.1500 
 19 C       -1.6160     7.7610     1.8630 C.ar  1 <1>  -0.1500 
 20 C       -3.1060     8.5080    -0.3390 C.ar  1 <1>  -0.1500 
 21 C       -2.5180     8.8070     1.9620 C.ar  1 <1>  -0.1500 
 22 C       -3.2650     9.1890     0.8580 C.ar  1 <1>  -0.1430 
 23 C       -4.2470    10.3360     0.9520 C.3   1 <1>   0.4860 
 24 N       -3.6800    11.4970     0.2080 N.4   1 <1>  -0.9590 
 25 C       -2.4400    12.0160     0.8660 C.3   1 <1>   0.2630 
 26 C       -4.6930    12.5750     0.0110 C.3   1 <1>   0.2630 
 27 H        1.5730     1.3660     0.9770 H     1 <1>   0.3700 
 28 H        0.4840     1.0000    -0.3350 H     1 <1>   0.3700 
 29 H       -2.2560     0.9860     0.9810 H     1 <1>   0.1500 
 30 H       -0.5000     5.3670     1.5180 H     1 <1>   0.0800 
 31 H        0.4840     5.3530    -2.2290 H     1 <1>   0.0800 
 32 H        0.7030     3.7490    -1.5460 H     1 <1>   0.0800 
 33 H       -4.4900     0.3600     0.5770 H     1 <1>   0.0800 
 34 H       -4.9080     0.6920    -1.0830 H     1 <1>   0.0800 
 35 H       -5.6290     1.6240     0.2120 H     1 <1>   0.0800 
 36 H       -4.8210     4.4930    -2.3620 H     1 <1>   0.0800 
 37 H       -5.7440     3.9900    -0.9700 H     1 <1>   0.0800 
 38 H       -5.3500     2.8400    -2.2360 H     1 <1>   0.0800 
 39 H        1.4750     6.5970     1.3320 H     1 <1>   0.0800 
 40 H        0.9560     7.3450    -0.1650 H     1 <1>   0.0800 
 41 H        2.4850     5.7210    -1.0150 H     1 <1>   0.0800 
 42 H        2.0210     4.5590     0.2130 H     1 <1>   0.0800 
 43 H       -2.0930     6.9390    -1.3660 H     1 <1>   0.1500 
 44 H       -1.0450     7.4690     2.7280 H     1 <1>   0.1500 
 45 H       -3.6810     8.7610    -1.2130 H     1 <1>   0.1500 
 46 H       -2.6270     9.3070     2.9080 H     1 <1>   0.1500 
 47 H       -4.4180    10.5960     1.9840 H     1 <1>   0.0800 
 48 H       -5.1840    10.0330     0.5130 H     1 <1>   0.0800 
 49 H       -3.3990    11.1190    -0.7100 H     1 <1>   0.4500 
 50 H       -2.6630    12.3810     1.8550 H     1 <1>   0.0800 
 51 H       -2.0180    12.8210     0.2870 H     1 <1>   0.0800 
 52 H       -1.7030    11.2320     0.9460 H     1 <1>   0.0800 
 53 H       -5.0080    12.9740     0.9620 H     1 <1>   0.0800 
 54 H       -5.5570    12.1880    -0.5060 H     1 <1>   0.0800 
 55 H       -4.2750    13.3770    -0.5770 H     1 <1>   0.0800 
@<TRIPOS>BOND
  1   1   2  2   
  2   2   3  am  
  3   2   4  1   
  4   3  27  1   
  5   3  28  1   
  6   4   5  ar  
  7   4   6  ar  
  8   5   7  ar  
  9   5   8  1   
 10   6   9  ar  
 11   6  29  1   
 12   7  10  ar  
 13   8  11  1   
 14   8  12  1   
 15   9  10  ar  
 16   9  13  1   
 17  10  14  1   
 18  11  15  1   
 19  11  16  1   
 20  11  30  1   
 21  12  17  1   
 22  12  31  1   
 23  12  32  1   
 24  13  33  1   
 25  13  34  1   
 26  13  35  1   
 27  14  36  1   
 28  14  37  1   
 29  14  38  1   
 30  15  18  ar  
 31  15  19  ar  
 32  16  17  1   
 33  16  39  1   
 34  16  40  1   
 35  17  41  1   
 36  17  42  1   
 37  18  20  ar  
 38  18  43  1   
 39  19  21  ar  
 40  19  44  1   
 41  20  22  ar  
 42  20  45  1   
 43  21  22  ar  
 44  21  46  1   
 45  22  23  1   
 46  23  24  1   
 47  23  47  1   
 48  23  48  1   
 49  24  25  1   
 50  24  26  1   
 51  24  49  1   
 52  25  50  1   
 53  25  51  1   
 54  25  52  1   
 55  26  53  1   
 56  26  54  1   
 57  26  55  1   
@<TRIPOS>SUBSTRUCTURE
  1 ****  15 GROUP 4 **** **** 0

# MOE 2024.06 (io_trps.svl 2023.06)
