@<TRIPOS>MOLECULE
NONAME
49 52 1 0 0 
SMALL
USER_CHARGES


@<TRIPOS>ATOM
  1 O       -1.4140     0.5630     2.3590 O.2   1 <1>  -0.5700 
  2 C       -2.1950     1.2770     1.7490 C.2   1 <1>   0.5440 
  3 N       -3.4720     0.7800     1.5310 N.am  1 <1>  -0.6600 
  4 C       -1.7380     2.5910     1.2910 C.ar  1 <1>   0.3960 
  5 C       -3.8030    -0.6570     1.7590 C.3   1 <1>   0.1400 
  6 C       -4.5510     1.5000     0.7940 C.3   1 <1>   0.1400 
  7 N       -1.9190     2.9830     0.0450 N.ar  1 <1>  -0.6200 
  8 C       -1.0750     3.4170     2.2260 C.ar  1 <1>  -0.1500 
  9 C       -3.9180    -1.3490     0.3800 C.3   1 <1>   0.4230 
 10 C       -4.7270     0.8330    -0.5780 C.3   1 <1>  -0.1600 
 11 C       -1.4720     4.2060    -0.3230 C.ar  1 <1>   0.3100 
 12 C       -0.6130     4.6490     1.8810 C.ar  1 <1>  -0.1500 
 13 N       -4.1190    -2.8370     0.4430 N.4   1 <1>  -0.9590 
 14 C       -5.0390    -0.6880    -0.4530 C.3   1 <1>  -0.1060 
 15 C       -0.8100     5.0830     0.5630 C.ar  1 <1>   0.0000 
 16 C       -1.6770     4.6280    -1.6480 C.ar  1 <1>  -0.1500 
 17 C       -4.0860    -3.4590    -0.9050 C.3   1 <1>   0.3430 
 18 C       -3.2630    -3.5540     1.4240 C.3   1 <1>   0.2630 
 19 C       -6.3860    -0.9110     0.2630 C.2   1 <1>   0.9060 
 20 C       -5.0640    -1.3100    -1.8690 C.3   1 <1>  -0.1600 
 21 C       -0.3800     6.3390     0.0930 C.ar  1 <1>  -0.1500 
 22 C       -1.2520     5.8540    -2.0860 C.ar  1 <1>  -0.1500 
 23 C       -5.1580    -2.8430    -1.8080 C.3   1 <1>  -0.1600 
 24 O       -6.5450    -1.9430     0.9360 O.co2 1 <1>  -0.9000 
 25 O       -7.2750    -0.0680     0.1620 O.co2 1 <1>  -0.9000 
 26 C       -0.5960     6.7190    -1.2040 C.ar  1 <1>  -0.1500 
 27 H       -3.0350    -1.1200     2.3480 H     1 <1>   0.0800 
 28 H       -4.7300    -0.7260     2.3020 H     1 <1>   0.0800 
 29 H       -5.4700     1.4370     1.3530 H     1 <1>   0.0800 
 30 H       -4.3200     2.5430     0.6750 H     1 <1>   0.0800 
 31 H       -0.9420     3.0370     3.2240 H     1 <1>   0.1500 
 32 H       -2.9840    -1.1680    -0.1250 H     1 <1>   0.0800 
 33 H       -5.5310     1.3260    -1.0980 H     1 <1>   0.0800 
 34 H       -3.8300     0.9920    -1.1510 H     1 <1>   0.0800 
 35 H       -0.1060     5.2870     2.5840 H     1 <1>   0.1500 
 36 H       -5.1250    -2.8810     0.7630 H     1 <1>   0.4500 
 37 H       -2.1820     3.9510    -2.3120 H     1 <1>   0.1500 
 38 H       -3.1140    -3.3070    -1.3470 H     1 <1>   0.0800 
 39 H       -4.2630    -4.5180    -0.8220 H     1 <1>   0.0800 
 40 H       -2.2220    -3.4170     1.1820 H     1 <1>   0.0800 
 41 H       -3.4910    -4.6070     1.4140 H     1 <1>   0.0800 
 42 H       -3.4430    -3.1800     2.4180 H     1 <1>   0.0800 
 43 H       -5.9080    -0.9210    -2.4140 H     1 <1>   0.0800 
 44 H       -4.1710    -1.0340    -2.4040 H     1 <1>   0.0800 
 45 H        0.1240     7.0000     0.7750 H     1 <1>   0.1500 
 46 H       -1.4150     6.1650    -3.1040 H     1 <1>   0.1500 
 47 H       -5.0600    -3.2470    -2.7990 H     1 <1>   0.0800 
 48 H       -6.1300    -3.1330    -1.4430 H     1 <1>   0.0800 
 49 H       -0.2660     7.6800    -1.5610 H     1 <1>   0.1500 
@<TRIPOS>BOND
  1   1   2  2   
  2   2   3  am  
  3   2   4  1   
  4   3   5  1   
  5   3   6  1   
  6   4   7  ar  
  7   4   8  ar  
  8   5   9  1   
  9   5  27  1   
 10   5  28  1   
 11   6  10  1   
 12   6  29  1   
 13   6  30  1   
 14   7  11  ar  
 15   8  12  ar  
 16   8  31  1   
 17   9  13  1   
 18   9  14  1   
 19   9  32  1   
 20  10  14  1   
 21  10  33  1   
 22  10  34  1   
 23  11  15  ar  
 24  11  16  ar  
 25  12  15  ar  
 26  12  35  1   
 27  13  17  1   
 28  13  18  1   
 29  13  36  1   
 30  14  19  1   
 31  14  20  1   
 32  15  21  ar  
 33  16  22  ar  
 34  16  37  1   
 35  17  23  1   
 36  17  38  1   
 37  17  39  1   
 38  18  40  1   
 39  18  41  1   
 40  18  42  1   
 41  19  24  ar  
 42  19  25  ar  
 43  20  23  1   
 44  20  43  1   
 45  20  44  1   
 46  21  26  ar  
 47  21  45  1   
 48  22  26  ar  
 49  22  46  1   
 50  23  47  1   
 51  23  48  1   
 52  26  49  1   
@<TRIPOS>SUBSTRUCTURE
  1 ****   3 GROUP 4 **** **** 0

# MOE 2024.06 (io_trps.svl 2023.06)
