@<TRIPOS>MOLECULE
NONAME
34 35 1 0 0 
SMALL
USER_CHARGES


@<TRIPOS>ATOM
  1 F        3.0670    -0.0560    -0.9700 F     1 <1>  -0.1900 
  2 C        3.0220    -1.1690    -0.2850 C.ar  1 <1>   0.1900 
  3 C        3.7590    -1.3090     0.8780 C.ar  1 <1>   0.1900 
  4 C        2.2200    -2.1960    -0.7470 C.ar  1 <1>  -0.1500 
  5 F        4.5120    -0.3310     1.3090 F     1 <1>  -0.1900 
  6 C        3.7110    -2.4850     1.6040 C.ar  1 <1>  -0.1500 
  7 C        2.1590    -3.3800    -0.0200 C.ar  1 <1>  -0.1440 
  8 C        2.9070    -3.5190     1.1470 C.ar  1 <1>  -0.1500 
  9 C        1.2830    -4.5280    -0.4900 C.3   1 <1>   0.4870 
 10 N       -0.1310    -4.2090    -0.1310 N.4   1 <1>  -0.9590 
 11 C       -0.3570    -4.4270     1.3480 C.3   1 <1>   0.3430 
 12 C       -1.0680    -4.9930    -1.0100 C.3   1 <1>   0.3430 
 13 C       -0.4380    -5.9160     1.7690 C.3   1 <1>   0.2000 
 14 C       -2.0270    -5.8810    -0.2020 C.3   1 <1>  -0.1600 
 15 O        0.8470    -6.3870     1.9740 O.3   1 <1>  -0.6800 
 16 C       -1.2090    -6.7880     0.7420 C.3   1 <1>  -0.1860 
 17 C       -0.3540    -7.6930    -0.1350 C.2   1 <1>   0.9060 
 18 O       -0.8930    -8.6460    -0.6820 O.co2 1 <1>  -0.9000 
 19 O        0.8140    -7.3610    -0.3810 O.co2 1 <1>  -0.9000 
 20 H        1.6680    -2.0590    -1.6610 H     1 <1>   0.1500 
 21 H        4.2920    -2.5870     2.5050 H     1 <1>   0.1500 
 22 H        2.8700    -4.4420     1.7080 H     1 <1>   0.1500 
 23 H        1.6080    -5.4360    -0.0160 H     1 <1>   0.0800 
 24 H        1.3830    -4.6530    -1.5550 H     1 <1>   0.0800 
 25 H       -0.2470    -3.2110    -0.3260 H     1 <1>   0.4500 
 26 H        0.4120    -3.9410     1.9260 H     1 <1>   0.0800 
 27 H       -1.2950    -3.9710     1.6120 H     1 <1>   0.0800 
 28 H       -1.6410    -4.3220    -1.6290 H     1 <1>   0.0800 
 29 H       -0.4940    -5.6330    -1.6650 H     1 <1>   0.0800 
 30 H       -0.9310    -5.9660     2.7240 H     1 <1>   0.0800 
 31 H       -2.7390    -5.2860     0.3410 H     1 <1>   0.0800 
 32 H       -2.5830    -6.4980    -0.8880 H     1 <1>   0.0800 
 33 H        1.1070    -6.8990     1.1460 H     1 <1>   0.4000 
 34 H       -1.8850    -7.4290     1.2780 H     1 <1>   0.0800 
@<TRIPOS>BOND
  1   1   2  1   
  2   2   3  ar  
  3   2   4  ar  
  4   3   5  1   
  5   3   6  ar  
  6   4   7  ar  
  7   4  20  1   
  8   6   8  ar  
  9   6  21  1   
 10   7   8  ar  
 11   7   9  1   
 12   8  22  1   
 13   9  10  1   
 14   9  23  1   
 15   9  24  1   
 16  10  11  1   
 17  10  12  1   
 18  10  25  1   
 19  11  13  1   
 20  11  26  1   
 21  11  27  1   
 22  12  14  1   
 23  12  28  1   
 24  12  29  1   
 25  13  15  1   
 26  13  16  1   
 27  13  30  1   
 28  14  16  1   
 29  14  31  1   
 30  14  32  1   
 31  15  33  1   
 32  16  17  1   
 33  16  34  1   
 34  17  18  ar  
 35  17  19  ar  
@<TRIPOS>SUBSTRUCTURE
  1 ****   9 GROUP 4 **** **** 0

# MOE 2024.06 (io_trps.svl 2023.06)
