@<TRIPOS>MOLECULE
NONAME
46 49 1 0 0 
SMALL
USER_CHARGES


@<TRIPOS>ATOM
  1 S       -0.0690     0.0220     1.5980 S.3   1 <1>  -0.0800 
  2 C       -1.3970     0.8050     0.7560 C.2   1 <1>   0.4620 
  3 C        0.8990     1.4420     1.3400 C.2   1 <1>  -0.1100 
  4 N       -1.1170     1.9860     0.3430 N.2   1 <1>  -0.5650 
  5 N       -2.5890     0.1390     0.6050 N.pl3 1 <1>  -0.8220 
  6 C        0.1830     2.3650     0.6640 C.2   1 <1>   0.1730 
  7 C       -3.7220     0.7230    -0.1510 C.3   1 <1>   0.2090 
  8 C       -2.8200    -1.3010     0.8420 C.3   1 <1>   0.2090 
  9 C        0.6540     3.6800     0.2620 C.ar  1 <1>   0.0540 
 10 C       -4.7230    -0.4260    -0.3570 C.3   1 <1>   0.2000 
 11 C       -3.8690    -1.6900    -0.2010 C.3   1 <1>  -0.0800 
 12 C       -0.2340     4.7440     0.0840 C.ar  1 <1>  -0.1500 
 13 C        2.0140     3.9210     0.0420 C.ar  1 <1>  -0.1500 
 14 O       -5.7010    -0.4200     0.6490 O.3   1 <1>  -0.5600 
 15 C       -4.6580    -2.9600     0.1670 C.3   1 <1>   0.0200 
 16 C        0.2070     6.0010    -0.2920 C.ar  1 <1>  -0.1500 
 17 C        2.4740     5.1710    -0.3340 C.ar  1 <1>  -0.1500 
 18 C       -6.7630     0.4580     0.4420 C.3   1 <1>   0.0400 
 19 C       -3.8080    -4.2200     0.1340 C.2   1 <1>  -0.0400 
 20 C        1.5590     6.1920    -0.4940 C.ar  1 <1>   0.1900 
 21 O       -4.3260    -5.3380     0.5690 O.3   1 <1>  -0.0190 
 22 C       -2.5550    -4.4830    -0.2730 C.2   1 <1>  -0.1500 
 23 F        1.9860     7.3740    -0.8480 F     1 <1>  -0.1900 
 24 N       -3.4890    -6.3310     0.4790 N.2   1 <1>  -0.4100 
 25 C       -2.4130    -5.8450    -0.0250 C.2   1 <1>   0.1080 
 26 C       -1.1660    -6.6530    -0.3070 C.3   1 <1>  -0.0590 
 27 H        1.9010     1.4410     1.7240 H     1 <1>   0.1500 
 28 H       -4.1530     1.5440     0.3940 H     1 <1>   0.0800 
 29 H       -3.3590     1.0740    -1.1010 H     1 <1>   0.0800 
 30 H       -1.9160    -1.8730     0.7270 H     1 <1>   0.0800 
 31 H       -3.2100    -1.4300     1.8380 H     1 <1>   0.0800 
 32 H       -5.2060    -0.3840    -1.3180 H     1 <1>   0.0800 
 33 H       -3.3600    -1.8530    -1.1340 H     1 <1>   0.0800 
 34 H       -1.2860     4.5800     0.2460 H     1 <1>   0.1500 
 35 H        2.7220     3.1200     0.1610 H     1 <1>   0.1500 
 36 H       -5.4750    -3.0850    -0.5210 H     1 <1>   0.0800 
 37 H       -5.0770    -2.8550     1.1530 H     1 <1>   0.0800 
 38 H       -0.4800     6.8170    -0.4270 H     1 <1>   0.1500 
 39 H        3.5200     5.3560    -0.5020 H     1 <1>   0.1500 
 40 H       -7.4380     0.3640     1.2740 H     1 <1>   0.0800 
 41 H       -7.2730     0.1910    -0.4680 H     1 <1>   0.0800 
 42 H       -6.3950     1.4670     0.3900 H     1 <1>   0.0800 
 43 H       -1.8090    -3.8380    -0.6960 H     1 <1>   0.1500 
 44 H       -0.8820    -6.5400    -1.3360 H     1 <1>   0.0800 
 45 H       -1.3520    -7.6940    -0.1100 H     1 <1>   0.0800 
 46 H       -0.3650    -6.3170     0.3240 H     1 <1>   0.0800 
@<TRIPOS>BOND
  1   1   2  1   
  2   1   3  1   
  3   2   4  2   
  4   2   5  1   
  5   3   6  2   
  6   3  27  1   
  7   4   6  1   
  8   5   7  1   
  9   5   8  1   
 10   6   9  1   
 11   7  10  1   
 12   7  28  1   
 13   7  29  1   
 14   8  11  1   
 15   8  30  1   
 16   8  31  1   
 17   9  12  ar  
 18   9  13  ar  
 19  10  11  1   
 20  10  14  1   
 21  10  32  1   
 22  11  15  1   
 23  11  33  1   
 24  12  16  ar  
 25  12  34  1   
 26  13  17  ar  
 27  13  35  1   
 28  14  18  1   
 29  15  19  1   
 30  15  36  1   
 31  15  37  1   
 32  16  20  ar  
 33  16  38  1   
 34  17  20  ar  
 35  17  39  1   
 36  18  40  1   
 37  18  41  1   
 38  18  42  1   
 39  19  21  1   
 40  19  22  2   
 41  20  23  1   
 42  21  24  1   
 43  22  25  1   
 44  22  43  1   
 45  24  25  2   
 46  25  26  1   
 47  26  44  1   
 48  26  45  1   
 49  26  46  1   
@<TRIPOS>SUBSTRUCTURE
  1 ****   2 GROUP 4 **** **** 0

# MOE 2024.06 (io_trps.svl 2023.06)
