@<TRIPOS>MOLECULE
NONAME
48 50 1 0 0 
SMALL
USER_CHARGES


@<TRIPOS>ATOM
  1 O       -0.7720     0.5230     0.0530 O.2   1 <1>  -0.5700 
  2 C       -1.8870     0.9300     0.2680 C.2   1 <1>   0.5690 
  3 N       -2.8660     0.0990     0.7640 N.am  1 <1>  -0.6600 
  4 C       -2.1830     2.3970    -0.0320 C.3   1 <1>  -0.0190 
  5 C       -2.5640    -1.3580     0.9340 C.3   1 <1>   0.3200 
  6 C       -4.2060     0.5650     1.2490 C.3   1 <1>   0.1400 
  7 C       -1.4560     2.9940    -1.2510 C.3   1 <1>  -0.0170 
  8 C       -1.8550     3.3510     1.1300 C.3   1 <1>  -0.0170 
  9 C       -3.7100    -2.1660     0.3600 C.2   1 <1>  -0.3320 
 10 C       -5.2500     0.5260     0.1120 C.3   1 <1>   0.3430 
 11 C       -1.4940     4.4690    -0.9310 C.ar  1 <1>  -0.1440 
 12 C       -1.7170     4.6690     0.4110 C.ar  1 <1>  -0.1440 
 13 N       -4.5060    -2.9910     1.0700 N.pl3 1 <1>   0.0330 
 14 C       -4.1550    -2.2110    -0.9160 C.2   1 <1>   0.0770 
 15 N       -6.4580     1.3830     0.3620 N.4   1 <1>  -0.9590 
 16 C       -1.3430     5.5400    -1.7910 C.ar  1 <1>  -0.1500 
 17 C       -1.7930     5.9470     0.9330 C.ar  1 <1>  -0.1500 
 18 C       -5.4180    -3.4420     0.1830 C.2   1 <1>   0.0360 
 19 N       -5.2540    -2.9780    -1.0130 N.2   1 <1>  -0.5650 
 20 C       -7.5260     1.0090    -0.6190 C.3   1 <1>   0.2630 
 21 C       -6.1570     2.8480     0.2590 C.3   1 <1>   0.2630 
 22 C       -1.4220     6.8250    -1.2780 C.ar  1 <1>  -0.1500 
 23 C       -1.6450     7.0280     0.0770 C.ar  1 <1>  -0.1500 
 24 H       -3.2250     2.5070    -0.2520 H     1 <1>   0.0800 
 25 H       -2.4260    -1.5750     1.9790 H     1 <1>   0.0800 
 26 H       -1.6570    -1.6290     0.4180 H     1 <1>   0.0800 
 27 H       -4.1110     1.5620     1.6360 H     1 <1>   0.0800 
 28 H       -4.5310    -0.0670     2.0570 H     1 <1>   0.0800 
 29 H       -1.9560     2.7650    -2.1750 H     1 <1>   0.0800 
 30 H       -0.4300     2.6700    -1.2990 H     1 <1>   0.0800 
 31 H       -0.9130     3.0920     1.5830 H     1 <1>   0.0800 
 32 H       -2.6280     3.3790     1.8750 H     1 <1>   0.0800 
 33 H       -5.5700    -0.4950    -0.0150 H     1 <1>   0.0800 
 34 H       -4.7780     0.8380    -0.8050 H     1 <1>   0.0800 
 35 H       -4.4360    -3.2550     2.0590 H     1 <1>   0.2700 
 36 H       -3.7430    -1.7100    -1.7780 H     1 <1>   0.1500 
 37 H       -6.8200     1.1780     1.3060 H     1 <1>   0.4500 
 38 H       -1.1640     5.3810    -2.8400 H     1 <1>   0.1500 
 39 H       -1.9590     6.1040     1.9840 H     1 <1>   0.1500 
 40 H       -6.1990    -4.1300     0.4620 H     1 <1>   0.1500 
 41 H       -7.1980     1.2080    -1.6270 H     1 <1>   0.0800 
 42 H       -8.4240     1.5760    -0.4310 H     1 <1>   0.0800 
 43 H       -7.7600    -0.0410    -0.5370 H     1 <1>   0.0800 
 44 H       -5.7770     3.0870    -0.7220 H     1 <1>   0.0800 
 45 H       -5.4220     3.1390     0.9920 H     1 <1>   0.0800 
 46 H       -7.0520     3.4260     0.4290 H     1 <1>   0.0800 
 47 H       -1.3060     7.6700    -1.9330 H     1 <1>   0.1500 
 48 H       -1.7000     8.0300     0.4650 H     1 <1>   0.1500 
@<TRIPOS>BOND
  1   1   2  2   
  2   2   3  am  
  3   2   4  1   
  4   3   5  1   
  5   3   6  1   
  6   4   7  1   
  7   4   8  1   
  8   4  24  1   
  9   5   9  1   
 10   5  25  1   
 11   5  26  1   
 12   6  10  1   
 13   6  27  1   
 14   6  28  1   
 15   7  11  1   
 16   7  29  1   
 17   7  30  1   
 18   8  12  1   
 19   8  31  1   
 20   8  32  1   
 21   9  13  1   
 22   9  14  2   
 23  10  15  1   
 24  10  33  1   
 25  10  34  1   
 26  11  12  ar  
 27  11  16  ar  
 28  12  17  ar  
 29  13  18  1   
 30  13  35  1   
 31  14  19  1   
 32  14  36  1   
 33  15  20  1   
 34  15  21  1   
 35  15  37  1   
 36  16  22  ar  
 37  16  38  1   
 38  17  23  ar  
 39  17  39  1   
 40  18  19  2   
 41  18  40  1   
 42  20  41  1   
 43  20  42  1   
 44  20  43  1   
 45  21  44  1   
 46  21  45  1   
 47  21  46  1   
 48  22  23  ar  
 49  22  47  1   
 50  23  48  1   
@<TRIPOS>SUBSTRUCTURE
  1 ****   4 GROUP 4 **** **** 0

# MOE 2024.06 (io_trps.svl 2023.06)
