@<TRIPOS>MOLECULE
NONAME
57 60 1 0 0 
SMALL
USER_CHARGES


@<TRIPOS>ATOM
  1 O        1.8590    -0.0980    -0.9240 O.3   1 <1>  -0.5600 
  2 C        2.6480    -1.0550    -0.2480 C.3   1 <1>   0.4240 
  3 C        0.5140     0.0080    -0.5510 C.3   1 <1>   0.1200 
  4 C        1.8600    -2.3350     0.0860 C.ar  1 <1>  -0.1440 
  5 C        3.2210    -0.3770     1.0130 C.3   1 <1>  -0.1600 
  6 C        3.7990    -1.3800    -1.2090 C.3   1 <1>  -0.1600 
  7 C       -0.2040    -1.2970    -0.8830 C.3   1 <1>  -0.0160 
  8 C        0.5130    -2.4540    -0.2180 C.ar  1 <1>  -0.1440 
  9 C        2.4900    -3.4100     0.7010 C.ar  1 <1>  -0.1500 
 10 C        4.3840     0.5800     0.7280 C.3   1 <1>   0.3430 
 11 C        4.5840    -0.1380    -1.6440 C.3   1 <1>   0.3430 
 12 C       -0.1770    -3.6180     0.0810 C.ar  1 <1>  -0.1500 
 13 C        1.8200    -4.5800     1.0120 C.ar  1 <1>   0.0830 
 14 N        4.3670     0.9970    -0.7010 N.4   1 <1>  -0.9590 
 15 C        0.4550    -4.6950     0.6970 C.ar  1 <1>   0.0830 
 16 O        2.6130    -5.5160     1.6150 O.3   1 <1>  -0.3630 
 17 C        5.2140     2.1780    -0.9940 C.3   1 <1>   0.5240 
 18 O       -0.2320    -5.8390     0.9890 O.3   1 <1>  -0.3620 
 19 C        2.1510    -6.7840     2.0220 C.3   1 <1>   0.0400 
 20 C        4.6840     3.3340    -0.1790 C.2   1 <1>  -0.1810 
 21 C       -1.5890    -6.0210     0.6480 C.3   1 <1>   0.0400 
 22 C        5.3450     3.9480     0.8770 C.2   1 <1>   0.1390 
 23 C        3.5060     3.9910    -0.2750 C.2   1 <1>  -0.3020 
 24 N        4.6370     4.8930     1.4060 N.2   1 <1>  -0.7070 
 25 N        3.5010     4.9340     0.6890 N.pl3 1 <1>   0.3140 
 26 C        2.4320     5.9160     0.9740 C.3   1 <1>   0.0960 
 27 C        2.4390     7.0570    -0.0520 C.3   1 <1>  -0.2400 
 28 H        0.0770     0.8230    -1.1010 H     1 <1>   0.0800 
 29 H        0.4500     0.2190     0.5020 H     1 <1>   0.0800 
 30 H        3.5860    -1.1230     1.6930 H     1 <1>   0.0800 
 31 H        2.4420     0.1450     1.5360 H     1 <1>   0.0800 
 32 H        3.4090    -1.8820    -2.0770 H     1 <1>   0.0800 
 33 H        4.4800    -2.0630    -0.7380 H     1 <1>   0.0800 
 34 H       -0.2210    -1.4410    -1.9490 H     1 <1>   0.0800 
 35 H       -1.2200    -1.2390    -0.5350 H     1 <1>   0.0800 
 36 H        3.5320    -3.3650     0.9560 H     1 <1>   0.1500 
 37 H        5.3180     0.0870     0.9450 H     1 <1>   0.0800 
 38 H        4.2980     1.4400     1.3740 H     1 <1>   0.0800 
 39 H        4.2500     0.1560    -2.6260 H     1 <1>   0.0800 
 40 H        5.6330    -0.3830    -1.7040 H     1 <1>   0.0800 
 41 H       -1.2170    -3.6640    -0.1760 H     1 <1>   0.1500 
 42 H        3.3870     1.2880    -0.8660 H     1 <1>   0.4500 
 43 H        5.1560     2.4260    -2.0410 H     1 <1>   0.0800 
 44 H        6.2410     1.9790    -0.7380 H     1 <1>   0.0800 
 45 H        2.9740    -7.3140     2.4640 H     1 <1>   0.0800 
 46 H        1.7930    -7.3170     1.1600 H     1 <1>   0.0800 
 47 H        1.3680    -6.6530     2.7480 H     1 <1>   0.0800 
 48 H       -1.8830    -7.0050     0.9650 H     1 <1>   0.0800 
 49 H       -1.6960    -5.9350    -0.4190 H     1 <1>   0.0800 
 50 H       -2.1800    -5.2820     1.1600 H     1 <1>   0.0800 
 51 H        6.3270     3.6890     1.2390 H     1 <1>   0.1500 
 52 H        2.6830     3.8600    -0.9550 H     1 <1>   0.1500 
 53 H        2.5950     6.3120     1.9600 H     1 <1>   0.0800 
 54 H        1.4860     5.4080     0.9610 H     1 <1>   0.0800 
 55 H        3.3870     7.5650    -0.0310 H     1 <1>   0.0800 
 56 H        1.6680     7.7670     0.1890 H     1 <1>   0.0800 
 57 H        2.2590     6.6790    -1.0420 H     1 <1>   0.0800 
@<TRIPOS>BOND
  1   1   2  1   
  2   1   3  1   
  3   2   4  1   
  4   2   5  1   
  5   2   6  1   
  6   3   7  1   
  7   3  28  1   
  8   3  29  1   
  9   4   8  ar  
 10   4   9  ar  
 11   5  10  1   
 12   5  30  1   
 13   5  31  1   
 14   6  11  1   
 15   6  32  1   
 16   6  33  1   
 17   7   8  1   
 18   7  34  1   
 19   7  35  1   
 20   8  12  ar  
 21   9  13  ar  
 22   9  36  1   
 23  10  14  1   
 24  10  37  1   
 25  10  38  1   
 26  11  14  1   
 27  11  39  1   
 28  11  40  1   
 29  12  15  ar  
 30  12  41  1   
 31  13  15  ar  
 32  13  16  1   
 33  14  17  1   
 34  14  42  1   
 35  15  18  1   
 36  16  19  1   
 37  17  20  1   
 38  17  43  1   
 39  17  44  1   
 40  18  21  1   
 41  19  45  1   
 42  19  46  1   
 43  19  47  1   
 44  20  22  1   
 45  20  23  2   
 46  21  48  1   
 47  21  49  1   
 48  21  50  1   
 49  22  24  2   
 50  22  51  1   
 51  23  25  1   
 52  23  52  1   
 53  24  25  1   
 54  25  26  1   
 55  26  27  1   
 56  26  53  1   
 57  26  54  1   
 58  27  55  1   
 59  27  56  1   
 60  27  57  1   
@<TRIPOS>SUBSTRUCTURE
  1 ****   2 GROUP 4 **** **** 0

# MOE 2024.06 (io_trps.svl 2023.06)
