@<TRIPOS>MOLECULE
NONAME
57 59 1 0 0 
SMALL
USER_CHARGES


@<TRIPOS>ATOM
  1 O       -0.1850     0.6920    -0.2540 O.2   1 <1>  -0.5700 
  2 C       -0.2900     1.8900    -0.1290 C.2   1 <1>   0.5690 
  3 N       -1.4610     2.5140     0.2290 N.am  1 <1>  -0.6600 
  4 C        0.9600     2.7250    -0.4100 C.3   1 <1>   0.1810 
  5 C       -1.5130     4.0110     0.3730 C.3   1 <1>   0.3640 
  6 C       -2.6700     1.7990     0.7340 C.3   1 <1>   0.2200 
  7 O        0.9370     3.9810     0.2190 O.3   1 <1>  -0.5600 
  8 C       -2.6900     4.5720    -0.4310 C.ar  1 <1>  -0.1440 
  9 C       -0.2190     4.7400    -0.0750 C.3   1 <1>   0.2610 
 10 C       -2.3400     1.0440     2.0210 C.3   1 <1>  -0.2400 
 11 C       -3.2610     0.8780    -0.3340 C.3   1 <1>  -0.2400 
 12 C       -2.9160     4.1800    -1.7440 C.ar  1 <1>  -0.1500 
 13 C       -3.5450     5.4980     0.1490 C.ar  1 <1>  -0.1500 
 14 C       -0.1150     6.1560     0.5240 C.2   1 <1>   0.5690 
 15 C       -3.9780     4.7020    -2.4630 C.ar  1 <1>  -0.1500 
 16 C       -4.6070     6.0220    -0.5670 C.ar  1 <1>  -0.1500 
 17 O       -0.7790     6.4220     1.5040 O.2   1 <1>  -0.5700 
 18 N        0.7050     7.1080    -0.0450 N.am  1 <1>  -0.6600 
 19 C       -4.8240     5.6230    -1.8740 C.ar  1 <1>  -0.1500 
 20 C        0.7540     8.5010     0.4800 C.3   1 <1>   0.1400 
 21 C        1.7110     6.8430    -1.1100 C.3   1 <1>   0.1400 
 22 C        2.1470     8.7880     1.0480 C.3   1 <1>  -0.1600 
 23 C        3.1140     7.1060    -0.5580 C.3   1 <1>  -0.1600 
 24 C        3.2550     8.5310     0.0080 C.3   1 <1>  -0.0800 
 25 C        4.6650     8.7220     0.5990 C.3   1 <1>  -0.1600 
 26 C        4.9290    10.1590     1.0560 C.3   1 <1>   0.1200 
 27 O        6.2510    10.2550     1.4430 O.3   1 <1>  -0.6800 
 28 H        1.0630     2.8720    -1.4690 H     1 <1>   0.0800 
 29 H        1.8230     2.1970    -0.0470 H     1 <1>   0.0800 
 30 H       -1.6760     4.2150     1.4170 H     1 <1>   0.0800 
 31 H       -3.4260     2.5270     0.9770 H     1 <1>   0.0800 
 32 H       -0.2610     4.8510    -1.1420 H     1 <1>   0.0800 
 33 H       -1.6470     0.2450     1.8310 H     1 <1>   0.0800 
 34 H       -3.2370     0.6190     2.4320 H     1 <1>   0.0800 
 35 H       -1.9180     1.7150     2.7470 H     1 <1>   0.0800 
 36 H       -2.5950     0.0650    -0.5600 H     1 <1>   0.0800 
 37 H       -3.4650     1.4310    -1.2320 H     1 <1>   0.0800 
 38 H       -4.1850     0.4610     0.0210 H     1 <1>   0.0800 
 39 H       -2.2690     3.4580    -2.2130 H     1 <1>   0.1500 
 40 H       -3.3840     5.8250     1.1640 H     1 <1>   0.1500 
 41 H       -4.1460     4.3890    -3.4780 H     1 <1>   0.1500 
 42 H       -5.2620     6.7410    -0.1070 H     1 <1>   0.1500 
 43 H       -5.6500     6.0310    -2.4310 H     1 <1>   0.1500 
 44 H        0.5360     9.1850    -0.3230 H     1 <1>   0.0800 
 45 H        0.0140     8.6490     1.2480 H     1 <1>   0.0800 
 46 H        1.6570     5.8300    -1.4620 H     1 <1>   0.0800 
 47 H        1.5170     7.4960    -1.9450 H     1 <1>   0.0800 
 48 H        2.1710     9.8120     1.3750 H     1 <1>   0.0800 
 49 H        2.2970     8.1630     1.9110 H     1 <1>   0.0800 
 50 H        3.3180     6.3820     0.2120 H     1 <1>   0.0800 
 51 H        3.8310     6.9560    -1.3460 H     1 <1>   0.0800 
 52 H        3.1280     9.2270    -0.8050 H     1 <1>   0.0800 
 53 H        5.3900     8.4730    -0.1570 H     1 <1>   0.0800 
 54 H        4.7970     8.0520     1.4300 H     1 <1>   0.0800 
 55 H        4.3130    10.4300     1.8970 H     1 <1>   0.0800 
 56 H        4.7690    10.8570     0.2520 H     1 <1>   0.0800 
 57 H        6.4430     9.6220     2.1610 H     1 <1>   0.4000 
@<TRIPOS>BOND
  1   1   2  2   
  2   2   3  am  
  3   2   4  1   
  4   3   5  1   
  5   3   6  1   
  6   4   7  1   
  7   4  28  1   
  8   4  29  1   
  9   5   8  1   
 10   5   9  1   
 11   5  30  1   
 12   6  10  1   
 13   6  11  1   
 14   6  31  1   
 15   7   9  1   
 16   8  12  ar  
 17   8  13  ar  
 18   9  14  1   
 19   9  32  1   
 20  10  33  1   
 21  10  34  1   
 22  10  35  1   
 23  11  36  1   
 24  11  37  1   
 25  11  38  1   
 26  12  15  ar  
 27  12  39  1   
 28  13  16  ar  
 29  13  40  1   
 30  14  17  2   
 31  14  18  am  
 32  15  19  ar  
 33  15  41  1   
 34  16  19  ar  
 35  16  42  1   
 36  18  20  1   
 37  18  21  1   
 38  19  43  1   
 39  20  22  1   
 40  20  44  1   
 41  20  45  1   
 42  21  23  1   
 43  21  46  1   
 44  21  47  1   
 45  22  24  1   
 46  22  48  1   
 47  22  49  1   
 48  23  24  1   
 49  23  50  1   
 50  23  51  1   
 51  24  25  1   
 52  24  52  1   
 53  25  26  1   
 54  25  53  1   
 55  25  54  1   
 56  26  27  1   
 57  26  55  1   
 58  26  56  1   
 59  27  57  1   
@<TRIPOS>SUBSTRUCTURE
  1 ****   9 GROUP 4 **** **** 0

# MOE 2024.06 (io_trps.svl 2023.06)
