@<TRIPOS>MOLECULE
Untitled Document
35 37 1 0 0 
SMALL
USER_CHARGES


@<TRIPOS>ATOM
  1 O       -1.1110    -0.1840    -0.9310 O.2   1 <1>  -0.5700 
  2 C       -1.6390    -1.2220    -0.6130 C.2   1 <1>   0.7060 
  3 O       -2.9540    -1.3070    -0.4900 O.3   1 <1>  -0.4300 
  4 C       -0.9990    -2.4790    -0.3350 C.2   1 <1>  -0.1240 
  5 C       -3.3510    -2.6570    -0.3750 C.3   1 <1>   0.2000 
  6 C        0.2880    -2.8390    -0.5020 C.2   1 <1>  -0.3000 
  7 C       -2.1130    -3.3440     0.2150 C.3   1 <1>   0.0580 
  8 C       -4.6340    -2.8970     0.4420 C.3   1 <1>   0.1960 
  9 C       -2.0420    -4.8470    -0.0880 C.3   1 <1>  -0.1600 
 10 C       -5.1760    -4.2900     0.0720 C.2   1 <1>  -0.2760 
 11 C       -5.8080    -1.9840     0.1130 C.2   1 <1>  -0.2760 
 12 C       -3.1010    -5.6320     0.7020 C.3   1 <1>  -0.0220 
 13 C       -4.5220    -5.4610     0.1650 C.2   1 <1>  -0.2760 
 14 C       -6.6030    -4.1300    -0.4590 C.3   1 <1>   0.1160 
 15 C       -6.8480    -2.6510    -0.3670 C.2   1 <1>  -0.2880 
 16 C       -5.7410    -0.4870     0.3700 C.3   1 <1>  -0.1020 
 17 C       -5.1290    -6.8000    -0.2490 C.3   1 <1>  -0.1020 
 18 H       -3.5180    -3.0020    -1.3820 H     1 <1>   0.0800 
 19 H        1.0340    -2.1680    -0.8980 H     1 <1>   0.1500 
 20 H        0.6990    -3.8030    -0.2640 H     1 <1>   0.1500 
 21 H       -2.1180    -3.2080     1.2830 H     1 <1>   0.0800 
 22 H       -4.4330    -2.8520     1.4980 H     1 <1>   0.0800 
 23 H       -2.1580    -5.0270    -1.1430 H     1 <1>   0.0800 
 24 H       -1.0760    -5.2150     0.2060 H     1 <1>   0.0800 
 25 H       -3.0810    -5.3440     1.7390 H     1 <1>   0.0800 
 26 H       -2.8260    -6.6730     0.6710 H     1 <1>   0.0800 
 27 H       -6.6740    -4.4590    -1.4800 H     1 <1>   0.0800 
 28 H       -7.3050    -4.6650     0.1570 H     1 <1>   0.0800 
 29 H       -7.8060    -2.2710    -0.6770 H     1 <1>   0.1500 
 30 H       -5.4080    -0.2960     1.3740 H     1 <1>   0.0800 
 31 H       -6.7150    -0.0480     0.2430 H     1 <1>   0.0800 
 32 H       -5.0710    -0.0080    -0.3190 H     1 <1>   0.0800 
 33 H       -4.5310    -7.2510    -1.0200 H     1 <1>   0.0800 
 34 H       -6.1290    -6.6980    -0.6260 H     1 <1>   0.0800 
 35 H       -5.1620    -7.4650     0.5960 H     1 <1>   0.0800 
@<TRIPOS>BOND
  1   1   2  2   
  2   2   3  1   
  3   2   4  1   
  4   3   5  1   
  5   4   6  2   
  6   4   7  1   
  7   5   7  1   
  8   5   8  1   
  9   5  18  1   
 10   6  19  1   
 11   6  20  1   
 12   7   9  1   
 13   7  21  1   
 14   8  10  1   
 15   8  11  1   
 16   8  22  1   
 17   9  12  1   
 18   9  23  1   
 19   9  24  1   
 20  10  13  2   
 21  10  14  1   
 22  11  15  2   
 23  11  16  1   
 24  12  13  1   
 25  12  25  1   
 26  12  26  1   
 27  13  17  1   
 28  14  15  1   
 29  14  27  1   
 30  14  28  1   
 31  15  29  1   
 32  16  30  1   
 33  16  31  1   
 34  16  32  1   
 35  17  33  1   
 36  17  34  1   
 37  17  35  1   
@<TRIPOS>SUBSTRUCTURE
  1 ****   5 GROUP 4 **** **** 0

# MOE 2024.06 (io_trps.svl 2023.06)
