@<TRIPOS>MOLECULE
NONAME
36 37 1 0 0 
SMALL
USER_CHARGES


@<TRIPOS>ATOM
  1 O        0.3410     0.3790    -2.3900 O.2   1 <1>  -0.5700 
  2 C        0.9930    -0.3000    -1.6340 C.2   1 <1>   0.5690 
  3 N        1.9420     0.2020    -0.7960 N.am  1 <1>  -0.4930 
  4 C        0.7460    -1.7970    -1.6150 C.3   1 <1>  -0.0990 
  5 C        2.3540     1.5450    -0.6140 C.2   1 <1>   0.0630 
  6 C        0.2350    -2.3150    -0.2570 C.3   1 <1>  -0.0800 
  7 C        3.2600     1.9920     0.2850 C.2   1 <1>  -0.3320 
  8 C        1.9380     2.6900    -1.2950 C.2   1 <1>   0.1390 
  9 C        0.0370    -3.8400    -0.3060 C.3   1 <1>   0.1200 
 10 C       -1.0790    -1.6300     0.1580 C.3   1 <1>  -0.1600 
 11 N        3.3460     3.3350     0.1100 N.pl3 1 <1>   0.3140 
 12 C        4.0660     1.2200     1.3210 C.3   1 <1>  -0.0600 
 13 N        2.5310     3.7640    -0.8650 N.2   1 <1>  -0.7070 
 14 O       -0.4270    -4.2890     0.9310 O.3   1 <1>  -0.5600 
 15 C       -1.6290    -2.2830     1.4330 C.3   1 <1>  -0.1600 
 16 C        4.1970     4.2760     0.8490 C.3   1 <1>   0.0160 
 17 C       -1.6860    -3.8080     1.2890 C.3   1 <1>   0.1200 
 18 H        2.4120    -0.4640    -0.1900 H     1 <1>   0.3700 
 19 H        1.6640    -2.2920    -1.8730 H     1 <1>   0.0800 
 20 H        0.0280    -2.0300    -2.3810 H     1 <1>   0.0800 
 21 H        0.9800    -2.1150     0.4930 H     1 <1>   0.0800 
 22 H        1.2100     2.6900    -2.0880 H     1 <1>   0.1500 
 23 H        0.9700    -4.3380    -0.5020 H     1 <1>   0.0800 
 24 H       -0.6770    -4.1210    -1.0620 H     1 <1>   0.0800 
 25 H       -1.8050    -1.7310    -0.6310 H     1 <1>   0.0800 
 26 H       -0.9230    -0.5790     0.3320 H     1 <1>   0.0800 
 27 H        3.8320     0.1720     1.2850 H     1 <1>   0.0800 
 28 H        3.8420     1.5830     2.3080 H     1 <1>   0.0800 
 29 H        5.1190     1.3390     1.1340 H     1 <1>   0.0800 
 30 H       -2.6130    -1.9030     1.6430 H     1 <1>   0.0800 
 31 H       -0.9970    -2.0400     2.2700 H     1 <1>   0.0800 
 32 H        5.2260     4.0040     0.7130 H     1 <1>   0.0800 
 33 H        3.9380     4.2430     1.8900 H     1 <1>   0.0800 
 34 H        4.0340     5.2680     0.4700 H     1 <1>   0.0800 
 35 H       -1.9590    -4.2660     2.2240 H     1 <1>   0.0800 
 36 H       -2.3950    -4.1040     0.5340 H     1 <1>   0.0800 
@<TRIPOS>BOND
  1   1   2  2   
  2   2   3  am  
  3   2   4  1   
  4   3   5  1   
  5   3  18  1   
  6   4   6  1   
  7   4  19  1   
  8   4  20  1   
  9   5   7  2   
 10   5   8  1   
 11   6   9  1   
 12   6  10  1   
 13   6  21  1   
 14   7  11  1   
 15   7  12  1   
 16   8  13  2   
 17   8  22  1   
 18   9  14  1   
 19   9  23  1   
 20   9  24  1   
 21  10  15  1   
 22  10  25  1   
 23  10  26  1   
 24  11  13  1   
 25  11  16  1   
 26  12  27  1   
 27  12  28  1   
 28  12  29  1   
 29  14  17  1   
 30  15  17  1   
 31  15  30  1   
 32  15  31  1   
 33  16  32  1   
 34  16  33  1   
 35  16  34  1   
 36  17  35  1   
 37  17  36  1   
@<TRIPOS>SUBSTRUCTURE
  1 ****   3 GROUP 4 **** **** 0

# MOE 2024.06 (io_trps.svl 2023.06)
