@<TRIPOS>MOLECULE
NONAME
40 41 1 0 0 
SMALL
USER_CHARGES


@<TRIPOS>ATOM
  1 S        1.1840     0.8950    -0.4890 S.o2  1 <1>   1.3330 
  2 O        1.7860     0.9250    -1.8030 O.2   1 <1>  -0.6500 
  3 O        1.1180     2.1420     0.2460 O.2   1 <1>  -0.6500 
  4 N       -0.3800     0.2530    -0.6160 N.am  1 <1>  -0.8490 
  5 C        2.0600    -0.3290     0.4890 C.3   1 <1>  -0.0550 
  6 C       -1.2560     0.6070     0.5070 C.3   1 <1>   0.1160 
  7 C       -1.0340     0.5780    -1.8880 C.3   1 <1>   0.1160 
  8 C        3.3980     0.1910     1.0510 C.3   1 <1>  -0.0800 
  9 C        4.4520     0.4380    -0.0270 C.3   1 <1>   0.2890 
 10 C        4.0800    -0.8560     1.9230 C.3   1 <1>   0.1200 
 11 N        5.2810     1.5970     0.3910 N.pl3 1 <1>  -0.8690 
 12 C        5.2650    -0.8610    -0.0350 C.3   1 <1>   0.1200 
 13 O        4.8310    -1.6280     1.0500 O.3   1 <1>  -0.5600 
 14 C        4.9620     2.8970     0.3030 C.ar  1 <1>   0.4100 
 15 N        5.6190     3.6910     1.1190 N.ar  1 <1>  -0.6200 
 16 C        3.9660     3.3760    -0.5680 C.ar  1 <1>  -0.1500 
 17 C        5.2670     4.9600     1.1350 C.ar  1 <1>   0.7710 
 18 C        3.6200     4.6830    -0.5150 C.ar  1 <1>   0.2110 
 19 N        4.2860     5.4700     0.3650 N.ar  1 <1>  -0.1790 
 20 N        5.9380     5.7460     1.9730 N.pl3 1 <1>  -0.9000 
 21 H        1.4390    -0.6110     1.3160 H     1 <1>   0.0800 
 22 H        2.2280    -1.2090    -0.1020 H     1 <1>   0.0800 
 23 H       -2.1960     0.0880     0.4210 H     1 <1>   0.0800 
 24 H       -1.4410     1.6690     0.5200 H     1 <1>   0.0800 
 25 H       -0.7980     0.3250     1.4400 H     1 <1>   0.0800 
 26 H       -2.0100     0.1270    -1.9320 H     1 <1>   0.0800 
 27 H       -0.4520     0.1960    -2.7110 H     1 <1>   0.0800 
 28 H       -1.1320     1.6450    -1.9980 H     1 <1>   0.0800 
 29 H        3.2010     1.0750     1.6320 H     1 <1>   0.0800 
 30 H        4.0480     0.6130    -1.0070 H     1 <1>   0.0800 
 31 H        3.3900    -1.4890     2.4540 H     1 <1>   0.0800 
 32 H        4.7600    -0.3930     2.6190 H     1 <1>   0.0800 
 33 H        6.0420     1.3580     1.0350 H     1 <1>   0.4000 
 34 H        6.3210    -0.6790     0.0650 H     1 <1>   0.0800 
 35 H        5.0760    -1.4280    -0.9290 H     1 <1>   0.0800 
 36 H        3.4920     2.7080    -1.2600 H     1 <1>   0.1500 
 37 H        2.8490     5.1080    -1.1390 H     1 <1>   0.1500 
 38 H        4.0780     6.4580     0.4680 H     1 <1>   0.4570 
 39 H        5.8310     6.7470     2.1440 H     1 <1>   0.4000 
 40 H        6.6760     5.3080     2.5350 H     1 <1>   0.4000 
@<TRIPOS>BOND
  1   1   2  2   
  2   1   3  2   
  3   1   4  am  
  4   1   5  1   
  5   4   6  1   
  6   4   7  1   
  7   5   8  1   
  8   5  21  1   
  9   5  22  1   
 10   6  23  1   
 11   6  24  1   
 12   6  25  1   
 13   7  26  1   
 14   7  27  1   
 15   7  28  1   
 16   8   9  1   
 17   8  10  1   
 18   8  29  1   
 19   9  11  1   
 20   9  12  1   
 21   9  30  1   
 22  10  13  1   
 23  10  31  1   
 24  10  32  1   
 25  11  14  1   
 26  11  33  1   
 27  12  13  1   
 28  12  34  1   
 29  12  35  1   
 30  14  15  ar  
 31  14  16  ar  
 32  15  17  ar  
 33  16  18  ar  
 34  16  36  1   
 35  17  19  ar  
 36  17  20  1   
 37  18  19  ar  
 38  18  37  1   
 39  19  38  1   
 40  20  39  1   
 41  20  40  1   
@<TRIPOS>SUBSTRUCTURE
  1 ****   8 GROUP 4 **** **** 0

# MOE 2024.06 (io_trps.svl 2023.06)
