@<TRIPOS>MOLECULE
NONAME
38 40 1 0 0 
SMALL
USER_CHARGES


@<TRIPOS>ATOM
  1 O       -0.4820    -0.9790     0.5000 O.co2 1 <1>  -0.9000 
  2 C        0.4370    -1.6710     0.9780 C.2   1 <1>   0.9790 
  3 O        0.5030    -1.7930     2.2140 O.co2 1 <1>  -0.9000 
  4 C        1.4160    -2.2750     0.1160 C.ar  1 <1>  -0.1790 
  5 C        1.2520    -3.5610    -0.4290 C.ar  1 <1>   0.4100 
  6 C        2.5730    -1.5710    -0.1810 C.ar  1 <1>  -0.1500 
  7 N        2.1710    -4.1380    -1.2090 N.ar  1 <1>  -0.6200 
  8 N        0.1280    -4.3440    -0.1980 N.pl3 1 <1>  -0.8380 
  9 C        3.5090    -2.1680    -0.9910 C.ar  1 <1>  -0.1500 
 10 C        3.2580    -3.4390    -1.4680 C.ar  1 <1>   0.1600 
 11 C       -1.2550    -3.7920    -0.1820 C.3   1 <1>   0.2090 
 12 C        0.0930    -5.7920    -0.4860 C.3   1 <1>   0.2090 
 13 C       -2.1620    -4.9820    -0.4990 C.3   1 <1>   0.2000 
 14 C       -1.3350    -6.2170    -0.1480 C.3   1 <1>  -0.0800 
 15 O       -3.3290    -4.9700     0.2550 O.3   1 <1>  -0.6800 
 16 C       -1.8000    -7.4790    -0.8890 C.3   1 <1>   0.0200 
 17 C       -1.0100    -8.7190    -0.5030 C.2   1 <1>  -0.0400 
 18 O       -1.1780    -9.8150    -1.1940 O.3   1 <1>  -0.0190 
 19 C       -0.1090    -8.9770     0.4590 C.2   1 <1>  -0.1500 
 20 N       -0.4370   -10.7890    -0.7510 N.2   1 <1>  -0.4100 
 21 C        0.2190   -10.3130     0.2450 C.2   1 <1>   0.1080 
 22 C        1.2110   -11.1040     1.0680 C.3   1 <1>  -0.0590 
 23 H        2.7180    -0.5840     0.2230 H     1 <1>   0.1500 
 24 H        4.4190    -1.6580    -1.2450 H     1 <1>   0.1500 
 25 H        3.9940    -3.9060    -2.0980 H     1 <1>   0.1500 
 26 H       -1.4690    -3.4060     0.8000 H     1 <1>   0.0800 
 27 H       -1.3590    -3.0100    -0.9150 H     1 <1>   0.0800 
 28 H        0.3040    -5.9510    -1.5300 H     1 <1>   0.0800 
 29 H        0.8250    -6.3070     0.1110 H     1 <1>   0.0800 
 30 H       -2.4270    -4.9700    -1.5420 H     1 <1>   0.0800 
 31 H       -1.3800    -6.3780     0.9150 H     1 <1>   0.0800 
 32 H       -3.1190    -4.6700     1.1620 H     1 <1>   0.4000 
 33 H       -1.7080    -7.3260    -1.9500 H     1 <1>   0.0800 
 34 H       -2.8380    -7.6560    -0.6710 H     1 <1>   0.0800 
 35 H        0.2890    -8.3410     1.2270 H     1 <1>   0.1500 
 36 H        2.1600   -10.6000     1.0790 H     1 <1>   0.0800 
 37 H        1.3410   -12.0830     0.6440 H     1 <1>   0.0800 
 38 H        0.8500   -11.2050     2.0750 H     1 <1>   0.0800 
@<TRIPOS>BOND
  1   1   2  ar  
  2   2   3  ar  
  3   2   4  1   
  4   4   5  ar  
  5   4   6  ar  
  6   5   7  ar  
  7   5   8  1   
  8   6   9  ar  
  9   6  23  1   
 10   7  10  ar  
 11   8  11  1   
 12   8  12  1   
 13   9  10  ar  
 14   9  24  1   
 15  10  25  1   
 16  11  13  1   
 17  11  26  1   
 18  11  27  1   
 19  12  14  1   
 20  12  28  1   
 21  12  29  1   
 22  13  14  1   
 23  13  15  1   
 24  13  30  1   
 25  14  16  1   
 26  14  31  1   
 27  15  32  1   
 28  16  17  1   
 29  16  33  1   
 30  16  34  1   
 31  17  18  1   
 32  17  19  2   
 33  18  20  1   
 34  19  21  1   
 35  19  35  1   
 36  20  21  2   
 37  21  22  1   
 38  22  36  1   
 39  22  37  1   
 40  22  38  1   
@<TRIPOS>SUBSTRUCTURE
  1 ****  12 GROUP 4 **** **** 0

# MOE 2024.06 (io_trps.svl 2023.06)
