@<TRIPOS>MOLECULE
NONAME
55 57 1 0 0 
SMALL
USER_CHARGES


@<TRIPOS>ATOM
  1 O       -2.9000     1.0040    -0.6330 O.2   1 <1>  -0.5700 
  2 C       -1.7640     1.0690    -0.1830 C.2   1 <1>   0.8060 
  3 O       -0.8380     0.2370    -0.6680 O.3   1 <1>  -0.4300 
  4 C       -1.3810     2.0270     0.8400 C.2   1 <1>   0.1410 
  5 C       -1.1290    -0.7260    -1.6530 C.3   1 <1>   0.1200 
  6 N       -0.1100     2.4690     1.0510 N.2   1 <1>  -0.5650 
  7 C       -2.2240     2.6540     1.7260 C.2   1 <1>  -0.2370 
  8 C        0.1520    -1.4980    -1.9490 C.3   1 <1>  -0.2400 
  9 C       -0.2040     3.3100     2.0260 C.2   1 <1>   0.0360 
 10 N       -1.4580     3.4670     2.4780 N.pl3 1 <1>   0.0330 
 11 C       -3.6320     2.4850     1.8670 C.2   1 <1>   0.7150 
 12 O       -4.0900     1.3880     2.1160 O.2   1 <1>  -0.5700 
 13 N       -4.5190     3.5020     1.6100 N.am  1 <1>  -0.6600 
 14 C       -5.9650     3.3380     1.9990 C.3   1 <1>   0.1400 
 15 C       -4.2420     4.5500     0.5800 C.3   1 <1>   0.1400 
 16 C       -6.8190     2.7090     0.8630 C.3   1 <1>   0.4230 
 17 C       -4.9940     4.3340    -0.7590 C.3   1 <1>  -0.0800 
 18 N       -5.9260     2.0130    -0.1380 N.4   1 <1>  -0.9590 
 19 C       -7.7630     3.7530     0.2250 C.3   1 <1>   0.1200 
 20 C       -6.2530     5.2060    -0.9090 C.3   1 <1>   0.1200 
 21 C       -5.2890     2.8810    -1.1790 C.3   1 <1>   0.3430 
 22 C       -6.4940     0.7830    -0.7390 C.3   1 <1>   0.3430 
 23 O       -7.1570     5.0090     0.1250 O.3   1 <1>  -0.5600 
 24 C       -6.5380    -0.3390     0.2990 C.3   1 <1>  -0.1600 
 25 C       -7.0450    -1.6420    -0.3310 C.3   1 <1>  -0.1600 
 26 C       -7.0840    -2.7700     0.7030 C.3   1 <1>  -0.2400 
 27 H       -1.8940    -1.3830    -1.2750 H     1 <1>   0.0800 
 28 H       -1.4840    -0.2190    -2.5350 H     1 <1>   0.0800 
 29 H        0.5030    -1.9890    -1.0590 H     1 <1>   0.0800 
 30 H        0.9120    -0.8290    -2.3120 H     1 <1>   0.0800 
 31 H       -0.0360    -2.2430    -2.7010 H     1 <1>   0.0800 
 32 H        0.6330     3.8400     2.4500 H     1 <1>   0.1500 
 33 H       -1.7590     4.0670     3.2540 H     1 <1>   0.2700 
 34 H       -6.0290     2.6960     2.8610 H     1 <1>   0.0800 
 35 H       -6.3680     4.2880     2.3060 H     1 <1>   0.0800 
 36 H       -4.4970     5.5140     0.9870 H     1 <1>   0.0800 
 37 H       -3.1860     4.5720     0.3710 H     1 <1>   0.0800 
 38 H       -7.4500     1.9680     1.3220 H     1 <1>   0.0800 
 39 H       -4.3330     4.7110    -1.5190 H     1 <1>   0.0800 
 40 H       -5.1320     1.6820     0.4480 H     1 <1>   0.4500 
 41 H       -8.6130     3.8840     0.8710 H     1 <1>   0.0800 
 42 H       -8.1220     3.4400    -0.7400 H     1 <1>   0.0800 
 43 H       -6.7550     5.0220    -1.8450 H     1 <1>   0.0800 
 44 H       -5.9770     6.2470    -0.8830 H     1 <1>   0.0800 
 45 H       -4.3650     2.4240    -1.4900 H     1 <1>   0.0800 
 46 H       -5.9280     2.9120    -2.0450 H     1 <1>   0.0800 
 47 H       -7.4820     0.9760    -1.1250 H     1 <1>   0.0800 
 48 H       -5.8670     0.4620    -1.5550 H     1 <1>   0.0800 
 49 H       -5.5460    -0.5040     0.6860 H     1 <1>   0.0800 
 50 H       -7.1870    -0.0750     1.1150 H     1 <1>   0.0800 
 51 H       -8.0360    -1.4990    -0.7300 H     1 <1>   0.0800 
 52 H       -6.3970    -1.9350    -1.1410 H     1 <1>   0.0800 
 53 H       -7.7460    -2.5210     1.5140 H     1 <1>   0.0800 
 54 H       -6.1020    -2.9520     1.1030 H     1 <1>   0.0800 
 55 H       -7.4360    -3.6780     0.2450 H     1 <1>   0.0800 
@<TRIPOS>BOND
  1   1   2  2   
  2   2   3  1   
  3   2   4  1   
  4   3   5  1   
  5   4   6  1   
  6   4   7  2   
  7   5   8  1   
  8   5  27  1   
  9   5  28  1   
 10   6   9  2   
 11   7  10  1   
 12   7  11  1   
 13   8  29  1   
 14   8  30  1   
 15   8  31  1   
 16   9  10  1   
 17   9  32  1   
 18  10  33  1   
 19  11  12  2   
 20  11  13  am  
 21  13  14  1   
 22  13  15  1   
 23  14  16  1   
 24  14  34  1   
 25  14  35  1   
 26  15  17  1   
 27  15  36  1   
 28  15  37  1   
 29  16  18  1   
 30  16  19  1   
 31  16  38  1   
 32  17  20  1   
 33  17  21  1   
 34  17  39  1   
 35  18  21  1   
 36  18  22  1   
 37  18  40  1   
 38  19  23  1   
 39  19  41  1   
 40  19  42  1   
 41  20  23  1   
 42  20  43  1   
 43  20  44  1   
 44  21  45  1   
 45  21  46  1   
 46  22  24  1   
 47  22  47  1   
 48  22  48  1   
 49  24  25  1   
 50  24  49  1   
 51  24  50  1   
 52  25  26  1   
 53  25  51  1   
 54  25  52  1   
 55  26  53  1   
 56  26  54  1   
 57  26  55  1   
@<TRIPOS>SUBSTRUCTURE
  1 ****  11 GROUP 4 **** **** 0

# MOE 2024.06 (io_trps.svl 2023.06)
