@<TRIPOS>MOLECULE
NONAME
31 34 1 0 0 
SMALL
USER_CHARGES


@<TRIPOS>ATOM
  1 S        0.0770     0.0780     0.2560 S.3   1 <1>  -0.0800 
  2 C       -1.4730    -0.6390    -0.1350 C.2   1 <1>   0.1240 
  3 C        0.8080    -1.5220     0.3380 C.2   1 <1>  -0.1400 
  4 N       -2.6120     0.0850    -0.3490 N.pl3 1 <1>  -0.5680 
  5 C       -1.4120    -2.0030    -0.1990 C.2   1 <1>  -0.0860 
  6 C       -0.0840    -2.4850     0.0710 C.2   1 <1>  -0.1810 
  7 C        2.2720    -1.7180     0.6710 C.3   1 <1>   0.3000 
  8 C       -3.7800    -0.6090    -0.6450 C.2   1 <1>   0.2700 
  9 C       -2.6140    -2.7240    -0.5050 C.2   1 <1>   0.6650 
 10 C        0.3740    -3.9320     0.0930 C.3   1 <1>   0.0210 
 11 O        2.5170    -3.0880     0.8970 O.3   1 <1>  -0.5600 
 12 N       -4.9520    -0.1180    -0.8760 N.2   1 <1>  -0.3380 
 13 N       -3.7700    -1.9580    -0.7160 N.pl3 1 <1>   0.2940 
 14 O       -2.6660    -3.9410    -0.5890 O.2   1 <1>  -0.5700 
 15 C        1.9240    -4.0310     0.0370 C.3   1 <1>   0.2800 
 16 N       -5.7620    -1.1610    -1.1120 N.2   1 <1>  -0.3380 
 17 C       -5.0500    -2.2290    -1.0130 C.2   1 <1>   0.0360 
 18 C        2.3860    -5.3950     0.5500 C.3   1 <1>  -0.2400 
 19 C        2.4670    -3.8210    -1.3850 C.3   1 <1>  -0.2400 
 20 H       -2.6390     1.1090    -0.2940 H     1 <1>   0.4000 
 21 H        2.5310    -1.1890     1.5700 H     1 <1>   0.0800 
 22 H        2.9000    -1.3810    -0.1340 H     1 <1>   0.0800 
 23 H       -0.0450    -4.4690    -0.7380 H     1 <1>   0.0800 
 24 H        0.0100    -4.3930     0.9940 H     1 <1>   0.0800 
 25 H       -5.4060    -3.2350    -1.1460 H     1 <1>   0.1500 
 26 H        2.0680    -5.5380     1.5670 H     1 <1>   0.0800 
 27 H        3.4590    -5.4630     0.5090 H     1 <1>   0.0800 
 28 H        1.9710    -6.1830    -0.0530 H     1 <1>   0.0800 
 29 H        2.1040    -2.9040    -1.8120 H     1 <1>   0.0800 
 30 H        2.1440    -4.6240    -2.0220 H     1 <1>   0.0800 
 31 H        3.5420    -3.8100    -1.3750 H     1 <1>   0.0800 
@<TRIPOS>BOND
  1   1   2  1   
  2   1   3  1   
  3   2   4  1   
  4   2   5  2   
  5   3   6  2   
  6   3   7  1   
  7   4   8  1   
  8   4  20  1   
  9   5   6  1   
 10   5   9  1   
 11   6  10  1   
 12   7  11  1   
 13   7  21  1   
 14   7  22  1   
 15   8  12  2   
 16   8  13  1   
 17   9  13  1   
 18   9  14  2   
 19  10  15  1   
 20  10  23  1   
 21  10  24  1   
 22  11  15  1   
 23  12  16  1   
 24  13  17  1   
 25  15  18  1   
 26  15  19  1   
 27  16  17  2   
 28  17  25  1   
 29  18  26  1   
 30  18  27  1   
 31  18  28  1   
 32  19  29  1   
 33  19  30  1   
 34  19  31  1   
@<TRIPOS>SUBSTRUCTURE
  1 ****   5 GROUP 4 **** **** 0

# MOE 2024.06 (io_trps.svl 2023.06)
