@<TRIPOS>MOLECULE
NONAME
44 45 1 0 0 
SMALL
USER_CHARGES


@<TRIPOS>ATOM
  1 S        0.1950     0.5570    -0.5330 S.o2  1 <1>   1.3330 
  2 O       -0.8840     1.5150    -0.6210 O.2   1 <1>  -0.6500 
  3 O        0.1150    -0.6790    -1.2790 O.2   1 <1>  -0.6500 
  4 N        0.3710     0.1570     1.1100 N.am  1 <1>  -0.8490 
  5 C        1.7420     1.3610    -0.9530 C.3   1 <1>  -0.0550 
  6 C        0.1490     1.2950     2.0100 C.3   1 <1>   0.1160 
  7 C       -0.4970    -0.9580     1.4990 C.3   1 <1>   0.1160 
  8 C        2.9690     0.4230    -0.9520 C.3   1 <1>  -0.0800 
  9 C        4.2560     1.0550    -1.4590 C.3   1 <1>   0.2200 
 10 C        3.3780    -0.1150     0.4250 C.3   1 <1>   0.1200 
 11 N        4.4200     2.4200    -0.9090 N.am  1 <1>  -0.7300 
 12 C        5.2890     0.1390    -0.8180 C.3   1 <1>   0.1200 
 13 O        4.7770    -0.1590     0.4450 O.3   1 <1>  -0.5600 
 14 C        4.1470     3.5850    -1.5630 C.2   1 <1>   0.5440 
 15 O        3.7630     3.5120    -2.7140 O.2   1 <1>  -0.5700 
 16 C        4.3110     4.8760    -0.9220 C.ar  1 <1>   0.0860 
 17 C        4.0760     5.1000     0.4370 C.ar  1 <1>   0.1900 
 18 C        4.7190     5.9840    -1.6670 C.ar  1 <1>  -0.1500 
 19 F        3.6640     4.1080     1.1830 F     1 <1>  -0.1900 
 20 C        4.2470     6.3340     1.0490 C.ar  1 <1>  -0.1440 
 21 C        4.8950     7.2250    -1.0830 C.ar  1 <1>  -0.1500 
 22 C        4.6630     7.4020     0.2710 C.ar  1 <1>  -0.1500 
 23 C        3.9850     6.5270     2.5370 C.3   1 <1>  -0.0970 
 24 H        1.6470     1.7780    -1.9370 H     1 <1>   0.0800 
 25 H        1.9080     2.1790    -0.2800 H     1 <1>   0.0800 
 26 H        0.3530     1.0060     3.0270 H     1 <1>   0.0800 
 27 H       -0.8710     1.6380     1.9410 H     1 <1>   0.0800 
 28 H        0.8050     2.1090     1.7530 H     1 <1>   0.0800 
 29 H       -0.3540    -1.1980     2.5390 H     1 <1>   0.0800 
 30 H       -0.2570    -1.8330     0.9170 H     1 <1>   0.0800 
 31 H       -1.5300    -0.7040     1.3310 H     1 <1>   0.0800 
 32 H        2.7490    -0.4240    -1.5790 H     1 <1>   0.0800 
 33 H        4.3250     1.0630    -2.5350 H     1 <1>   0.0800 
 34 H        2.9920    -1.1050     0.6000 H     1 <1>   0.0800 
 35 H        3.0660     0.5410     1.2190 H     1 <1>   0.0800 
 36 H        4.6740     2.4410     0.0840 H     1 <1>   0.3700 
 37 H        6.2550     0.6020    -0.7210 H     1 <1>   0.0800 
 38 H        5.3750    -0.7830    -1.3660 H     1 <1>   0.0800 
 39 H        4.8990     5.8620    -2.7220 H     1 <1>   0.1500 
 40 H        5.2140     8.0600    -1.6840 H     1 <1>   0.1500 
 41 H        4.8070     8.3750     0.7090 H     1 <1>   0.1500 
 42 H        4.1730     7.5430     2.8350 H     1 <1>   0.0800 
 43 H        4.6240     5.8790     3.1100 H     1 <1>   0.0800 
 44 H        2.9600     6.2900     2.7630 H     1 <1>   0.0800 
@<TRIPOS>BOND
  1   1   2  2   
  2   1   3  2   
  3   1   4  am  
  4   1   5  1   
  5   4   6  1   
  6   4   7  1   
  7   5   8  1   
  8   5  24  1   
  9   5  25  1   
 10   6  26  1   
 11   6  27  1   
 12   6  28  1   
 13   7  29  1   
 14   7  30  1   
 15   7  31  1   
 16   8   9  1   
 17   8  10  1   
 18   8  32  1   
 19   9  11  1   
 20   9  12  1   
 21   9  33  1   
 22  10  13  1   
 23  10  34  1   
 24  10  35  1   
 25  11  14  am  
 26  11  36  1   
 27  12  13  1   
 28  12  37  1   
 29  12  38  1   
 30  14  15  2   
 31  14  16  1   
 32  16  17  ar  
 33  16  18  ar  
 34  17  19  1   
 35  17  20  ar  
 36  18  21  ar  
 37  18  39  1   
 38  20  22  ar  
 39  20  23  1   
 40  21  22  ar  
 41  21  40  1   
 42  22  41  1   
 43  23  42  1   
 44  23  43  1   
 45  23  44  1   
@<TRIPOS>SUBSTRUCTURE
  1 ****  11 GROUP 4 **** **** 0

# MOE 2024.06 (io_trps.svl 2023.06)
