@<TRIPOS>MOLECULE
NONAME
54 57 1 0 0 
SMALL
USER_CHARGES


@<TRIPOS>ATOM
  1 O       -0.8400    -0.1480     0.3350 O.3   1 <1>  -0.3630 
  2 C       -2.0390    -0.5970     0.7780 C.ar  1 <1>   0.0830 
  3 C       -0.5730     1.2420     0.2240 C.3   1 <1>   0.2640 
  4 C       -2.1870    -1.9710     0.8710 C.ar  1 <1>  -0.1500 
  5 C       -3.0990     0.2330     1.1330 C.ar  1 <1>  -0.1500 
  6 C        0.8380     1.5170    -0.2870 C.ar  1 <1>   0.1660 
  7 C       -3.3800    -2.5270     1.3060 C.ar  1 <1>  -0.1440 
  8 C       -4.2870    -0.3190     1.5760 C.ar  1 <1>  -0.1500 
  9 N        1.0520     2.7560    -0.7120 N.ar  1 <1>  -0.6200 
 10 C        1.8150     0.5270    -0.2880 C.ar  1 <1>  -0.1500 
 11 C       -4.4290    -1.6920     1.6640 C.ar  1 <1>  -0.1500 
 12 C       -3.5420    -4.0320     1.3870 C.3   1 <1>   0.4860 
 13 C        2.2710     3.0140    -1.1570 C.ar  1 <1>   0.1600 
 14 C        3.0810     0.8110    -0.7550 C.ar  1 <1>  -0.1500 
 15 N       -3.6320    -4.5790     0.0040 N.4   1 <1>  -0.9590 
 16 C        3.3050     2.0950    -1.2010 C.ar  1 <1>  -0.1500 
 17 C       -4.8880    -4.1090    -0.6690 C.3   1 <1>   0.3430 
 18 C       -3.6900    -6.0740     0.0290 C.3   1 <1>   0.3430 
 19 C       -5.9020    -5.2400    -0.4800 C.3   1 <1>   0.2000 
 20 C       -5.0210    -6.4820    -0.6150 C.3   1 <1>  -0.0800 
 21 O       -6.4120    -5.1580     0.8140 O.3   1 <1>  -0.6800 
 22 C       -5.5900    -7.7930    -0.0390 C.3   1 <1>  -0.0170 
 23 C       -4.5460    -8.8940    -0.1220 C.ar  1 <1>  -0.1430 
 24 C       -3.8910    -9.3660     0.9990 C.ar  1 <1>  -0.1500 
 25 C       -4.1930    -9.4740    -1.3250 C.ar  1 <1>  -0.1500 
 26 C       -2.9280   -10.3520     0.8640 C.ar  1 <1>   0.1600 
 27 C       -3.2150   -10.4540    -1.3510 C.ar  1 <1>   0.1600 
 28 N       -2.5670   -10.8960    -0.2860 N.ar  1 <1>  -0.6200 
 29 H       -1.2840     1.6650    -0.4620 H     1 <1>   0.0800 
 30 H       -0.6930     1.6900     1.1940 H     1 <1>   0.0800 
 31 H       -1.3480    -2.5860     0.6000 H     1 <1>   0.1500 
 32 H       -3.0220     1.3030     1.0740 H     1 <1>   0.1500 
 33 H       -5.1040     0.3260     1.8560 H     1 <1>   0.1500 
 34 H        1.5950    -0.4600     0.0730 H     1 <1>   0.1500 
 35 H       -5.3640    -2.0990     2.0160 H     1 <1>   0.1500 
 36 H       -4.4340    -4.2770     1.9420 H     1 <1>   0.0800 
 37 H       -2.6930    -4.4530     1.8990 H     1 <1>   0.0800 
 38 H        2.4580     4.0150    -1.5080 H     1 <1>   0.1500 
 39 H        3.8560     0.0650    -0.7690 H     1 <1>   0.1500 
 40 H       -2.8150    -4.2350    -0.5160 H     1 <1>   0.4500 
 41 H        4.2690     2.3830    -1.5780 H     1 <1>   0.1500 
 42 H       -5.2550    -3.1810    -0.2630 H     1 <1>   0.0800 
 43 H       -4.7010    -3.9790    -1.7220 H     1 <1>   0.0800 
 44 H       -2.8620    -6.5110    -0.5070 H     1 <1>   0.0800 
 45 H       -3.6660    -6.4260     1.0470 H     1 <1>   0.0800 
 46 H       -6.7140    -5.1930    -1.1860 H     1 <1>   0.0800 
 47 H       -4.8290    -6.6370    -1.6620 H     1 <1>   0.0800 
 48 H       -7.2480    -5.6660     0.8970 H     1 <1>   0.4000 
 49 H       -6.4660    -8.0880    -0.5920 H     1 <1>   0.0800 
 50 H       -5.8820    -7.6650     0.9890 H     1 <1>   0.0800 
 51 H       -4.1180    -8.9880     1.9790 H     1 <1>   0.1500 
 52 H       -4.6670    -9.1830    -2.2440 H     1 <1>   0.1500 
 53 H       -2.4270   -10.7130     1.7470 H     1 <1>   0.1500 
 54 H       -2.9500   -10.8990    -2.2960 H     1 <1>   0.1500 
@<TRIPOS>BOND
  1   1   2  1   
  2   1   3  1   
  3   2   4  ar  
  4   2   5  ar  
  5   3   6  1   
  6   3  29  1   
  7   3  30  1   
  8   4   7  ar  
  9   4  31  1   
 10   5   8  ar  
 11   5  32  1   
 12   6   9  ar  
 13   6  10  ar  
 14   7  11  ar  
 15   7  12  1   
 16   8  11  ar  
 17   8  33  1   
 18   9  13  ar  
 19  10  14  ar  
 20  10  34  1   
 21  11  35  1   
 22  12  15  1   
 23  12  36  1   
 24  12  37  1   
 25  13  16  ar  
 26  13  38  1   
 27  14  16  ar  
 28  14  39  1   
 29  15  17  1   
 30  15  18  1   
 31  15  40  1   
 32  16  41  1   
 33  17  19  1   
 34  17  42  1   
 35  17  43  1   
 36  18  20  1   
 37  18  44  1   
 38  18  45  1   
 39  19  20  1   
 40  19  21  1   
 41  19  46  1   
 42  20  22  1   
 43  20  47  1   
 44  21  48  1   
 45  22  23  1   
 46  22  49  1   
 47  22  50  1   
 48  23  24  ar  
 49  23  25  ar  
 50  24  26  ar  
 51  24  51  1   
 52  25  27  ar  
 53  25  52  1   
 54  26  28  ar  
 55  26  53  1   
 56  27  28  ar  
 57  27  54  1   
@<TRIPOS>SUBSTRUCTURE
  1 ****  15 GROUP 4 **** **** 0

# MOE 2024.06 (io_trps.svl 2023.06)
