@<TRIPOS>MOLECULE
NONAME
62 64 1 0 0 
SMALL
USER_CHARGES


@<TRIPOS>ATOM
  1 O       -3.4850     0.3800    -0.8620 O.3   1 <1>  -0.3630 
  2 C       -3.5060    -0.4520     0.2160 C.ar  1 <1>   0.0820 
  3 C       -2.6560     1.5240    -0.7790 C.3   1 <1>   0.0400 
  4 C       -3.0870    -1.7820     0.0810 C.ar  1 <1>   0.0820 
  5 C       -4.0250    -0.0120     1.4380 C.ar  1 <1>   0.0820 
  6 O       -2.5710    -2.2870    -1.0770 O.3   1 <1>  -0.3630 
  7 C       -3.2200    -2.6650     1.1510 C.ar  1 <1>  -0.1430 
  8 O       -4.5750     1.2280     1.5350 O.3   1 <1>  -0.3630 
  9 C       -4.0490    -0.8720     2.5260 C.ar  1 <1>  -0.1500 
 10 C       -1.5440    -1.5810    -1.7490 C.3   1 <1>   0.0400 
 11 C       -3.6530    -2.1880     2.3800 C.ar  1 <1>  -0.1500 
 12 C       -2.9050    -4.1500     1.0120 C.3   1 <1>   0.4860 
 13 C       -4.2710     2.0180     2.6690 C.3   1 <1>   0.0400 
 14 N       -3.5580    -4.7300    -0.2050 N.4   1 <1>  -0.9590 
 15 C       -5.0490    -4.8840    -0.2840 C.3   1 <1>   0.4230 
 16 C       -2.8840    -6.0030    -0.5940 C.3   1 <1>   0.2630 
 17 C       -5.5910    -3.9830    -1.3920 C.3   1 <1>  -0.1600 
 18 C       -5.8860    -4.5790     0.9670 C.3   1 <1>  -0.1600 
 19 C       -7.0170    -3.5790    -0.9910 C.3   1 <1>  -0.0800 
 20 C       -7.0760    -3.7020     0.5350 C.3   1 <1>  -0.0800 
 21 C       -7.3170    -2.1070    -1.3030 C.3   1 <1>  -0.1600 
 22 C       -7.0610    -2.2580     1.0770 C.3   1 <1>  -0.1600 
 23 C       -6.7020    -1.3740    -0.1170 C.3   1 <1>   0.4230 
 24 N       -7.0930     0.0600     0.0240 N.4   1 <1>  -0.9590 
 25 C       -8.5340     0.3140     0.3360 C.3   1 <1>   0.2630 
 26 C       -6.6840     0.8460    -1.1800 C.3   1 <1>   0.2630 
 27 H       -2.5100     1.9080    -1.7730 H     1 <1>   0.0800 
 28 H       -1.7080     1.2470    -0.3520 H     1 <1>   0.0800 
 29 H       -3.1340     2.2710    -0.1730 H     1 <1>   0.0800 
 30 H       -4.4040    -0.5380     3.4850 H     1 <1>   0.1500 
 31 H       -0.9780    -2.2810    -2.3370 H     1 <1>   0.0800 
 32 H       -0.9030    -1.1070    -1.0260 H     1 <1>   0.0800 
 33 H       -1.9880    -0.8480    -2.4000 H     1 <1>   0.0800 
 34 H       -3.7060    -2.8400     3.2370 H     1 <1>   0.1500 
 35 H       -3.2270    -4.6830     1.8910 H     1 <1>   0.0800 
 36 H       -1.8360    -4.2570     0.9300 H     1 <1>   0.0800 
 37 H       -4.5500     3.0350     2.4580 H     1 <1>   0.0800 
 38 H       -3.2130     1.9660     2.8620 H     1 <1>   0.0800 
 39 H       -4.8280     1.6590     3.5160 H     1 <1>   0.0800 
 40 H       -3.3200    -4.0240    -0.9260 H     1 <1>   0.4500 
 41 H       -5.2800    -5.8990    -0.5670 H     1 <1>   0.0800 
 42 H       -3.0770    -6.7690     0.1400 H     1 <1>   0.0800 
 43 H       -1.8190    -5.8570    -0.6700 H     1 <1>   0.0800 
 44 H       -3.2490    -6.3420    -1.5510 H     1 <1>   0.0800 
 45 H       -4.9800    -3.1060    -1.4930 H     1 <1>   0.0800 
 46 H       -5.6000    -4.5030    -2.3340 H     1 <1>   0.0800 
 47 H       -6.2740    -5.5150     1.3320 H     1 <1>   0.0800 
 48 H       -5.3520    -4.1310     1.7750 H     1 <1>   0.0800 
 49 H       -7.7330    -4.2370    -1.4570 H     1 <1>   0.0800 
 50 H       -8.0000    -4.1760     0.8290 H     1 <1>   0.0800 
 51 H       -8.3820    -1.9650    -1.3270 H     1 <1>   0.0800 
 52 H       -6.8880    -1.8050    -2.2430 H     1 <1>   0.0800 
 53 H       -6.3740    -2.1270     1.8890 H     1 <1>   0.0800 
 54 H       -8.0500    -2.0390     1.4330 H     1 <1>   0.0800 
 55 H       -5.6350    -1.4220    -0.2430 H     1 <1>   0.0800 
 56 H       -6.5150     0.4300     0.8020 H     1 <1>   0.4500 
 57 H       -9.1630    -0.0910    -0.4390 H     1 <1>   0.0800 
 58 H       -8.7170     1.3740     0.4080 H     1 <1>   0.0800 
 59 H       -8.8040    -0.1380     1.2760 H     1 <1>   0.0800 
 60 H       -7.2700     0.5550    -2.0360 H     1 <1>   0.0800 
 61 H       -5.6450     0.6770    -1.4030 H     1 <1>   0.0800 
 62 H       -6.8270     1.9000    -1.0050 H     1 <1>   0.0800 
@<TRIPOS>BOND
  1   1   2  1   
  2   1   3  1   
  3   2   4  ar  
  4   2   5  ar  
  5   3  27  1   
  6   3  28  1   
  7   3  29  1   
  8   4   6  1   
  9   4   7  ar  
 10   5   8  1   
 11   5   9  ar  
 12   6  10  1   
 13   7  11  ar  
 14   7  12  1   
 15   8  13  1   
 16   9  11  ar  
 17   9  30  1   
 18  10  31  1   
 19  10  32  1   
 20  10  33  1   
 21  11  34  1   
 22  12  14  1   
 23  12  35  1   
 24  12  36  1   
 25  13  37  1   
 26  13  38  1   
 27  13  39  1   
 28  14  15  1   
 29  14  16  1   
 30  14  40  1   
 31  15  17  1   
 32  15  18  1   
 33  15  41  1   
 34  16  42  1   
 35  16  43  1   
 36  16  44  1   
 37  17  19  1   
 38  17  45  1   
 39  17  46  1   
 40  18  20  1   
 41  18  47  1   
 42  18  48  1   
 43  19  20  1   
 44  19  21  1   
 45  19  49  1   
 46  20  22  1   
 47  20  50  1   
 48  21  23  1   
 49  21  51  1   
 50  21  52  1   
 51  22  23  1   
 52  22  53  1   
 53  22  54  1   
 54  23  24  1   
 55  23  55  1   
 56  24  25  1   
 57  24  26  1   
 58  24  56  1   
 59  25  57  1   
 60  25  58  1   
 61  25  59  1   
 62  26  60  1   
 63  26  61  1   
 64  26  62  1   
@<TRIPOS>SUBSTRUCTURE
  1 ****   4 GROUP 4 **** **** 0

# MOE 2024.06 (io_trps.svl 2023.06)
