@<TRIPOS>MOLECULE
NONAME
44 45 1 0 0 
SMALL
USER_CHARGES


@<TRIPOS>ATOM
  1 O       -1.1360    -0.4520    -2.6100 O.2   1 <1>  -0.5700 
  2 C       -1.6640    -1.1620    -1.7740 C.2   1 <1>   0.7800 
  3 O       -0.9330    -2.0570    -1.1100 O.3   1 <1>  -0.4300 
  4 N       -3.0040    -1.0970    -1.4900 N.am  1 <1>  -0.6600 
  5 C        0.4700    -2.1180    -1.2470 C.3   1 <1>   0.2640 
  6 C       -3.6540    -1.9190    -0.4340 C.3   1 <1>   0.1400 
  7 C       -3.8950    -0.1280    -2.1800 C.3   1 <1>   0.1400 
  8 C        1.1110    -1.1890    -0.2270 C.ar  1 <1>  -0.1440 
  9 C       -4.3070    -1.0010     0.6020 C.3   1 <1>  -0.1600 
 10 C       -4.5480     0.7960    -1.1490 C.3   1 <1>  -0.1600 
 11 C        1.3770     0.1330    -0.5540 C.ar  1 <1>  -0.1500 
 12 C        1.4350    -1.6540     1.0390 C.ar  1 <1>  -0.1500 
 13 C       -5.2800    -0.0020    -0.0550 C.3   1 <1>  -0.0190 
 14 C        1.9650     0.9780     0.3710 C.ar  1 <1>  -0.1500 
 15 C        2.0230    -0.8100     1.9650 C.ar  1 <1>  -0.1500 
 16 C       -5.9390     0.9370     0.9540 C.2   1 <1>   0.5690 
 17 C        2.2900     0.5070     1.6310 C.ar  1 <1>  -0.1500 
 18 O       -5.3810     1.2260     1.9850 O.2   1 <1>  -0.5700 
 19 N       -7.1560     1.4410     0.6560 N.am  1 <1>  -0.7300 
 20 C       -7.8480     2.4150     1.4670 C.3   1 <1>   0.4200 
 21 O       -8.8630     2.8640     0.6470 O.3   1 <1>  -0.5600 
 22 C       -9.6560     3.8440     1.2330 C.3   1 <1>   0.0400 
 23 H        0.7540    -1.8600    -2.2530 H     1 <1>   0.0800 
 24 H        0.7680    -3.1340    -1.0610 H     1 <1>   0.0800 
 25 H       -2.9400    -2.5570     0.0560 H     1 <1>   0.0800 
 26 H       -4.4010    -2.5460    -0.8920 H     1 <1>   0.0800 
 27 H       -4.6510    -0.6730    -2.7190 H     1 <1>   0.0800 
 28 H       -3.3410     0.4610    -2.8910 H     1 <1>   0.0800 
 29 H       -3.5310    -0.4670     1.1250 H     1 <1>   0.0800 
 30 H       -4.8340    -1.5970     1.3260 H     1 <1>   0.0800 
 31 H       -5.2390     1.4500    -1.6500 H     1 <1>   0.0800 
 32 H       -3.7850     1.4100    -0.7000 H     1 <1>   0.0800 
 33 H        1.1200     0.5090    -1.5300 H     1 <1>   0.1500 
 34 H        1.2260    -2.6740     1.3090 H     1 <1>   0.1500 
 35 H       -6.0640    -0.5710    -0.5210 H     1 <1>   0.0800 
 36 H        2.1670     2.0010     0.1090 H     1 <1>   0.1500 
 37 H        2.2720    -1.1760     2.9450 H     1 <1>   0.1500 
 38 H        2.7460     1.1640     2.3500 H     1 <1>   0.1500 
 39 H       -7.6310     1.2680    -0.2280 H     1 <1>   0.3700 
 40 H       -7.1960     3.2340     1.7270 H     1 <1>   0.0800 
 41 H       -8.2660     1.9560     2.3480 H     1 <1>   0.0800 
 42 H      -10.4140     4.1290     0.5250 H     1 <1>   0.0800 
 43 H       -9.0470     4.6990     1.4740 H     1 <1>   0.0800 
 44 H      -10.1200     3.4460     2.1200 H     1 <1>   0.0800 
@<TRIPOS>BOND
  1   1   2  2   
  2   2   3  1   
  3   2   4  am  
  4   3   5  1   
  5   4   6  1   
  6   4   7  1   
  7   5   8  1   
  8   5  23  1   
  9   5  24  1   
 10   6   9  1   
 11   6  25  1   
 12   6  26  1   
 13   7  10  1   
 14   7  27  1   
 15   7  28  1   
 16   8  11  ar  
 17   8  12  ar  
 18   9  13  1   
 19   9  29  1   
 20   9  30  1   
 21  10  13  1   
 22  10  31  1   
 23  10  32  1   
 24  11  14  ar  
 25  11  33  1   
 26  12  15  ar  
 27  12  34  1   
 28  13  16  1   
 29  13  35  1   
 30  14  17  ar  
 31  14  36  1   
 32  15  17  ar  
 33  15  37  1   
 34  16  18  2   
 35  16  19  am  
 36  17  38  1   
 37  19  20  1   
 38  19  39  1   
 39  20  21  1   
 40  20  40  1   
 41  20  41  1   
 42  21  22  1   
 43  22  42  1   
 44  22  43  1   
 45  22  44  1   
@<TRIPOS>SUBSTRUCTURE
  1 ****   4 GROUP 4 **** **** 0

# MOE 2024.06 (io_trps.svl 2023.06)
