@<TRIPOS>MOLECULE
NONAME
46 48 1 0 0 
SMALL
USER_CHARGES


@<TRIPOS>ATOM
  1 O       -1.6160     0.5880     2.5760 O.2   1 <1>  -0.5700 
  2 C       -1.7940     1.0990     1.4860 C.2   1 <1>   0.5440 
  3 N       -2.2930     0.3090     0.4760 N.am  1 <1>  -0.6600 
  4 C       -1.5410     2.5140     1.3050 C.ar  1 <1>   0.0860 
  5 C       -2.6910     0.7680    -0.8760 C.3   1 <1>   0.1400 
  6 C       -2.4910    -1.1520     0.6120 C.3   1 <1>   0.1400 
  7 C       -0.5950     3.0050     0.3950 C.ar  1 <1>   0.0830 
  8 C       -2.2560     3.4370     2.0680 C.ar  1 <1>  -0.1500 
  9 C       -3.5650    -0.3660    -1.4090 C.3   1 <1>   0.2000 
 10 C       -2.9500    -1.6200    -0.7760 C.3   1 <1>  -0.0800 
 11 O        0.1190     2.1050    -0.3260 O.3   1 <1>  -0.3630 
 12 C       -0.4040     4.3780     0.2550 C.ar  1 <1>  -0.1500 
 13 C       -2.0630     4.7970     1.9280 C.ar  1 <1>  -0.1500 
 14 O       -4.8500    -0.1830    -0.9210 O.3   1 <1>  -0.6800 
 15 C       -3.8740    -2.8520    -0.7460 C.3   1 <1>   0.0200 
 16 C        1.2280     2.4650    -1.1160 C.3   1 <1>   0.1200 
 17 C       -1.1360     5.2690     1.0170 C.ar  1 <1>  -0.1500 
 18 C       -3.1760    -4.1090    -0.2540 C.2   1 <1>  -0.0400 
 19 C        1.8270     1.1850    -1.6890 C.3   1 <1>  -0.2400 
 20 O       -3.8850    -5.1940    -0.0860 O.3   1 <1>  -0.0190 
 21 C       -1.9060    -4.3980     0.0740 C.2   1 <1>  -0.1500 
 22 N       -3.1600    -6.1900     0.3370 N.2   1 <1>  -0.4100 
 23 C       -1.9630    -5.7380     0.4440 C.2   1 <1>   0.1080 
 24 C       -0.7820    -6.5600     0.9100 C.3   1 <1>  -0.0590 
 25 H       -3.2180     1.7060    -0.8470 H     1 <1>   0.0800 
 26 H       -1.8110     0.8660    -1.4860 H     1 <1>   0.0800 
 27 H       -1.5740    -1.6270     0.9160 H     1 <1>   0.0800 
 28 H       -3.2480    -1.3350     1.3560 H     1 <1>   0.0800 
 29 H       -2.9710     3.0690     2.7840 H     1 <1>   0.1500 
 30 H       -3.6060    -0.4010    -2.4840 H     1 <1>   0.0800 
 31 H       -2.0700    -1.8670    -1.3440 H     1 <1>   0.0800 
 32 H        0.3100     4.7750    -0.4410 H     1 <1>   0.1500 
 33 H       -2.6290     5.4890     2.5280 H     1 <1>   0.1500 
 34 H       -4.7910     0.0190     0.0360 H     1 <1>   0.4000 
 35 H       -4.2490    -3.0380    -1.7370 H     1 <1>   0.0800 
 36 H       -4.7200    -2.6620    -0.1090 H     1 <1>   0.0800 
 37 H        0.8910     3.1140    -1.9060 H     1 <1>   0.0800 
 38 H        1.9410     2.9740    -0.4900 H     1 <1>   0.0800 
 39 H       -0.9850     6.3300     0.9060 H     1 <1>   0.1500 
 40 H        1.1030     0.6780    -2.3000 H     1 <1>   0.0800 
 41 H        2.1420     0.5370    -0.8900 H     1 <1>   0.0800 
 42 H        2.6830     1.4230    -2.2950 H     1 <1>   0.0800 
 43 H       -1.0260    -3.7840     0.0690 H     1 <1>   0.1500 
 44 H       -0.3440    -6.1080     1.7810 H     1 <1>   0.0800 
 45 H       -0.0470    -6.6170     0.1300 H     1 <1>   0.0800 
 46 H       -1.1040    -7.5550     1.1590 H     1 <1>   0.0800 
@<TRIPOS>BOND
  1   1   2  2   
  2   2   3  am  
  3   2   4  1   
  4   3   5  1   
  5   3   6  1   
  6   4   7  ar  
  7   4   8  ar  
  8   5   9  1   
  9   5  25  1   
 10   5  26  1   
 11   6  10  1   
 12   6  27  1   
 13   6  28  1   
 14   7  11  1   
 15   7  12  ar  
 16   8  13  ar  
 17   8  29  1   
 18   9  10  1   
 19   9  14  1   
 20   9  30  1   
 21  10  15  1   
 22  10  31  1   
 23  11  16  1   
 24  12  17  ar  
 25  12  32  1   
 26  13  17  ar  
 27  13  33  1   
 28  14  34  1   
 29  15  18  1   
 30  15  35  1   
 31  15  36  1   
 32  16  19  1   
 33  16  37  1   
 34  16  38  1   
 35  17  39  1   
 36  18  20  1   
 37  18  21  2   
 38  19  40  1   
 39  19  41  1   
 40  19  42  1   
 41  20  22  1   
 42  21  23  1   
 43  21  43  1   
 44  22  23  2   
 45  23  24  1   
 46  24  44  1   
 47  24  45  1   
 48  24  46  1   
@<TRIPOS>SUBSTRUCTURE
  1 ****   3 GROUP 4 **** **** 0

# MOE 2024.06 (io_trps.svl 2023.06)
