@<TRIPOS>MOLECULE
NONAME
45 46 1 0 0 
SMALL
USER_CHARGES


@<TRIPOS>ATOM
  1 O       -2.0750     0.9120     2.4260 O.2   1 <1>  -0.5700 
  2 C       -1.8540     0.9140     1.2350 C.2   1 <1>   0.5690 
  3 N       -1.6050    -0.2610     0.5650 N.am  1 <1>  -0.6600 
  4 C       -1.8760     2.2610     0.4860 C.3   1 <1>   0.1250 
  5 C       -2.0090    -1.5400     1.2010 C.3   1 <1>   0.3200 
  6 C       -0.7360    -0.3580    -0.6520 C.3   1 <1>   0.1400 
  7 C       -0.4750     2.8150     0.2220 C.ar  1 <1>  -0.1440 
  8 C       -2.7170     3.3390     1.1910 C.3   1 <1>  -0.2400 
  9 C       -3.5050    -1.7160     1.0460 C.2   1 <1>  -0.3320 
 10 C       -1.5300    -0.4990    -1.9620 C.3   1 <1>   0.1200 
 11 C        0.4980     2.7870     1.2100 C.ar  1 <1>  -0.1500 
 12 C       -0.1590     3.3490    -1.0190 C.ar  1 <1>  -0.1500 
 13 N       -4.1090    -1.8890    -0.1410 N.pl3 1 <1>   0.0330 
 14 C       -4.4870    -1.7310     1.9730 C.2   1 <1>   0.0770 
 15 O       -2.0510    -1.7820    -2.1040 O.3   1 <1>  -0.6800 
 16 C        1.7690     3.2720     0.9570 C.ar  1 <1>  -0.1500 
 17 C        1.1130     3.8340    -1.2710 C.ar  1 <1>  -0.1500 
 18 C       -5.4240    -2.0090     0.1380 C.2   1 <1>   0.0060 
 19 N       -5.6920    -1.9230     1.3990 N.2   1 <1>  -0.5650 
 20 C        2.0840     3.7980    -0.2850 C.ar  1 <1>  -0.1430 
 21 C       -6.4690    -2.2200    -0.9350 C.3   1 <1>  -0.0600 
 22 C        3.4790     4.3290    -0.5580 C.3   1 <1>  -0.0970 
 23 H       -2.3500     2.0710    -0.4580 H     1 <1>   0.0800 
 24 H       -1.7520    -1.5240     2.2470 H     1 <1>   0.0800 
 25 H       -1.4960    -2.3680     0.7450 H     1 <1>   0.0800 
 26 H       -0.0560    -1.1850    -0.5490 H     1 <1>   0.0800 
 27 H       -0.1250     0.5220    -0.7220 H     1 <1>   0.0800 
 28 H       -2.2830     3.5830     2.1450 H     1 <1>   0.0800 
 29 H       -3.7180     2.9780     1.3530 H     1 <1>   0.0800 
 30 H       -2.7590     4.2310     0.5930 H     1 <1>   0.0800 
 31 H       -0.8890    -0.3100    -2.8060 H     1 <1>   0.0800 
 32 H       -2.3450     0.2040    -1.9830 H     1 <1>   0.0800 
 33 H        0.2710     2.3870     2.1850 H     1 <1>   0.1500 
 34 H       -0.9000     3.3940    -1.7970 H     1 <1>   0.1500 
 35 H       -3.6430    -1.9040    -1.0600 H     1 <1>   0.2700 
 36 H       -4.3890    -1.6080     3.0380 H     1 <1>   0.1500 
 37 H       -1.3360    -2.4250    -2.2940 H     1 <1>   0.4000 
 38 H        2.5120     3.2400     1.7350 H     1 <1>   0.1500 
 39 H        1.3420     4.2440    -2.2380 H     1 <1>   0.1500 
 40 H       -6.2720    -3.1330    -1.4650 H     1 <1>   0.0800 
 41 H       -6.4600    -1.3960    -1.6240 H     1 <1>   0.0800 
 42 H       -7.4430    -2.2850    -0.4830 H     1 <1>   0.0800 
 43 H        3.8900     4.7740     0.3310 H     1 <1>   0.0800 
 44 H        3.4550     5.0760    -1.3300 H     1 <1>   0.0800 
 45 H        4.1200     3.5250    -0.8720 H     1 <1>   0.0800 
@<TRIPOS>BOND
  1   1   2  2   
  2   2   3  am  
  3   2   4  1   
  4   3   5  1   
  5   3   6  1   
  6   4   7  1   
  7   4   8  1   
  8   4  23  1   
  9   5   9  1   
 10   5  24  1   
 11   5  25  1   
 12   6  10  1   
 13   6  26  1   
 14   6  27  1   
 15   7  11  ar  
 16   7  12  ar  
 17   8  28  1   
 18   8  29  1   
 19   8  30  1   
 20   9  13  1   
 21   9  14  2   
 22  10  15  1   
 23  10  31  1   
 24  10  32  1   
 25  11  16  ar  
 26  11  33  1   
 27  12  17  ar  
 28  12  34  1   
 29  13  18  1   
 30  13  35  1   
 31  14  19  1   
 32  14  36  1   
 33  15  37  1   
 34  16  20  ar  
 35  16  38  1   
 36  17  20  ar  
 37  17  39  1   
 38  18  19  2   
 39  18  21  1   
 40  20  22  1   
 41  21  40  1   
 42  21  41  1   
 43  21  42  1   
 44  22  43  1   
 45  22  44  1   
 46  22  45  1   
@<TRIPOS>SUBSTRUCTURE
  1 ****   2 GROUP 4 **** **** 0

# MOE 2024.06 (io_trps.svl 2023.06)
