@<TRIPOS>MOLECULE
NONAME
48 50 1 0 0 
SMALL
USER_CHARGES


@<TRIPOS>ATOM
  1 F        1.3510    -1.1520    -0.8940 F     1 <1>  -0.3400 
  2 C        1.0910    -2.4390    -1.0720 C.3   1 <1>   0.8800 
  3 F        1.0020    -2.6140    -2.3840 F     1 <1>  -0.3400 
  4 O       -0.1630    -2.7120    -0.4940 O.3   1 <1>  -0.3630 
  5 C       -0.5650    -3.9810    -0.2590 C.ar  1 <1>   0.0830 
  6 C        0.0710    -5.1100    -0.7680 C.ar  1 <1>  -0.1500 
  7 C       -1.6800    -4.1420     0.5470 C.ar  1 <1>  -0.1500 
  8 C       -0.4100    -6.3700    -0.4620 C.ar  1 <1>  -0.1500 
  9 C       -2.1530    -5.4060     0.8460 C.ar  1 <1>  -0.1500 
 10 C       -1.5340    -6.5520     0.3440 C.ar  1 <1>   0.0860 
 11 C       -2.0320    -7.8830     0.6410 C.2   1 <1>   0.5440 
 12 O       -1.2580    -8.8180     0.7570 O.2   1 <1>  -0.5700 
 13 N       -3.3810    -8.1410     0.7440 N.am  1 <1>  -0.6600 
 14 C       -3.8240    -9.4040     1.4180 C.3   1 <1>   0.1400 
 15 C       -4.2900    -7.6260    -0.3370 C.3   1 <1>   0.1400 
 16 C       -4.2080   -10.3620     0.2820 C.3   1 <1>   0.4230 
 17 C       -5.6360    -8.3730    -0.4120 C.3   1 <1>  -0.1600 
 18 N       -4.1680   -11.8330     0.5530 N.4   1 <1>  -0.9590 
 19 C       -5.5760    -9.9300    -0.2730 C.3   1 <1>  -0.1060 
 20 C       -4.3570   -12.6040    -0.7070 C.3   1 <1>   0.3430 
 21 C       -2.9780   -12.2820     1.3230 C.3   1 <1>   0.2630 
 22 C       -6.7010   -10.3710     0.6830 C.2   1 <1>   0.9060 
 23 C       -5.7390   -10.6380    -1.6370 C.3   1 <1>  -0.1600 
 24 C       -5.6220   -12.1660    -1.4610 C.3   1 <1>  -0.1600 
 25 O       -7.8560   -10.0410     0.4240 O.co2 1 <1>  -0.9000 
 26 O       -6.4300   -11.0830     1.6630 O.co2 1 <1>  -0.9000 
 27 H        1.8870    -3.0350    -0.6630 H     1 <1>   0.0800 
 28 H        0.9320    -5.0360    -1.4070 H     1 <1>   0.1500 
 29 H       -2.1730    -3.2700     0.9410 H     1 <1>   0.1500 
 30 H        0.0900    -7.2390    -0.8540 H     1 <1>   0.1500 
 31 H       -3.0150    -5.5110     1.4830 H     1 <1>   0.1500 
 32 H       -3.0260    -9.7940     2.0200 H     1 <1>   0.0800 
 33 H       -4.6640    -9.2020     2.0610 H     1 <1>   0.0800 
 34 H       -4.4810    -6.5780    -0.1750 H     1 <1>   0.0800 
 35 H       -3.7860    -7.7240    -1.2850 H     1 <1>   0.0800 
 36 H       -3.4780   -10.1800    -0.4880 H     1 <1>   0.0800 
 37 H       -6.2410    -7.9780     0.3880 H     1 <1>   0.0800 
 38 H       -6.1500    -8.1020    -1.3180 H     1 <1>   0.0800 
 39 H       -5.0350   -11.9510     1.1440 H     1 <1>   0.4500 
 40 H       -3.5010   -12.4520    -1.3430 H     1 <1>   0.0800 
 41 H       -4.4270   -13.6550    -0.4810 H     1 <1>   0.0800 
 42 H       -2.0730   -12.0110     0.8030 H     1 <1>   0.0800 
 43 H       -3.0040   -13.3500     1.4560 H     1 <1>   0.0800 
 44 H       -2.9710   -11.8190     2.2960 H     1 <1>   0.0800 
 45 H       -6.7070   -10.4030    -2.0510 H     1 <1>   0.0800 
 46 H       -4.9890   -10.2900    -2.3250 H     1 <1>   0.0800 
 47 H       -5.6340   -12.6370    -2.4280 H     1 <1>   0.0800 
 48 H       -6.4830   -12.5320    -0.9270 H     1 <1>   0.0800 
@<TRIPOS>BOND
  1   1   2  1   
  2   2   3  1   
  3   2   4  1   
  4   2  27  1   
  5   4   5  1   
  6   5   6  ar  
  7   5   7  ar  
  8   6   8  ar  
  9   6  28  1   
 10   7   9  ar  
 11   7  29  1   
 12   8  10  ar  
 13   8  30  1   
 14   9  10  ar  
 15   9  31  1   
 16  10  11  1   
 17  11  12  2   
 18  11  13  am  
 19  13  14  1   
 20  13  15  1   
 21  14  16  1   
 22  14  32  1   
 23  14  33  1   
 24  15  17  1   
 25  15  34  1   
 26  15  35  1   
 27  16  18  1   
 28  16  19  1   
 29  16  36  1   
 30  17  19  1   
 31  17  37  1   
 32  17  38  1   
 33  18  20  1   
 34  18  21  1   
 35  18  39  1   
 36  19  22  1   
 37  19  23  1   
 38  20  24  1   
 39  20  40  1   
 40  20  41  1   
 41  21  42  1   
 42  21  43  1   
 43  21  44  1   
 44  22  25  ar  
 45  22  26  ar  
 46  23  24  1   
 47  23  45  1   
 48  23  46  1   
 49  24  47  1   
 50  24  48  1   
@<TRIPOS>SUBSTRUCTURE
  1 ****  13 GROUP 4 **** **** 0

# MOE 2024.06 (io_trps.svl 2023.06)
