@<TRIPOS>MOLECULE
NONAME
57 60 1 0 0 
SMALL
USER_CHARGES


@<TRIPOS>ATOM
  1 O       -1.6460    -0.3690    -0.5000 O.2   1 <1>  -0.5700 
  2 C       -2.2870     0.5380     0.0260 C.2   1 <1>   0.6160 
  3 N       -1.9900     1.8610    -0.3080 N.am  1 <1>  -0.4690 
  4 C       -3.3470     0.2630     0.9470 C.2   1 <1>   0.0290 
  5 C       -2.7370     2.8940     0.2300 C.2   1 <1>  -0.0290 
  6 C       -0.8330     2.1120    -1.2220 C.3   1 <1>   0.1400 
  7 C       -4.0740     1.3070     1.4710 C.2   1 <1>  -0.1380 
  8 C       -3.5810    -1.1150     1.2780 C.2   1 <1>   0.6160 
  9 C       -3.7540     2.6250     1.0950 C.2   1 <1>  -0.1500 
 10 C       -2.4290     4.3390    -0.1410 C.3   1 <1>  -0.1020 
 11 C        0.4620     2.1910    -0.4130 C.3   1 <1>  -0.2400 
 12 C       -5.2230     1.1300     2.4570 C.3   1 <1>  -0.1020 
 13 O       -3.2950    -1.5300     2.3870 O.2   1 <1>  -0.5700 
 14 N       -4.1930    -1.9820     0.4010 N.am  1 <1>  -0.6600 
 15 C       -4.5390    -1.6760    -1.0100 C.3   1 <1>   0.1400 
 16 C       -4.3050    -3.4390     0.6550 C.3   1 <1>   0.1400 
 17 C       -5.3080    -2.9070    -1.4800 C.3   1 <1>   0.2000 
 18 C       -4.6520    -4.0590    -0.7060 C.3   1 <1>  -0.0800 
 19 O       -6.6290    -2.7660    -1.0770 O.3   1 <1>  -0.6800 
 20 C       -5.5080    -5.3400    -0.6200 C.3   1 <1>  -0.0160 
 21 C       -4.8450    -6.5780    -0.0020 C.ar  1 <1>  -0.1440 
 22 C       -5.6260    -7.7310     0.2630 C.ar  1 <1>   0.0000 
 23 C       -3.5150    -6.6500     0.3070 C.ar  1 <1>  -0.1500 
 24 C       -4.9840    -8.8530     0.8440 C.ar  1 <1>   0.3100 
 25 C       -7.0090    -7.8400    -0.0200 C.ar  1 <1>  -0.1500 
 26 C       -2.9780    -7.8120     0.8750 C.ar  1 <1>   0.1600 
 27 N       -3.6630    -8.8770     1.1440 N.ar  1 <1>  -0.6200 
 28 C       -5.7390   -10.0030     1.1240 C.ar  1 <1>  -0.1500 
 29 C       -7.7160    -8.9770     0.2640 C.ar  1 <1>  -0.1500 
 30 C       -7.0770   -10.0740     0.8440 C.ar  1 <1>  -0.1500 
 31 H       -0.7580     1.3180    -1.9450 H     1 <1>   0.0800 
 32 H       -0.9780     3.0210    -1.7750 H     1 <1>   0.0800 
 33 H       -4.3380     3.4240     1.5190 H     1 <1>   0.1500 
 34 H       -1.4110     4.5800     0.1060 H     1 <1>   0.0800 
 35 H       -3.0690     5.0150     0.3960 H     1 <1>   0.0800 
 36 H       -2.5880     4.4940    -1.1920 H     1 <1>   0.0800 
 37 H        0.6410     1.2550     0.0860 H     1 <1>   0.0800 
 38 H        0.4060     2.9770     0.3180 H     1 <1>   0.0800 
 39 H        1.2890     2.3880    -1.0700 H     1 <1>   0.0800 
 40 H       -6.1040     1.6250     2.0880 H     1 <1>   0.0800 
 41 H       -4.9560     1.5630     3.4050 H     1 <1>   0.0800 
 42 H       -5.4650     0.0960     2.6200 H     1 <1>   0.0800 
 43 H       -5.1240    -0.7770    -1.0970 H     1 <1>   0.0800 
 44 H       -3.6320    -1.5770    -1.5820 H     1 <1>   0.0800 
 45 H       -3.3810    -3.8240     1.0500 H     1 <1>   0.0800 
 46 H       -5.0920    -3.6100     1.3710 H     1 <1>   0.0800 
 47 H       -5.2860    -3.0390    -2.5480 H     1 <1>   0.0800 
 48 H       -3.7320    -4.2870    -1.2140 H     1 <1>   0.0800 
 49 H       -6.6360    -2.4860    -0.1390 H     1 <1>   0.4000 
 50 H       -5.8290    -5.5980    -1.6150 H     1 <1>   0.0800 
 51 H       -6.3890    -5.1130    -0.0460 H     1 <1>   0.0800 
 52 H       -2.8300    -5.8430     0.1320 H     1 <1>   0.1500 
 53 H       -7.5260    -7.0140    -0.4710 H     1 <1>   0.1500 
 54 H       -1.9260    -7.8180     1.1050 H     1 <1>   0.1500 
 55 H       -5.2240   -10.8350     1.5680 H     1 <1>   0.1500 
 56 H       -8.7680    -9.0420     0.0430 H     1 <1>   0.1500 
 57 H       -7.6430   -10.9630     1.0640 H     1 <1>   0.1500 
@<TRIPOS>BOND
  1   1   2  2   
  2   2   3  am  
  3   2   4  1   
  4   3   5  1   
  5   3   6  1   
  6   4   7  2   
  7   4   8  1   
  8   5   9  2   
  9   5  10  1   
 10   6  11  1   
 11   6  31  1   
 12   6  32  1   
 13   7   9  1   
 14   7  12  1   
 15   8  13  2   
 16   8  14  am  
 17   9  33  1   
 18  10  34  1   
 19  10  35  1   
 20  10  36  1   
 21  11  37  1   
 22  11  38  1   
 23  11  39  1   
 24  12  40  1   
 25  12  41  1   
 26  12  42  1   
 27  14  15  1   
 28  14  16  1   
 29  15  17  1   
 30  15  43  1   
 31  15  44  1   
 32  16  18  1   
 33  16  45  1   
 34  16  46  1   
 35  17  18  1   
 36  17  19  1   
 37  17  47  1   
 38  18  20  1   
 39  18  48  1   
 40  19  49  1   
 41  20  21  1   
 42  20  50  1   
 43  20  51  1   
 44  21  22  ar  
 45  21  23  ar  
 46  22  24  ar  
 47  22  25  ar  
 48  23  26  ar  
 49  23  52  1   
 50  24  27  ar  
 51  24  28  ar  
 52  25  29  ar  
 53  25  53  1   
 54  26  27  ar  
 55  26  54  1   
 56  28  30  ar  
 57  28  55  1   
 58  29  30  ar  
 59  29  56  1   
 60  30  57  1   
@<TRIPOS>SUBSTRUCTURE
  1 ****  16 GROUP 4 **** **** 0

# MOE 2024.06 (io_trps.svl 2023.06)
