@<TRIPOS>MOLECULE
NONAME
49 50 1 0 0 
SMALL
USER_CHARGES


@<TRIPOS>ATOM
  1 O       -2.4140    -1.3760    -0.7870 O.3   1 <1>  -0.5600 
  2 C       -2.5580    -2.1660     0.3580 C.3   1 <1>   0.1200 
  3 C       -1.1020    -1.2500    -1.2550 C.3   1 <1>   0.1200 
  4 C       -2.0330    -3.5890     0.0960 C.3   1 <1>   0.3430 
  5 C       -0.5190    -2.6360    -1.5940 C.3   1 <1>   0.3430 
  6 N       -0.6200    -3.5800    -0.4270 N.4   1 <1>  -0.9590 
  7 C       -0.1930    -4.9660    -0.8250 C.3   1 <1>   0.3430 
  8 C       -0.0800    -5.9510     0.3590 C.3   1 <1>   0.2090 
  9 N       -0.7090    -7.2640     0.0270 N.pl3 1 <1>  -0.8380 
 10 C       -2.0320    -7.3280    -0.4000 C.ar  1 <1>   0.4100 
 11 C       -0.1770    -8.4210     0.8080 C.3   1 <1>   0.2090 
 12 N       -2.8570    -6.4720     0.1980 N.ar  1 <1>  -0.6200 
 13 C       -2.4440    -8.2290    -1.3960 C.ar  1 <1>   0.0730 
 14 C       -0.5540    -8.2860     2.2820 C.3   1 <1>  -0.2400 
 15 C       -4.1390    -6.5380    -0.1290 C.ar  1 <1>   0.1670 
 16 C       -1.5060    -9.0730    -2.0680 C.1   1 <1>   0.4840 
 17 C       -3.7820    -8.2710    -1.7350 C.ar  1 <1>  -0.1500 
 18 C       -4.6380    -7.4120    -1.0810 C.ar  1 <1>  -0.1500 
 19 C       -5.0860    -5.5860     0.6060 C.3   1 <1>   0.0630 
 20 N       -0.7620    -9.7470    -2.6100 N.1   1 <1>  -0.5570 
 21 C       -6.1620    -6.3510     1.3880 C.3   1 <1>  -0.2400 
 22 C       -5.7330    -4.5790    -0.3560 C.3   1 <1>  -0.2400 
 23 H       -3.6060    -2.1980     0.6030 H     1 <1>   0.0800 
 24 H       -2.0310    -1.6990     1.1720 H     1 <1>   0.0800 
 25 H       -0.5130    -0.7490    -0.5070 H     1 <1>   0.0800 
 26 H       -1.1300    -0.6340    -2.1380 H     1 <1>   0.0800 
 27 H       -2.6810    -4.0630    -0.6230 H     1 <1>   0.0800 
 28 H       -2.0910    -4.1640     1.0060 H     1 <1>   0.0800 
 29 H        0.5110    -2.5260    -1.8930 H     1 <1>   0.0800 
 30 H       -1.0660    -3.0360    -2.4320 H     1 <1>   0.0800 
 31 H       -0.0060    -3.2320     0.3200 H     1 <1>   0.4500 
 32 H        0.7620    -4.9250    -1.3210 H     1 <1>   0.0800 
 33 H       -0.9100    -5.3630    -1.5250 H     1 <1>   0.0800 
 34 H       -0.5570    -5.5550     1.2380 H     1 <1>   0.0800 
 35 H        0.9620    -6.1030     0.5810 H     1 <1>   0.0800 
 36 H        0.8940    -8.4730     0.7010 H     1 <1>   0.0800 
 37 H       -0.5860    -9.3430     0.4310 H     1 <1>   0.0800 
 38 H       -0.0770    -7.4340     2.7280 H     1 <1>   0.0800 
 39 H       -0.2350    -9.1640     2.8140 H     1 <1>   0.0800 
 40 H       -1.6210    -8.1980     2.3860 H     1 <1>   0.0800 
 41 H       -4.1480    -8.9510    -2.4860 H     1 <1>   0.1500 
 42 H       -5.6880    -7.4260    -1.3150 H     1 <1>   0.1500 
 43 H       -4.5090    -5.0300     1.3260 H     1 <1>   0.0800 
 44 H       -6.8170    -6.8890     0.7260 H     1 <1>   0.0800 
 45 H       -6.7540    -5.6690     1.9720 H     1 <1>   0.0800 
 46 H       -5.6980    -7.0550     2.0570 H     1 <1>   0.0800 
 47 H       -6.3780    -5.0790    -1.0560 H     1 <1>   0.0800 
 48 H       -4.9790    -4.0480    -0.9080 H     1 <1>   0.0800 
 49 H       -6.3200    -3.8640     0.1940 H     1 <1>   0.0800 
@<TRIPOS>BOND
  1   1   2  1   
  2   1   3  1   
  3   2   4  1   
  4   2  23  1   
  5   2  24  1   
  6   3   5  1   
  7   3  25  1   
  8   3  26  1   
  9   4   6  1   
 10   4  27  1   
 11   4  28  1   
 12   5   6  1   
 13   5  29  1   
 14   5  30  1   
 15   6   7  1   
 16   6  31  1   
 17   7   8  1   
 18   7  32  1   
 19   7  33  1   
 20   8   9  1   
 21   8  34  1   
 22   8  35  1   
 23   9  10  1   
 24   9  11  1   
 25  10  12  ar  
 26  10  13  ar  
 27  11  14  1   
 28  11  36  1   
 29  11  37  1   
 30  12  15  ar  
 31  13  16  1   
 32  13  17  ar  
 33  14  38  1   
 34  14  39  1   
 35  14  40  1   
 36  15  18  ar  
 37  15  19  1   
 38  16  20  3   
 39  17  18  ar  
 40  17  41  1   
 41  18  42  1   
 42  19  21  1   
 43  19  22  1   
 44  19  43  1   
 45  21  44  1   
 46  21  45  1   
 47  21  46  1   
 48  22  47  1   
 49  22  48  1   
 50  22  49  1   
@<TRIPOS>SUBSTRUCTURE
  1 ****  12 GROUP 4 **** **** 0

# MOE 2024.06 (io_trps.svl 2023.06)
