@<TRIPOS>MOLECULE
NONAME
52 54 1 0 0 
SMALL
USER_CHARGES


@<TRIPOS>ATOM
  1 O        1.9370     0.0600     2.2090 O.2   1 <1>  -0.5700 
  2 C        2.3950    -0.5160     1.2470 C.2   1 <1>   0.5690 
  3 N        3.0950     0.1760     0.2850 N.am  1 <1>  -0.6600 
  4 C        2.2030    -2.0310     1.1540 C.3   1 <1>   0.2370 
  5 C        3.6420    -0.4010    -0.9900 C.3   1 <1>   0.1400 
  6 C        3.3630     1.6320     0.4390 C.3   1 <1>   0.1400 
  7 N        1.1150    -2.3160     0.1950 N.pl3 1 <1>   0.3140 
  8 C        1.9280    -2.7290     2.5020 C.3   1 <1>  -0.2400 
  9 C        5.1640    -0.6140    -0.9350 C.3   1 <1>   0.1400 
 10 C        4.6420     1.8720     1.2520 C.3   1 <1>  -0.1600 
 11 N        1.3080    -3.1220    -0.8710 N.2   1 <1>  -0.7070 
 12 C       -0.1520    -1.8520     0.2260 C.2   1 <1>  -0.3020 
 13 N        5.8970     0.6220    -0.5170 N.am  1 <1>  -0.6600 
 14 C        5.8020     0.9150     0.9420 C.3   1 <1>   0.1400 
 15 C        0.1630    -3.1500    -1.4810 C.2   1 <1>   0.1390 
 16 C       -0.7930    -2.3720    -0.8410 C.2   1 <1>  -0.1500 
 17 C        6.5900     1.3780    -1.4320 C.2   1 <1>   0.5690 
 18 O        6.5860     1.0890    -2.6080 O.2   1 <1>  -0.5700 
 19 C        7.3660     2.6290    -1.0320 C.3   1 <1>   0.0820 
 20 C        8.5480     2.3600    -0.1040 C.2   1 <1>  -0.1810 
 21 C        9.5500     1.4100    -0.2990 C.2   1 <1>   0.1080 
 22 C        8.8650     2.9580     1.0680 C.2   1 <1>  -0.3320 
 23 N       10.4130     1.4030     0.6660 N.2   1 <1>  -0.7070 
 24 C        9.6730     0.4690    -1.4780 C.3   1 <1>  -0.0590 
 25 N        9.9940     2.3620     1.5070 N.pl3 1 <1>   0.3000 
 26 C        8.1830     4.0790     1.8360 C.3   1 <1>  -0.0600 
 27 H        3.1040    -2.4520     0.7510 H     1 <1>   0.0800 
 28 H        3.4180     0.2650    -1.8060 H     1 <1>   0.0800 
 29 H        3.1700    -1.3360    -1.2240 H     1 <1>   0.0800 
 30 H        2.5290     2.1100     0.9250 H     1 <1>   0.0800 
 31 H        3.4690     2.0800    -0.5350 H     1 <1>   0.0800 
 32 H        1.0200    -2.3560     2.9420 H     1 <1>   0.0800 
 33 H        2.7370    -2.5370     3.1830 H     1 <1>   0.0800 
 34 H        1.8440    -3.7920     2.3580 H     1 <1>   0.0800 
 35 H        5.5010    -0.9330    -1.9060 H     1 <1>   0.0800 
 36 H        5.3880    -1.4120    -0.2500 H     1 <1>   0.0800 
 37 H        4.4030     1.7830     2.2970 H     1 <1>   0.0800 
 38 H        4.9630     2.8840     1.0940 H     1 <1>   0.0800 
 39 H       -0.5150    -1.1900     0.9930 H     1 <1>   0.1500 
 40 H        5.6390    -0.0080     1.4710 H     1 <1>   0.0800 
 41 H        6.7240     1.3210     1.3130 H     1 <1>   0.0800 
 42 H       -0.0170    -3.7150    -2.3810 H     1 <1>   0.1500 
 43 H       -1.8130    -2.2330    -1.1520 H     1 <1>   0.1500 
 44 H        6.6830     3.3180    -0.5790 H     1 <1>   0.0800 
 45 H        7.7430     3.0950    -1.9230 H     1 <1>   0.0800 
 46 H        9.4420     0.9840    -2.3920 H     1 <1>   0.0800 
 47 H        8.9970    -0.3560    -1.3540 H     1 <1>   0.0800 
 48 H       10.6770     0.0910    -1.5390 H     1 <1>   0.0800 
 49 H       10.5030     2.5850     2.3700 H     1 <1>   0.2700 
 50 H        7.3270     4.4480     1.3020 H     1 <1>   0.0800 
 51 H        8.8670     4.8960     1.9800 H     1 <1>   0.0800 
 52 H        7.8580     3.7240     2.7980 H     1 <1>   0.0800 
@<TRIPOS>BOND
  1   1   2  2   
  2   2   3  am  
  3   2   4  1   
  4   3   5  1   
  5   3   6  1   
  6   4   7  1   
  7   4   8  1   
  8   4  27  1   
  9   5   9  1   
 10   5  28  1   
 11   5  29  1   
 12   6  10  1   
 13   6  30  1   
 14   6  31  1   
 15   7  11  1   
 16   7  12  1   
 17   8  32  1   
 18   8  33  1   
 19   8  34  1   
 20   9  13  1   
 21   9  35  1   
 22   9  36  1   
 23  10  14  1   
 24  10  37  1   
 25  10  38  1   
 26  11  15  2   
 27  12  16  2   
 28  12  39  1   
 29  13  14  1   
 30  13  17  am  
 31  14  40  1   
 32  14  41  1   
 33  15  16  1   
 34  15  42  1   
 35  16  43  1   
 36  17  18  2   
 37  17  19  1   
 38  19  20  1   
 39  19  44  1   
 40  19  45  1   
 41  20  21  1   
 42  20  22  2   
 43  21  23  2   
 44  21  24  1   
 45  22  25  1   
 46  22  26  1   
 47  23  25  1   
 48  24  46  1   
 49  24  47  1   
 50  24  48  1   
 51  25  49  1   
 52  26  50  1   
 53  26  51  1   
 54  26  52  1   
@<TRIPOS>SUBSTRUCTURE
  1 ****  13 GROUP 4 **** **** 0

# MOE 2024.06 (io_trps.svl 2023.06)
