@<TRIPOS>MOLECULE
NONAME
46 49 1 0 0 
SMALL
USER_CHARGES


@<TRIPOS>ATOM
  1 O       -1.4210    -0.1570    -1.6070 O.3   1 <1>  -0.6800 
  2 C       -1.7150    -1.2360    -0.7890 C.3   1 <1>   0.2000 
  3 C       -2.3410    -2.3680    -1.6240 C.3   1 <1>   0.2090 
  4 C       -2.6820    -0.7490     0.2940 C.3   1 <1>  -0.1600 
  5 N       -2.7850    -3.4960    -0.7360 N.pl3 1 <1>  -0.8380 
  6 C       -3.1800    -1.9300     1.1450 C.3   1 <1>  -0.1600 
  7 C       -2.4560    -4.8030    -0.9120 C.ar  1 <1>   0.4100 
  8 C       -3.7840    -3.0490     0.2870 C.3   1 <1>   0.2090 
  9 N       -3.3270    -5.7160    -0.5190 N.ar  1 <1>  -0.6200 
 10 C       -1.2270    -5.1780    -1.4920 C.ar  1 <1>  -0.1500 
 11 C       -3.0320    -6.9830    -0.7100 C.ar  1 <1>   0.7710 
 12 C       -0.9500    -6.4910    -1.6730 C.ar  1 <1>   0.2110 
 13 N       -1.8820    -7.3910    -1.2750 N.ar  1 <1>  -0.1790 
 14 N       -3.9510    -7.8640    -0.3050 N.pl3 1 <1>  -0.8690 
 15 C       -4.0260    -9.3470    -0.3260 C.3   1 <1>   0.2890 
 16 C       -5.2450    -9.8340    -1.1290 C.3   1 <1>  -0.0170 
 17 C       -4.1800    -9.9200     1.0940 C.3   1 <1>  -0.0170 
 18 C       -5.7030   -11.0400    -0.3490 C.ar  1 <1>  -0.1430 
 19 C       -5.1100   -11.0880     0.8880 C.ar  1 <1>  -0.1430 
 20 C       -6.5950   -12.0200    -0.7450 C.ar  1 <1>  -0.1500 
 21 C       -5.3900   -12.1170     1.7680 C.ar  1 <1>  -0.1500 
 22 C       -6.8820   -13.0560     0.1290 C.ar  1 <1>  -0.1500 
 23 C       -6.2820   -13.1050     1.3800 C.ar  1 <1>  -0.1500 
 24 H       -0.6350    -0.3330    -2.1580 H     1 <1>   0.4000 
 25 H       -0.7970    -1.5730    -0.3400 H     1 <1>   0.0800 
 26 H       -1.6420    -2.7070    -2.3640 H     1 <1>   0.0800 
 27 H       -3.2050    -1.9800    -2.1360 H     1 <1>   0.0800 
 28 H       -3.5270    -0.2710    -0.1720 H     1 <1>   0.0800 
 29 H       -2.1870    -0.0320     0.9250 H     1 <1>   0.0800 
 30 H       -3.9220    -1.5810     1.8410 H     1 <1>   0.0800 
 31 H       -2.3630    -2.3360     1.7160 H     1 <1>   0.0800 
 32 H       -4.0720    -3.8620     0.9300 H     1 <1>   0.0800 
 33 H       -4.6680    -2.6910    -0.2140 H     1 <1>   0.0800 
 34 H       -0.5210    -4.4180    -1.7680 H     1 <1>   0.1500 
 35 H       -0.0280    -6.8410    -2.1110 H     1 <1>   0.1500 
 36 H       -1.7550    -8.3910    -1.3760 H     1 <1>   0.4570 
 37 H       -4.7850    -7.4240     0.1050 H     1 <1>   0.4000 
 38 H       -3.1440    -9.7780    -0.7660 H     1 <1>   0.0800 
 39 H       -4.9760   -10.1040    -2.1340 H     1 <1>   0.0800 
 40 H       -6.0340    -9.1020    -1.1360 H     1 <1>   0.0800 
 41 H       -4.6460    -9.2140     1.7580 H     1 <1>   0.0800 
 42 H       -3.2370   -10.2440     1.4950 H     1 <1>   0.0800 
 43 H       -7.0620   -11.9820    -1.7130 H     1 <1>   0.1500 
 44 H       -4.9280   -12.1550     2.7390 H     1 <1>   0.1500 
 45 H       -7.5740   -13.8270    -0.1620 H     1 <1>   0.1500 
 46 H       -6.5120   -13.9130     2.0520 H     1 <1>   0.1500 
@<TRIPOS>BOND
  1   1   2  1   
  2   1  24  1   
  3   2   3  1   
  4   2   4  1   
  5   2  25  1   
  6   3   5  1   
  7   3  26  1   
  8   3  27  1   
  9   4   6  1   
 10   4  28  1   
 11   4  29  1   
 12   5   7  1   
 13   5   8  1   
 14   6   8  1   
 15   6  30  1   
 16   6  31  1   
 17   7   9  ar  
 18   7  10  ar  
 19   8  32  1   
 20   8  33  1   
 21   9  11  ar  
 22  10  12  ar  
 23  10  34  1   
 24  11  13  ar  
 25  11  14  1   
 26  12  13  ar  
 27  12  35  1   
 28  13  36  1   
 29  14  15  1   
 30  14  37  1   
 31  15  16  1   
 32  15  17  1   
 33  15  38  1   
 34  16  18  1   
 35  16  39  1   
 36  16  40  1   
 37  17  19  1   
 38  17  41  1   
 39  17  42  1   
 40  18  19  ar  
 41  18  20  ar  
 42  19  21  ar  
 43  20  22  ar  
 44  20  43  1   
 45  21  23  ar  
 46  21  44  1   
 47  22  23  ar  
 48  22  45  1   
 49  23  46  1   
@<TRIPOS>SUBSTRUCTURE
  1 ****  11 GROUP 4 **** **** 0

# MOE 2024.06 (io_trps.svl 2023.06)
