@<TRIPOS>MOLECULE
NONAME
49 51 1 0 0 
SMALL
USER_CHARGES


@<TRIPOS>ATOM
  1 O       -1.0740    -1.9590     0.3770 O.2   1 <1>  -0.5700 
  2 C       -0.0780    -2.6120     0.2080 C.2   1 <1>   0.5690 
  3 N       -0.0410    -3.6320    -0.6750 N.am  1 <1>  -0.7300 
  4 C        1.1830    -2.3200     0.9920 C.3   1 <1>  -0.0990 
  5 C        1.1530    -4.4760    -0.8860 C.3   1 <1>   0.1400 
  6 C        2.4160    -2.3860     0.0700 C.3   1 <1>  -0.0800 
  7 C        2.4230    -3.5990    -0.8960 C.3   1 <1>  -0.0800 
  8 C        3.7410    -2.4340     0.8460 C.3   1 <1>  -0.1600 
  9 C        3.6960    -4.3880    -0.5660 C.3   1 <1>  -0.1600 
 10 C        4.6440    -3.3410     0.0180 C.3   1 <1>   0.2200 
 11 N        5.7770    -3.8980     0.8190 N.am  1 <1>  -0.6600 
 12 C        7.0740    -3.4520     0.7070 C.2   1 <1>   0.5690 
 13 C        5.4710    -5.0040     1.7820 C.3   1 <1>   0.0600 
 14 O        7.9800    -4.0040     1.2870 O.2   1 <1>  -0.5700 
 15 C        7.4100    -2.2390    -0.1600 C.3   1 <1>  -0.0990 
 16 C        8.8330    -1.6800     0.0400 C.3   1 <1>  -0.1600 
 17 C        9.0920    -0.4560    -0.8470 C.3   1 <1>  -0.0170 
 18 C       10.4970     0.0810    -0.6260 C.ar  1 <1>  -0.1440 
 19 C       10.7310     1.0610     0.3260 C.ar  1 <1>  -0.1500 
 20 C       11.5580    -0.4050    -1.3750 C.ar  1 <1>  -0.1500 
 21 C       12.0100     1.5530     0.5240 C.ar  1 <1>  -0.1500 
 22 C       12.8370     0.0860    -1.1790 C.ar  1 <1>  -0.1500 
 23 C       13.0640     1.0670    -0.2290 C.ar  1 <1>  -0.1500 
 24 H       -0.9040    -3.8540    -1.1770 H     1 <1>   0.3700 
 25 H        1.1080    -1.3480     1.4440 H     1 <1>   0.0800 
 26 H        1.2550    -3.0530     1.7740 H     1 <1>   0.0800 
 27 H        1.2000    -5.1950    -0.0850 H     1 <1>   0.0800 
 28 H        1.0650    -5.0090    -1.8170 H     1 <1>   0.0800 
 29 H        2.4110    -1.4970    -0.5390 H     1 <1>   0.0800 
 30 H        2.5310    -3.2080    -1.8940 H     1 <1>   0.0800 
 31 H        3.5850    -2.8610     1.8190 H     1 <1>   0.0800 
 32 H        4.1670    -1.4520     0.9560 H     1 <1>   0.0800 
 33 H        4.1150    -4.8530    -1.4410 H     1 <1>   0.0800 
 34 H        3.4610    -5.1410     0.1630 H     1 <1>   0.0800 
 35 H        5.0200    -2.7690    -0.8120 H     1 <1>   0.0800 
 36 H        4.5200    -4.8440     2.2560 H     1 <1>   0.0800 
 37 H        6.2220    -5.0550     2.5520 H     1 <1>   0.0800 
 38 H        5.4560    -5.9430     1.2580 H     1 <1>   0.0800 
 39 H        7.2910    -2.5260    -1.1880 H     1 <1>   0.0800 
 40 H        6.7080    -1.4590     0.0640 H     1 <1>   0.0800 
 41 H        8.9680    -1.4080     1.0730 H     1 <1>   0.0800 
 42 H        9.5550    -2.4450    -0.1910 H     1 <1>   0.0800 
 43 H        8.3770     0.3150    -0.6230 H     1 <1>   0.0800 
 44 H        8.9720    -0.7240    -1.8820 H     1 <1>   0.0800 
 45 H        9.9190     1.4430     0.9180 H     1 <1>   0.1500 
 46 H       11.3920    -1.1690    -2.1140 H     1 <1>   0.1500 
 47 H       12.1840     2.3140     1.2650 H     1 <1>   0.1500 
 48 H       13.6550    -0.2960    -1.7640 H     1 <1>   0.1500 
 49 H       14.0580     1.4490    -0.0750 H     1 <1>   0.1500 
@<TRIPOS>BOND
  1   1   2  2   
  2   2   3  am  
  3   2   4  1   
  4   3   5  1   
  5   3  24  1   
  6   4   6  1   
  7   4  25  1   
  8   4  26  1   
  9   5   7  1   
 10   5  27  1   
 11   5  28  1   
 12   6   7  1   
 13   6   8  1   
 14   6  29  1   
 15   7   9  1   
 16   7  30  1   
 17   8  10  1   
 18   8  31  1   
 19   8  32  1   
 20   9  10  1   
 21   9  33  1   
 22   9  34  1   
 23  10  11  1   
 24  10  35  1   
 25  11  12  am  
 26  11  13  1   
 27  12  14  2   
 28  12  15  1   
 29  13  36  1   
 30  13  37  1   
 31  13  38  1   
 32  15  16  1   
 33  15  39  1   
 34  15  40  1   
 35  16  17  1   
 36  16  41  1   
 37  16  42  1   
 38  17  18  1   
 39  17  43  1   
 40  17  44  1   
 41  18  19  ar  
 42  18  20  ar  
 43  19  21  ar  
 44  19  45  1   
 45  20  22  ar  
 46  20  46  1   
 47  21  23  ar  
 48  21  47  1   
 49  22  23  ar  
 50  22  48  1   
 51  23  49  1   
@<TRIPOS>SUBSTRUCTURE
  1 ****  15 GROUP 4 **** **** 0

# MOE 2024.06 (io_trps.svl 2023.06)
