@<TRIPOS>MOLECULE
NONAME
48 51 1 0 0 
SMALL
USER_CHARGES


@<TRIPOS>ATOM
  1 O        1.7520    -1.5860     2.2660 O.2   1 <1>  -0.5700 
  2 C        1.7580    -1.3020     1.0900 C.2   1 <1>   0.6300 
  3 N        2.0680    -0.0530     0.6670 N.am  1 <1>  -0.7300 
  4 C        1.4180    -2.3590     0.0370 C.3   1 <1>   0.0320 
  5 C        2.4830     1.0540     1.5400 C.3   1 <1>   0.2840 
  6 C       -0.0740    -2.3960    -0.2710 C.ar  1 <1>  -0.0320 
  7 C        2.1910    -3.6490    -0.0290 C.3   1 <1>  -0.1900 
  8 C        2.4080    -2.6110    -1.0800 C.3   1 <1>  -0.2000 
  9 C        3.5920     1.8120     0.8370 C.ar  1 <1>  -0.1430 
 10 C       -0.9400    -2.9840     0.6370 C.ar  1 <1>  -0.1500 
 11 C       -0.5870    -1.8450    -1.4360 C.ar  1 <1>  -0.1500 
 12 C        1.6060    -4.9850    -0.4740 C.3   1 <1>  -0.0650 
 13 C        3.3680    -3.9870     0.8850 C.3   1 <1>  -0.0650 
 14 C        3.3870     3.0440     0.2490 C.ar  1 <1>  -0.1500 
 15 C        4.8690     1.2960     0.7460 C.ar  1 <1>  -0.1500 
 16 C       -2.3000    -3.0310     0.3830 C.ar  1 <1>  -0.1500 
 17 C       -1.9470    -1.8900    -1.6930 C.ar  1 <1>  -0.1500 
 18 C        2.8320    -5.8840    -0.5960 C.3   1 <1>  -0.1600 
 19 C        3.8240    -5.3900     0.4650 C.3   1 <1>  -0.1600 
 20 C        4.4380     3.6880    -0.3860 C.ar  1 <1>   0.1670 
 21 C        5.8500     2.0180     0.0890 C.ar  1 <1>   0.1600 
 22 C       -2.8040    -2.4840    -0.7840 C.ar  1 <1>  -0.1500 
 23 N        5.6620     3.1980    -0.4780 N.ar  1 <1>  -0.6200 
 24 C        4.2240     5.0410    -1.0330 C.3   1 <1>  -0.0970 
 25 H        2.0790     0.1510    -0.3320 H     1 <1>   0.3700 
 26 H        2.8340     0.6730     2.4840 H     1 <1>   0.0800 
 27 H        1.6400     1.6980     1.7240 H     1 <1>   0.0800 
 28 H        3.3330    -2.0620    -1.0860 H     1 <1>   0.1000 
 29 H        2.0450    -2.8050    -2.0740 H     1 <1>   0.1000 
 30 H       -0.5480    -3.4040     1.5480 H     1 <1>   0.1500 
 31 H        0.0700    -1.3780    -2.1470 H     1 <1>   0.1500 
 32 H        1.0540    -4.9190    -1.3950 H     1 <1>   0.0800 
 33 H        0.9570    -5.3610     0.2990 H     1 <1>   0.0800 
 34 H        3.0230    -4.0170     1.9050 H     1 <1>   0.0800 
 35 H        4.1650    -3.2670     0.8120 H     1 <1>   0.0800 
 36 H        2.4170     3.5050     0.2820 H     1 <1>   0.1500 
 37 H        5.1030     0.3400     1.1780 H     1 <1>   0.1500 
 38 H       -2.9640    -3.4910     1.0950 H     1 <1>   0.1500 
 39 H       -2.3380    -1.4630    -2.6000 H     1 <1>   0.1500 
 40 H        3.2640    -5.7510    -1.5730 H     1 <1>   0.0800 
 41 H        2.5810    -6.9210    -0.4630 H     1 <1>   0.0800 
 42 H        3.8100    -6.0440     1.3190 H     1 <1>   0.0800 
 43 H        4.8220    -5.3650     0.0630 H     1 <1>   0.0800 
 44 H        6.8410     1.6030     0.0260 H     1 <1>   0.1500 
 45 H       -3.8610    -2.5200    -0.9830 H     1 <1>   0.1500 
 46 H        3.2100     5.3730    -0.9170 H     1 <1>   0.0800 
 47 H        4.4530     4.9760    -2.0810 H     1 <1>   0.0800 
 48 H        4.8810     5.7610    -0.5800 H     1 <1>   0.0800 
@<TRIPOS>BOND
  1   1   2  2   
  2   2   3  am  
  3   2   4  1   
  4   3   5  1   
  5   3  25  1   
  6   4   6  1   
  7   4   7  1   
  8   4   8  1   
  9   5   9  1   
 10   5  26  1   
 11   5  27  1   
 12   6  10  ar  
 13   6  11  ar  
 14   7   8  1   
 15   7  12  1   
 16   7  13  1   
 17   8  28  1   
 18   8  29  1   
 19   9  14  ar  
 20   9  15  ar  
 21  10  16  ar  
 22  10  30  1   
 23  11  17  ar  
 24  11  31  1   
 25  12  18  1   
 26  12  32  1   
 27  12  33  1   
 28  13  19  1   
 29  13  34  1   
 30  13  35  1   
 31  14  20  ar  
 32  14  36  1   
 33  15  21  ar  
 34  15  37  1   
 35  16  22  ar  
 36  16  38  1   
 37  17  22  ar  
 38  17  39  1   
 39  18  19  1   
 40  18  40  1   
 41  18  41  1   
 42  19  42  1   
 43  19  43  1   
 44  20  23  ar  
 45  20  24  1   
 46  21  23  ar  
 47  21  44  1   
 48  22  45  1   
 49  24  46  1   
 50  24  47  1   
 51  24  48  1   
@<TRIPOS>SUBSTRUCTURE
  1 ****   2 GROUP 4 **** **** 0

# MOE 2024.06 (io_trps.svl 2023.06)
