@<TRIPOS>MOLECULE
NONAME
51 53 1 0 0 
SMALL
USER_CHARGES


@<TRIPOS>ATOM
  1 F        0.5980     1.2870     3.5140 F     1 <1>  -0.1900 
  2 C       -0.2660     1.7060     2.6280 C.ar  1 <1>   0.1900 
  3 C        0.1630     2.5540     1.6320 C.ar  1 <1>  -0.1500 
  4 C       -1.5750     1.2830     2.7270 C.ar  1 <1>  -0.1500 
  5 C       -0.7390     3.0270     0.6760 C.ar  1 <1>   0.0860 
  6 C       -2.4800     1.7270     1.7820 C.ar  1 <1>  -0.1500 
  7 C       -2.0730     2.5860     0.7580 C.ar  1 <1>   0.0830 
  8 C       -0.2650     3.9340    -0.3540 C.2   1 <1>   0.5440 
  9 O       -2.9440     3.0110    -0.1930 O.3   1 <1>  -0.3630 
 10 O        0.8420     3.7960    -0.8450 O.2   1 <1>  -0.5700 
 11 N       -0.9600     5.0490    -0.7580 N.am  1 <1>  -0.6600 
 12 C       -4.2590     2.5090    -0.3070 C.3   1 <1>   0.0400 
 13 C       -0.9080     5.5130    -2.1790 C.3   1 <1>   0.1400 
 14 C       -1.5300     6.0050     0.2190 C.3   1 <1>   0.1400 
 15 C        0.4130     6.2400    -2.5070 C.3   1 <1>   0.3430 
 16 C       -0.4520     7.0090     0.6530 C.3   1 <1>  -0.1600 
 17 N        1.0960     6.7330    -1.2710 N.4   1 <1>  -0.9590 
 18 C        0.2820     7.7170    -0.4950 C.3   1 <1>   0.3430 
 19 C        2.5040     7.1420    -1.5300 C.3   1 <1>   0.4860 
 20 C        3.1730     7.5890    -0.2440 C.ar  1 <1>  -0.1430 
 21 C        3.5610     6.6930     0.7510 C.ar  1 <1>   0.1670 
 22 C        3.3990     8.9410    -0.0520 C.ar  1 <1>  -0.1500 
 23 N        4.1050     7.0620     1.8960 N.ar  1 <1>  -0.6200 
 24 C        3.3900     5.1890     0.6190 C.3   1 <1>  -0.0970 
 25 C        3.9820     9.3230     1.1350 C.ar  1 <1>  -0.1500 
 26 C        4.3080     8.3560     2.0670 C.ar  1 <1>   0.1600 
 27 H        1.1970     2.8440     1.5970 H     1 <1>   0.1500 
 28 H       -1.8700     0.6220     3.5220 H     1 <1>   0.1500 
 29 H       -3.4980     1.3910     1.8610 H     1 <1>   0.1500 
 30 H       -4.7130     2.9510    -1.1750 H     1 <1>   0.0800 
 31 H       -4.8170     2.7790     0.5720 H     1 <1>   0.0800 
 32 H       -4.2170     1.4400    -0.4250 H     1 <1>   0.0800 
 33 H       -1.7400     6.1650    -2.3770 H     1 <1>   0.0800 
 34 H       -1.0100     4.6620    -2.8320 H     1 <1>   0.0800 
 35 H       -1.8970     5.4720     1.0810 H     1 <1>   0.0800 
 36 H       -2.3680     6.5170    -0.2240 H     1 <1>   0.0800 
 37 H        0.2260     7.0490    -3.1920 H     1 <1>   0.0800 
 38 H        1.0570     5.5310    -3.0010 H     1 <1>   0.0800 
 39 H        0.2660     6.5190     1.2870 H     1 <1>   0.0800 
 40 H       -0.9290     7.7600     1.2570 H     1 <1>   0.0800 
 41 H        1.1340     5.8770    -0.6840 H     1 <1>   0.4500 
 42 H        0.9200     8.4730    -0.0690 H     1 <1>   0.0800 
 43 H       -0.4280     8.2080    -1.1410 H     1 <1>   0.0800 
 44 H        2.5220     7.9540    -2.2390 H     1 <1>   0.0800 
 45 H        3.0540     6.3180    -1.9530 H     1 <1>   0.0800 
 46 H        3.1390     9.6820    -0.7890 H     1 <1>   0.1500 
 47 H        3.3060     4.8660    -0.4000 H     1 <1>   0.0800 
 48 H        2.5200     4.8780     1.1660 H     1 <1>   0.0800 
 49 H        4.2450     4.6940     1.0460 H     1 <1>   0.0800 
 50 H        4.1850    10.3590     1.3440 H     1 <1>   0.1500 
 51 H        4.7610     8.6600     2.9960 H     1 <1>   0.1500 
@<TRIPOS>BOND
  1   1   2  1   
  2   2   3  ar  
  3   2   4  ar  
  4   3   5  ar  
  5   3  27  1   
  6   4   6  ar  
  7   4  28  1   
  8   5   7  ar  
  9   5   8  1   
 10   6   7  ar  
 11   6  29  1   
 12   7   9  1   
 13   8  10  2   
 14   8  11  am  
 15   9  12  1   
 16  11  13  1   
 17  11  14  1   
 18  12  30  1   
 19  12  31  1   
 20  12  32  1   
 21  13  15  1   
 22  13  33  1   
 23  13  34  1   
 24  14  16  1   
 25  14  35  1   
 26  14  36  1   
 27  15  17  1   
 28  15  37  1   
 29  15  38  1   
 30  16  18  1   
 31  16  39  1   
 32  16  40  1   
 33  17  18  1   
 34  17  19  1   
 35  17  41  1   
 36  18  42  1   
 37  18  43  1   
 38  19  20  1   
 39  19  44  1   
 40  19  45  1   
 41  20  21  ar  
 42  20  22  ar  
 43  21  23  ar  
 44  21  24  1   
 45  22  25  ar  
 46  22  46  1   
 47  23  26  ar  
 48  24  47  1   
 49  24  48  1   
 50  24  49  1   
 51  25  26  ar  
 52  25  50  1   
 53  26  51  1   
@<TRIPOS>SUBSTRUCTURE
  1 ****   8 GROUP 4 **** **** 0

# MOE 2024.06 (io_trps.svl 2023.06)
