@<TRIPOS>MOLECULE
NONAME
49 51 1 0 0 
SMALL
USER_CHARGES


@<TRIPOS>ATOM
  1 F        1.1560    -0.3660     0.4390 F     1 <1>  -0.1900 
  2 C        0.6720    -1.5720     0.5490 C.ar  1 <1>   0.1900 
  3 C        1.2140    -2.5770    -0.2250 C.ar  1 <1>  -0.1500 
  4 C       -0.3620    -1.7930     1.4350 C.ar  1 <1>  -0.1500 
  5 C        0.6940    -3.8640    -0.1090 C.ar  1 <1>   0.0830 
  6 C       -0.8760    -3.0740     1.5480 C.ar  1 <1>  -0.1500 
  7 O        1.1750    -4.9090    -0.8340 O.3   1 <1>  -0.3630 
  8 C       -0.3590    -4.1090     0.7770 C.ar  1 <1>  -0.1440 
  9 C        2.3780    -4.7950    -1.5730 C.3   1 <1>   0.0400 
 10 C       -0.9470    -5.5020     0.9340 C.3   1 <1>   0.4870 
 11 N       -1.3230    -6.0700    -0.3960 N.4   1 <1>  -0.9590 
 12 C       -2.6700    -5.7490    -0.9550 C.3   1 <1>   0.4230 
 13 C       -1.0710    -7.5400    -0.4190 C.3   1 <1>   0.2630 
 14 C       -3.8420    -6.1430    -0.0590 C.3   1 <1>  -0.1600 
 15 C       -2.9110    -4.2740    -1.2510 C.3   1 <1>  -0.1600 
 16 C       -5.0360    -5.3780    -0.6500 C.3   1 <1>  -0.0800 
 17 C       -4.4330    -4.1720    -1.4100 C.3   1 <1>  -0.0800 
 18 C       -6.1090    -5.0210     0.3980 C.3   1 <1>   0.1400 
 19 C       -5.0030    -2.8110    -0.9670 C.3   1 <1>  -0.0990 
 20 N       -7.0120    -3.9760    -0.1400 N.am  1 <1>  -0.6600 
 21 C       -6.5070    -2.8910    -0.8040 C.2   1 <1>   0.5690 
 22 C       -8.4680    -4.1450     0.1220 C.3   1 <1>   0.0600 
 23 O       -7.1930    -2.0080    -1.2560 O.2   1 <1>  -0.5700 
 24 H        2.0190    -2.3290    -0.8910 H     1 <1>   0.1500 
 25 H       -0.7500    -0.9780     2.0210 H     1 <1>   0.1500 
 26 H       -1.6800    -3.2470     2.2440 H     1 <1>   0.1500 
 27 H        2.6170    -5.7590    -1.9860 H     1 <1>   0.0800 
 28 H        3.1680    -4.4780    -0.9140 H     1 <1>   0.0800 
 29 H        2.2380    -4.0850    -2.3700 H     1 <1>   0.0800 
 30 H       -1.7970    -5.4780     1.5930 H     1 <1>   0.0800 
 31 H       -0.1920    -6.1230     1.3880 H     1 <1>   0.0800 
 32 H       -0.6220    -5.6340    -1.0230 H     1 <1>   0.4500 
 33 H       -2.7860    -6.2760    -1.8890 H     1 <1>   0.0800 
 34 H       -1.7360    -8.0470     0.2620 H     1 <1>   0.0800 
 35 H       -0.0530    -7.7490    -0.1300 H     1 <1>   0.0800 
 36 H       -1.2290    -7.9310    -1.4110 H     1 <1>   0.0800 
 37 H       -4.0200    -7.2030    -0.0730 H     1 <1>   0.0800 
 38 H       -3.6780    -5.8140     0.9500 H     1 <1>   0.0800 
 39 H       -2.6120    -3.6610    -0.4260 H     1 <1>   0.0800 
 40 H       -2.4020    -3.9550    -2.1430 H     1 <1>   0.0800 
 41 H       -5.5110    -6.0130    -1.3810 H     1 <1>   0.0800 
 42 H       -4.6790    -4.2970    -2.4530 H     1 <1>   0.0800 
 43 H       -5.6510    -4.6370     1.2940 H     1 <1>   0.0800 
 44 H       -6.6740    -5.9010     0.6570 H     1 <1>   0.0800 
 45 H       -4.7630    -2.0540    -1.6920 H     1 <1>   0.0800 
 46 H       -4.5920    -2.5100    -0.0210 H     1 <1>   0.0800 
 47 H       -8.8180    -5.0520    -0.3370 H     1 <1>   0.0800 
 48 H       -9.0240    -3.3180    -0.2870 H     1 <1>   0.0800 
 49 H       -8.6460    -4.1870     1.1820 H     1 <1>   0.0800 
@<TRIPOS>BOND
  1   1   2  1   
  2   2   3  ar  
  3   2   4  ar  
  4   3   5  ar  
  5   3  24  1   
  6   4   6  ar  
  7   4  25  1   
  8   5   7  1   
  9   5   8  ar  
 10   6   8  ar  
 11   6  26  1   
 12   7   9  1   
 13   8  10  1   
 14   9  27  1   
 15   9  28  1   
 16   9  29  1   
 17  10  11  1   
 18  10  30  1   
 19  10  31  1   
 20  11  12  1   
 21  11  13  1   
 22  11  32  1   
 23  12  14  1   
 24  12  15  1   
 25  12  33  1   
 26  13  34  1   
 27  13  35  1   
 28  13  36  1   
 29  14  16  1   
 30  14  37  1   
 31  14  38  1   
 32  15  17  1   
 33  15  39  1   
 34  15  40  1   
 35  16  17  1   
 36  16  18  1   
 37  16  41  1   
 38  17  19  1   
 39  17  42  1   
 40  18  20  1   
 41  18  43  1   
 42  18  44  1   
 43  19  21  1   
 44  19  45  1   
 45  19  46  1   
 46  20  21  am  
 47  20  22  1   
 48  21  23  2   
 49  22  47  1   
 50  22  48  1   
 51  22  49  1   
@<TRIPOS>SUBSTRUCTURE
  1 ****  15 GROUP 4 **** **** 0

# MOE 2024.06 (io_trps.svl 2023.06)
