@<TRIPOS>MOLECULE
NONAME
44 46 1 0 0 
SMALL
USER_CHARGES


@<TRIPOS>ATOM
  1 S        0.3280    -0.0710    -0.4730 S.3   1 <1>  -0.3320 
  2 C       -1.2570    -0.8210    -0.0480 C.ar  1 <1>   0.1020 
  3 C        0.2410     1.6870     0.0840 C.3   1 <1>   0.0700 
  4 C       -1.4440    -2.1390    -0.4230 C.ar  1 <1>  -0.1500 
  5 C       -2.2480    -0.1180     0.6240 C.ar  1 <1>  -0.1500 
  6 C        1.5660     2.3600    -0.2750 C.3   1 <1>  -0.0990 
  7 C       -2.6400    -2.7670    -0.1240 C.ar  1 <1>   0.0830 
  8 C       -3.4480    -0.7470     0.9180 C.ar  1 <1>  -0.1500 
  9 C        1.5330     3.8310     0.0720 C.2   1 <1>   0.5690 
 10 O       -2.8070    -4.0660    -0.4820 O.3   1 <1>  -0.3630 
 11 C       -3.6500    -2.0650     0.5410 C.ar  1 <1>   0.0830 
 12 O        1.1100     4.1730     1.1490 O.2   1 <1>  -0.5700 
 13 N        1.9880     4.7270    -0.8410 N.am  1 <1>  -0.7300 
 14 C       -3.8890    -4.7590     0.1100 C.3   1 <1>   0.1200 
 15 O       -4.8410    -2.6500     0.8260 O.3   1 <1>  -0.3630 
 16 C        2.0150     6.1890    -0.6380 C.3   1 <1>   0.1400 
 17 C       -5.1330    -3.8620     0.1550 C.3   1 <1>   0.1200 
 18 C        3.4540     6.6240    -0.3700 C.3   1 <1>  -0.1600 
 19 C        3.5200     8.1210    -0.0410 C.3   1 <1>   0.0960 
 20 N        4.9170     8.5490     0.1590 N.pl3 1 <1>   0.3140 
 21 N        5.6630     9.0580    -0.8260 N.2   1 <1>  -0.4180 
 22 C        5.6360     8.4950     1.2810 C.2   1 <1>  -0.3020 
 23 N        6.8320     9.3270    -0.3540 N.2   1 <1>  -0.2270 
 24 C        6.8350     8.9880     0.9390 C.2   1 <1>   0.0770 
 25 H        0.0780     1.6870     1.1480 H     1 <1>   0.0800 
 26 H       -0.5870     2.1480    -0.4250 H     1 <1>   0.0800 
 27 H       -0.6690    -2.6740    -0.9390 H     1 <1>   0.1500 
 28 H       -2.1080     0.9010     0.9240 H     1 <1>   0.1500 
 29 H        1.7530     2.2370    -1.3250 H     1 <1>   0.0800 
 30 H        2.3630     1.8960     0.2750 H     1 <1>   0.0800 
 31 H       -4.2300    -0.2220     1.4350 H     1 <1>   0.1500 
 32 H        2.3760     4.3930    -1.7250 H     1 <1>   0.3700 
 33 H       -3.5970    -5.0450     1.1060 H     1 <1>   0.0800 
 34 H       -4.0740    -5.6430    -0.4720 H     1 <1>   0.0800 
 35 H        1.3890     6.4490     0.2010 H     1 <1>   0.0800 
 36 H        1.6270     6.6790    -1.5150 H     1 <1>   0.0800 
 37 H       -5.9360    -4.3470     0.6810 H     1 <1>   0.0800 
 38 H       -5.4580    -3.6230    -0.8420 H     1 <1>   0.0800 
 39 H        4.0550     6.4250    -1.2400 H     1 <1>   0.0800 
 40 H        3.8400     6.0640     0.4650 H     1 <1>   0.0800 
 41 H        2.9650     8.3350     0.8550 H     1 <1>   0.0800 
 42 H        3.1070     8.6980    -0.8490 H     1 <1>   0.0800 
 43 H        5.2680     8.1230     2.2170 H     1 <1>   0.1500 
 44 H        7.7090     9.1190     1.5530 H     1 <1>   0.1500 
@<TRIPOS>BOND
  1   1   2  1   
  2   1   3  1   
  3   2   4  ar  
  4   2   5  ar  
  5   3   6  1   
  6   3  25  1   
  7   3  26  1   
  8   4   7  ar  
  9   4  27  1   
 10   5   8  ar  
 11   5  28  1   
 12   6   9  1   
 13   6  29  1   
 14   6  30  1   
 15   7  10  1   
 16   7  11  ar  
 17   8  11  ar  
 18   8  31  1   
 19   9  12  2   
 20   9  13  am  
 21  10  14  1   
 22  11  15  1   
 23  13  16  1   
 24  13  32  1   
 25  14  17  1   
 26  14  33  1   
 27  14  34  1   
 28  15  17  1   
 29  16  18  1   
 30  16  35  1   
 31  16  36  1   
 32  17  37  1   
 33  17  38  1   
 34  18  19  1   
 35  18  39  1   
 36  18  40  1   
 37  19  20  1   
 38  19  41  1   
 39  19  42  1   
 40  20  21  1   
 41  20  22  1   
 42  21  23  2   
 43  22  24  2   
 44  22  43  1   
 45  23  24  1   
 46  24  44  1   
@<TRIPOS>SUBSTRUCTURE
  1 ****   3 GROUP 4 **** **** 0

# MOE 2024.06 (io_trps.svl 2023.06)
