@<TRIPOS>MOLECULE
NONAME
38 39 1 0 0 
SMALL
USER_CHARGES


@<TRIPOS>ATOM
  1 F        2.2000     0.9940     1.2990 F     1 <1>  -0.1900 
  2 C        2.9890     0.2860     0.5370 C.ar  1 <1>   0.1900 
  3 C        3.9550     0.9190    -0.2600 C.ar  1 <1>   0.0860 
  4 C        2.8060    -1.0880     0.5810 C.ar  1 <1>  -0.1500 
  5 C        4.1600     2.3580    -0.3220 C.2   1 <1>   0.5440 
  6 C        4.7540     0.0680    -1.0320 C.ar  1 <1>  -0.1500 
  7 C        3.6110    -1.9010    -0.1960 C.ar  1 <1>  -0.1500 
  8 O        5.1650     2.8110    -0.8370 O.2   1 <1>  -0.5700 
  9 N        3.2580     3.2560     0.1780 N.am  1 <1>  -0.7300 
 10 C        4.5710    -1.3000    -0.9880 C.ar  1 <1>   0.1900 
 11 C        3.3800     4.7290     0.0630 C.3   1 <1>   0.1400 
 12 F        5.3360    -2.0600    -1.7230 F     1 <1>  -0.1900 
 13 C        4.3540     5.2630     1.1130 C.3   1 <1>   0.0200 
 14 C        4.7550     6.6830     0.7670 C.2   1 <1>   0.0070 
 15 N        4.1910     7.7280     1.2660 N.2   1 <1>  -0.3380 
 16 N        5.7260     7.0110    -0.0960 N.pl3 1 <1>   0.0480 
 17 N        4.7910     8.7920     0.7290 N.2   1 <1>  -0.3380 
 18 C        5.6940     8.3450    -0.0720 C.2   1 <1>   0.0370 
 19 C        6.6400     6.1580    -0.8830 C.3   1 <1>   0.0960 
 20 C        7.8730     5.8110    -0.0530 C.3   1 <1>   0.1200 
 21 O        8.8330     5.2880    -0.9110 O.3   1 <1>  -0.5600 
 22 C        9.9820     4.8360    -0.2690 C.3   1 <1>   0.0400 
 23 H        2.0450    -1.5110     1.2140 H     1 <1>   0.1500 
 24 H        5.5210     0.4750    -1.6690 H     1 <1>   0.1500 
 25 H        3.5020    -2.9720    -0.1920 H     1 <1>   0.1500 
 26 H        2.4380     2.9070     0.6850 H     1 <1>   0.3700 
 27 H        2.4150     5.1920     0.1860 H     1 <1>   0.0800 
 28 H        3.7420     4.9690    -0.9220 H     1 <1>   0.0800 
 29 H        5.2330     4.6470     1.1580 H     1 <1>   0.0800 
 30 H        3.8810     5.2520     2.0790 H     1 <1>   0.0800 
 31 H        6.3520     8.9600    -0.6580 H     1 <1>   0.1500 
 32 H        6.9380     6.6980    -1.7630 H     1 <1>   0.0800 
 33 H        6.1310     5.2580    -1.1780 H     1 <1>   0.0800 
 34 H        7.6300     5.0720     0.6920 H     1 <1>   0.0800 
 35 H        8.2830     6.6930     0.4100 H     1 <1>   0.0800 
 36 H       10.6600     4.4670    -1.0180 H     1 <1>   0.0800 
 37 H        9.7210     4.0400     0.4070 H     1 <1>   0.0800 
 38 H       10.4390     5.6530     0.2630 H     1 <1>   0.0800 
@<TRIPOS>BOND
  1   1   2  1   
  2   2   3  ar  
  3   2   4  ar  
  4   3   5  1   
  5   3   6  ar  
  6   4   7  ar  
  7   4  23  1   
  8   5   8  2   
  9   5   9  am  
 10   6  10  ar  
 11   6  24  1   
 12   7  10  ar  
 13   7  25  1   
 14   9  11  1   
 15   9  26  1   
 16  10  12  1   
 17  11  13  1   
 18  11  27  1   
 19  11  28  1   
 20  13  14  1   
 21  13  29  1   
 22  13  30  1   
 23  14  15  2   
 24  14  16  1   
 25  15  17  1   
 26  16  18  1   
 27  16  19  1   
 28  17  18  2   
 29  18  31  1   
 30  19  20  1   
 31  19  32  1   
 32  19  33  1   
 33  20  21  1   
 34  20  34  1   
 35  20  35  1   
 36  21  22  1   
 37  22  36  1   
 38  22  37  1   
 39  22  38  1   
@<TRIPOS>SUBSTRUCTURE
  1 ****   8 GROUP 4 **** **** 0

# MOE 2024.06 (io_trps.svl 2023.06)
