@<TRIPOS>MOLECULE
NONAME
53 57 1 0 0 
SMALL
USER_CHARGES


@<TRIPOS>ATOM
  1 CL      -0.0200    -3.0930     0.8340 Cl    1 <1>  -0.1770 
  2 C       -1.6780    -2.6140     0.5600 C.ar  1 <1>   0.1770 
  3 C       -2.6550    -3.0110     1.4390 C.ar  1 <1>  -0.1500 
  4 C       -1.9650    -1.8300    -0.5630 C.ar  1 <1>  -0.1500 
  5 C       -3.9740    -2.6140     1.1960 C.ar  1 <1>   0.0000 
  6 C       -3.2600    -1.4350    -0.8090 C.ar  1 <1>  -0.1500 
  7 C       -4.2650    -1.8350     0.0800 C.ar  1 <1>  -0.1520 
  8 C       -5.1950    -2.8240     1.8600 C.2   1 <1>  -0.1500 
  9 N       -5.6110    -1.5860     0.0760 N.pl3 1 <1>   0.0330 
 10 C       -6.1880    -2.2020     1.1600 C.2   1 <1>  -0.2370 
 11 C       -7.5970    -2.1280     1.4460 C.2   1 <1>   0.7150 
 12 O       -7.9620    -1.8450     2.5700 O.2   1 <1>  -0.5700 
 13 N       -8.5400    -2.3590     0.4680 N.am  1 <1>  -0.6600 
 14 C       -9.9930    -2.1110     0.7670 C.3   1 <1>   0.1400 
 15 C       -8.2290    -3.1310    -0.7740 C.3   1 <1>   0.1400 
 16 C      -10.8350    -1.9700    -0.5160 C.3   1 <1>   0.1440 
 17 C       -9.4040    -4.0300    -1.1690 C.3   1 <1>  -0.1600 
 18 C      -12.2700    -1.6710    -0.1120 C.ar  1 <1>   0.1670 
 19 C      -10.7190    -3.2530    -1.3840 C.3   1 <1>  -0.1600 
 20 C      -10.4410    -0.6820    -1.2990 C.3   1 <1>  -0.1600 
 21 N      -13.1080    -2.5340     0.4050 N.ar  1 <1>  -0.6200 
 22 C      -12.5950    -0.3660    -0.3290 C.ar  1 <1>  -0.1440 
 23 C      -11.4430     0.4160    -0.9020 C.3   1 <1>  -0.0170 
 24 C      -14.3200    -2.0540     0.6960 C.ar  1 <1>   0.7200 
 25 C      -13.8640     0.0400    -0.0010 C.ar  1 <1>   0.1600 
 26 N      -14.7350    -0.7970     0.5100 N.ar  1 <1>  -0.6200 
 27 N      -15.2290    -2.9410     1.2400 N.pl3 1 <1>  -0.8380 
 28 C      -14.9930    -4.4110     1.2450 C.3   1 <1>   0.1290 
 29 C      -16.4880    -2.4840     1.8900 C.3   1 <1>   0.1290 
 30 H       -2.4220    -3.6110     2.2980 H     1 <1>   0.1500 
 31 H       -1.1610    -1.5470    -1.2180 H     1 <1>   0.1500 
 32 H       -3.5020    -0.8300    -1.6650 H     1 <1>   0.1500 
 33 H       -5.3040    -3.3830     2.7740 H     1 <1>   0.1500 
 34 H       -6.1040    -0.9920    -0.5980 H     1 <1>   0.2700 
 35 H      -10.0920    -1.2190     1.3620 H     1 <1>   0.0800 
 36 H      -10.3720    -2.9340     1.3490 H     1 <1>   0.0800 
 37 H       -7.3580    -3.7450    -0.6160 H     1 <1>   0.0800 
 38 H       -8.0190    -2.4430    -1.5740 H     1 <1>   0.0800 
 39 H       -9.5460    -4.7530    -0.3850 H     1 <1>   0.0800 
 40 H       -9.1590    -4.5750    -2.0630 H     1 <1>   0.0800 
 41 H      -10.8320    -3.0100    -2.4250 H     1 <1>   0.0800 
 42 H      -11.5260    -3.9230    -1.1440 H     1 <1>   0.0800 
 43 H      -10.5420    -0.8470    -2.3570 H     1 <1>   0.0800 
 44 H       -9.4310    -0.3710    -1.1050 H     1 <1>   0.0800 
 45 H      -11.7440     1.0060    -1.7500 H     1 <1>   0.0800 
 46 H      -11.0260     1.0540    -0.1400 H     1 <1>   0.0800 
 47 H      -14.1670     1.0600    -0.1560 H     1 <1>   0.1500 
 48 H      -14.4070    -4.7010     0.3900 H     1 <1>   0.0800 
 49 H      -15.9310    -4.9370     1.2060 H     1 <1>   0.0800 
 50 H      -14.4650    -4.6870     2.1410 H     1 <1>   0.0800 
 51 H      -16.3650    -1.4960     2.2990 H     1 <1>   0.0800 
 52 H      -16.7550    -3.1500     2.6910 H     1 <1>   0.0800 
 53 H      -17.2800    -2.4640     1.1620 H     1 <1>   0.0800 
@<TRIPOS>BOND
  1   1   2  1   
  2   2   3  ar  
  3   2   4  ar  
  4   3   5  ar  
  5   3  30  1   
  6   4   6  ar  
  7   4  31  1   
  8   5   7  ar  
  9   5   8  1   
 10   6   7  ar  
 11   6  32  1   
 12   7   9  1   
 13   8  10  2   
 14   8  33  1   
 15   9  10  1   
 16   9  34  1   
 17  10  11  1   
 18  11  12  2   
 19  11  13  am  
 20  13  14  1   
 21  13  15  1   
 22  14  16  1   
 23  14  35  1   
 24  14  36  1   
 25  15  17  1   
 26  15  37  1   
 27  15  38  1   
 28  16  18  1   
 29  16  19  1   
 30  16  20  1   
 31  17  19  1   
 32  17  39  1   
 33  17  40  1   
 34  18  21  ar  
 35  18  22  ar  
 36  19  41  1   
 37  19  42  1   
 38  20  23  1   
 39  20  43  1   
 40  20  44  1   
 41  21  24  ar  
 42  22  23  1   
 43  22  25  ar  
 44  23  45  1   
 45  23  46  1   
 46  24  26  ar  
 47  24  27  1   
 48  25  26  ar  
 49  25  47  1   
 50  27  28  1   
 51  27  29  1   
 52  28  48  1   
 53  28  49  1   
 54  28  50  1   
 55  29  51  1   
 56  29  52  1   
 57  29  53  1   
@<TRIPOS>SUBSTRUCTURE
  1 ****  13 GROUP 4 **** **** 0

# MOE 2024.06 (io_trps.svl 2023.06)
