@<TRIPOS>MOLECULE
NONAME
43 45 1 0 0 
SMALL
USER_CHARGES


@<TRIPOS>ATOM
  1 O       -0.8930     0.4330     1.9110 O.2   1 <1>  -0.5700 
  2 C       -1.7650     1.0220     1.2970 C.2   1 <1>   0.5440 
  3 N       -2.9310     0.3520     1.0040 N.am  1 <1>  -0.6600 
  4 C       -1.5650     2.3830     0.8740 C.ar  1 <1>   0.0860 
  5 C       -3.9000     0.8090    -0.0250 C.3   1 <1>   0.1400 
  6 C       -3.0990    -1.1030     1.2580 C.3   1 <1>   0.1400 
  7 C       -0.5940     2.6870    -0.0960 C.ar  1 <1>   0.4100 
  8 C       -2.3300     3.4210     1.3850 C.ar  1 <1>  -0.1500 
  9 C       -4.8830    -0.3520    -0.1770 C.3   1 <1>   0.2000 
 10 C       -4.0660    -1.5980     0.1730 C.3   1 <1>  -0.0800 
 11 N       -0.3890     3.9140    -0.5720 N.ar  1 <1>  -0.6200 
 12 N        0.2050     1.6910    -0.6110 N.pl3 1 <1>  -0.8690 
 13 C       -2.1050     4.6890     0.9020 C.ar  1 <1>  -0.1500 
 14 O       -5.8760    -0.2100     0.7790 O.3   1 <1>  -0.6800 
 15 C       -3.3050    -2.1190    -1.0620 C.3   1 <1>   0.0200 
 16 C       -1.1350     4.8760    -0.0680 C.ar  1 <1>   0.1600 
 17 C        1.3680     1.9390    -1.4990 C.3   1 <1>   0.1290 
 18 C       -2.5670    -3.4230    -0.8060 C.2   1 <1>  -0.0400 
 19 O       -1.8270    -3.9200    -1.7610 O.3   1 <1>  -0.0190 
 20 C       -2.4900    -4.2540     0.2450 C.2   1 <1>  -0.1500 
 21 N       -1.2570    -5.0360    -1.4050 N.2   1 <1>  -0.4100 
 22 C       -1.6380    -5.2610    -0.2000 C.2   1 <1>   0.1080 
 23 C       -1.2120    -6.4610     0.6160 C.3   1 <1>  -0.0590 
 24 H       -4.4000     1.7150     0.2700 H     1 <1>   0.0800 
 25 H       -3.3770     0.9730    -0.9520 H     1 <1>   0.0800 
 26 H       -2.1510    -1.6140     1.2210 H     1 <1>   0.0800 
 27 H       -3.5290    -1.2370     2.2350 H     1 <1>   0.0800 
 28 H       -3.0740     3.2310     2.1390 H     1 <1>   0.1500 
 29 H       -5.3510    -0.3900    -1.1460 H     1 <1>   0.0800 
 30 H       -4.7040    -2.3820     0.5410 H     1 <1>   0.0800 
 31 H        0.3000     0.8630    -0.0040 H     1 <1>   0.4000 
 32 H       -2.6700     5.5280     1.2670 H     1 <1>   0.1500 
 33 H       -5.4600    -0.0400     1.6470 H     1 <1>   0.4000 
 34 H       -2.5910    -1.3840    -1.3930 H     1 <1>   0.0800 
 35 H       -4.0000    -2.2880    -1.8660 H     1 <1>   0.0800 
 36 H       -0.9660     5.8710    -0.4450 H     1 <1>   0.1500 
 37 H        1.0820     2.5930    -2.3060 H     1 <1>   0.0800 
 38 H        1.7180     1.0090    -1.9120 H     1 <1>   0.0800 
 39 H        2.1610     2.4020    -0.9380 H     1 <1>   0.0800 
 40 H       -2.9520    -4.1990     1.2130 H     1 <1>   0.1500 
 41 H       -0.7480    -6.1370     1.5280 H     1 <1>   0.0800 
 42 H       -0.5080    -7.0520     0.0580 H     1 <1>   0.0800 
 43 H       -2.0680    -7.0670     0.8470 H     1 <1>   0.0800 
@<TRIPOS>BOND
  1   1   2  2   
  2   2   3  am  
  3   2   4  1   
  4   3   5  1   
  5   3   6  1   
  6   4   7  ar  
  7   4   8  ar  
  8   5   9  1   
  9   5  24  1   
 10   5  25  1   
 11   6  10  1   
 12   6  26  1   
 13   6  27  1   
 14   7  11  ar  
 15   7  12  1   
 16   8  13  ar  
 17   8  28  1   
 18   9  10  1   
 19   9  14  1   
 20   9  29  1   
 21  10  15  1   
 22  10  30  1   
 23  11  16  ar  
 24  12  17  1   
 25  12  31  1   
 26  13  16  ar  
 27  13  32  1   
 28  14  33  1   
 29  15  18  1   
 30  15  34  1   
 31  15  35  1   
 32  16  36  1   
 33  17  37  1   
 34  17  38  1   
 35  17  39  1   
 36  18  19  1   
 37  18  20  2   
 38  19  21  1   
 39  20  22  1   
 40  20  40  1   
 41  21  22  2   
 42  22  23  1   
 43  23  41  1   
 44  23  42  1   
 45  23  43  1   
@<TRIPOS>SUBSTRUCTURE
  1 ****   3 GROUP 4 **** **** 0

# MOE 2024.06 (io_trps.svl 2023.06)
