@<TRIPOS>MOLECULE
NONAME
50 52 1 0 0 
SMALL
USER_CHARGES


@<TRIPOS>ATOM
  1 S        0.7810    -0.3160    -1.3350 S.o2  1 <1>   1.3330 
  2 O        2.0740    -0.9160    -1.0910 O.2   1 <1>  -0.6500 
  3 O        0.2370    -0.3130    -2.6730 O.2   1 <1>  -0.6500 
  4 N       -0.3530    -1.1060    -0.3450 N.am  1 <1>  -0.8490 
  5 C        0.7760     1.3670    -0.6980 C.3   1 <1>  -0.0550 
  6 C       -1.7410    -0.9190    -0.7830 C.3   1 <1>   0.1160 
  7 C       -0.0680    -2.5380    -0.2090 C.3   1 <1>   0.1160 
  8 C        1.6040     1.6500     0.5750 C.3   1 <1>  -0.0800 
  9 C        3.1150     1.5410     0.3500 C.3   1 <1>   0.2200 
 10 C        1.3490     0.7550     1.7930 C.3   1 <1>   0.1200 
 11 N        3.7280     2.8720     0.5560 N.am  1 <1>  -0.7300 
 12 C        3.5590     0.5620     1.4360 C.3   1 <1>   0.1200 
 13 O        2.5830     0.6500     2.4220 O.3   1 <1>  -0.5600 
 14 C        3.7790     3.8470    -0.3990 C.2   1 <1>   0.5440 
 15 O        3.3450     3.5910    -1.5050 O.2   1 <1>  -0.5700 
 16 C        4.3210     5.1560    -0.1050 C.ar  1 <1>   0.0860 
 17 C        4.2220     5.7150     1.1660 C.ar  1 <1>   0.1600 
 18 C        4.9560     5.9190    -1.0730 C.ar  1 <1>  -0.1500 
 19 N        4.6930     6.8920     1.5350 N.ar  1 <1>  -0.6200 
 20 C        5.4560     7.1560    -0.7210 C.ar  1 <1>  -0.1440 
 21 C        5.3000     7.5950     0.5910 C.ar  1 <1>   0.1670 
 22 C        6.1470     7.9990    -1.7870 C.3   1 <1>  -0.0170 
 23 C        5.8460     8.9430     1.0430 C.3   1 <1>  -0.0170 
 24 C        7.0110     9.1120    -1.1850 C.3   1 <1>  -0.1600 
 25 C        6.2240     9.8750    -0.1170 C.3   1 <1>  -0.1600 
 26 H        1.1530     2.0130    -1.4690 H     1 <1>   0.0800 
 27 H       -0.2380     1.6640    -0.5190 H     1 <1>   0.0800 
 28 H       -2.4170    -1.3570    -0.0690 H     1 <1>   0.0800 
 29 H       -1.8990    -1.3830    -1.7440 H     1 <1>   0.0800 
 30 H       -1.9690     0.1290    -0.8670 H     1 <1>   0.0800 
 31 H       -0.7990    -3.0060     0.4280 H     1 <1>   0.0800 
 32 H        0.9030    -2.6820     0.2340 H     1 <1>   0.0800 
 33 H       -0.0810    -3.0150    -1.1750 H     1 <1>   0.0800 
 34 H        1.3660     2.6540     0.8780 H     1 <1>   0.0800 
 35 H        3.3790     1.1700    -0.6260 H     1 <1>   0.0800 
 36 H        1.0450    -0.2410     1.5290 H     1 <1>   0.0800 
 37 H        0.6390     1.1830     2.4790 H     1 <1>   0.0800 
 38 H        4.0630     3.0400     1.5060 H     1 <1>   0.3700 
 39 H        4.5220     0.7980     1.8510 H     1 <1>   0.0800 
 40 H        3.5580    -0.4460     1.0580 H     1 <1>   0.0800 
 41 H        3.7140     5.1530     1.9290 H     1 <1>   0.1500 
 42 H        5.0470     5.5400    -2.0770 H     1 <1>   0.1500 
 43 H        6.7620     7.3710    -2.4080 H     1 <1>   0.0800 
 44 H        5.3900     8.4390    -2.4130 H     1 <1>   0.0800 
 45 H        5.1160     9.4300     1.6640 H     1 <1>   0.0800 
 46 H        6.7160     8.7570     1.6470 H     1 <1>   0.0800 
 47 H        7.8930     8.6820    -0.7420 H     1 <1>   0.0800 
 48 H        7.3230     9.7860    -1.9640 H     1 <1>   0.0800 
 49 H        5.3260    10.2780    -0.5540 H     1 <1>   0.0800 
 50 H        6.8090    10.6960     0.2580 H     1 <1>   0.0800 
@<TRIPOS>BOND
  1   1   2  2   
  2   1   3  2   
  3   1   4  am  
  4   1   5  1   
  5   4   6  1   
  6   4   7  1   
  7   5   8  1   
  8   5  26  1   
  9   5  27  1   
 10   6  28  1   
 11   6  29  1   
 12   6  30  1   
 13   7  31  1   
 14   7  32  1   
 15   7  33  1   
 16   8   9  1   
 17   8  10  1   
 18   8  34  1   
 19   9  11  1   
 20   9  12  1   
 21   9  35  1   
 22  10  13  1   
 23  10  36  1   
 24  10  37  1   
 25  11  14  am  
 26  11  38  1   
 27  12  13  1   
 28  12  39  1   
 29  12  40  1   
 30  14  15  2   
 31  14  16  1   
 32  16  17  ar  
 33  16  18  ar  
 34  17  19  ar  
 35  17  41  1   
 36  18  20  ar  
 37  18  42  1   
 38  19  21  ar  
 39  20  21  ar  
 40  20  22  1   
 41  21  23  1   
 42  22  24  1   
 43  22  43  1   
 44  22  44  1   
 45  23  25  1   
 46  23  45  1   
 47  23  46  1   
 48  24  25  1   
 49  24  47  1   
 50  24  48  1   
 51  25  49  1   
 52  25  50  1   
@<TRIPOS>SUBSTRUCTURE
  1 ****  14 GROUP 4 **** **** 0

# MOE 2024.06 (io_trps.svl 2023.06)
