@<TRIPOS>MOLECULE
NONAME
50 53 1 0 0 
SMALL
USER_CHARGES


@<TRIPOS>ATOM
  1 F       -3.2480    -2.6420     3.0450 F     1 <1>  -0.1900 
  2 C       -4.2800    -2.4820     2.2560 C.ar  1 <1>   0.1900 
  3 C       -4.1210    -2.6710     0.9050 C.ar  1 <1>  -0.1500 
  4 C       -5.5000    -2.1280     2.8410 C.ar  1 <1>  -0.1500 
  5 C       -5.2410    -2.4980     0.0970 C.ar  1 <1>   0.2270 
  6 C       -6.6060    -1.9540     2.0370 C.ar  1 <1>  -0.1500 
  7 N       -5.3650    -2.6410    -1.2510 N.2   1 <1>  -0.5650 
  8 C       -6.4570    -2.1410     0.6590 C.ar  1 <1>  -0.1520 
  9 C       -6.6050    -2.3800    -1.4890 C.2   1 <1>   0.0060 
 10 N       -7.3210    -2.0570    -0.3830 N.pl3 1 <1>   0.0330 
 11 C       -7.2580    -2.4560    -2.8600 C.3   1 <1>   0.3000 
 12 O       -8.0730    -3.5890    -2.9020 O.3   1 <1>  -0.5600 
 13 C       -7.3590    -4.7880    -3.1340 C.3   1 <1>   0.1810 
 14 C       -8.1440    -6.0420    -2.7390 C.2   1 <1>   0.5690 
 15 O       -8.4370    -6.8310    -3.6080 O.2   1 <1>  -0.5700 
 16 N       -8.4570    -6.2820    -1.4260 N.am  1 <1>  -0.6600 
 17 C       -8.2550    -5.3390    -0.3020 C.3   1 <1>   0.1400 
 18 C       -9.0820    -7.5400    -0.9560 C.3   1 <1>   0.1400 
 19 C       -8.9580    -5.9930     0.8850 C.3   1 <1>   0.2000 
 20 C       -8.9740    -7.4870     0.5690 C.3   1 <1>  -0.0800 
 21 O       -8.2880    -5.7480     2.0730 O.3   1 <1>  -0.6800 
 22 C      -10.0940    -8.2480     1.2940 C.3   1 <1>   0.0210 
 23 C      -10.1210    -9.7040     0.8740 C.2   1 <1>   0.1080 
 24 N       -9.1570   -10.5300     1.1370 N.2   1 <1>  -0.7070 
 25 C      -11.1530   -10.3100     0.1640 C.2   1 <1>  -0.1500 
 26 N       -9.5520   -11.6980     0.5980 N.pl3 1 <1>   0.3000 
 27 C      -10.7580   -11.5900     0.0020 C.2   1 <1>  -0.3320 
 28 C      -11.4690   -12.7330    -0.6980 C.3   1 <1>  -0.0600 
 29 H       -3.1790    -2.9440     0.4700 H     1 <1>   0.1500 
 30 H       -5.5540    -1.9970     3.9070 H     1 <1>   0.1500 
 31 H       -7.5620    -1.6840     2.4530 H     1 <1>   0.1500 
 32 H       -8.3200    -1.8410    -0.3380 H     1 <1>   0.2700 
 33 H       -6.5200    -2.5120    -3.6420 H     1 <1>   0.0800 
 34 H       -7.8800    -1.5940    -3.0270 H     1 <1>   0.0800 
 35 H       -7.1210    -4.8360    -4.1810 H     1 <1>   0.0800 
 36 H       -6.4430    -4.7770    -2.5700 H     1 <1>   0.0800 
 37 H       -7.2020    -5.2200    -0.1170 H     1 <1>   0.0800 
 38 H       -8.7100    -4.3930    -0.5280 H     1 <1>   0.0800 
 39 H      -10.1110    -7.5580    -1.2740 H     1 <1>   0.0800 
 40 H       -8.5710    -8.3990    -1.3580 H     1 <1>   0.0800 
 41 H       -9.9570    -5.6020     0.9730 H     1 <1>   0.0800 
 42 H       -8.0260    -7.9220     0.8340 H     1 <1>   0.0800 
 43 H       -7.4160    -6.1890     2.0660 H     1 <1>   0.4000 
 44 H      -11.0470    -7.7980     1.0810 H     1 <1>   0.0800 
 45 H       -9.9310    -8.2000     2.3560 H     1 <1>   0.0800 
 46 H      -12.0580    -9.8370    -0.1710 H     1 <1>   0.1500 
 47 H       -8.9780   -12.5480     0.6540 H     1 <1>   0.2700 
 48 H      -12.4110   -12.3970    -1.0920 H     1 <1>   0.0800 
 49 H      -11.6540   -13.5360    -0.0070 H     1 <1>   0.0800 
 50 H      -10.8700   -13.1010    -1.5130 H     1 <1>   0.0800 
@<TRIPOS>BOND
  1   1   2  1   
  2   2   3  ar  
  3   2   4  ar  
  4   3   5  ar  
  5   3  29  1   
  6   4   6  ar  
  7   4  30  1   
  8   5   7  1   
  9   5   8  ar  
 10   6   8  ar  
 11   6  31  1   
 12   7   9  2   
 13   8  10  1   
 14   9  10  1   
 15   9  11  1   
 16  10  32  1   
 17  11  12  1   
 18  11  33  1   
 19  11  34  1   
 20  12  13  1   
 21  13  14  1   
 22  13  35  1   
 23  13  36  1   
 24  14  15  2   
 25  14  16  am  
 26  16  17  1   
 27  16  18  1   
 28  17  19  1   
 29  17  37  1   
 30  17  38  1   
 31  18  20  1   
 32  18  39  1   
 33  18  40  1   
 34  19  20  1   
 35  19  21  1   
 36  19  41  1   
 37  20  22  1   
 38  20  42  1   
 39  21  43  1   
 40  22  23  1   
 41  22  44  1   
 42  22  45  1   
 43  23  24  2   
 44  23  25  1   
 45  24  26  1   
 46  25  27  2   
 47  25  46  1   
 48  26  27  1   
 49  26  47  1   
 50  27  28  1   
 51  28  48  1   
 52  28  49  1   
 53  28  50  1   
@<TRIPOS>SUBSTRUCTURE
  1 ****  17 GROUP 4 **** **** 0

# MOE 2024.06 (io_trps.svl 2023.06)
