@<TRIPOS>MOLECULE
NONAME
56 58 1 0 0 
SMALL
USER_CHARGES


@<TRIPOS>ATOM
  1 O       -0.2470     0.5670     0.7520 O.2   1 <1>  -0.5700 
  2 C       -0.2420     1.7670     0.6050 C.2   1 <1>   0.5690 
  3 N       -1.2270     2.5710     1.1120 N.am  1 <1>  -0.6600 
  4 C        0.8970     2.3850    -0.2090 C.3   1 <1>   0.1810 
  5 C       -1.2080     4.0550     0.8890 C.3   1 <1>   0.3640 
  6 C       -2.2840     2.0600     2.0320 C.3   1 <1>   0.0600 
  7 O        1.0840     3.7560     0.0470 O.3   1 <1>  -0.5600 
  8 C       -2.5760     4.5660     0.4040 C.ar  1 <1>  -0.1430 
  9 C       -0.0910     4.5370    -0.0740 C.3   1 <1>   0.2610 
 10 C       -3.3110     4.0150    -0.6530 C.ar  1 <1>  -0.1430 
 11 C       -3.0950     5.6680     1.0740 C.ar  1 <1>  -0.1500 
 12 C        0.2290     6.0320     0.1210 C.2   1 <1>   0.5690 
 13 C       -4.5330     4.5750    -0.9980 C.ar  1 <1>  -0.1500 
 14 C       -2.8600     2.8040    -1.4640 C.3   1 <1>  -0.0960 
 15 C       -4.3120     6.2180     0.7200 C.ar  1 <1>  -0.1500 
 16 O       -0.0070     6.5460     1.1940 O.2   1 <1>  -0.5700 
 17 N        0.7630     6.7740    -0.9110 N.am  1 <1>  -0.6600 
 18 C       -5.0340     5.6700    -0.3200 C.ar  1 <1>  -0.1500 
 19 C        1.0020     8.2380    -0.7460 C.3   1 <1>   0.1400 
 20 C        1.1300     6.2090    -2.2410 C.3   1 <1>   0.0600 
 21 C        2.3050     8.5330     0.0220 C.3   1 <1>  -0.0800 
 22 C        2.4470    10.0510     0.2350 C.3   1 <1>  -0.1600 
 23 C        3.5580     7.9710    -0.6810 C.3   1 <1>  -0.1600 
 24 C        3.7310    10.4000     0.9990 C.3   1 <1>  -0.1600 
 25 C        4.8430     8.3270     0.0790 C.3   1 <1>  -0.1600 
 26 C        4.9670     9.8410     0.2860 C.3   1 <1>  -0.1600 
 27 H        0.6990     2.2580    -1.2570 H     1 <1>   0.0800 
 28 H        1.8150     1.8830     0.0330 H     1 <1>   0.0800 
 29 H       -1.0100     4.4880     1.8540 H     1 <1>   0.0800 
 30 H       -3.2560     2.2140     1.5970 H     1 <1>   0.0800 
 31 H       -2.2330     2.5820     2.9710 H     1 <1>   0.0800 
 32 H       -2.1530     1.0080     2.2150 H     1 <1>   0.0800 
 33 H       -0.4460     4.4210    -1.0790 H     1 <1>   0.0800 
 34 H       -2.5470     6.1180     1.8860 H     1 <1>   0.1500 
 35 H       -5.1130     4.1600    -1.8030 H     1 <1>   0.1500 
 36 H       -3.4240     2.7200    -2.3750 H     1 <1>   0.0800 
 37 H       -3.0140     1.9050    -0.8940 H     1 <1>   0.0800 
 38 H       -1.8240     2.8710    -1.7310 H     1 <1>   0.0800 
 39 H       -4.6930     7.0720     1.2530 H     1 <1>   0.1500 
 40 H       -5.9830     6.0920    -0.6000 H     1 <1>   0.1500 
 41 H        1.0290     8.7130    -1.7110 H     1 <1>   0.0800 
 42 H        0.1740     8.6610    -0.2020 H     1 <1>   0.0800 
 43 H        1.8840     6.8170    -2.7090 H     1 <1>   0.0800 
 44 H        0.2610     6.1830    -2.8750 H     1 <1>   0.0800 
 45 H        1.5250     5.2150    -2.1300 H     1 <1>   0.0800 
 46 H        2.2250     8.0730     0.9930 H     1 <1>   0.0800 
 47 H        2.4590    10.5490    -0.7200 H     1 <1>   0.0800 
 48 H        1.5990    10.4170     0.7880 H     1 <1>   0.0800 
 49 H        3.4860     6.9000    -0.7450 H     1 <1>   0.0800 
 50 H        3.6160     8.3650    -1.6810 H     1 <1>   0.0800 
 51 H        3.8180    11.4690     1.0880 H     1 <1>   0.0800 
 52 H        3.6760     9.9890     1.9920 H     1 <1>   0.0800 
 53 H        4.8330     7.8370     1.0370 H     1 <1>   0.0800 
 54 H        5.6970     7.9660    -0.4680 H     1 <1>   0.0800 
 55 H        5.8460    10.0540     0.8690 H     1 <1>   0.0800 
 56 H        5.0790    10.3250    -0.6700 H     1 <1>   0.0800 
@<TRIPOS>BOND
  1   1   2  2   
  2   2   3  am  
  3   2   4  1   
  4   3   5  1   
  5   3   6  1   
  6   4   7  1   
  7   4  27  1   
  8   4  28  1   
  9   5   8  1   
 10   5   9  1   
 11   5  29  1   
 12   6  30  1   
 13   6  31  1   
 14   6  32  1   
 15   7   9  1   
 16   8  10  ar  
 17   8  11  ar  
 18   9  12  1   
 19   9  33  1   
 20  10  13  ar  
 21  10  14  1   
 22  11  15  ar  
 23  11  34  1   
 24  12  16  2   
 25  12  17  am  
 26  13  18  ar  
 27  13  35  1   
 28  14  36  1   
 29  14  37  1   
 30  14  38  1   
 31  15  18  ar  
 32  15  39  1   
 33  17  19  1   
 34  17  20  1   
 35  18  40  1   
 36  19  21  1   
 37  19  41  1   
 38  19  42  1   
 39  20  43  1   
 40  20  44  1   
 41  20  45  1   
 42  21  22  1   
 43  21  23  1   
 44  21  46  1   
 45  22  24  1   
 46  22  47  1   
 47  22  48  1   
 48  23  25  1   
 49  23  49  1   
 50  23  50  1   
 51  24  26  1   
 52  24  51  1   
 53  24  52  1   
 54  25  26  1   
 55  25  53  1   
 56  25  54  1   
 57  26  55  1   
 58  26  56  1   
@<TRIPOS>SUBSTRUCTURE
  1 ****  12 GROUP 4 **** **** 0

# MOE 2024.06 (io_trps.svl 2023.06)
