@<TRIPOS>MOLECULE
NONAME
41 44 1 0 0 
SMALL
USER_CHARGES


@<TRIPOS>ATOM
  1 S       -0.6300     0.5380    -1.5820 S.3   1 <1>  -0.0800 
  2 C       -0.4090     1.8910    -0.4930 C.2   1 <1>  -0.1400 
  3 C        1.0000     0.7490    -2.2070 C.2   1 <1>  -0.1100 
  4 C        0.8120     2.4300    -0.6060 C.2   1 <1>  -0.1810 
  5 C       -1.4880     2.3650     0.4410 C.3   1 <1>   0.0200 
  6 C        1.6210     1.7780    -1.5970 C.2   1 <1>  -0.1500 
  7 C        1.2320     3.6170     0.2640 C.3   1 <1>   0.4610 
  8 C       -1.1070     3.7840     0.8950 C.3   1 <1>   0.1200 
  9 O        0.2510     3.8540     1.2580 O.3   1 <1>  -0.5600 
 10 C        2.5290     3.3000     1.0150 C.3   1 <1>  -0.1600 
 11 C        1.4120     4.8860    -0.5800 C.3   1 <1>  -0.1600 
 12 C        2.9980     4.4900     1.8510 C.3   1 <1>   0.1400 
 13 C        1.9000     6.0710     0.2570 C.3   1 <1>   0.1400 
 14 N        3.1450     5.6900     0.9790 N.am  1 <1>  -0.6600 
 15 C        4.3380     6.3950     0.9050 C.2   1 <1>   0.7160 
 16 O        5.3600     5.7950     1.2070 O.2   1 <1>  -0.5700 
 17 C        4.4480     7.7950     0.4880 C.2   1 <1>   0.2030 
 18 N        3.4940     8.7120     0.4200 N.2   1 <1>  -0.7070 
 19 C        5.6710     8.3700     0.1090 C.2   1 <1>  -0.1500 
 20 N        4.0940     9.8380     0.0100 N.pl3 1 <1>   0.3000 
 21 C        5.4100     9.6600    -0.1870 C.2   1 <1>  -0.3320 
 22 C        6.3010    10.7900    -0.6500 C.3   1 <1>   0.7800 
 23 F        6.1730    11.8130     0.1840 F     1 <1>  -0.3400 
 24 F        5.8500    11.2470    -1.8090 F     1 <1>  -0.3400 
 25 H        1.3240     0.0710    -2.9750 H     1 <1>   0.1500 
 26 H       -1.5550     1.7080     1.2890 H     1 <1>   0.0800 
 27 H       -2.4390     2.3850    -0.0600 H     1 <1>   0.0800 
 28 H        2.6240     2.1070    -1.8050 H     1 <1>   0.1500 
 29 H       -1.6920     4.0700     1.7510 H     1 <1>   0.0800 
 30 H       -1.2870     4.4910     0.1050 H     1 <1>   0.0800 
 31 H        3.3060     3.0490     0.3180 H     1 <1>   0.0800 
 32 H        2.3700     2.4470     1.6480 H     1 <1>   0.0800 
 33 H        0.4940     5.1370    -1.0750 H     1 <1>   0.0800 
 34 H        2.1390     4.6940    -1.3480 H     1 <1>   0.0800 
 35 H        3.9300     4.2480     2.3340 H     1 <1>   0.0800 
 36 H        2.2750     4.7040     2.6210 H     1 <1>   0.0800 
 37 H        1.1490     6.3570     0.9740 H     1 <1>   0.0800 
 38 H        2.0730     6.9010    -0.4030 H     1 <1>   0.0800 
 39 H        6.6070     7.8390     0.0830 H     1 <1>   0.1500 
 40 H        3.5870    10.7240    -0.1260 H     1 <1>   0.2700 
 41 H        7.3440    10.5470    -0.7490 H     1 <1>   0.0800 
@<TRIPOS>BOND
  1   1   2  1   
  2   1   3  1   
  3   2   4  2   
  4   2   5  1   
  5   3   6  2   
  6   3  25  1   
  7   4   6  1   
  8   4   7  1   
  9   5   8  1   
 10   5  26  1   
 11   5  27  1   
 12   6  28  1   
 13   7   9  1   
 14   7  10  1   
 15   7  11  1   
 16   8   9  1   
 17   8  29  1   
 18   8  30  1   
 19  10  12  1   
 20  10  31  1   
 21  10  32  1   
 22  11  13  1   
 23  11  33  1   
 24  11  34  1   
 25  12  14  1   
 26  12  35  1   
 27  12  36  1   
 28  13  14  1   
 29  13  37  1   
 30  13  38  1   
 31  14  15  am  
 32  15  16  2   
 33  15  17  1   
 34  17  18  2   
 35  17  19  1   
 36  18  20  1   
 37  19  21  2   
 38  19  39  1   
 39  20  21  1   
 40  20  40  1   
 41  21  22  1   
 42  22  23  1   
 43  22  24  1   
 44  22  41  1   
@<TRIPOS>SUBSTRUCTURE
  1 ****  13 GROUP 4 **** **** 0

# MOE 2024.06 (io_trps.svl 2023.06)
