@<TRIPOS>MOLECULE
NONAME
44 45 1 0 0 
SMALL
USER_CHARGES


@<TRIPOS>ATOM
  1 O        0.0360     1.1250     0.8560 O.2   1 <1>  -0.5700 
  2 C       -0.0600     2.3100     0.6620 C.2   1 <1>   0.5690 
  3 N       -1.0900     3.0160     1.1750 N.am  1 <1>  -0.7300 
  4 C        0.9680     3.0360    -0.2040 C.3   1 <1>   0.1810 
  5 C       -1.3370     4.4510     0.8840 C.3   1 <1>   0.3640 
  6 O        1.0070     4.4190     0.0680 O.3   1 <1>  -0.5600 
  7 C       -2.7280     4.5670     0.2610 C.ar  1 <1>  -0.1440 
  8 C       -0.2510     5.0860    -0.0310 C.3   1 <1>   0.2610 
  9 C       -3.1470     3.7000    -0.7420 C.ar  1 <1>  -0.1500 
 10 C       -3.5990     5.5580     0.6930 C.ar  1 <1>  -0.1500 
 11 C       -0.0830     6.5710     0.3180 C.2   1 <1>   0.5690 
 12 C       -4.4100     3.8190    -1.2950 C.ar  1 <1>  -0.1500 
 13 C       -4.8620     5.6780     0.1400 C.ar  1 <1>  -0.1500 
 14 O       -1.0420     7.3060     0.2980 O.2   1 <1>  -0.5700 
 15 N        1.1530     7.0300     0.6560 N.am  1 <1>  -0.7300 
 16 C       -5.2690     4.8080    -0.8540 C.ar  1 <1>  -0.1500 
 17 C        1.5100     8.4210     0.9920 C.3   1 <1>   0.1400 
 18 C        2.6790     8.8600     0.1110 C.3   1 <1>  -0.1600 
 19 C        3.0930    10.3050     0.4180 C.3   1 <1>  -0.1600 
 20 C        4.2680    10.7430    -0.4680 C.3   1 <1>  -0.1600 
 21 C        4.6740    12.1850    -0.1650 C.3   1 <1>   0.1200 
 22 O        5.7200    12.5280    -1.0000 O.3   1 <1>  -0.6800 
 23 H       -1.8130     2.5180     1.6970 H     1 <1>   0.3700 
 24 H        0.7310     2.8960    -1.2430 H     1 <1>   0.0800 
 25 H        1.9450     2.6340    -0.0100 H     1 <1>   0.0800 
 26 H       -1.3350     4.9770     1.8240 H     1 <1>   0.0800 
 27 H       -0.5690     5.0240    -1.0560 H     1 <1>   0.0800 
 28 H       -2.4950     2.9210    -1.0990 H     1 <1>   0.1500 
 29 H       -3.2970     6.2530     1.4590 H     1 <1>   0.1500 
 30 H       -4.7250     3.1400    -2.0690 H     1 <1>   0.1500 
 31 H       -5.5250     6.4530     0.4830 H     1 <1>   0.1500 
 32 H        1.9140     6.3420     0.6530 H     1 <1>   0.3700 
 33 H       -6.2510     4.9020    -1.2840 H     1 <1>   0.1500 
 34 H        0.6620     9.0670     0.8300 H     1 <1>   0.0800 
 35 H        1.7850     8.4740     2.0320 H     1 <1>   0.0800 
 36 H        3.5160     8.2050     0.2780 H     1 <1>   0.0800 
 37 H        2.3830     8.7870    -0.9220 H     1 <1>   0.0800 
 38 H        3.3760    10.3850     1.4540 H     1 <1>   0.0800 
 39 H        2.2550    10.9600     0.2480 H     1 <1>   0.0800 
 40 H        3.9780    10.6730    -1.5030 H     1 <1>   0.0800 
 41 H        5.1060    10.0910    -0.2960 H     1 <1>   0.0800 
 42 H        5.0020    12.2960     0.8550 H     1 <1>   0.0800 
 43 H        3.8610    12.8650    -0.3570 H     1 <1>   0.0800 
 44 H        6.4770    11.9250    -0.8670 H     1 <1>   0.4000 
@<TRIPOS>BOND
  1   1   2  2   
  2   2   3  am  
  3   2   4  1   
  4   3   5  1   
  5   3  23  1   
  6   4   6  1   
  7   4  24  1   
  8   4  25  1   
  9   5   7  1   
 10   5   8  1   
 11   5  26  1   
 12   6   8  1   
 13   7   9  ar  
 14   7  10  ar  
 15   8  11  1   
 16   8  27  1   
 17   9  12  ar  
 18   9  28  1   
 19  10  13  ar  
 20  10  29  1   
 21  11  14  2   
 22  11  15  am  
 23  12  16  ar  
 24  12  30  1   
 25  13  16  ar  
 26  13  31  1   
 27  15  17  1   
 28  15  32  1   
 29  16  33  1   
 30  17  18  1   
 31  17  34  1   
 32  17  35  1   
 33  18  19  1   
 34  18  36  1   
 35  18  37  1   
 36  19  20  1   
 37  19  38  1   
 38  19  39  1   
 39  20  21  1   
 40  20  40  1   
 41  20  41  1   
 42  21  22  1   
 43  21  42  1   
 44  21  43  1   
 45  22  44  1   
@<TRIPOS>SUBSTRUCTURE
  1 ****  11 GROUP 4 **** **** 0

# MOE 2024.06 (io_trps.svl 2023.06)
