@<TRIPOS>MOLECULE
NONAME
59 62 1 0 0 
SMALL
USER_CHARGES


@<TRIPOS>ATOM
  1 O       -1.4520     2.7650     2.0120 O.3   1 <1>  -0.6800 
  2 C       -1.6590     2.1610     0.7790 C.3   1 <1>   0.1200 
  3 C       -0.6160     2.6310    -0.2750 C.3   1 <1>   0.0000 
  4 C       -0.4410     4.1790    -0.3350 C.3   1 <1>   0.4230 
  5 C        0.7580     1.9720     0.0350 C.3   1 <1>  -0.1600 
  6 C       -1.0860     2.1380    -1.6740 C.3   1 <1>  -0.1600 
  7 N       -1.7360     4.9210    -0.6580 N.4   1 <1>  -0.9590 
  8 C        0.3670     4.7320     0.8780 C.3   1 <1>   0.3430 
  9 C        1.4600     2.5300     1.2780 C.3   1 <1>   0.3430 
 10 C       -1.8250     3.2140    -2.4970 C.3   1 <1>  -0.1600 
 11 C       -2.6240     4.1840    -1.6250 C.3   1 <1>   0.3430 
 12 C       -2.5250     5.3410     0.5450 C.3   1 <1>   0.3430 
 13 N        1.6560     3.9930     1.1050 N.4   1 <1>  -0.9590 
 14 C       -3.5460     6.4170     0.1730 C.3   1 <1>  -0.1600 
 15 C        2.4450     4.5990     2.2030 C.3   1 <1>   0.5240 
 16 C       -4.2660     6.9300     1.4250 C.3   1 <1>  -0.1600 
 17 C        3.0190     5.8990     1.6850 C.2   1 <1>  -0.1810 
 18 C       -5.2860     8.0130     1.0630 C.3   1 <1>  -0.2400 
 19 C        3.2860     6.2680     0.4000 C.2   1 <1>  -0.0260 
 20 C        3.4180     6.9770     2.4600 C.2   1 <1>   0.1390 
 21 N        3.0870     5.5970    -0.7960 N.2   1 <1>  -0.5760 
 22 N        3.8470     7.5270     0.4800 N.pl3 1 <1>   0.6010 
 23 N        3.9010     7.9560     1.7530 N.2   1 <1>  -0.7070 
 24 C        3.5160     6.2040    -1.8620 C.2   1 <1>   0.3760 
 25 C        4.2830     8.1490    -0.6690 C.2   1 <1>  -0.1810 
 26 C        4.1250     7.4910    -1.8460 C.2   1 <1>  -0.1360 
 27 H       -2.0120     2.3330     2.6990 H     1 <1>   0.4000 
 28 H       -1.5970     1.0930     0.9170 H     1 <1>   0.0800 
 29 H       -2.6640     2.3920     0.4690 H     1 <1>   0.0800 
 30 H        0.2050     4.3450    -1.1810 H     1 <1>   0.0800 
 31 H        1.4300     2.0960    -0.7970 H     1 <1>   0.0800 
 32 H        0.6280     0.9110     0.1670 H     1 <1>   0.0800 
 33 H       -0.2510     1.8050    -2.2690 H     1 <1>   0.0800 
 34 H       -1.7260     1.2770    -1.5620 H     1 <1>   0.0800 
 35 H       -1.4650     5.7910    -1.1380 H     1 <1>   0.4500 
 36 H       -0.2340     4.6620     1.7680 H     1 <1>   0.0800 
 37 H        0.5880     5.7720     0.6980 H     1 <1>   0.0800 
 38 H        2.4140     2.0400     1.4020 H     1 <1>   0.0800 
 39 H        0.8640     2.3360     2.1560 H     1 <1>   0.0800 
 40 H       -2.4940     2.7290    -3.1880 H     1 <1>   0.0800 
 41 H       -1.1230     3.7750    -3.0900 H     1 <1>   0.0800 
 42 H       -3.3640     3.6200    -1.0800 H     1 <1>   0.0800 
 43 H       -3.1480     4.8890    -2.2520 H     1 <1>   0.0800 
 44 H       -3.0320     4.4920     0.9760 H     1 <1>   0.0800 
 45 H       -1.8710     5.7500     1.2960 H     1 <1>   0.0800 
 46 H        2.2630     4.1690     0.2770 H     1 <1>   0.4500 
 47 H       -3.0470     7.2450    -0.3010 H     1 <1>   0.0800 
 48 H       -4.2830     6.0200    -0.5040 H     1 <1>   0.0800 
 49 H        1.8250     4.7710     3.0680 H     1 <1>   0.0800 
 50 H        3.2570     3.9460     2.4820 H     1 <1>   0.0800 
 51 H       -4.7800     6.1200     1.9160 H     1 <1>   0.0800 
 52 H       -3.5550     7.3440     2.1210 H     1 <1>   0.0800 
 53 H       -6.0330     7.6260     0.3920 H     1 <1>   0.0800 
 54 H       -4.8030     8.8540     0.5970 H     1 <1>   0.0800 
 55 H       -5.7820     8.3620     1.9530 H     1 <1>   0.0800 
 56 H        3.3540     7.0310     3.5370 H     1 <1>   0.1500 
 57 H        3.4090     5.7240    -2.8190 H     1 <1>   0.0600 
 58 H        4.7260     9.1210    -0.5490 H     1 <1>   0.1500 
 59 H        4.4480     7.9110    -2.7830 H     1 <1>   0.1500 
@<TRIPOS>BOND
  1   1   2  1   
  2   1  27  1   
  3   2   3  1   
  4   2  28  1   
  5   2  29  1   
  6   3   4  1   
  7   3   5  1   
  8   3   6  1   
  9   4   7  1   
 10   4   8  1   
 11   4  30  1   
 12   5   9  1   
 13   5  31  1   
 14   5  32  1   
 15   6  10  1   
 16   6  33  1   
 17   6  34  1   
 18   7  11  1   
 19   7  12  1   
 20   7  35  1   
 21   8  13  1   
 22   8  36  1   
 23   8  37  1   
 24   9  13  1   
 25   9  38  1   
 26   9  39  1   
 27  10  11  1   
 28  10  40  1   
 29  10  41  1   
 30  11  42  1   
 31  11  43  1   
 32  12  14  1   
 33  12  44  1   
 34  12  45  1   
 35  13  15  1   
 36  13  46  1   
 37  14  16  1   
 38  14  47  1   
 39  14  48  1   
 40  15  17  1   
 41  15  49  1   
 42  15  50  1   
 43  16  18  1   
 44  16  51  1   
 45  16  52  1   
 46  17  19  2   
 47  17  20  1   
 48  18  53  1   
 49  18  54  1   
 50  18  55  1   
 51  19  21  1   
 52  19  22  1   
 53  20  23  2   
 54  20  56  1   
 55  21  24  2   
 56  22  23  1   
 57  22  25  1   
 58  24  26  1   
 59  24  57  1   
 60  25  26  2   
 61  25  58  1   
 62  26  59  1   
@<TRIPOS>SUBSTRUCTURE
  1 ****   8 GROUP 4 **** **** 0

# MOE 2024.06 (io_trps.svl 2023.06)
