@<TRIPOS>MOLECULE
NONAME
45 47 1 0 0 
SMALL
USER_CHARGES


@<TRIPOS>ATOM
  1 S       -0.6620     0.4010     1.6210 S.3   1 <1>  -0.0800 
  2 C       -1.6840     0.7000     0.2220 C.2   1 <1>  -0.1400 
  3 C        0.6010     1.4350     0.9750 C.2   1 <1>  -0.1100 
  4 C       -1.0690     1.5310    -0.6400 C.2   1 <1>  -0.1500 
  5 C       -3.0440     0.0290     0.1860 C.3   1 <1>   0.0200 
  6 C        0.2320     1.9490    -0.2130 C.2   1 <1>  -0.1500 
  7 C       -2.9140    -1.4830    -0.0390 C.3   1 <1>  -0.1600 
  8 C       -4.2910    -2.1730    -0.0900 C.3   1 <1>  -0.0990 
  9 C       -4.2380    -3.6790    -0.3210 C.2   1 <1>   0.5690 
 10 O       -3.1740    -4.2100    -0.5350 O.2   1 <1>  -0.5700 
 11 N       -5.3990    -4.4000    -0.2890 N.am  1 <1>  -0.6600 
 12 C       -6.7600    -3.8760    -0.0200 C.3   1 <1>   0.1400 
 13 C       -5.4350    -5.8680    -0.4970 C.3   1 <1>   0.1400 
 14 C       -7.6800    -5.0950    -0.0960 C.3   1 <1>   0.2000 
 15 C       -6.7770    -6.3150     0.0850 C.3   1 <1>  -0.0800 
 16 O       -8.6420    -5.0660     0.9020 O.3   1 <1>  -0.6800 
 17 C       -7.3580    -7.5810    -0.5670 C.3   1 <1>  -0.0170 
 18 C       -6.4570    -8.7860    -0.3570 C.ar  1 <1>   0.1670 
 19 N       -5.4630    -8.9340    -1.2190 N.ar  1 <1>  -0.6200 
 20 C       -6.7030    -9.6530     0.6980 C.ar  1 <1>  -0.1500 
 21 C       -4.6810    -9.9830    -1.0210 C.ar  1 <1>   0.1600 
 22 C       -5.8820   -10.7430     0.8920 C.ar  1 <1>  -0.1500 
 23 C       -4.8430   -10.9030     0.0010 C.ar  1 <1>  -0.1500 
 24 H        1.4950     1.5480     1.5610 H     1 <1>   0.1500 
 25 H       -1.4760     1.8750    -1.5740 H     1 <1>   0.1500 
 26 H       -3.5540     0.2230     1.1130 H     1 <1>   0.0800 
 27 H       -3.6220     0.4610    -0.6110 H     1 <1>   0.0800 
 28 H        0.8250     2.6120    -0.8180 H     1 <1>   0.1500 
 29 H       -2.3900    -1.6590    -0.9640 H     1 <1>   0.0800 
 30 H       -2.3300    -1.9180     0.7540 H     1 <1>   0.0800 
 31 H       -4.8720    -1.7390    -0.8830 H     1 <1>   0.0800 
 32 H       -4.8000    -1.9950     0.8390 H     1 <1>   0.0800 
 33 H       -6.7860    -3.4350     0.9610 H     1 <1>   0.0800 
 34 H       -7.0340    -3.1500    -0.7650 H     1 <1>   0.0800 
 35 H       -5.3840    -6.0750    -1.5530 H     1 <1>   0.0800 
 36 H       -4.6080    -6.3530    -0.0050 H     1 <1>   0.0800 
 37 H       -8.1800    -5.1140    -1.0500 H     1 <1>   0.0800 
 38 H       -6.6200    -6.4950     1.1340 H     1 <1>   0.0800 
 39 H       -8.2200    -5.1160     1.7810 H     1 <1>   0.4000 
 40 H       -7.4900    -7.4250    -1.6230 H     1 <1>   0.0800 
 41 H       -8.3270    -7.7830    -0.1470 H     1 <1>   0.0800 
 42 H       -7.5280    -9.4780     1.3640 H     1 <1>   0.1500 
 43 H       -3.8660   -10.1180    -1.7110 H     1 <1>   0.1500 
 44 H       -6.0440   -11.4350     1.7010 H     1 <1>   0.1500 
 45 H       -4.1640   -11.7300     0.0950 H     1 <1>   0.1500 
@<TRIPOS>BOND
  1   1   2  1   
  2   1   3  1   
  3   2   4  2   
  4   2   5  1   
  5   3   6  2   
  6   3  24  1   
  7   4   6  1   
  8   4  25  1   
  9   5   7  1   
 10   5  26  1   
 11   5  27  1   
 12   6  28  1   
 13   7   8  1   
 14   7  29  1   
 15   7  30  1   
 16   8   9  1   
 17   8  31  1   
 18   8  32  1   
 19   9  10  2   
 20   9  11  am  
 21  11  12  1   
 22  11  13  1   
 23  12  14  1   
 24  12  33  1   
 25  12  34  1   
 26  13  15  1   
 27  13  35  1   
 28  13  36  1   
 29  14  15  1   
 30  14  16  1   
 31  14  37  1   
 32  15  17  1   
 33  15  38  1   
 34  16  39  1   
 35  17  18  1   
 36  17  40  1   
 37  17  41  1   
 38  18  19  ar  
 39  18  20  ar  
 40  19  21  ar  
 41  20  22  ar  
 42  20  42  1   
 43  21  23  ar  
 44  21  43  1   
 45  22  23  ar  
 46  22  44  1   
 47  23  45  1   
@<TRIPOS>SUBSTRUCTURE
  1 ****   9 GROUP 4 **** **** 0

# MOE 2024.06 (io_trps.svl 2023.06)
