@<TRIPOS>MOLECULE
NONAME
40 42 1 0 0 
SMALL
USER_CHARGES


@<TRIPOS>ATOM
  1 N       -1.0250     0.2380     0.8670 N.ar  1 <1>  -0.6200 
  2 C       -1.7630     1.0190     0.1020 C.ar  1 <1>   0.4100 
  3 C        0.1050     0.7560     1.2990 C.ar  1 <1>   0.4760 
  4 N       -2.9580     0.5000    -0.3390 N.pl3 1 <1>  -0.8380 
  5 C       -1.3490     2.3030    -0.2320 C.ar  1 <1>  -0.1440 
  6 N        0.5970     1.9560     1.0560 N.ar  1 <1>  -0.6200 
  7 C        0.9500    -0.1320     2.1800 C.3   1 <1>  -0.0970 
  8 C       -2.9540    -0.7720    -1.1210 C.3   1 <1>   0.2090 
  9 C       -4.1830     0.7460     0.4610 C.3   1 <1>   0.2090 
 10 C       -0.1480     2.7180     0.2810 C.ar  1 <1>   0.1600 
 11 C       -2.1620     3.2240    -1.1350 C.3   1 <1>  -0.0160 
 12 C       -3.2310    -1.9790    -0.2100 C.3   1 <1>   0.1000 
 13 C       -4.4690    -0.4500     1.3770 C.3   1 <1>  -0.1600 
 14 C       -1.8620     2.9390    -2.6090 C.3   1 <1>  -0.2400 
 15 C       -3.3070    -3.2600    -1.0270 C.2   1 <1>   0.0060 
 16 C       -4.5240    -1.7730     0.5960 C.3   1 <1>  -0.1600 
 17 N       -3.9720    -3.4130    -2.1220 N.2   1 <1>  -0.3380 
 18 N       -2.6810    -4.3850    -0.6850 N.pl3 1 <1>   0.0330 
 19 N       -3.7850    -4.6720    -2.5240 N.2   1 <1>  -0.3380 
 20 C       -3.0160    -5.2300    -1.6560 C.2   1 <1>   0.0360 
 21 H        0.3350    -0.8670     2.6650 H     1 <1>   0.0800 
 22 H        1.4430     0.4580     2.9290 H     1 <1>   0.0800 
 23 H        1.6870    -0.6280     1.5780 H     1 <1>   0.0800 
 24 H       -2.0000    -0.8960    -1.6030 H     1 <1>   0.0800 
 25 H       -3.7090    -0.7120    -1.8860 H     1 <1>   0.0800 
 26 H       -5.0110     0.9030    -0.2080 H     1 <1>   0.0800 
 27 H       -4.0540     1.6350     1.0560 H     1 <1>   0.0800 
 28 H        0.2250     3.7010     0.0530 H     1 <1>   0.1500 
 29 H       -1.9270     4.2510    -0.9150 H     1 <1>   0.0800 
 30 H       -3.2130     3.0890    -0.9510 H     1 <1>   0.0800 
 31 H       -2.4060    -2.0610     0.4750 H     1 <1>   0.0800 
 32 H       -5.4020    -0.2900     1.8860 H     1 <1>   0.0800 
 33 H       -3.6940    -0.5000     2.1220 H     1 <1>   0.0800 
 34 H       -0.8160     3.0840    -2.8130 H     1 <1>   0.0800 
 35 H       -2.4340     3.5970    -3.2380 H     1 <1>   0.0800 
 36 H       -2.1220     1.9220    -2.8450 H     1 <1>   0.0800 
 37 H       -4.6630    -2.5930     1.2780 H     1 <1>   0.0800 
 38 H       -5.3620    -1.7560    -0.0800 H     1 <1>   0.0800 
 39 H       -2.0860    -4.5540     0.1280 H     1 <1>   0.2700 
 40 H       -2.6790    -6.2500    -1.6990 H     1 <1>   0.1500 
@<TRIPOS>BOND
  1   1   2  ar  
  2   1   3  ar  
  3   2   4  1   
  4   2   5  ar  
  5   3   6  ar  
  6   3   7  1   
  7   4   8  1   
  8   4   9  1   
  9   5  10  ar  
 10   5  11  1   
 11   6  10  ar  
 12   7  21  1   
 13   7  22  1   
 14   7  23  1   
 15   8  12  1   
 16   8  24  1   
 17   8  25  1   
 18   9  13  1   
 19   9  26  1   
 20   9  27  1   
 21  10  28  1   
 22  11  14  1   
 23  11  29  1   
 24  11  30  1   
 25  12  15  1   
 26  12  16  1   
 27  12  31  1   
 28  13  16  1   
 29  13  32  1   
 30  13  33  1   
 31  14  34  1   
 32  14  35  1   
 33  14  36  1   
 34  15  17  2   
 35  15  18  1   
 36  16  37  1   
 37  16  38  1   
 38  17  19  1   
 39  18  20  1   
 40  18  39  1   
 41  19  20  2   
 42  20  40  1   
@<TRIPOS>SUBSTRUCTURE
  1 ****   8 GROUP 4 **** **** 0

# MOE 2024.06 (io_trps.svl 2023.06)
