@<TRIPOS>MOLECULE
NONAME
40 41 1 0 0 
SMALL
USER_CHARGES


@<TRIPOS>ATOM
  1 S       -0.2700     0.0830    -0.3100 S.o2  1 <1>   1.0900 
  2 O        0.7000     0.6840    -1.1990 O.2   1 <1>  -0.6500 
  3 O       -1.5800     0.6500    -0.1010 O.2   1 <1>  -0.6500 
  4 C        0.5250    -0.2490     1.2290 C.3   1 <1>  -0.0550 
  5 C       -0.3920    -1.6370    -0.7030 C.3   1 <1>  -0.0550 
  6 C        1.4900    -1.3830     0.9160 C.3   1 <1>   0.2000 
  7 C        0.9190    -2.2800    -0.2300 C.3   1 <1>   0.1900 
  8 O        2.6860    -0.8150     0.4950 O.3   1 <1>  -0.6800 
  9 N        0.7080    -3.6880     0.1950 N.3   1 <1>  -0.8100 
 10 C        0.0440    -4.5140    -0.8480 C.3   1 <1>   0.2530 
 11 C        1.9910    -4.3270     0.5700 C.3   1 <1>   0.0300 
 12 C       -0.2590    -5.9320    -0.3650 C.ar  1 <1>  -0.1430 
 13 C       -1.2510    -6.1980     0.5740 C.ar  1 <1>  -0.1430 
 14 C        0.4800    -6.9820    -0.8900 C.ar  1 <1>  -0.1500 
 15 C       -1.4810    -7.5060     0.9680 C.ar  1 <1>  -0.1500 
 16 C       -2.0900    -5.0870     1.1900 C.3   1 <1>  -0.0970 
 17 C        0.2530    -8.2980    -0.5010 C.ar  1 <1>  -0.1430 
 18 C       -0.7390    -8.5450     0.4390 C.ar  1 <1>  -0.1500 
 19 C        1.0900    -9.4420    -1.0920 C.3   1 <1>   1.1630 
 20 F        2.2280    -9.6170    -0.4320 F     1 <1>  -0.3400 
 21 F        1.4260    -9.2300    -2.3600 F     1 <1>  -0.3400 
 22 F        0.4630   -10.6130    -1.0680 F     1 <1>  -0.3400 
 23 H        1.0260     0.6100     1.6320 H     1 <1>   0.0800 
 24 H       -0.2010    -0.5990     1.9360 H     1 <1>   0.0800 
 25 H       -1.2130    -2.0580    -0.1560 H     1 <1>   0.0800 
 26 H       -0.5420    -1.7820    -1.7550 H     1 <1>   0.0800 
 27 H        1.6930    -1.9410     1.8130 H     1 <1>   0.0800 
 28 H        1.6170    -2.2680    -1.0520 H     1 <1>   0.0800 
 29 H        2.5400    -0.1970    -0.2580 H     1 <1>   0.4000 
 30 H       -0.8920    -4.0740    -1.1410 H     1 <1>   0.0800 
 31 H        0.6680    -4.5530    -1.7250 H     1 <1>   0.0800 
 32 H        1.8150    -5.3090     0.9740 H     1 <1>   0.0800 
 33 H        2.5080    -3.7670     1.3270 H     1 <1>   0.0800 
 34 H        2.6350    -4.4140    -0.2880 H     1 <1>   0.0800 
 35 H        1.2490    -6.7710    -1.6140 H     1 <1>   0.1500 
 36 H       -2.2430    -7.7260     1.6950 H     1 <1>   0.1500 
 37 H       -2.8070    -5.4840     1.8850 H     1 <1>   0.0800 
 38 H       -2.6230    -4.5560     0.4230 H     1 <1>   0.0800 
 39 H       -1.4550    -4.4000     1.7180 H     1 <1>   0.0800 
 40 H       -0.9430    -9.5500     0.7700 H     1 <1>   0.1500 
@<TRIPOS>BOND
  1   1   2  2   
  2   1   3  2   
  3   1   4  1   
  4   1   5  1   
  5   4   6  1   
  6   4  23  1   
  7   4  24  1   
  8   5   7  1   
  9   5  25  1   
 10   5  26  1   
 11   6   7  1   
 12   6   8  1   
 13   6  27  1   
 14   7   9  1   
 15   7  28  1   
 16   8  29  1   
 17   9  10  1   
 18   9  11  1   
 19  10  12  1   
 20  10  30  1   
 21  10  31  1   
 22  11  32  1   
 23  11  33  1   
 24  11  34  1   
 25  12  13  ar  
 26  12  14  ar  
 27  13  15  ar  
 28  13  16  1   
 29  14  17  ar  
 30  14  35  1   
 31  15  18  ar  
 32  15  36  1   
 33  16  37  1   
 34  16  38  1   
 35  16  39  1   
 36  17  18  ar  
 37  17  19  1   
 38  18  40  1   
 39  19  20  1   
 40  19  21  1   
 41  19  22  1   
@<TRIPOS>SUBSTRUCTURE
  1 ****  10 GROUP 4 **** **** 0

# MOE 2024.06 (io_trps.svl 2023.06)
