@<TRIPOS>MOLECULE
NONAME
57 60 1 0 0 
SMALL
USER_CHARGES


@<TRIPOS>ATOM
  1 O        0.0470    -0.0710    -0.7330 O.2   1 <1>  -0.5700 
  2 C        0.9770    -0.8350    -0.7410 C.2   1 <1>   0.5690 
  3 N        1.4190    -1.3970    -1.8860 N.am  1 <1>  -0.7300 
  4 C        1.6890    -1.2090     0.5410 C.3   1 <1>  -0.0990 
  5 C        2.5950    -2.2900    -1.9400 C.3   1 <1>   0.1400 
  6 C        3.2160    -1.1760     0.3400 C.3   1 <1>  -0.0800 
  7 C        3.6990    -1.7250    -1.0270 C.3   1 <1>  -0.0800 
  8 C        4.0000    -1.9390     1.4120 C.3   1 <1>  -0.1600 
  9 C        4.7960    -2.7480    -0.7080 C.3   1 <1>  -0.1600 
 10 C        5.2750    -2.3540     0.6840 C.3   1 <1>   0.2200 
 11 N        6.0600    -3.4360     1.3500 N.am  1 <1>  -0.6600 
 12 C        7.4340    -3.3980     1.4680 C.2   1 <1>   0.5690 
 13 C        5.3040    -4.6140     1.8780 C.3   1 <1>   0.0600 
 14 O        8.0400    -4.2880     2.0210 O.2   1 <1>  -0.5700 
 15 C        8.2740    -2.2420     0.9310 C.3   1 <1>   0.0440 
 16 C        8.4240    -2.2590    -0.5930 C.ar  1 <1>  -0.1440 
 17 C        8.0100    -1.2010    -1.4030 C.ar  1 <1>   0.0820 
 18 C        9.0110    -3.3720    -1.1770 C.ar  1 <1>  -0.1500 
 19 O        7.3970    -0.1460    -0.8090 O.3   1 <1>  -0.3620 
 20 C        8.2220    -1.2640    -2.7790 C.ar  1 <1>  -0.1500 
 21 C        9.2000    -3.4360    -2.5450 C.ar  1 <1>  -0.1500 
 22 C        6.7290     0.8570    -1.5490 C.3   1 <1>   0.2630 
 23 C        8.8110    -2.3790    -3.3460 C.ar  1 <1>  -0.1500 
 24 C        5.6990     1.5480    -0.6640 C.ar  1 <1>  -0.1440 
 25 C        5.9450     1.7800     0.6820 C.ar  1 <1>  -0.1500 
 26 C        4.4870     1.9510    -1.2070 C.ar  1 <1>  -0.1500 
 27 C        4.9920     2.3970     1.4740 C.ar  1 <1>  -0.1500 
 28 C        3.5320     2.5660    -0.4160 C.ar  1 <1>  -0.1500 
 29 C        3.7840     2.7890     0.9250 C.ar  1 <1>  -0.1500 
 30 H        0.9190    -1.1770    -2.7490 H     1 <1>   0.3700 
 31 H        1.4050    -0.5290     1.3240 H     1 <1>   0.0800 
 32 H        1.3650    -2.1950     0.8150 H     1 <1>   0.0800 
 33 H        2.2980    -3.2690    -1.6050 H     1 <1>   0.0800 
 34 H        2.9550    -2.3650    -2.9520 H     1 <1>   0.0800 
 35 H        3.5210    -0.1450     0.3890 H     1 <1>   0.0800 
 36 H        4.1600    -0.9080    -1.5550 H     1 <1>   0.0800 
 37 H        3.4350    -2.7980     1.7230 H     1 <1>   0.0800 
 38 H        4.2160    -1.3160     2.2610 H     1 <1>   0.0800 
 39 H        5.5970    -2.7090    -1.4240 H     1 <1>   0.0800 
 40 H        4.3840    -3.7400    -0.6880 H     1 <1>   0.0800 
 41 H        5.8690    -1.4670     0.5890 H     1 <1>   0.0800 
 42 H        4.5150    -4.8920     1.2050 H     1 <1>   0.0800 
 43 H        4.8850    -4.3710     2.8380 H     1 <1>   0.0800 
 44 H        5.9550    -5.4640     1.9960 H     1 <1>   0.0800 
 45 H        7.8770    -1.3150     1.2930 H     1 <1>   0.0800 
 46 H        9.2580    -2.3260     1.3550 H     1 <1>   0.0800 
 47 H        9.3260    -4.1990    -0.5610 H     1 <1>   0.1500 
 48 H        7.9440    -0.4570    -3.4290 H     1 <1>   0.1500 
 49 H        9.6550    -4.3080    -2.9830 H     1 <1>   0.1500 
 50 H        7.4630     1.5590    -1.9040 H     1 <1>   0.0800 
 51 H        6.2270     0.3940    -2.3790 H     1 <1>   0.0800 
 52 H        8.9690    -2.4270    -4.4090 H     1 <1>   0.1500 
 53 H        6.8820     1.4810     1.1200 H     1 <1>   0.1500 
 54 H        4.2730     1.7860    -2.2490 H     1 <1>   0.1500 
 55 H        5.1900     2.5720     2.5170 H     1 <1>   0.1500 
 56 H        2.5910     2.8680    -0.8440 H     1 <1>   0.1500 
 57 H        3.0400     3.2660     1.5400 H     1 <1>   0.1500 
@<TRIPOS>BOND
  1   1   2  2   
  2   2   3  am  
  3   2   4  1   
  4   3   5  1   
  5   3  30  1   
  6   4   6  1   
  7   4  31  1   
  8   4  32  1   
  9   5   7  1   
 10   5  33  1   
 11   5  34  1   
 12   6   7  1   
 13   6   8  1   
 14   6  35  1   
 15   7   9  1   
 16   7  36  1   
 17   8  10  1   
 18   8  37  1   
 19   8  38  1   
 20   9  10  1   
 21   9  39  1   
 22   9  40  1   
 23  10  11  1   
 24  10  41  1   
 25  11  12  am  
 26  11  13  1   
 27  12  14  2   
 28  12  15  1   
 29  13  42  1   
 30  13  43  1   
 31  13  44  1   
 32  15  16  1   
 33  15  45  1   
 34  15  46  1   
 35  16  17  ar  
 36  16  18  ar  
 37  17  19  1   
 38  17  20  ar  
 39  18  21  ar  
 40  18  47  1   
 41  19  22  1   
 42  20  23  ar  
 43  20  48  1   
 44  21  23  ar  
 45  21  49  1   
 46  22  24  1   
 47  22  50  1   
 48  22  51  1   
 49  23  52  1   
 50  24  25  ar  
 51  24  26  ar  
 52  25  27  ar  
 53  25  53  1   
 54  26  28  ar  
 55  26  54  1   
 56  27  29  ar  
 57  27  55  1   
 58  28  29  ar  
 59  28  56  1   
 60  29  57  1   
@<TRIPOS>SUBSTRUCTURE
  1 ****  10 GROUP 4 **** **** 0

# MOE 2024.06 (io_trps.svl 2023.06)
