@<TRIPOS>MOLECULE
NONAME
40 42 1 0 0 
SMALL
USER_CHARGES


@<TRIPOS>ATOM
  1 CL       2.1920    -1.5810     3.5910 Cl    1 <1>  -0.1230 
  2 C        1.9020    -2.2160     1.9830 C.2   1 <1>   0.1230 
  3 C        1.9630    -1.5300     0.8180 C.2   1 <1>  -0.3020 
  4 C        1.5680    -3.5320     1.7040 C.2   1 <1>  -0.1500 
  5 N        1.6730    -2.3830    -0.1970 N.pl3 1 <1>   0.0480 
  6 C        1.4250    -3.6340     0.3390 C.2   1 <1>  -0.2370 
  7 C        1.6480    -1.9880    -1.6210 C.3   1 <1>   0.0160 
  8 C        1.0810    -4.8050    -0.4260 C.2   1 <1>   0.7150 
  9 O        0.9440    -4.7830    -1.6350 O.2   1 <1>  -0.5700 
 10 N        0.8910    -5.9840     0.2210 N.am  1 <1>  -0.7300 
 11 C        0.5300    -7.2710    -0.4120 C.3   1 <1>   0.2200 
 12 C       -0.9510    -7.5330    -0.1950 C.3   1 <1>  -0.0800 
 13 C        1.1650    -8.4170     0.3660 C.3   1 <1>   0.1200 
 14 C       -0.9670    -8.1600     1.2040 C.3   1 <1>   0.1200 
 15 C       -1.5200    -8.4810    -1.2680 C.3   1 <1>  -0.0160 
 16 O        0.3130    -8.6720     1.4420 O.3   1 <1>  -0.5600 
 17 C       -3.0080    -8.7220    -1.0650 C.ar  1 <1>  -0.1430 
 18 C       -3.9470    -7.7600    -1.3770 C.ar  1 <1>  -0.1500 
 19 C       -3.4970    -9.9110    -0.5620 C.ar  1 <1>  -0.1500 
 20 C       -5.2910    -8.0220    -1.1710 C.ar  1 <1>   0.1600 
 21 C       -4.8630   -10.0720    -0.3940 C.ar  1 <1>   0.1600 
 22 N       -5.7720    -9.1550    -0.6850 N.ar  1 <1>  -0.6200 
 23 H        2.1950    -0.4910     0.6730 H     1 <1>   0.1500 
 24 H        1.4540    -4.2940     2.4540 H     1 <1>   0.1500 
 25 H        1.9020    -0.9480    -1.7160 H     1 <1>   0.0800 
 26 H        0.6640    -2.1550    -2.0180 H     1 <1>   0.0800 
 27 H        2.3590    -2.5810    -2.1670 H     1 <1>   0.0800 
 28 H        0.9640    -6.0080     1.2370 H     1 <1>   0.3700 
 29 H        0.8170    -7.2740    -1.4510 H     1 <1>   0.0800 
 30 H       -1.5140    -6.6160    -0.2130 H     1 <1>   0.0800 
 31 H        2.1490    -8.1780     0.7300 H     1 <1>   0.0800 
 32 H        1.2060    -9.3080    -0.2350 H     1 <1>   0.0800 
 33 H       -1.6850    -8.9540     1.3040 H     1 <1>   0.0800 
 34 H       -1.1600    -7.4110     1.9520 H     1 <1>   0.0800 
 35 H       -0.9970    -9.4210    -1.2520 H     1 <1>   0.0800 
 36 H       -1.3730    -8.0450    -2.2420 H     1 <1>   0.0800 
 37 H       -3.6460    -6.8090    -1.7780 H     1 <1>   0.1500 
 38 H       -2.8330   -10.7120    -0.2970 H     1 <1>   0.1500 
 39 H       -6.0080    -7.2590    -1.4200 H     1 <1>   0.1500 
 40 H       -5.2270   -11.0050     0.0010 H     1 <1>   0.1500 
@<TRIPOS>BOND
  1   1   2  1   
  2   2   3  2   
  3   2   4  1   
  4   3   5  1   
  5   3  23  1   
  6   4   6  2   
  7   4  24  1   
  8   5   6  1   
  9   5   7  1   
 10   6   8  1   
 11   7  25  1   
 12   7  26  1   
 13   7  27  1   
 14   8   9  2   
 15   8  10  am  
 16  10  11  1   
 17  10  28  1   
 18  11  12  1   
 19  11  13  1   
 20  11  29  1   
 21  12  14  1   
 22  12  15  1   
 23  12  30  1   
 24  13  16  1   
 25  13  31  1   
 26  13  32  1   
 27  14  16  1   
 28  14  33  1   
 29  14  34  1   
 30  15  17  1   
 31  15  35  1   
 32  15  36  1   
 33  17  18  ar  
 34  17  19  ar  
 35  18  20  ar  
 36  18  37  1   
 37  19  21  ar  
 38  19  38  1   
 39  20  22  ar  
 40  20  39  1   
 41  21  22  ar  
 42  21  40  1   
@<TRIPOS>SUBSTRUCTURE
  1 ****  10 GROUP 4 **** **** 0

# MOE 2024.06 (io_trps.svl 2023.06)
