@<TRIPOS>MOLECULE
NONAME
60 64 1 0 0 
SMALL
USER_CHARGES


@<TRIPOS>ATOM
  1 O       -1.4550    -2.4610    -2.9200 O.3   1 <1>  -0.3630 
  2 C       -1.4460    -3.2770    -1.8400 C.ar  1 <1>   0.0820 
  3 C       -0.7760    -1.2310    -2.8370 C.3   1 <1>   0.1200 
  4 C       -1.9500    -2.8960    -0.5940 C.ar  1 <1>   0.0820 
  5 C       -0.9500    -4.5560    -2.0200 C.ar  1 <1>  -0.1500 
  6 C       -1.6000    -0.2090    -2.0550 C.3   1 <1>  -0.1600 
  7 O       -2.4940    -1.6780    -0.3560 O.3   1 <1>  -0.3630 
  8 C       -1.9520    -3.8000     0.4530 C.ar  1 <1>  -0.1500 
  9 C       -0.9500    -5.4630    -0.9650 C.ar  1 <1>   0.0820 
 10 C       -1.6940    -0.5390    -0.5650 C.3   1 <1>   0.1200 
 11 C       -1.4550    -5.0820     0.2740 C.ar  1 <1>  -0.1440 
 12 O       -0.4870    -6.7370    -1.0850 O.3   1 <1>  -0.3630 
 13 C       -1.4740    -6.0780     1.4140 C.3   1 <1>   0.4860 
 14 C        0.3530    -7.0980    -2.1630 C.3   1 <1>   0.0400 
 15 N       -2.4210    -7.1550     1.0460 N.4   1 <1>  -0.9590 
 16 C       -3.8400    -6.6760     1.0900 C.3   1 <1>   0.3430 
 17 C       -2.3140    -8.3260     1.9570 C.3   1 <1>   0.3430 
 18 C       -4.4940    -7.4140     2.2660 C.3   1 <1>   0.2000 
 19 C       -3.7500    -8.7460     2.2970 C.3   1 <1>  -0.0800 
 20 O       -4.1910    -6.7270     3.4370 O.3   1 <1>  -0.6800 
 21 C       -4.3610    -9.7630     1.3030 C.3   1 <1>  -0.0170 
 22 C       -3.3210   -10.7690     0.8190 C.ar  1 <1>  -0.1440 
 23 C       -2.6170   -10.6270    -0.4040 C.ar  1 <1>   0.0000 
 24 C       -3.0220   -11.8460     1.6000 C.ar  1 <1>  -0.1500 
 25 C       -1.6200   -11.5900    -0.6980 C.ar  1 <1>   0.3100 
 26 C       -2.8330    -9.5970    -1.3520 C.ar  1 <1>  -0.1500 
 27 C       -2.0280   -12.7500     1.2060 C.ar  1 <1>   0.1600 
 28 N       -1.3370   -12.6340     0.1180 N.ar  1 <1>  -0.6200 
 29 C       -0.8820   -11.4690    -1.8860 C.ar  1 <1>  -0.1500 
 30 C       -2.1010    -9.5120    -2.5040 C.ar  1 <1>  -0.1500 
 31 C       -1.1090   -10.4550    -2.7750 C.ar  1 <1>  -0.1500 
 32 H        0.1850    -1.3990    -2.3810 H     1 <1>   0.0800 
 33 H       -0.6270    -0.8870    -3.8450 H     1 <1>   0.0800 
 34 H       -0.5830    -4.8170    -2.9940 H     1 <1>   0.1500 
 35 H       -1.1180     0.7470    -2.1520 H     1 <1>   0.0800 
 36 H       -2.5840    -0.1190    -2.4800 H     1 <1>   0.0800 
 37 H       -2.3510    -3.4810     1.4010 H     1 <1>   0.1500 
 38 H       -2.1630     0.2750    -0.0400 H     1 <1>   0.0800 
 39 H       -0.7220    -0.7160    -0.1360 H     1 <1>   0.0800 
 40 H       -1.7830    -5.6040     2.3320 H     1 <1>   0.0800 
 41 H       -0.4840    -6.4830     1.5430 H     1 <1>   0.0800 
 42 H        0.7050    -8.1000    -1.9960 H     1 <1>   0.0800 
 43 H        1.1880    -6.4200    -2.2010 H     1 <1>   0.0800 
 44 H       -0.2110    -7.0610    -3.0790 H     1 <1>   0.0800 
 45 H       -2.1500    -7.4210     0.0840 H     1 <1>   0.4500 
 46 H       -3.9080    -5.6080     1.2200 H     1 <1>   0.0800 
 47 H       -4.3370    -6.9500     0.1750 H     1 <1>   0.0800 
 48 H       -1.7410    -9.1240     1.5120 H     1 <1>   0.0800 
 49 H       -1.8260    -8.0230     2.8700 H     1 <1>   0.0800 
 50 H       -5.5640    -7.4940     2.1720 H     1 <1>   0.0800 
 51 H       -3.7700    -9.1880     3.2780 H     1 <1>   0.0800 
 52 H       -4.7380    -7.0420     4.1870 H     1 <1>   0.4000 
 53 H       -4.8270    -9.2750     0.4690 H     1 <1>   0.0800 
 54 H       -5.1520   -10.2970     1.8030 H     1 <1>   0.0800 
 55 H       -3.5250   -12.0310     2.5330 H     1 <1>   0.1500 
 56 H       -3.5970    -8.8640    -1.1900 H     1 <1>   0.1500 
 57 H       -1.8220   -13.5890     1.8500 H     1 <1>   0.1500 
 58 H       -0.1290   -12.2130    -2.0760 H     1 <1>   0.1500 
 59 H       -2.2810    -8.7270    -3.2200 H     1 <1>   0.1500 
 60 H       -0.5380   -10.3820    -3.6860 H     1 <1>   0.1500 
@<TRIPOS>BOND
  1   1   2  1   
  2   1   3  1   
  3   2   4  ar  
  4   2   5  ar  
  5   3   6  1   
  6   3  32  1   
  7   3  33  1   
  8   4   7  1   
  9   4   8  ar  
 10   5   9  ar  
 11   5  34  1   
 12   6  10  1   
 13   6  35  1   
 14   6  36  1   
 15   7  10  1   
 16   8  11  ar  
 17   8  37  1   
 18   9  11  ar  
 19   9  12  1   
 20  10  38  1   
 21  10  39  1   
 22  11  13  1   
 23  12  14  1   
 24  13  15  1   
 25  13  40  1   
 26  13  41  1   
 27  14  42  1   
 28  14  43  1   
 29  14  44  1   
 30  15  16  1   
 31  15  17  1   
 32  15  45  1   
 33  16  18  1   
 34  16  46  1   
 35  16  47  1   
 36  17  19  1   
 37  17  48  1   
 38  17  49  1   
 39  18  19  1   
 40  18  20  1   
 41  18  50  1   
 42  19  21  1   
 43  19  51  1   
 44  20  52  1   
 45  21  22  1   
 46  21  53  1   
 47  21  54  1   
 48  22  23  ar  
 49  22  24  ar  
 50  23  25  ar  
 51  23  26  ar  
 52  24  27  ar  
 53  24  55  1   
 54  25  28  ar  
 55  25  29  ar  
 56  26  30  ar  
 57  26  56  1   
 58  27  28  ar  
 59  27  57  1   
 60  29  31  ar  
 61  29  58  1   
 62  30  31  ar  
 63  30  59  1   
 64  31  60  1   
@<TRIPOS>SUBSTRUCTURE
  1 ****  15 GROUP 4 **** **** 0

# MOE 2024.06 (io_trps.svl 2023.06)
