@<TRIPOS>MOLECULE
NONAME
54 57 1 0 0 
SMALL
USER_CHARGES


@<TRIPOS>ATOM
  1 O       -1.2080    -0.1800    -0.9370 O.2   1 <1>  -0.5700 
  2 C       -2.1760     0.4970    -0.6420 C.2   1 <1>   0.5440 
  3 N       -2.2020     1.8190    -1.0360 N.am  1 <1>  -0.6600 
  4 C       -3.2630    -0.1080     0.0910 C.ar  1 <1>   0.0860 
  5 C       -3.4600     2.5780    -1.3100 C.3   1 <1>   0.1400 
  6 C       -0.9780     2.5210    -1.5290 C.3   1 <1>   0.1400 
  7 C       -3.7040    -1.3890    -0.2290 C.ar  1 <1>   0.1600 
  8 C       -3.9130     0.5300     1.1430 C.ar  1 <1>  -0.1500 
  9 C       -3.5020     3.0500    -2.7740 C.3   1 <1>   0.1200 
 10 C       -1.1680     2.9840    -2.9820 C.3   1 <1>   0.1200 
 11 N       -4.7010    -2.0360     0.3480 N.ar  1 <1>  -0.6200 
 12 C       -4.9470    -0.1310     1.7600 C.ar  1 <1>  -0.1500 
 13 O       -2.3360     3.7480    -3.1060 O.3   1 <1>  -0.5600 
 14 C       -5.3270    -1.4030     1.3370 C.ar  1 <1>   0.4100 
 15 N       -6.3810    -2.0540     1.9440 N.pl3 1 <1>  -0.8380 
 16 C       -7.7010    -1.3920     2.0920 C.3   1 <1>   0.2090 
 17 C       -6.4170    -3.5400     2.0180 C.3   1 <1>   0.2090 
 18 C       -8.6690    -1.9340     1.0370 C.3   1 <1>  -0.1600 
 19 C       -7.3890    -4.0950     0.9710 C.3   1 <1>  -0.1600 
 20 C       -8.7910    -3.4670     1.0940 C.3   1 <1>  -0.0800 
 21 C       -9.7460    -3.9560    -0.0110 C.3   1 <1>  -0.1600 
 22 C      -10.0240    -5.4660     0.0580 C.3   1 <1>   0.0960 
 23 N      -11.0480    -5.8590    -0.9280 N.pl3 1 <1>   0.3140 
 24 N      -10.7240    -6.3830    -2.1230 N.2   1 <1>  -0.7070 
 25 C      -12.3860    -5.7640    -0.7840 C.2   1 <1>  -0.3020 
 26 C      -11.8600    -6.6060    -2.7100 C.2   1 <1>   0.1390 
 27 C      -12.9410    -6.2380    -1.9190 C.2   1 <1>  -0.1500 
 28 H       -3.5060     3.4350    -0.6610 H     1 <1>   0.0800 
 29 H       -4.3240     1.9660    -1.1210 H     1 <1>   0.0800 
 30 H       -0.1170     1.8780    -1.4700 H     1 <1>   0.0800 
 31 H       -0.7890     3.3790    -0.9080 H     1 <1>   0.0800 
 32 H       -3.1900    -1.9050    -1.0230 H     1 <1>   0.1500 
 33 H       -3.6010     1.5090     1.4630 H     1 <1>   0.1500 
 34 H       -4.3350     3.7120    -2.9280 H     1 <1>   0.0800 
 35 H       -3.6010     2.2100    -3.4400 H     1 <1>   0.0800 
 36 H       -1.2340     2.1360    -3.6420 H     1 <1>   0.0800 
 37 H       -0.3390     3.5980    -3.2880 H     1 <1>   0.0800 
 38 H       -5.4680     0.3170     2.5840 H     1 <1>   0.1500 
 39 H       -7.6030    -0.3270     1.9700 H     1 <1>   0.0800 
 40 H       -8.0820    -1.5860     3.0800 H     1 <1>   0.0800 
 41 H       -6.7350    -3.8310     3.0040 H     1 <1>   0.0800 
 42 H       -5.4330    -3.9450     1.8560 H     1 <1>   0.0800 
 43 H       -8.3140    -1.6330     0.0670 H     1 <1>   0.0800 
 44 H       -9.6340    -1.4850     1.1890 H     1 <1>   0.0800 
 45 H       -7.4380    -5.1600     1.0940 H     1 <1>   0.0800 
 46 H       -6.9800    -3.8940    -0.0040 H     1 <1>   0.0800 
 47 H       -9.2030    -3.7360     2.0520 H     1 <1>   0.0800 
 48 H       -9.3290    -3.7230    -0.9770 H     1 <1>   0.0800 
 49 H      -10.6810    -3.4310     0.0840 H     1 <1>   0.0800 
 50 H      -10.3740    -5.7390     1.0360 H     1 <1>   0.0800 
 51 H       -9.1300    -6.0220    -0.1570 H     1 <1>   0.0800 
 52 H      -12.8570    -5.3720     0.0990 H     1 <1>   0.1500 
 53 H      -11.9440    -7.0290    -3.6970 H     1 <1>   0.1500 
 54 H      -13.9800    -6.3250    -2.1820 H     1 <1>   0.1500 
@<TRIPOS>BOND
  1   1   2  2   
  2   2   3  am  
  3   2   4  1   
  4   3   5  1   
  5   3   6  1   
  6   4   7  ar  
  7   4   8  ar  
  8   5   9  1   
  9   5  28  1   
 10   5  29  1   
 11   6  10  1   
 12   6  30  1   
 13   6  31  1   
 14   7  11  ar  
 15   7  32  1   
 16   8  12  ar  
 17   8  33  1   
 18   9  13  1   
 19   9  34  1   
 20   9  35  1   
 21  10  13  1   
 22  10  36  1   
 23  10  37  1   
 24  11  14  ar  
 25  12  14  ar  
 26  12  38  1   
 27  14  15  1   
 28  15  16  1   
 29  15  17  1   
 30  16  18  1   
 31  16  39  1   
 32  16  40  1   
 33  17  19  1   
 34  17  41  1   
 35  17  42  1   
 36  18  20  1   
 37  18  43  1   
 38  18  44  1   
 39  19  20  1   
 40  19  45  1   
 41  19  46  1   
 42  20  21  1   
 43  20  47  1   
 44  21  22  1   
 45  21  48  1   
 46  21  49  1   
 47  22  23  1   
 48  22  50  1   
 49  22  51  1   
 50  23  24  1   
 51  23  25  1   
 52  24  26  2   
 53  25  27  2   
 54  25  52  1   
 55  26  27  1   
 56  26  53  1   
 57  27  54  1   
@<TRIPOS>SUBSTRUCTURE
  1 ****  11 GROUP 4 **** **** 0

# MOE 2024.06 (io_trps.svl 2023.06)
