@<TRIPOS>MOLECULE
NONAME
40 41 1 0 0 
SMALL
USER_CHARGES


@<TRIPOS>ATOM
  1 O        1.1180    -1.0570     1.4150 O.3   1 <1>  -0.5160 
  2 C        1.1650     0.3130     1.0300 C.3   1 <1>   0.2580 
  3 C        2.0660    -1.4050     0.4120 C.3   1 <1>   0.2580 
  4 C        2.5600     0.0500     0.4440 C.3   1 <1>   0.0000 
  5 C        2.7600     0.6260    -0.9660 C.3   1 <1>   0.2090 
  6 C        3.7240     0.2890     1.4300 C.3   1 <1>  -0.2400 
  7 N        2.9280     2.1140    -0.9310 N.pl3 1 <1>  -0.8380 
  8 C        4.1840     2.7080    -0.9420 C.ar  1 <1>   0.4100 
  9 C        1.6880     2.9220    -1.1020 C.3   1 <1>   0.1290 
 10 N        5.1950     2.0040    -1.4220 N.ar  1 <1>  -0.6200 
 11 C        4.3890     3.9820    -0.4640 C.ar  1 <1>  -0.1500 
 12 C        6.3670     2.6080    -1.4140 C.ar  1 <1>   0.4700 
 13 C        5.6560     4.5120    -0.5090 C.ar  1 <1>   0.4100 
 14 N        6.6700     3.8170    -0.9910 N.ar  1 <1>  -0.6200 
 15 N        5.9020     5.7960    -0.0640 N.pl3 1 <1>  -0.8380 
 16 C        7.1820     6.0870     0.6320 C.3   1 <1>   0.2090 
 17 C        5.3300     6.9210    -0.8500 C.3   1 <1>   0.1290 
 18 C        6.9070     6.9590     1.8530 C.3   1 <1>  -0.2400 
 19 H        1.1420     0.9480     1.8970 H     1 <1>   0.0000 
 20 H        0.3950     0.5120     0.3040 H     1 <1>   0.0000 
 21 H        1.5510    -1.6950    -0.4880 H     1 <1>   0.0000 
 22 H        2.7590    -2.1360     0.7880 H     1 <1>   0.0000 
 23 H        1.9170     0.3790    -1.5880 H     1 <1>   0.0800 
 24 H        3.6210     0.1600    -1.4100 H     1 <1>   0.0800 
 25 H        3.5380    -0.2000     2.3700 H     1 <1>   0.0800 
 26 H        3.8420     1.3420     1.6120 H     1 <1>   0.0800 
 27 H        4.6420    -0.0890     1.0170 H     1 <1>   0.0800 
 28 H        1.0020     2.4180    -1.7590 H     1 <1>   0.0800 
 29 H        1.9210     3.8800    -1.5330 H     1 <1>   0.0800 
 30 H        1.2180     3.0710    -0.1460 H     1 <1>   0.0800 
 31 H        3.5920     4.5580    -0.0490 H     1 <1>   0.1500 
 32 H        7.1880     2.0340    -1.8070 H     1 <1>   0.1500 
 33 H        7.8610     6.5790    -0.0430 H     1 <1>   0.0800 
 34 H        7.6390     5.1660     0.9560 H     1 <1>   0.0800 
 35 H        4.6060     6.5540    -1.5580 H     1 <1>   0.0800 
 36 H        6.1110     7.4260    -1.3910 H     1 <1>   0.0800 
 37 H        4.8460     7.6180    -0.1890 H     1 <1>   0.0800 
 38 H        6.5160     7.9140     1.5570 H     1 <1>   0.0800 
 39 H        7.8210     7.1170     2.3940 H     1 <1>   0.0800 
 40 H        6.2040     6.4670     2.5000 H     1 <1>   0.0800 
@<TRIPOS>BOND
  1   1   2  1   
  2   1   3  1   
  3   2   4  1   
  4   2  19  1   
  5   2  20  1   
  6   3   4  1   
  7   3  21  1   
  8   3  22  1   
  9   4   5  1   
 10   4   6  1   
 11   5   7  1   
 12   5  23  1   
 13   5  24  1   
 14   6  25  1   
 15   6  26  1   
 16   6  27  1   
 17   7   8  1   
 18   7   9  1   
 19   8  10  ar  
 20   8  11  ar  
 21   9  28  1   
 22   9  29  1   
 23   9  30  1   
 24  10  12  ar  
 25  11  13  ar  
 26  11  31  1   
 27  12  14  ar  
 28  12  32  1   
 29  13  14  ar  
 30  13  15  1   
 31  15  16  1   
 32  15  17  1   
 33  16  18  1   
 34  16  33  1   
 35  16  34  1   
 36  17  35  1   
 37  17  36  1   
 38  17  37  1   
 39  18  38  1   
 40  18  39  1   
 41  18  40  1   
@<TRIPOS>SUBSTRUCTURE
  1 ****   8 GROUP 4 **** **** 0

# MOE 2024.06 (io_trps.svl 2023.06)
