@<TRIPOS>MOLECULE
NONAME
44 44 1 0 0 
SMALL
USER_CHARGES


@<TRIPOS>ATOM
  1 O       -0.8540     0.9590     1.6100 O.2   1 <1>  -0.5700 
  2 C       -1.4940     0.9960     0.5820 C.2   1 <1>   0.5690 
  3 N       -2.2370    -0.0750     0.1430 N.am  1 <1>  -0.6600 
  4 C       -1.4080     2.3070    -0.2210 C.3   1 <1>   0.4040 
  5 C       -2.2730    -1.3560     0.9110 C.3   1 <1>   0.0600 
  6 C       -3.1020    -0.0950    -1.0730 C.3   1 <1>   0.0600 
  7 N       -0.1480     3.1050     0.0600 N.4   1 <1>  -0.9590 
  8 C       -0.1540     4.5280    -0.4070 C.3   1 <1>   0.4230 
  9 C        1.0370     2.3320    -0.4220 C.3   1 <1>   0.3430 
 10 C        1.1570     5.2060     0.0370 C.3   1 <1>  -0.1600 
 11 C       -1.3890     5.2760     0.1420 C.3   1 <1>  -0.1600 
 12 C        2.3260     2.9860     0.0640 C.3   1 <1>  -0.1600 
 13 C        2.4110     4.4400    -0.3990 C.3   1 <1>  -0.1600 
 14 C       -1.4420     6.7630    -0.2580 C.3   1 <1>  -0.1600 
 15 C       -2.7540     7.4230     0.1640 C.3   1 <1>   0.1200 
 16 O       -2.7010     8.7380    -0.2690 O.3   1 <1>  -0.5600 
 17 C       -3.8220     9.4930     0.0580 C.3   1 <1>   0.0400 
 18 H       -2.2750     2.8830     0.0450 H     1 <1>   0.0800 
 19 H       -1.4640     2.0790    -1.2700 H     1 <1>   0.0800 
 20 H       -1.6000    -1.3270     1.7510 H     1 <1>   0.0800 
 21 H       -1.9840    -2.1740     0.2740 H     1 <1>   0.0800 
 22 H       -3.2680    -1.5330     1.2800 H     1 <1>   0.0800 
 23 H       -3.1840     0.8760    -1.5250 H     1 <1>   0.0800 
 24 H       -4.0920    -0.4260    -0.8050 H     1 <1>   0.0800 
 25 H       -2.6960    -0.7830    -1.7950 H     1 <1>   0.0800 
 26 H       -0.0620     3.1100     1.0890 H     1 <1>   0.4500 
 27 H       -0.1930     4.5420    -1.4850 H     1 <1>   0.0800 
 28 H        1.0370     2.2940    -1.4990 H     1 <1>   0.0800 
 29 H        0.9970     1.3210    -0.0460 H     1 <1>   0.0800 
 30 H        1.1580     5.3200     1.1070 H     1 <1>   0.0800 
 31 H        1.2170     6.1920    -0.3900 H     1 <1>   0.0800 
 32 H       -1.4060     5.2070     1.2160 H     1 <1>   0.0800 
 33 H       -2.2830     4.8260    -0.2460 H     1 <1>   0.0800 
 34 H        3.1680     2.4380    -0.3240 H     1 <1>   0.0800 
 35 H        2.3740     2.9320     1.1380 H     1 <1>   0.0800 
 36 H        3.2880     4.9070     0.0190 H     1 <1>   0.0800 
 37 H        2.5010     4.4750    -1.4720 H     1 <1>   0.0800 
 38 H       -1.3430     6.8570    -1.3260 H     1 <1>   0.0800 
 39 H       -0.6420     7.3080     0.2120 H     1 <1>   0.0800 
 40 H       -2.8630     7.4150     1.2360 H     1 <1>   0.0800 
 41 H       -3.5990     6.9430    -0.3000 H     1 <1>   0.0800 
 42 H       -3.6770    10.4890    -0.3230 H     1 <1>   0.0800 
 43 H       -3.9290     9.5280     1.1280 H     1 <1>   0.0800 
 44 H       -4.6930     9.0550    -0.3980 H     1 <1>   0.0800 
@<TRIPOS>BOND
  1   1   2  2   
  2   2   3  am  
  3   2   4  1   
  4   3   5  1   
  5   3   6  1   
  6   4   7  1   
  7   4  18  1   
  8   4  19  1   
  9   5  20  1   
 10   5  21  1   
 11   5  22  1   
 12   6  23  1   
 13   6  24  1   
 14   6  25  1   
 15   7   8  1   
 16   7   9  1   
 17   7  26  1   
 18   8  10  1   
 19   8  11  1   
 20   8  27  1   
 21   9  12  1   
 22   9  28  1   
 23   9  29  1   
 24  10  13  1   
 25  10  30  1   
 26  10  31  1   
 27  11  14  1   
 28  11  32  1   
 29  11  33  1   
 30  12  13  1   
 31  12  34  1   
 32  12  35  1   
 33  13  36  1   
 34  13  37  1   
 35  14  15  1   
 36  14  38  1   
 37  14  39  1   
 38  15  16  1   
 39  15  40  1   
 40  15  41  1   
 41  16  17  1   
 42  17  42  1   
 43  17  43  1   
 44  17  44  1   
@<TRIPOS>SUBSTRUCTURE
  1 ****   7 GROUP 4 **** **** 0

# MOE 2024.06 (io_trps.svl 2023.06)
