@<TRIPOS>MOLECULE
NONAME
50 53 1 0 0 
SMALL
USER_CHARGES


@<TRIPOS>ATOM
  1 O       -0.4740    -0.0770     0.5210 O.2   1 <1>  -0.5700 
  2 C       -1.4960     0.5460     0.2960 C.2   1 <1>   0.7150 
  3 N       -2.6060    -0.1800    -0.0910 N.am  1 <1>  -0.6600 
  4 C       -1.5070     1.9910     0.4280 C.2   1 <1>   0.0550 
  5 C       -3.8320     0.3750    -0.7140 C.3   1 <1>   0.1400 
  6 C       -2.5920    -1.6590    -0.1870 C.3   1 <1>   0.1400 
  7 O       -2.6410     2.6550     0.6290 O.3   1 <1>  -0.2800 
  8 C       -0.4940     2.8860     0.3980 C.2   1 <1>   0.0460 
  9 C       -4.5090    -0.8190    -1.3870 C.3   1 <1>   0.2000 
 10 C       -3.9990    -2.0510    -0.6420 C.3   1 <1>  -0.0800 
 11 C       -2.2290     3.9030     0.7070 C.2   1 <1>   0.2980 
 12 N       -0.9720     4.1110     0.5750 N.2   1 <1>  -0.5650 
 13 C        0.9980     2.7000     0.2010 C.3   1 <1>  -0.0590 
 14 O       -5.8890    -0.7450    -1.2920 O.3   1 <1>  -0.6800 
 15 C       -4.0330    -3.3270    -1.4990 C.3   1 <1>  -0.0170 
 16 C       -3.2930     4.9650     0.9440 C.3   1 <1>   0.0200 
 17 C       -3.5280    -4.5300    -0.7090 C.ar  1 <1>  -0.1440 
 18 C       -2.7420     6.3980     1.0070 C.3   1 <1>  -0.2400 
 19 C       -4.3290    -5.1960     0.2490 C.ar  1 <1>   0.0000 
 20 C       -2.2610    -4.9950    -0.9050 C.ar  1 <1>  -0.1500 
 21 C       -3.7490    -6.2830     0.9490 C.ar  1 <1>   0.3100 
 22 C       -5.6670    -4.8530     0.5530 C.ar  1 <1>  -0.1500 
 23 C       -1.7870    -6.0840    -0.1640 C.ar  1 <1>   0.1600 
 24 N       -2.4810    -6.7130     0.7300 N.ar  1 <1>  -0.6200 
 25 C       -4.5130    -6.9540     1.9160 C.ar  1 <1>  -0.1500 
 26 C       -6.3860    -5.5300     1.5000 C.ar  1 <1>  -0.1500 
 27 C       -5.8030    -6.5930     2.1940 C.ar  1 <1>  -0.1500 
 28 H       -4.4610     0.7890     0.0550 H     1 <1>   0.0800 
 29 H       -3.5820     1.1320    -1.4370 H     1 <1>   0.0800 
 30 H       -1.8540    -1.9530    -0.9140 H     1 <1>   0.0800 
 31 H       -2.3480    -2.1020     0.7650 H     1 <1>   0.0800 
 32 H       -4.2400    -0.8500    -2.4290 H     1 <1>   0.0800 
 33 H       -4.5850    -2.1940     0.2480 H     1 <1>   0.0800 
 34 H        1.2430     1.6770    -0.0110 H     1 <1>   0.0800 
 35 H        1.5160     3.0030     1.0920 H     1 <1>   0.0800 
 36 H        1.3310     3.3110    -0.6170 H     1 <1>   0.0800 
 37 H       -6.1660    -0.7160    -0.3550 H     1 <1>   0.4000 
 38 H       -3.4200    -3.1860    -2.3720 H     1 <1>   0.0800 
 39 H       -5.0330    -3.5110    -1.8500 H     1 <1>   0.0800 
 40 H       -4.0160     4.9010     0.1520 H     1 <1>   0.0800 
 41 H       -3.7930     4.7390     1.8690 H     1 <1>   0.0800 
 42 H       -2.2500     6.6460     0.0820 H     1 <1>   0.0800 
 43 H       -2.0280     6.4840     1.8070 H     1 <1>   0.0800 
 44 H       -3.5400     7.0980     1.1760 H     1 <1>   0.0800 
 45 H       -1.5960    -4.5430    -1.6180 H     1 <1>   0.1500 
 46 H       -6.1370    -4.0430     0.0280 H     1 <1>   0.1500 
 47 H       -0.7800    -6.4180    -0.3490 H     1 <1>   0.1500 
 48 H       -4.0450    -7.7700     2.4350 H     1 <1>   0.1500 
 49 H       -7.4040    -5.2580     1.7220 H     1 <1>   0.1500 
 50 H       -6.3770    -7.1170     2.9380 H     1 <1>   0.1500 
@<TRIPOS>BOND
  1   1   2  2   
  2   2   3  am  
  3   2   4  1   
  4   3   5  1   
  5   3   6  1   
  6   4   7  1   
  7   4   8  2   
  8   5   9  1   
  9   5  28  1   
 10   5  29  1   
 11   6  10  1   
 12   6  30  1   
 13   6  31  1   
 14   7  11  1   
 15   8  12  1   
 16   8  13  1   
 17   9  10  1   
 18   9  14  1   
 19   9  32  1   
 20  10  15  1   
 21  10  33  1   
 22  11  12  2   
 23  11  16  1   
 24  13  34  1   
 25  13  35  1   
 26  13  36  1   
 27  14  37  1   
 28  15  17  1   
 29  15  38  1   
 30  15  39  1   
 31  16  18  1   
 32  16  40  1   
 33  16  41  1   
 34  17  19  ar  
 35  17  20  ar  
 36  18  42  1   
 37  18  43  1   
 38  18  44  1   
 39  19  21  ar  
 40  19  22  ar  
 41  20  23  ar  
 42  20  45  1   
 43  21  24  ar  
 44  21  25  ar  
 45  22  26  ar  
 46  22  46  1   
 47  23  24  ar  
 48  23  47  1   
 49  25  27  ar  
 50  25  48  1   
 51  26  27  ar  
 52  26  49  1   
 53  27  50  1   
@<TRIPOS>SUBSTRUCTURE
  1 ****   6 GROUP 4 **** **** 0

# MOE 2024.06 (io_trps.svl 2023.06)
