@<TRIPOS>MOLECULE
NONAME
48 50 1 0 0 
SMALL
USER_CHARGES


@<TRIPOS>ATOM
  1 O        2.5630     0.1010    -2.2990 O.2   1 <1>  -0.5700 
  2 C        2.5180    -0.0800    -1.1060 C.2   1 <1>   0.5690 
  3 N        2.0950     0.8590    -0.2110 N.am  1 <1>  -0.4940 
  4 C        2.9250    -1.4250    -0.5630 C.3   1 <1>  -0.0990 
  5 C        1.7360     2.2090    -0.4260 C.2   1 <1>  -0.0880 
  6 C        1.6930    -2.3290    -0.4200 C.3   1 <1>   0.1760 
  7 N        2.4030     3.1190    -1.1950 N.pl3 1 <1>   0.3140 
  8 C        0.6880     2.8640     0.1250 C.2   1 <1>  -0.1810 
  9 N        1.9530    -3.3440     0.6320 N.pl3 1 <1>   0.3140 
 10 C        1.2700    -2.9640    -1.7570 C.3   1 <1>  -0.2400 
 11 N        1.7970     4.3340    -1.1420 N.2   1 <1>  -0.7070 
 12 C        3.6730     2.9510    -1.9420 C.3   1 <1>   0.2390 
 13 C        0.7790     4.1640    -0.3580 C.2   1 <1>   0.1390 
 14 C       -0.3830     2.3430     1.0650 C.3   1 <1>  -0.0590 
 15 N        1.7420    -3.0440     1.9290 N.2   1 <1>  -0.7070 
 16 C        2.4450    -4.5950     0.4990 C.2   1 <1>  -0.3020 
 17 C        4.7880     2.3720    -1.0720 C.ar  1 <1>  -0.1440 
 18 C        2.0910    -4.1110     2.5820 C.2   1 <1>   0.1390 
 19 C        2.5410    -5.1180     1.7390 C.2   1 <1>  -0.1500 
 20 C        5.0930     2.9420     0.1550 C.ar  1 <1>  -0.1500 
 21 C        5.5050     1.2650    -1.5010 C.ar  1 <1>  -0.1500 
 22 C        6.0940     2.4130     0.9530 C.ar  1 <1>  -0.1440 
 23 C        6.5060     0.7320    -0.7100 C.ar  1 <1>  -0.1500 
 24 C        6.7980     1.3040     0.5150 C.ar  1 <1>  -0.1500 
 25 C        6.4140     3.0410     2.2970 C.3   1 <1>  -0.0970 
 26 H        2.0380     0.5530     0.7610 H     1 <1>   0.3700 
 27 H        3.3910    -1.2730     0.3940 H     1 <1>   0.0800 
 28 H        3.6490    -1.8720    -1.2200 H     1 <1>   0.0800 
 29 H        0.8710    -1.7350    -0.0600 H     1 <1>   0.0800 
 30 H        2.0750    -3.5330    -2.1860 H     1 <1>   0.0800 
 31 H        0.9950    -2.1950    -2.4570 H     1 <1>   0.0800 
 32 H        0.4180    -3.6040    -1.6100 H     1 <1>   0.0800 
 33 H        3.9760     3.9150    -2.3040 H     1 <1>   0.0800 
 34 H        3.4830     2.3240    -2.7910 H     1 <1>   0.0800 
 35 H        0.0870     4.9520    -0.1140 H     1 <1>   0.1500 
 36 H       -0.2800     1.2830     1.2080 H     1 <1>   0.0800 
 37 H       -1.3570     2.5380     0.6520 H     1 <1>   0.0800 
 38 H       -0.3030     2.8320     2.0190 H     1 <1>   0.0800 
 39 H        2.6960    -5.0380    -0.4460 H     1 <1>   0.1500 
 40 H        2.0350    -4.1950     3.6550 H     1 <1>   0.1500 
 41 H        2.8860    -6.0910     2.0400 H     1 <1>   0.1500 
 42 H        4.5400     3.8030     0.4930 H     1 <1>   0.1500 
 43 H        5.2810     0.8110    -2.4520 H     1 <1>   0.1500 
 44 H        7.0580    -0.1280    -1.0470 H     1 <1>   0.1500 
 45 H        7.5770     0.8830     1.1260 H     1 <1>   0.1500 
 46 H        6.1540     4.0840     2.2970 H     1 <1>   0.0800 
 47 H        7.4640     2.9540     2.5110 H     1 <1>   0.0800 
 48 H        5.8580     2.5440     3.0710 H     1 <1>   0.0800 
@<TRIPOS>BOND
  1   1   2  2   
  2   2   3  am  
  3   2   4  1   
  4   3   5  1   
  5   3  26  1   
  6   4   6  1   
  7   4  27  1   
  8   4  28  1   
  9   5   7  1   
 10   5   8  2   
 11   6   9  1   
 12   6  10  1   
 13   6  29  1   
 14   7  11  1   
 15   7  12  1   
 16   8  13  1   
 17   8  14  1   
 18   9  15  1   
 19   9  16  1   
 20  10  30  1   
 21  10  31  1   
 22  10  32  1   
 23  11  13  2   
 24  12  17  1   
 25  12  33  1   
 26  12  34  1   
 27  13  35  1   
 28  14  36  1   
 29  14  37  1   
 30  14  38  1   
 31  15  18  2   
 32  16  19  2   
 33  16  39  1   
 34  17  20  ar  
 35  17  21  ar  
 36  18  19  1   
 37  18  40  1   
 38  19  41  1   
 39  20  22  ar  
 40  20  42  1   
 41  21  23  ar  
 42  21  43  1   
 43  22  24  ar  
 44  22  25  1   
 45  23  24  ar  
 46  23  44  1   
 47  24  45  1   
 48  25  46  1   
 49  25  47  1   
 50  25  48  1   
@<TRIPOS>SUBSTRUCTURE
  1 ****   3 GROUP 4 **** **** 0

# MOE 2024.06 (io_trps.svl 2023.06)
