@<TRIPOS>MOLECULE
NONAME
60 63 1 0 0 
SMALL
USER_CHARGES


@<TRIPOS>ATOM
  1 O        2.5540    -0.6330    -2.3760 O.2   1 <1>  -0.5700 
  2 C        2.1340    -0.9270    -1.2820 C.2   1 <1>   0.5690 
  3 N        1.9300     0.0000    -0.3110 N.am  1 <1>  -0.7300 
  4 C        1.8260    -2.3940    -0.9630 C.3   1 <1>   0.1710 
  5 C        2.1480     1.4590    -0.4350 C.3   1 <1>   0.1400 
  6 N        0.8130    -2.6000     0.1170 N.3   1 <1>  -0.8100 
  7 C        3.4110     1.8620     0.3240 C.3   1 <1>  -0.0170 
  8 C       -0.5350    -2.1890    -0.2980 C.3   1 <1>   0.1100 
  9 C        0.6910    -4.0200     0.4850 C.3   1 <1>   0.1100 
 10 C        3.6130     3.3670     0.2530 C.ar  1 <1>  -0.1430 
 11 C       -1.4550    -2.9020     0.6850 C.3   1 <1>   0.2000 
 12 C       -0.7850    -4.2640     0.8590 C.3   1 <1>  -0.0800 
 13 C        4.2220     3.9350    -0.8550 C.ar  1 <1>  -0.1500 
 14 C        3.1870     4.1850     1.2890 C.ar  1 <1>  -0.1500 
 15 O       -1.3710    -2.2350     1.8920 O.3   1 <1>  -0.6800 
 16 C       -1.4460    -5.3240    -0.0420 C.3   1 <1>  -0.0170 
 17 C        4.4030     5.3050    -0.9250 C.ar  1 <1>  -0.1500 
 18 C        3.3680     5.5560     1.2220 C.ar  1 <1>  -0.1500 
 19 C       -0.7750    -6.6810     0.0970 C.ar  1 <1>   0.1670 
 20 C        3.9800     6.1250     0.1080 C.ar  1 <1>   0.0820 
 21 N        0.0610    -7.0350    -0.8310 N.ar  1 <1>  -0.6200 
 22 C       -1.0840    -7.4770     1.2110 C.ar  1 <1>  -0.1500 
 23 O        4.1960     7.4560    -0.0380 O.3   1 <1>  -0.3620 
 24 C        0.6690    -8.2430    -0.7060 C.ar  1 <1>   0.3100 
 25 C       -0.4880    -8.6920     1.3620 C.ar  1 <1>  -0.1500 
 26 C        3.8120     8.3740     0.9600 C.3   1 <1>   0.0400 
 27 C        0.4260    -9.1110     0.3810 C.ar  1 <1>   0.0000 
 28 C        1.5800    -8.6490    -1.6950 C.ar  1 <1>  -0.1500 
 29 C        1.1020   -10.3460     0.4360 C.ar  1 <1>  -0.1500 
 30 C        2.2270    -9.8540    -1.6230 C.ar  1 <1>  -0.1500 
 31 C        1.9850   -10.7110    -0.5450 C.ar  1 <1>  -0.1500 
 32 H        1.5340    -0.3510     0.5670 H     1 <1>   0.3700 
 33 H        2.7510    -2.8540    -0.6640 H     1 <1>   0.0800 
 34 H        1.5000    -2.8770    -1.8670 H     1 <1>   0.0800 
 35 H        2.2520     1.7240    -1.4740 H     1 <1>   0.0800 
 36 H        1.2950     1.9820    -0.0380 H     1 <1>   0.0800 
 37 H        3.3310     1.5550     1.3510 H     1 <1>   0.0800 
 38 H        4.2610     1.3660    -0.1120 H     1 <1>   0.0800 
 39 H       -0.6620    -1.1200    -0.2620 H     1 <1>   0.0800 
 40 H       -0.7400    -2.5380    -1.2960 H     1 <1>   0.0800 
 41 H        0.9790    -4.6450    -0.3440 H     1 <1>   0.0800 
 42 H        1.3380    -4.2380     1.3170 H     1 <1>   0.0800 
 43 H       -2.4850    -2.9390     0.3770 H     1 <1>   0.0800 
 44 H       -0.8600    -4.5940     1.8810 H     1 <1>   0.0800 
 45 H        4.5560     3.3140    -1.6680 H     1 <1>   0.1500 
 46 H        2.7130     3.7580     2.1550 H     1 <1>   0.1500 
 47 H       -0.4160    -2.0970     2.0630 H     1 <1>   0.4000 
 48 H       -1.3990    -5.0130    -1.0710 H     1 <1>   0.0800 
 49 H       -2.4840    -5.4230     0.2190 H     1 <1>   0.0800 
 50 H        4.8750     5.7480    -1.7830 H     1 <1>   0.1500 
 51 H        3.0290     6.1610     2.0400 H     1 <1>   0.1500 
 52 H       -1.7890    -7.1140     1.9370 H     1 <1>   0.1500 
 53 H       -0.6980    -9.3290     2.2020 H     1 <1>   0.1500 
 54 H        4.0850     9.3600     0.6290 H     1 <1>   0.0800 
 55 H        4.3320     8.1370     1.8710 H     1 <1>   0.0800 
 56 H        2.7470     8.3160     1.0960 H     1 <1>   0.0800 
 57 H        1.7520    -7.9770    -2.5150 H     1 <1>   0.1500 
 58 H        0.9110   -11.0010     1.2670 H     1 <1>   0.1500 
 59 H        2.9230   -10.1540    -2.3880 H     1 <1>   0.1500 
 60 H        2.5000   -11.6560    -0.5010 H     1 <1>   0.1500 
@<TRIPOS>BOND
  1   1   2  2   
  2   2   3  am  
  3   2   4  1   
  4   3   5  1   
  5   3  32  1   
  6   4   6  1   
  7   4  33  1   
  8   4  34  1   
  9   5   7  1   
 10   5  35  1   
 11   5  36  1   
 12   6   8  1   
 13   6   9  1   
 14   7  10  1   
 15   7  37  1   
 16   7  38  1   
 17   8  11  1   
 18   8  39  1   
 19   8  40  1   
 20   9  12  1   
 21   9  41  1   
 22   9  42  1   
 23  10  13  ar  
 24  10  14  ar  
 25  11  12  1   
 26  11  15  1   
 27  11  43  1   
 28  12  16  1   
 29  12  44  1   
 30  13  17  ar  
 31  13  45  1   
 32  14  18  ar  
 33  14  46  1   
 34  15  47  1   
 35  16  19  1   
 36  16  48  1   
 37  16  49  1   
 38  17  20  ar  
 39  17  50  1   
 40  18  20  ar  
 41  18  51  1   
 42  19  21  ar  
 43  19  22  ar  
 44  20  23  1   
 45  21  24  ar  
 46  22  25  ar  
 47  22  52  1   
 48  23  26  1   
 49  24  27  ar  
 50  24  28  ar  
 51  25  27  ar  
 52  25  53  1   
 53  26  54  1   
 54  26  55  1   
 55  26  56  1   
 56  27  29  ar  
 57  28  30  ar  
 58  28  57  1   
 59  29  31  ar  
 60  29  58  1   
 61  30  31  ar  
 62  30  59  1   
 63  31  60  1   
@<TRIPOS>SUBSTRUCTURE
  1 ****   6 GROUP 4 **** **** 0

# MOE 2024.06 (io_trps.svl 2023.06)
