@<TRIPOS>MOLECULE
NONAME
61 63 1 0 0 
SMALL
USER_CHARGES


@<TRIPOS>ATOM
  1 O       -2.1010     2.2180     3.6000 O.2   1 <1>  -0.5700 
  2 C       -2.0440     2.3450     2.3900 C.2   1 <1>   0.5440 
  3 N       -2.4840     1.2860     1.6150 N.am  1 <1>  -0.6600 
  4 C       -1.5580     3.5980     1.8430 C.ar  1 <1>   0.0860 
  5 C       -3.0140     1.4280     0.2230 C.3   1 <1>   0.2200 
  6 C       -2.1340    -0.0950     2.0640 C.3   1 <1>   0.0600 
  7 C       -0.5640     3.6670     0.8550 C.ar  1 <1>   0.0830 
  8 C       -2.0890     4.7980     2.3160 C.ar  1 <1>  -0.1500 
  9 C       -3.8910     2.6690     0.0440 C.3   1 <1>  -0.1600 
 10 C       -3.9680     0.2900    -0.1460 C.3   1 <1>  -0.1600 
 11 O       -0.0210     2.5050     0.4170 O.3   1 <1>  -0.3620 
 12 C       -0.1550     4.9030     0.3560 C.ar  1 <1>  -0.1500 
 13 C       -1.6810     6.0210     1.8200 C.ar  1 <1>  -0.1500 
 14 C       -4.8300     2.3620    -1.1300 C.3   1 <1>  -0.0800 
 15 C       -4.8630     0.8340    -1.2660 C.3   1 <1>  -0.0800 
 16 C        1.0090     2.4470    -0.5420 C.3   1 <1>   0.1200 
 17 C       -0.7140     6.0730     0.8340 C.ar  1 <1>  -0.1500 
 18 C       -6.2760     2.8100    -0.8810 C.3   1 <1>  -0.1600 
 19 C       -6.3320     0.4160    -1.1200 C.3   1 <1>  -0.1600 
 20 C        1.3350     0.9740    -0.7920 C.3   1 <1>  -0.1600 
 21 C       -6.9630     1.5600    -0.3340 C.3   1 <1>   0.4230 
 22 C        2.4430     0.8200    -1.8410 C.3   1 <1>  -0.1600 
 23 N       -8.4570     1.5760    -0.4140 N.4   1 <1>  -0.9590 
 24 C        2.7630    -0.6570    -2.0880 C.3   1 <1>  -0.2400 
 25 C       -9.0230     1.7990    -1.7850 C.3   1 <1>   0.2630 
 26 C       -9.0170     2.5760     0.5450 C.3   1 <1>   0.2630 
 27 H       -2.1970     1.4520    -0.4790 H     1 <1>   0.0800 
 28 H       -1.6530    -0.6320     1.2660 H     1 <1>   0.0800 
 29 H       -3.0210    -0.6180     2.3730 H     1 <1>   0.0800 
 30 H       -1.4550    -0.0570     2.8990 H     1 <1>   0.0800 
 31 H       -2.8340     4.7600     3.0930 H     1 <1>   0.1500 
 32 H       -4.4520     2.8320     0.9470 H     1 <1>   0.0800 
 33 H       -3.3010     3.5410    -0.1750 H     1 <1>   0.0800 
 34 H       -3.4290    -0.5820    -0.4710 H     1 <1>   0.0800 
 35 H       -4.5650     0.0450     0.7150 H     1 <1>   0.0800 
 36 H        0.6000     4.9770    -0.4030 H     1 <1>   0.1500 
 37 H       -2.1120     6.9310     2.2020 H     1 <1>   0.1500 
 38 H       -4.4390     2.8080    -2.0310 H     1 <1>   0.0800 
 39 H       -4.4670     0.5340    -2.2240 H     1 <1>   0.0800 
 40 H        0.6620     2.9160    -1.4460 H     1 <1>   0.0800 
 41 H        1.8670     2.9680    -0.1520 H     1 <1>   0.0800 
 42 H       -0.3930     7.0250     0.4450 H     1 <1>   0.1500 
 43 H       -6.6970     3.1040    -1.8250 H     1 <1>   0.0800 
 44 H       -6.3270     3.6370    -0.1950 H     1 <1>   0.0800 
 45 H       -6.4340    -0.5280    -0.6140 H     1 <1>   0.0800 
 46 H       -6.7550     0.3420    -2.1050 H     1 <1>   0.0800 
 47 H        1.6530     0.5260     0.1340 H     1 <1>   0.0800 
 48 H        0.4460     0.4710    -1.1310 H     1 <1>   0.0800 
 49 H       -6.6640     1.4460     0.6960 H     1 <1>   0.0800 
 50 H        2.1310     1.2730    -2.7680 H     1 <1>   0.0800 
 51 H        3.3340     1.3230    -1.5050 H     1 <1>   0.0800 
 52 H       -8.7640     0.6420    -0.1030 H     1 <1>   0.4500 
 53 H        1.8920    -1.1770    -2.4460 H     1 <1>   0.0800 
 54 H        3.0980    -1.1260    -1.1790 H     1 <1>   0.0800 
 55 H        3.5420    -0.7470    -2.8250 H     1 <1>   0.0800 
 56 H       -8.7470     2.7730    -2.1540 H     1 <1>   0.0800 
 57 H      -10.0990     1.7380    -1.7580 H     1 <1>   0.0800 
 58 H       -8.6600     1.0530    -2.4730 H     1 <1>   0.0800 
 59 H       -8.7240     3.5730     0.2600 H     1 <1>   0.0800 
 60 H       -8.6550     2.3830     1.5420 H     1 <1>   0.0800 
 61 H      -10.0940     2.5240     0.5560 H     1 <1>   0.0800 
@<TRIPOS>BOND
  1   1   2  2   
  2   2   3  am  
  3   2   4  1   
  4   3   5  1   
  5   3   6  1   
  6   4   7  ar  
  7   4   8  ar  
  8   5   9  1   
  9   5  10  1   
 10   5  27  1   
 11   6  28  1   
 12   6  29  1   
 13   6  30  1   
 14   7  11  1   
 15   7  12  ar  
 16   8  13  ar  
 17   8  31  1   
 18   9  14  1   
 19   9  32  1   
 20   9  33  1   
 21  10  15  1   
 22  10  34  1   
 23  10  35  1   
 24  11  16  1   
 25  12  17  ar  
 26  12  36  1   
 27  13  17  ar  
 28  13  37  1   
 29  14  15  1   
 30  14  18  1   
 31  14  38  1   
 32  15  19  1   
 33  15  39  1   
 34  16  20  1   
 35  16  40  1   
 36  16  41  1   
 37  17  42  1   
 38  18  21  1   
 39  18  43  1   
 40  18  44  1   
 41  19  21  1   
 42  19  45  1   
 43  19  46  1   
 44  20  22  1   
 45  20  47  1   
 46  20  48  1   
 47  21  23  1   
 48  21  49  1   
 49  22  24  1   
 50  22  50  1   
 51  22  51  1   
 52  23  25  1   
 53  23  26  1   
 54  23  52  1   
 55  24  53  1   
 56  24  54  1   
 57  24  55  1   
 58  25  56  1   
 59  25  57  1   
 60  25  58  1   
 61  26  59  1   
 62  26  60  1   
 63  26  61  1   
@<TRIPOS>SUBSTRUCTURE
  1 ****   5 GROUP 4 **** **** 0

# MOE 2024.06 (io_trps.svl 2023.06)
