@<TRIPOS>MOLECULE
NONAME
51 54 1 0 0 
SMALL
USER_CHARGES


@<TRIPOS>ATOM
  1 O       -0.0110     0.9750    -1.2230 O.2   1 <1>  -0.5700 
  2 C       -0.0990     2.1410    -0.9120 C.2   1 <1>   0.5690 
  3 N       -1.2060     2.6690    -0.3020 N.am  1 <1>  -0.5090 
  4 C        1.0770     3.0540    -1.2610 C.3   1 <1>   0.1810 
  5 C       -1.3570     4.1460    -0.0950 C.3   1 <1>   0.3640 
  6 C       -2.3240     1.8260     0.1920 C.3   1 <1>   0.0490 
  7 O        1.0360     4.2880    -0.5880 O.3   1 <1>  -0.5600 
  8 C       -2.6840     4.6200    -0.6910 C.ar  1 <1>  -0.1440 
  9 C       -0.1960     4.9710    -0.7090 C.3   1 <1>   0.2610 
 10 C       -2.6970     1.8990     1.6410 C.3   1 <1>  -0.2000 
 11 C       -2.0320     0.6740     1.1010 C.3   1 <1>  -0.2000 
 12 C       -3.5110     5.4580     0.0440 C.ar  1 <1>   0.1600 
 13 C       -3.0880     4.2410    -1.9600 C.ar  1 <1>  -0.1500 
 14 C       -0.1010     6.3800    -0.0930 C.2   1 <1>   0.5690 
 15 N       -4.6760     5.9300    -0.3720 N.ar  1 <1>  -0.6200 
 16 C       -4.2980     4.7250    -2.4070 C.ar  1 <1>  -0.1500 
 17 O       -0.7160     6.6060     0.9270 O.2   1 <1>  -0.5700 
 18 N        0.6570     7.3640    -0.6870 N.am  1 <1>  -0.6600 
 19 C       -5.0420     5.5530    -1.5850 C.ar  1 <1>   0.1600 
 20 C        0.7650     8.7180    -0.0680 C.3   1 <1>   0.2840 
 21 C        1.5820     7.1390    -1.8370 C.3   1 <1>   0.0600 
 22 C        2.1820     8.9570     0.4340 C.ar  1 <1>  -0.1440 
 23 C        2.9840     9.9370    -0.1350 C.ar  1 <1>  -0.1500 
 24 C        2.6840     8.1840     1.4710 C.ar  1 <1>  -0.1500 
 25 C        4.2730    10.1320     0.3350 C.ar  1 <1>   0.0820 
 26 C        3.9730     8.3830     1.9380 C.ar  1 <1>  -0.1500 
 27 O        5.0550    11.0760    -0.2090 O.3   1 <1>  -0.5330 
 28 C        4.7700     9.3590     1.3680 C.ar  1 <1>  -0.1500 
 29 H        1.0860     3.2410    -2.3190 H     1 <1>   0.0800 
 30 H        1.9950     2.5660    -0.9890 H     1 <1>   0.0800 
 31 H       -1.3690     4.3110     0.9670 H     1 <1>   0.0800 
 32 H       -3.1090     1.7080    -0.5370 H     1 <1>   0.1000 
 33 H       -0.3930     5.0930    -1.7570 H     1 <1>   0.0800 
 34 H       -2.1310     2.5150     2.3160 H     1 <1>   0.1000 
 35 H       -3.7360     1.8360     1.9090 H     1 <1>   0.1000 
 36 H       -2.6150    -0.2230     0.9910 H     1 <1>   0.1000 
 37 H       -1.0070     0.4710     1.3580 H     1 <1>   0.1000 
 38 H       -3.2010     5.7630     1.0300 H     1 <1>   0.1500 
 39 H       -2.4940     3.5880    -2.5770 H     1 <1>   0.1500 
 40 H       -4.6670     4.4620    -3.3820 H     1 <1>   0.1500 
 41 H       -5.9870     5.9240    -1.9430 H     1 <1>   0.1500 
 42 H        0.4980     9.4600    -0.8000 H     1 <1>   0.0800 
 43 H        0.0800     8.8220     0.7570 H     1 <1>   0.0800 
 44 H        1.6010     8.0090    -2.4690 H     1 <1>   0.0800 
 45 H        1.2800     6.2960    -2.4300 H     1 <1>   0.0800 
 46 H        2.5770     6.9590    -1.4640 H     1 <1>   0.0800 
 47 H        2.6080    10.5430    -0.9380 H     1 <1>   0.1500 
 48 H        2.0670     7.4210     1.9150 H     1 <1>   0.1500 
 49 H        4.3540     7.7780     2.7430 H     1 <1>   0.1500 
 50 H        4.6150    11.5760    -0.9180 H     1 <1>   0.4500 
 51 H        5.7730     9.5250     1.7190 H     1 <1>   0.1500 
@<TRIPOS>BOND
  1   1   2  2   
  2   2   3  am  
  3   2   4  1   
  4   3   5  1   
  5   3   6  1   
  6   4   7  1   
  7   4  29  1   
  8   4  30  1   
  9   5   8  1   
 10   5   9  1   
 11   5  31  1   
 12   6  10  1   
 13   6  11  1   
 14   6  32  1   
 15   7   9  1   
 16   8  12  ar  
 17   8  13  ar  
 18   9  14  1   
 19   9  33  1   
 20  10  11  1   
 21  10  34  1   
 22  10  35  1   
 23  11  36  1   
 24  11  37  1   
 25  12  15  ar  
 26  12  38  1   
 27  13  16  ar  
 28  13  39  1   
 29  14  17  2   
 30  14  18  am  
 31  15  19  ar  
 32  16  19  ar  
 33  16  40  1   
 34  18  20  1   
 35  18  21  1   
 36  19  41  1   
 37  20  22  1   
 38  20  42  1   
 39  20  43  1   
 40  21  44  1   
 41  21  45  1   
 42  21  46  1   
 43  22  23  ar  
 44  22  24  ar  
 45  23  25  ar  
 46  23  47  1   
 47  24  26  ar  
 48  24  48  1   
 49  25  27  1   
 50  25  28  ar  
 51  26  28  ar  
 52  26  49  1   
 53  27  50  1   
 54  28  51  1   
@<TRIPOS>SUBSTRUCTURE
  1 ****  14 GROUP 4 **** **** 0

# MOE 2024.06 (io_trps.svl 2023.06)
