@<TRIPOS>MOLECULE
NONAME
44 46 1 0 0 
SMALL
USER_CHARGES


@<TRIPOS>ATOM
  1 S        3.0150    -0.3220     2.4160 S.3   1 <1>  -0.0800 
  2 C        1.6250    -0.2420     1.3650 C.2   1 <1>   0.1980 
  3 C        2.8840    -2.0500     2.4120 C.2   1 <1>  -0.1100 
  4 N        1.1410    -1.3790     1.0610 N.2   1 <1>  -0.5650 
  5 C        1.1680     1.1460     0.9470 C.3   1 <1>   0.0200 
  6 C        1.8440    -2.4500     1.6470 C.2   1 <1>   0.1410 
  7 C       -0.0530     1.1140     0.0130 C.3   1 <1>  -0.1600 
  8 C        1.4770    -3.8560     1.4530 C.2   1 <1>   0.7160 
  9 C       -0.4930     2.5250    -0.3940 C.3   1 <1>  -0.2400 
 10 O        2.0670    -4.7060     2.0990 O.2   1 <1>  -0.5700 
 11 N        0.5050    -4.3030     0.5740 N.am  1 <1>  -0.6600 
 12 C       -0.2100    -3.4930    -0.4430 C.3   1 <1>   0.1400 
 13 C        0.1240    -5.7320     0.4660 C.3   1 <1>   0.1400 
 14 C       -0.9310    -4.5110    -1.3250 C.3   1 <1>   0.2000 
 15 C       -1.0960    -5.7560    -0.4560 C.3   1 <1>  -0.0800 
 16 O       -2.1710    -4.0510    -1.7370 O.3   1 <1>  -0.6800 
 17 C       -1.2230    -7.0470    -1.2780 C.3   1 <1>   0.0200 
 18 C       -1.3010    -8.2640    -0.3770 C.2   1 <1>  -0.0400 
 19 O       -2.3010    -8.4020     0.4520 O.3   1 <1>  -0.0190 
 20 C       -0.4920    -9.3230    -0.2260 C.2   1 <1>  -0.1500 
 21 N       -2.2040    -9.4950     1.1510 N.2   1 <1>  -0.4100 
 22 C       -1.1230   -10.0710     0.7630 C.2   1 <1>   0.1080 
 23 C       -0.6140   -11.3840     1.3150 C.3   1 <1>  -0.0590 
 24 H        3.5960    -2.6170     2.9830 H     1 <1>   0.1500 
 25 H        0.9270     1.7060     1.8320 H     1 <1>   0.0800 
 26 H        1.9850     1.6380     0.4500 H     1 <1>   0.0800 
 27 H        0.1890     0.5470    -0.8700 H     1 <1>   0.0800 
 28 H       -0.8680     0.6160     0.5110 H     1 <1>   0.0800 
 29 H        0.3000     3.0320    -0.9150 H     1 <1>   0.0800 
 30 H       -0.7630     3.1020     0.4740 H     1 <1>   0.0800 
 31 H       -1.3470     2.4690    -1.0450 H     1 <1>   0.0800 
 32 H       -0.9130    -2.8450     0.0520 H     1 <1>   0.0800 
 33 H        0.4860    -2.9120    -1.0230 H     1 <1>   0.0800 
 34 H        0.9460    -6.2790     0.0360 H     1 <1>   0.0800 
 35 H       -0.1070    -6.1420     1.4350 H     1 <1>   0.0800 
 36 H       -0.3380    -4.7170    -2.1990 H     1 <1>   0.0800 
 37 H       -1.9650    -5.6440     0.1690 H     1 <1>   0.0800 
 38 H       -2.7390    -3.8650    -0.9640 H     1 <1>   0.4000 
 39 H       -0.3780    -7.1490    -1.9350 H     1 <1>   0.0800 
 40 H       -2.1120    -7.0020    -1.8830 H     1 <1>   0.0800 
 41 H        0.4270    -9.5690    -0.7260 H     1 <1>   0.1500 
 42 H       -0.5340   -12.1060     0.5240 H     1 <1>   0.0800 
 43 H       -1.2950   -11.7580     2.0590 H     1 <1>   0.0800 
 44 H        0.3500   -11.2410     1.7670 H     1 <1>   0.0800 
@<TRIPOS>BOND
  1   1   2  1   
  2   1   3  1   
  3   2   4  2   
  4   2   5  1   
  5   3   6  2   
  6   3  24  1   
  7   4   6  1   
  8   5   7  1   
  9   5  25  1   
 10   5  26  1   
 11   6   8  1   
 12   7   9  1   
 13   7  27  1   
 14   7  28  1   
 15   8  10  2   
 16   8  11  am  
 17   9  29  1   
 18   9  30  1   
 19   9  31  1   
 20  11  12  1   
 21  11  13  1   
 22  12  14  1   
 23  12  32  1   
 24  12  33  1   
 25  13  15  1   
 26  13  34  1   
 27  13  35  1   
 28  14  15  1   
 29  14  16  1   
 30  14  36  1   
 31  15  17  1   
 32  15  37  1   
 33  16  38  1   
 34  17  18  1   
 35  17  39  1   
 36  17  40  1   
 37  18  19  1   
 38  18  20  2   
 39  19  21  1   
 40  20  22  1   
 41  20  41  1   
 42  21  22  2   
 43  22  23  1   
 44  23  42  1   
 45  23  43  1   
 46  23  44  1   
@<TRIPOS>SUBSTRUCTURE
  1 ****  11 GROUP 4 **** **** 0

# MOE 2024.06 (io_trps.svl 2023.06)
