@<TRIPOS>MOLECULE
NONAME
53 55 1 0 0 
SMALL
USER_CHARGES


@<TRIPOS>ATOM
  1 O        1.4210     1.7590     0.6940 O.2   1 <1>  -0.5700 
  2 C        2.1090     0.7990     0.4010 C.2   1 <1>   0.5440 
  3 N        1.5040    -0.4220     0.2170 N.am  1 <1>  -0.6600 
  4 C        3.5330     0.9870     0.2680 C.ar  1 <1>   0.0860 
  5 C        2.1860    -1.7340     0.2970 C.3   1 <1>   0.1400 
  6 C        0.0360    -0.5880     0.3290 C.3   1 <1>   0.1400 
  7 C        4.2110     1.7790     1.1880 C.ar  1 <1>   0.1600 
  8 C        4.2910     0.4480    -0.7640 C.ar  1 <1>  -0.1500 
  9 C        1.1120    -2.7000     0.7820 C.3   1 <1>  -0.1600 
 10 C       -0.1980    -2.0940     0.2870 C.3   1 <1>  -0.1600 
 11 N        5.5030     2.0650     1.1670 N.ar  1 <1>  -0.6200 
 12 C        5.6370     0.7200    -0.7940 C.ar  1 <1>  -0.1500 
 13 C        6.2260     1.5200     0.1890 C.ar  1 <1>   0.4100 
 14 N        7.5790     1.8490     0.1650 N.pl3 1 <1>  -0.8380 
 15 C        8.1880     2.7630     1.2060 C.3   1 <1>   0.2090 
 16 C        8.5700     0.9460    -0.4900 C.3   1 <1>   0.2090 
 17 C        8.0310     4.2650     0.8650 C.3   1 <1>   0.3430 
 18 C        9.0310     1.5890    -1.7930 C.3   1 <1>  -0.2400 
 19 N        6.6650     4.5660     0.3480 N.4   1 <1>  -0.9590 
 20 C        6.6070     4.5780    -1.1480 C.3   1 <1>   0.3430 
 21 C        6.0040     5.7700     0.9430 C.3   1 <1>   0.3430 
 22 C        5.1700     4.8370    -1.6370 C.3   1 <1>   0.1200 
 23 C        4.5990     5.9740     0.3430 C.3   1 <1>   0.1200 
 24 O        4.6640     6.0050    -1.0550 O.3   1 <1>  -0.5600 
 25 H        3.0220    -1.7040     0.9760 H     1 <1>   0.0800 
 26 H        2.5200    -2.0200    -0.6850 H     1 <1>   0.0800 
 27 H       -0.4670    -0.0820    -0.4770 H     1 <1>   0.0800 
 28 H       -0.2940    -0.1800     1.2700 H     1 <1>   0.0800 
 29 H        3.6280     2.2030     1.9890 H     1 <1>   0.1500 
 30 H        3.8220    -0.1570    -1.5220 H     1 <1>   0.1500 
 31 H        1.1200    -2.7220     1.8580 H     1 <1>   0.0800 
 32 H        1.2700    -3.6970     0.4100 H     1 <1>   0.0800 
 33 H       -0.3790    -2.3910    -0.7310 H     1 <1>   0.0800 
 34 H       -1.0390    -2.3840     0.8910 H     1 <1>   0.0800 
 35 H        6.2290     0.3200    -1.5930 H     1 <1>   0.1500 
 36 H        9.2370     2.5530     1.3230 H     1 <1>   0.0800 
 37 H        7.7340     2.5710     2.1630 H     1 <1>   0.0800 
 38 H        8.1400    -0.0220    -0.6830 H     1 <1>   0.0800 
 39 H        9.4170     0.7830     0.1570 H     1 <1>   0.0800 
 40 H        8.7680     4.5400     0.1300 H     1 <1>   0.0800 
 41 H        8.2240     4.8380     1.7560 H     1 <1>   0.0800 
 42 H        8.1970     1.7320    -2.4550 H     1 <1>   0.0800 
 43 H        9.7410     0.9440    -2.2780 H     1 <1>   0.0800 
 44 H        9.5080     2.5320    -1.6000 H     1 <1>   0.0800 
 45 H        6.1130     3.7270     0.6280 H     1 <1>   0.4500 
 46 H        6.9500     3.6320    -1.5330 H     1 <1>   0.0800 
 47 H        7.2490     5.3520    -1.5350 H     1 <1>   0.0800 
 48 H        6.5940     6.6480     0.7420 H     1 <1>   0.0800 
 49 H        5.9220     5.6550     2.0110 H     1 <1>   0.0800 
 50 H        4.5240     4.0130    -1.3860 H     1 <1>   0.0800 
 51 H        5.1590     4.9700    -2.7050 H     1 <1>   0.0800 
 52 H        4.1870     6.9120     0.6730 H     1 <1>   0.0800 
 53 H        3.9320     5.1820     0.6420 H     1 <1>   0.0800 
@<TRIPOS>BOND
  1   1   2  2   
  2   2   3  am  
  3   2   4  1   
  4   3   5  1   
  5   3   6  1   
  6   4   7  ar  
  7   4   8  ar  
  8   5   9  1   
  9   5  25  1   
 10   5  26  1   
 11   6  10  1   
 12   6  27  1   
 13   6  28  1   
 14   7  11  ar  
 15   7  29  1   
 16   8  12  ar  
 17   8  30  1   
 18   9  10  1   
 19   9  31  1   
 20   9  32  1   
 21  10  33  1   
 22  10  34  1   
 23  11  13  ar  
 24  12  13  ar  
 25  12  35  1   
 26  13  14  1   
 27  14  15  1   
 28  14  16  1   
 29  15  17  1   
 30  15  36  1   
 31  15  37  1   
 32  16  18  1   
 33  16  38  1   
 34  16  39  1   
 35  17  19  1   
 36  17  40  1   
 37  17  41  1   
 38  18  42  1   
 39  18  43  1   
 40  18  44  1   
 41  19  20  1   
 42  19  21  1   
 43  19  45  1   
 44  20  22  1   
 45  20  46  1   
 46  20  47  1   
 47  21  23  1   
 48  21  48  1   
 49  21  49  1   
 50  22  24  1   
 51  22  50  1   
 52  22  51  1   
 53  23  24  1   
 54  23  52  1   
 55  23  53  1   
@<TRIPOS>SUBSTRUCTURE
  1 ****   7 GROUP 4 **** **** 0

# MOE 2024.06 (io_trps.svl 2023.06)
