@<TRIPOS>MOLECULE
NONAME
57 60 1 0 0 
SMALL
USER_CHARGES


@<TRIPOS>ATOM
  1 O       -1.2460     0.8870     1.0900 O.2   1 <1>  -0.5700 
  2 C       -2.3500     0.5740     0.7300 C.2   1 <1>   0.4230 
  3 C       -3.2300     1.2850    -0.1430 C.ar  1 <1>   0.0860 
  4 C       -3.0240    -0.7040     1.1850 C.3   1 <1>  -0.0990 
  5 C       -4.4200     0.6050    -0.3010 C.ar  1 <1>  -0.1440 
  6 C       -3.0340     2.4930    -0.8000 C.ar  1 <1>  -0.1500 
  7 C       -4.4050    -0.6890     0.4990 C.3   1 <1>  -0.0160 
  8 C       -5.4540     1.0890    -1.1000 C.ar  1 <1>   0.0860 
  9 C       -4.0360     2.9970    -1.6100 C.ar  1 <1>  -0.1500 
 10 C       -6.7100     0.3770    -1.2510 C.2   1 <1>   0.5440 
 11 C       -5.2250     2.3010    -1.7580 C.ar  1 <1>  -0.1500 
 12 O       -6.7010    -0.7850    -1.6140 O.2   1 <1>  -0.5700 
 13 N       -7.9210     0.9790    -0.9840 N.am  1 <1>  -0.6600 
 14 C       -8.0380     2.2560    -0.2190 C.3   1 <1>   0.1400 
 15 C       -9.1940     0.3110    -1.3880 C.3   1 <1>   0.1400 
 16 C       -9.3170     2.2300     0.6190 C.3   1 <1>  -0.1600 
 17 C      -10.3050     1.3480    -1.5630 C.3   1 <1>  -0.1600 
 18 C      -10.5770     2.1650    -0.2760 C.3   1 <1>   0.2800 
 19 O      -10.8350     3.4580    -0.7470 O.3   1 <1>  -0.5600 
 20 C      -11.8020     1.5930     0.4920 C.3   1 <1>  -0.1600 
 21 C      -11.3930     4.4500     0.0820 C.3   1 <1>   0.1200 
 22 C      -13.0150     2.5360     0.5680 C.3   1 <1>   0.3000 
 23 C      -12.5000     3.9270     1.0180 C.3   1 <1>   0.2000 
 24 N      -13.5800     2.6170    -0.8000 N.am  1 <1>  -0.7300 
 25 C      -14.0500     1.9370     1.5330 C.3   1 <1>  -0.2400 
 26 O      -11.9860     3.8680     2.3160 O.3   1 <1>  -0.6800 
 27 C      -14.7230     3.1060    -1.3310 C.2   1 <1>   0.5690 
 28 O      -14.8190     3.1900    -2.5270 O.2   1 <1>  -0.5700 
 29 C      -15.8860     3.5770    -0.4930 C.3   1 <1>  -0.1790 
 30 H       -2.4430    -1.5520     0.8720 H     1 <1>   0.0800 
 31 H       -3.1190    -0.7040     2.2550 H     1 <1>   0.0800 
 32 H       -2.1030     3.0180    -0.6710 H     1 <1>   0.1500 
 33 H       -5.1990    -0.6950     1.2250 H     1 <1>   0.0800 
 34 H       -4.5150    -1.5360    -0.1580 H     1 <1>   0.0800 
 35 H       -3.8880     3.9290    -2.1280 H     1 <1>   0.1500 
 36 H       -5.9950     2.6960    -2.3980 H     1 <1>   0.1500 
 37 H       -7.1870     2.3770     0.4300 H     1 <1>   0.0800 
 38 H       -8.0700     3.0850    -0.9060 H     1 <1>   0.0800 
 39 H       -9.0440    -0.2150    -2.3170 H     1 <1>   0.0800 
 40 H       -9.4680    -0.4090    -0.6370 H     1 <1>   0.0800 
 41 H       -9.3450     3.0890     1.2610 H     1 <1>   0.0800 
 42 H       -9.2620     1.3610     1.2500 H     1 <1>   0.0800 
 43 H      -11.1960     0.8560    -1.9050 H     1 <1>   0.0800 
 44 H       -9.9950     2.0070    -2.3560 H     1 <1>   0.0800 
 45 H      -12.1130     0.6510     0.0790 H     1 <1>   0.0800 
 46 H      -11.4950     1.3580     1.4950 H     1 <1>   0.0800 
 47 H      -10.6040     4.9270     0.6360 H     1 <1>   0.0800 
 48 H      -11.8200     5.1820    -0.5800 H     1 <1>   0.0800 
 49 H      -13.3120     4.6320     1.0490 H     1 <1>   0.0800 
 50 H      -12.8440     2.5070    -1.5040 H     1 <1>   0.3700 
 51 H      -13.5830     1.6620     2.4610 H     1 <1>   0.0800 
 52 H      -14.4980     1.0560     1.1080 H     1 <1>   0.0800 
 53 H      -14.8130     2.6500     1.7760 H     1 <1>   0.0800 
 54 H      -11.2130     3.2740     2.3450 H     1 <1>   0.4000 
 55 H      -16.3620     2.7360    -0.0270 H     1 <1>   0.0800 
 56 H      -16.6050     4.0680    -1.1240 H     1 <1>   0.0800 
 57 H      -15.5530     4.2750     0.2490 H     1 <1>   0.0800 
@<TRIPOS>BOND
  1   1   2  2   
  2   2   3  1   
  3   2   4  1   
  4   3   5  ar  
  5   3   6  ar  
  6   4   7  1   
  7   4  30  1   
  8   4  31  1   
  9   5   7  1   
 10   5   8  ar  
 11   6   9  ar  
 12   6  32  1   
 13   7  33  1   
 14   7  34  1   
 15   8  10  1   
 16   8  11  ar  
 17   9  11  ar  
 18   9  35  1   
 19  10  12  2   
 20  10  13  am  
 21  11  36  1   
 22  13  14  1   
 23  13  15  1   
 24  14  16  1   
 25  14  37  1   
 26  14  38  1   
 27  15  17  1   
 28  15  39  1   
 29  15  40  1   
 30  16  18  1   
 31  16  41  1   
 32  16  42  1   
 33  17  18  1   
 34  17  43  1   
 35  17  44  1   
 36  18  19  1   
 37  18  20  1   
 38  19  21  1   
 39  20  22  1   
 40  20  45  1   
 41  20  46  1   
 42  21  23  1   
 43  21  47  1   
 44  21  48  1   
 45  22  23  1   
 46  22  24  1   
 47  22  25  1   
 48  23  26  1   
 49  23  49  1   
 50  24  27  am  
 51  24  50  1   
 52  25  51  1   
 53  25  52  1   
 54  25  53  1   
 55  26  54  1   
 56  27  28  2   
 57  27  29  1   
 58  29  55  1   
 59  29  56  1   
 60  29  57  1   
@<TRIPOS>SUBSTRUCTURE
  1 ****  14 GROUP 4 **** **** 0

# MOE 2024.06 (io_trps.svl 2023.06)
