@<TRIPOS>MOLECULE
NONAME
48 50 1 0 0 
SMALL
USER_CHARGES


@<TRIPOS>ATOM
  1 S        0.6270     0.3160    -1.7640 S.o2  1 <1>   1.3330 
  2 O       -0.0670     1.1870    -2.6850 O.2   1 <1>  -0.6500 
  3 O        1.0360    -1.0050    -2.1830 O.2   1 <1>  -0.6500 
  4 N       -0.3410     0.1580    -0.3750 N.am  1 <1>  -0.8490 
  5 C        2.0840     1.1740    -1.1620 C.3   1 <1>  -0.0550 
  6 C       -1.2270     1.3050    -0.1490 C.3   1 <1>   0.1160 
  7 C       -1.1290    -1.0790    -0.3820 C.3   1 <1>   0.1160 
  8 C        2.9420     0.3520    -0.1760 C.3   1 <1>  -0.0800 
  9 C        4.3080     0.9480     0.1420 C.3   1 <1>   0.2200 
 10 C        2.3240     0.1460     1.2160 C.3   1 <1>   0.1200 
 11 N        4.2050     2.4130     0.3720 N.am  1 <1>  -0.7300 
 12 C        4.5790     0.2900     1.4860 C.3   1 <1>   0.1200 
 13 O        3.3520     0.3670     2.1390 O.3   1 <1>  -0.5600 
 14 C        4.6390     3.3850    -0.4830 C.2   1 <1>   0.7030 
 15 O        5.0090     3.0570    -1.5910 O.2   1 <1>  -0.5700 
 16 C        4.6540     4.7900    -0.1110 C.2   1 <1>   0.2770 
 17 N        4.3950     5.3530     1.1330 N.pl3 1 <1>  -0.7000 
 18 C        4.9380     5.8270    -0.9350 C.2   1 <1>   0.2000 
 19 C        4.5240     6.6860     1.0400 C.cat 1 <1>   0.7910 
 20 N        4.8560     7.0090    -0.2320 N.pl3 1 <1>  -0.6290 
 21 C        4.3700     7.6810     2.0180 C.2   1 <1>  -0.1410 
 22 C        5.0500     8.3270    -0.5910 C.2   1 <1>   0.2410 
 23 C        4.5580     8.9930     1.6790 C.2   1 <1>  -0.1500 
 24 C        4.9030     9.3080     0.3490 C.2   1 <1>  -0.1500 
 25 C        5.4220     8.6300    -2.0310 C.3   1 <1>  -0.1020 
 26 H        2.6950     1.4170    -2.0100 H     1 <1>   0.0800 
 27 H        1.7850     2.0960    -0.7050 H     1 <1>   0.0800 
 28 H       -1.7440     1.1960     0.7890 H     1 <1>   0.0800 
 29 H       -1.9550     1.3800    -0.9420 H     1 <1>   0.0800 
 30 H       -0.6560     2.2170    -0.1200 H     1 <1>   0.0800 
 31 H       -1.7220    -1.1510     0.5130 H     1 <1>   0.0800 
 32 H       -0.4760    -1.9350    -0.4210 H     1 <1>   0.0800 
 33 H       -1.7800    -1.1030    -1.2420 H     1 <1>   0.0800 
 34 H        3.1060    -0.6230    -0.6040 H     1 <1>   0.0800 
 35 H        5.0570     0.7140    -0.5970 H     1 <1>   0.0800 
 36 H        1.9530    -0.8580     1.3390 H     1 <1>   0.0800 
 37 H        1.5380     0.8500     1.4250 H     1 <1>   0.0800 
 38 H        3.7820     2.6220     1.2790 H     1 <1>   0.3700 
 39 H        5.3360     0.7930     2.0620 H     1 <1>   0.0800 
 40 H        4.8360    -0.7500     1.3680 H     1 <1>   0.0800 
 41 H        4.1800     4.8590     2.0010 H     1 <1>   0.4500 
 42 H        5.1930     5.7770    -1.9820 H     1 <1>   0.1500 
 43 H        4.1070     7.3920     3.0180 H     1 <1>   0.1500 
 44 H        4.4500     9.7890     2.3990 H     1 <1>   0.1500 
 45 H        5.0490    10.3440     0.0950 H     1 <1>   0.1500 
 46 H        6.3470     8.1440    -2.2840 H     1 <1>   0.0800 
 47 H        5.5460     9.6880    -2.1760 H     1 <1>   0.0800 
 48 H        4.6490     8.2860    -2.6930 H     1 <1>   0.0800 
@<TRIPOS>BOND
  1   1   2  2   
  2   1   3  2   
  3   1   4  am  
  4   1   5  1   
  5   4   6  1   
  6   4   7  1   
  7   5   8  1   
  8   5  26  1   
  9   5  27  1   
 10   6  28  1   
 11   6  29  1   
 12   6  30  1   
 13   7  31  1   
 14   7  32  1   
 15   7  33  1   
 16   8   9  1   
 17   8  10  1   
 18   8  34  1   
 19   9  11  1   
 20   9  12  1   
 21   9  35  1   
 22  10  13  1   
 23  10  36  1   
 24  10  37  1   
 25  11  14  am  
 26  11  38  1   
 27  12  13  1   
 28  12  39  1   
 29  12  40  1   
 30  14  15  2   
 31  14  16  1   
 32  16  17  1   
 33  16  18  2   
 34  17  19  ar  
 35  17  41  1   
 36  18  20  1   
 37  18  42  1   
 38  19  20  ar  
 39  19  21  1   
 40  20  22  1   
 41  21  23  2   
 42  21  43  1   
 43  22  24  2   
 44  22  25  1   
 45  23  24  1   
 46  23  44  1   
 47  24  45  1   
 48  25  46  1   
 49  25  47  1   
 50  25  48  1   
@<TRIPOS>SUBSTRUCTURE
  1 ****  14 GROUP 4 **** **** 0

# MOE 2024.06 (io_trps.svl 2023.06)
