@<TRIPOS>MOLECULE
NONAME
46 49 1 0 0 
SMALL
USER_CHARGES


@<TRIPOS>ATOM
  1 O        3.7000    -2.5480     0.8360 O.2   1 <1>  -0.5700 
  2 C        2.6020    -2.2340     0.4180 C.2   1 <1>   0.7160 
  3 N        2.3150    -0.8920     0.4050 N.am  1 <1>  -0.6600 
  4 C        1.7080    -3.2230    -0.1110 C.2   1 <1>  -0.0860 
  5 C        2.7740    -0.0370     1.5600 C.3   1 <1>   0.2200 
  6 C        1.9350    -0.2330    -0.8800 C.3   1 <1>   0.1400 
  7 C        0.3750    -3.1930    -0.3860 C.2   1 <1>   0.0870 
  8 C        2.0730    -4.5120    -0.4990 C.2   1 <1>   0.1390 
  9 C        1.8920     1.2050     1.7710 C.3   1 <1>   0.1200 
 10 C        4.2610     0.3730     1.4110 C.3   1 <1>   0.3430 
 11 C        2.6280     1.1200    -1.1240 C.3   1 <1>  -0.0800 
 12 O        0.0640    -4.3510    -0.9090 O.3   1 <1>  -0.0190 
 13 C       -0.6300    -2.1810    -0.2020 C.ar  1 <1>   0.0530 
 14 N        1.0780    -5.1600    -0.9810 N.2   1 <1>  -0.4100 
 15 O        2.3490     2.2670     0.9860 O.3   1 <1>  -0.5600 
 16 N        4.7670     0.1930     0.0070 N.4   1 <1>  -0.9590 
 17 C        1.9480     2.2550    -0.3420 C.3   1 <1>   0.1200 
 18 C        4.1690     1.1480    -0.9870 C.3   1 <1>   0.3430 
 19 C       -0.7850    -1.5280     1.0210 C.ar  1 <1>  -0.1500 
 20 C       -1.4690    -1.8070    -1.2490 C.ar  1 <1>  -0.1500 
 21 C        6.2570     0.2240    -0.0280 C.3   1 <1>   0.2630 
 22 C       -1.7210    -0.5240     1.1840 C.ar  1 <1>  -0.1500 
 23 C       -2.4050    -0.8020    -1.0930 C.ar  1 <1>  -0.1500 
 24 C       -2.5300    -0.1550     0.1240 C.ar  1 <1>  -0.1500 
 25 H        2.6870    -0.6270     2.4570 H     1 <1>   0.0800 
 26 H        2.1710    -0.8960    -1.6960 H     1 <1>   0.0800 
 27 H        0.8680    -0.0840    -0.8930 H     1 <1>   0.0800 
 28 H        3.0680    -4.9170    -0.4100 H     1 <1>   0.1500 
 29 H        1.9750     1.5280     2.7950 H     1 <1>   0.0800 
 30 H        0.8540     1.0060     1.5640 H     1 <1>   0.0800 
 31 H        4.8370    -0.2520     2.0720 H     1 <1>   0.0800 
 32 H        4.3930     1.3940     1.7300 H     1 <1>   0.0800 
 33 H        2.4260     1.3590    -2.1530 H     1 <1>   0.0800 
 34 H        4.4520    -0.7630    -0.2340 H     1 <1>   0.4500 
 35 H        0.8730     2.1830    -0.3830 H     1 <1>   0.0800 
 36 H        2.2310     3.2080    -0.7580 H     1 <1>   0.0800 
 37 H        4.4700     2.1530    -0.7370 H     1 <1>   0.0800 
 38 H        4.5870     0.9230    -1.9550 H     1 <1>   0.0800 
 39 H       -0.1680    -1.8180     1.8530 H     1 <1>   0.1500 
 40 H       -1.3840    -2.3120    -2.1970 H     1 <1>   0.1500 
 41 H        6.6190     1.1950     0.2680 H     1 <1>   0.0800 
 42 H        6.6130     0.0090    -1.0230 H     1 <1>   0.0800 
 43 H        6.6600    -0.5160     0.6450 H     1 <1>   0.0800 
 44 H       -1.8310    -0.0320     2.1350 H     1 <1>   0.1500 
 45 H       -3.0440    -0.5260    -1.9150 H     1 <1>   0.1500 
 46 H       -3.2620     0.6250     0.2480 H     1 <1>   0.1500 
@<TRIPOS>BOND
  1   1   2  2   
  2   2   3  am  
  3   2   4  1   
  4   3   5  1   
  5   3   6  1   
  6   4   7  2   
  7   4   8  1   
  8   5   9  1   
  9   5  10  1   
 10   5  25  1   
 11   6  11  1   
 12   6  26  1   
 13   6  27  1   
 14   7  12  1   
 15   7  13  1   
 16   8  14  2   
 17   8  28  1   
 18   9  15  1   
 19   9  29  1   
 20   9  30  1   
 21  10  16  1   
 22  10  31  1   
 23  10  32  1   
 24  11  17  1   
 25  11  18  1   
 26  11  33  1   
 27  12  14  1   
 28  13  19  ar  
 29  13  20  ar  
 30  15  17  1   
 31  16  18  1   
 32  16  21  1   
 33  16  34  1   
 34  17  35  1   
 35  17  36  1   
 36  18  37  1   
 37  18  38  1   
 38  19  22  ar  
 39  19  39  1   
 40  20  23  ar  
 41  20  40  1   
 42  21  41  1   
 43  21  42  1   
 44  21  43  1   
 45  22  24  ar  
 46  22  44  1   
 47  23  24  ar  
 48  23  45  1   
 49  24  46  1   
@<TRIPOS>SUBSTRUCTURE
  1 ****   3 GROUP 4 **** **** 0

# MOE 2024.06 (io_trps.svl 2023.06)
