@<TRIPOS>MOLECULE
NONAME
58 61 1 0 0 
SMALL
USER_CHARGES


@<TRIPOS>ATOM
  1 O       -0.5900     0.4910     2.0810 O.2   1 <1>  -0.5700 
  2 C       -1.4300     1.0870     1.4360 C.2   1 <1>   0.5440 
  3 N       -2.3110     0.3620     0.6660 N.am  1 <1>  -0.6600 
  4 C       -1.4730     2.5360     1.4770 C.ar  1 <1>   0.0860 
  5 C       -3.1130     0.9150    -0.4540 C.3   1 <1>   0.1400 
  6 C       -2.2680    -1.1190     0.5980 C.3   1 <1>   0.1400 
  7 C       -0.3260     3.2840     1.2360 C.ar  1 <1>  -0.1500 
  8 C       -2.6470     3.2300     1.7590 C.ar  1 <1>  -0.1500 
  9 C       -3.5010    -0.2990    -1.2990 C.3   1 <1>   0.2000 
 10 C       -3.3910    -1.5030    -0.3670 C.3   1 <1>  -0.0800 
 11 C       -0.3320     4.6700     1.2490 C.ar  1 <1>   0.1170 
 12 C       -2.6730     4.6120     1.7790 C.ar  1 <1>  -0.1500 
 13 O       -4.7960    -0.1950    -1.7820 O.3   1 <1>  -0.6800 
 14 C       -3.1490    -2.8190    -1.1260 C.3   1 <1>  -0.0170 
 15 N        0.8750     5.3360     1.0020 N.am  1 <1>  -0.5470 
 16 C       -1.5240     5.3430     1.5270 C.ar  1 <1>  -0.1430 
 17 C       -3.0920    -4.0100    -0.1830 C.ar  1 <1>   0.1670 
 18 C        1.1830     6.1650    -0.0400 C.2   1 <1>   0.5690 
 19 C       -1.5990     6.8640     1.5680 C.3   1 <1>  -0.0970 
 20 N       -1.9280    -4.2490     0.3990 N.ar  1 <1>  -0.6200 
 21 C       -4.2320    -4.7830     0.0320 C.ar  1 <1>   0.1600 
 22 O        0.3970     6.4290    -0.9170 O.2   1 <1>  -0.5700 
 23 C        2.5900     6.7620    -0.0810 C.3   1 <1>  -0.0190 
 24 C       -1.9800    -5.2960     1.2050 C.ar  1 <1>   0.1600 
 25 N       -4.2870    -5.8300     0.8380 N.ar  1 <1>  -0.6200 
 26 C        2.6180     8.2920    -0.1020 C.3   1 <1>  -0.1600 
 27 C        3.3960     6.3790    -1.3240 C.3   1 <1>  -0.1600 
 28 C       -3.1210    -6.0610     1.4170 C.ar  1 <1>   0.1600 
 29 C        4.0070     8.6540    -0.6340 C.3   1 <1>  -0.1600 
 30 C        4.4990     7.4350    -1.4250 C.3   1 <1>  -0.1600 
 31 H       -3.9870     1.4010    -0.0590 H     1 <1>   0.0800 
 32 H       -2.5270     1.6110    -1.0300 H     1 <1>   0.0800 
 33 H       -1.3080    -1.4260     0.2180 H     1 <1>   0.0800 
 34 H       -2.4140    -1.5520     1.5740 H     1 <1>   0.0800 
 35 H        0.5890     2.7610     1.0280 H     1 <1>   0.1500 
 36 H       -3.5450     2.6770     1.9690 H     1 <1>   0.1500 
 37 H       -2.8300    -0.3890    -2.1370 H     1 <1>   0.0800 
 38 H       -4.2920    -1.5870     0.2160 H     1 <1>   0.0800 
 39 H       -3.5970     5.1190     1.9950 H     1 <1>   0.1500 
 40 H       -5.4250    -0.0800    -1.0440 H     1 <1>   0.4000 
 41 H       -2.2250    -2.7630    -1.6760 H     1 <1>   0.0800 
 42 H       -3.9400    -2.9660    -1.8400 H     1 <1>   0.0800 
 43 H        1.6410     5.0910     1.6250 H     1 <1>   0.3700 
 44 H       -2.4780     7.1930     2.0920 H     1 <1>   0.0800 
 45 H       -1.6340     7.2530     0.5660 H     1 <1>   0.0800 
 46 H       -0.7400     7.2720     2.0680 H     1 <1>   0.0800 
 47 H       -5.1400    -4.5220    -0.4830 H     1 <1>   0.1500 
 48 H        3.1390     6.4350     0.7840 H     1 <1>   0.0800 
 49 H       -1.0760    -5.5630     1.7220 H     1 <1>   0.1500 
 50 H        1.8720     8.6550    -0.7900 H     1 <1>   0.0800 
 51 H        2.4330     8.7140     0.8700 H     1 <1>   0.0800 
 52 H        3.7930     5.3810    -1.2570 H     1 <1>   0.0800 
 53 H        2.7640     6.4460    -2.1940 H     1 <1>   0.0800 
 54 H       -3.0640    -6.8950     2.0930 H     1 <1>   0.1500 
 55 H        3.9610     9.5330    -1.2550 H     1 <1>   0.0800 
 56 H        4.6760     8.8450     0.1880 H     1 <1>   0.0800 
 57 H        5.4080     7.0620    -0.9840 H     1 <1>   0.0800 
 58 H        4.6910     7.6880    -2.4540 H     1 <1>   0.0800 
@<TRIPOS>BOND
  1   1   2  2   
  2   2   3  am  
  3   2   4  1   
  4   3   5  1   
  5   3   6  1   
  6   4   7  ar  
  7   4   8  ar  
  8   5   9  1   
  9   5  31  1   
 10   5  32  1   
 11   6  10  1   
 12   6  33  1   
 13   6  34  1   
 14   7  11  ar  
 15   7  35  1   
 16   8  12  ar  
 17   8  36  1   
 18   9  10  1   
 19   9  13  1   
 20   9  37  1   
 21  10  14  1   
 22  10  38  1   
 23  11  15  1   
 24  11  16  ar  
 25  12  16  ar  
 26  12  39  1   
 27  13  40  1   
 28  14  17  1   
 29  14  41  1   
 30  14  42  1   
 31  15  18  am  
 32  15  43  1   
 33  16  19  1   
 34  17  20  ar  
 35  17  21  ar  
 36  18  22  2   
 37  18  23  1   
 38  19  44  1   
 39  19  45  1   
 40  19  46  1   
 41  20  24  ar  
 42  21  25  ar  
 43  21  47  1   
 44  23  26  1   
 45  23  27  1   
 46  23  48  1   
 47  24  28  ar  
 48  24  49  1   
 49  25  28  ar  
 50  26  29  1   
 51  26  50  1   
 52  26  51  1   
 53  27  30  1   
 54  27  52  1   
 55  27  53  1   
 56  28  54  1   
 57  29  30  1   
 58  29  55  1   
 59  29  56  1   
 60  30  57  1   
 61  30  58  1   
@<TRIPOS>SUBSTRUCTURE
  1 ****   2 GROUP 4 **** **** 0

# MOE 2024.06 (io_trps.svl 2023.06)
