@<TRIPOS>MOLECULE
NONAME
54 57 1 0 0 
SMALL
USER_CHARGES


@<TRIPOS>ATOM
  1 O       -0.9440     2.7680     3.5460 O.2   1 <1>  -0.5700 
  2 C       -0.6910     3.5840     2.6970 C.2   1 <1>   0.5690 
  3 N       -1.6590     4.3850     2.2000 N.am  1 <1>  -0.7300 
  4 C        0.7330     3.7010     2.1450 C.3   1 <1>   0.1810 
  5 C       -1.4210     5.4140     1.1620 C.3   1 <1>   0.3640 
  6 O        0.9670     4.9110     1.4500 O.3   1 <1>  -0.5600 
  7 C       -2.5240     5.3290     0.1110 C.ar  1 <1>  -0.1440 
  8 C       -0.0310     5.2440     0.4980 C.3   1 <1>   0.2610 
  9 C       -2.9480     4.1070    -0.3970 C.ar  1 <1>  -0.1500 
 10 C       -3.1110     6.4940    -0.3640 C.ar  1 <1>  -0.1500 
 11 C        0.3900     6.5050    -0.2660 C.2   1 <1>   0.5690 
 12 C       -3.9390     4.0520    -1.3610 C.ar  1 <1>  -0.1500 
 13 C       -4.1020     6.4390    -1.3280 C.ar  1 <1>  -0.1500 
 14 O       -0.0530     7.5910     0.0370 O.2   1 <1>  -0.5700 
 15 N        1.3260     6.4020    -1.2510 N.am  1 <1>  -0.7300 
 16 C       -4.5170     5.2180    -1.8280 C.ar  1 <1>  -0.1500 
 17 C        1.7740     7.5150    -2.1140 C.3   1 <1>   0.2350 
 18 C        2.9890     8.2050    -1.4730 C.3   1 <1>  -0.1900 
 19 C        4.3380     7.5770    -1.6650 C.3   1 <1>  -0.2000 
 20 C        3.9870     8.8510    -2.3910 C.3   1 <1>  -0.2000 
 21 C        2.5880     8.8130    -0.1150 C.3   1 <1>   0.4380 
 22 N        3.6860     9.6220     0.4660 N.4   1 <1>  -0.9590 
 23 C        3.8030     9.4600     1.9320 C.3   1 <1>   0.3430 
 24 C        3.5370    11.0730     0.2210 C.3   1 <1>   0.3430 
 25 C        4.5940    10.6810     2.3810 C.3   1 <1>  -0.1600 
 26 C        4.4360    11.7190     1.2650 C.3   1 <1>  -0.1600 
 27 H       -2.6100     4.2980     2.5630 H     1 <1>   0.3700 
 28 H        0.9220     2.8820     1.4760 H     1 <1>   0.0800 
 29 H        1.4330     3.6490     2.9590 H     1 <1>   0.0800 
 30 H       -1.4680     6.3760     1.6450 H     1 <1>   0.0800 
 31 H       -0.0850     4.4350    -0.2070 H     1 <1>   0.0800 
 32 H       -2.5130     3.1870    -0.0440 H     1 <1>   0.1500 
 33 H       -2.8000     7.4550     0.0100 H     1 <1>   0.1500 
 34 H       -4.2630     3.1010    -1.7470 H     1 <1>   0.1500 
 35 H       -4.5510     7.3490    -1.6900 H     1 <1>   0.1500 
 36 H        1.7800     5.5010    -1.4250 H     1 <1>   0.3700 
 37 H       -5.2880     5.1760    -2.5770 H     1 <1>   0.1500 
 38 H        2.0280     7.1250    -3.0850 H     1 <1>   0.0800 
 39 H        0.9710     8.2230    -2.2420 H     1 <1>   0.0800 
 40 H        5.0750     7.6110    -0.8820 H     1 <1>   0.1000 
 41 H        4.4190     6.6720    -2.2450 H     1 <1>   0.1000 
 42 H        3.8360     8.7940    -3.4570 H     1 <1>   0.1000 
 43 H        4.5280     9.7400    -2.1220 H     1 <1>   0.1000 
 44 H        2.3410     8.0050     0.5550 H     1 <1>   0.0800 
 45 H        1.7020     9.4180    -0.2310 H     1 <1>   0.0800 
 46 H        4.5580     9.3020     0.0280 H     1 <1>   0.4500 
 47 H        2.8220     9.4810     2.3810 H     1 <1>   0.0800 
 48 H        4.2990     8.5390     2.1950 H     1 <1>   0.0800 
 49 H        3.8250    11.3450    -0.7820 H     1 <1>   0.0800 
 50 H        2.5150    11.3700     0.3940 H     1 <1>   0.0800 
 51 H        4.2180    11.0450     3.3220 H     1 <1>   0.0800 
 52 H        5.6310    10.4190     2.5080 H     1 <1>   0.0800 
 53 H        5.3930    11.9490     0.8290 H     1 <1>   0.0800 
 54 H        3.9970    12.6330     1.6270 H     1 <1>   0.0800 
@<TRIPOS>BOND
  1   1   2  2   
  2   2   3  am  
  3   2   4  1   
  4   3   5  1   
  5   3  27  1   
  6   4   6  1   
  7   4  28  1   
  8   4  29  1   
  9   5   7  1   
 10   5   8  1   
 11   5  30  1   
 12   6   8  1   
 13   7   9  ar  
 14   7  10  ar  
 15   8  11  1   
 16   8  31  1   
 17   9  12  ar  
 18   9  32  1   
 19  10  13  ar  
 20  10  33  1   
 21  11  14  2   
 22  11  15  am  
 23  12  16  ar  
 24  12  34  1   
 25  13  16  ar  
 26  13  35  1   
 27  15  17  1   
 28  15  36  1   
 29  16  37  1   
 30  17  18  1   
 31  17  38  1   
 32  17  39  1   
 33  18  19  1   
 34  18  20  1   
 35  18  21  1   
 36  19  20  1   
 37  19  40  1   
 38  19  41  1   
 39  20  42  1   
 40  20  43  1   
 41  21  22  1   
 42  21  44  1   
 43  21  45  1   
 44  22  23  1   
 45  22  24  1   
 46  22  46  1   
 47  23  25  1   
 48  23  47  1   
 49  23  48  1   
 50  24  26  1   
 51  24  49  1   
 52  24  50  1   
 53  25  26  1   
 54  25  51  1   
 55  25  52  1   
 56  26  53  1   
 57  26  54  1   
@<TRIPOS>SUBSTRUCTURE
  1 ****  11 GROUP 4 **** **** 0

# MOE 2024.06 (io_trps.svl 2023.06)
