@<TRIPOS>MOLECULE
NONAME
61 64 1 0 0 
SMALL
USER_CHARGES


@<TRIPOS>ATOM
  1 O       -0.3940    -0.4680    -0.8290 O.2   1 <1>  -0.5700 
  2 C       -1.1260     0.2790    -0.2040 C.2   1 <1>   0.7160 
  3 N       -1.7820    -0.2060     0.9110 N.am  1 <1>  -0.6600 
  4 C       -1.2850     1.6290    -0.6410 C.2   1 <1>  -0.0860 
  5 C       -1.8980    -1.6670     1.1570 C.3   1 <1>   0.1400 
  6 C       -2.6260     0.6610     1.7820 C.3   1 <1>   0.0600 
  7 C       -2.4730     2.1720    -1.1380 C.2   1 <1>   0.3720 
  8 C       -0.4070     2.6670    -0.6930 C.2   1 <1>   0.0870 
  9 C       -3.1040    -2.2060     0.3860 C.3   1 <1>  -0.1600 
 10 N       -2.3240     3.4160    -1.4300 N.2   1 <1>  -0.4100 
 11 N       -3.6740     1.4680    -1.3040 N.pl3 1 <1>  -0.8210 
 12 O       -1.0760     3.6920    -1.1610 O.3   1 <1>  -0.0190 
 13 C        0.9870     2.8110    -0.3410 C.ar  1 <1>   0.0530 
 14 C       -3.2830    -3.7060     0.5930 C.3   1 <1>   0.1200 
 15 C       -3.6360     0.4390    -2.3880 C.3   1 <1>   0.2090 
 16 C       -4.9060     2.3050    -1.4350 C.3   1 <1>   0.2090 
 17 C        1.7270     3.9050    -0.7960 C.ar  1 <1>  -0.1500 
 18 C        1.6560     1.8850     0.4630 C.ar  1 <1>  -0.1500 
 19 O       -4.4210    -4.0980    -0.1380 O.3   1 <1>  -0.3630 
 20 C       -4.9480    -0.3660    -2.4280 C.3   1 <1>   0.1200 
 21 C       -6.1640     1.4200    -1.5140 C.3   1 <1>   0.1200 
 22 C        3.0600     4.0690    -0.4690 C.ar  1 <1>  -0.1500 
 23 C        2.9900     2.0420     0.7930 C.ar  1 <1>  -0.1500 
 24 C       -4.8650    -5.3830    -0.1440 C.ar  1 <1>   0.0820 
 25 O       -6.0550     0.4860    -2.5530 O.3   1 <1>  -0.5600 
 26 C        3.6970     3.1350     0.3280 C.ar  1 <1>  -0.1500 
 27 C       -6.0270    -5.6590    -0.8600 C.ar  1 <1>  -0.1440 
 28 C       -4.2090    -6.4120     0.5280 C.ar  1 <1>  -0.1500 
 29 C       -6.5200    -6.9540    -0.8940 C.ar  1 <1>  -0.1500 
 30 C       -6.7600    -4.5510    -1.6030 C.3   1 <1>  -0.0970 
 31 C       -4.7100    -7.7010     0.4870 C.ar  1 <1>  -0.1500 
 32 C       -5.8650    -7.9720    -0.2240 C.ar  1 <1>  -0.1500 
 33 H       -2.0130    -1.8490     2.2120 H     1 <1>   0.0800 
 34 H       -1.0010    -2.1650     0.8290 H     1 <1>   0.0800 
 35 H       -2.2680     1.6760     1.7690 H     1 <1>   0.0800 
 36 H       -2.6000     0.3050     2.7970 H     1 <1>   0.0800 
 37 H       -3.6430     0.6480     1.4270 H     1 <1>   0.0800 
 38 H       -2.9530    -2.0250    -0.6620 H     1 <1>   0.0800 
 39 H       -3.9950    -1.7000     0.7130 H     1 <1>   0.0800 
 40 H       -3.4510    -3.9360     1.6310 H     1 <1>   0.0800 
 41 H       -2.4330    -4.2500     0.2170 H     1 <1>   0.0800 
 42 H       -2.8130    -0.2350    -2.2310 H     1 <1>   0.0800 
 43 H       -3.4890     0.9240    -3.3390 H     1 <1>   0.0800 
 44 H       -4.8430     2.9120    -2.3220 H     1 <1>   0.0800 
 45 H       -4.9830     2.9630    -0.5860 H     1 <1>   0.0800 
 46 H        1.2520     4.6420    -1.4200 H     1 <1>   0.1500 
 47 H        1.1370     1.0260     0.8430 H     1 <1>   0.1500 
 48 H       -5.0610    -0.9480    -1.5300 H     1 <1>   0.0800 
 49 H       -4.9490    -1.0310    -3.2730 H     1 <1>   0.0800 
 50 H       -7.0310     2.0260    -1.7080 H     1 <1>   0.0800 
 51 H       -6.3080     0.8910    -0.5890 H     1 <1>   0.0800 
 52 H        3.6040     4.9220    -0.8350 H     1 <1>   0.1500 
 53 H        3.4800     1.3110     1.4120 H     1 <1>   0.1500 
 54 H        4.7350     3.2580     0.5830 H     1 <1>   0.1500 
 55 H       -3.3110    -6.2340     1.0870 H     1 <1>   0.1500 
 56 H       -7.4170    -7.1790    -1.4430 H     1 <1>   0.1500 
 57 H       -6.1100    -4.1180    -2.3430 H     1 <1>   0.0800 
 58 H       -7.0550    -3.7820    -0.9120 H     1 <1>   0.0800 
 59 H       -7.6380    -4.9270    -2.0950 H     1 <1>   0.0800 
 60 H       -4.2020    -8.4940     1.0080 H     1 <1>   0.1500 
 61 H       -6.2550    -8.9750    -0.2560 H     1 <1>   0.1500 
@<TRIPOS>BOND
  1   1   2  2   
  2   2   3  am  
  3   2   4  1   
  4   3   5  1   
  5   3   6  1   
  6   4   7  1   
  7   4   8  2   
  8   5   9  1   
  9   5  33  1   
 10   5  34  1   
 11   6  35  1   
 12   6  36  1   
 13   6  37  1   
 14   7  10  2   
 15   7  11  1   
 16   8  12  1   
 17   8  13  1   
 18   9  14  1   
 19   9  38  1   
 20   9  39  1   
 21  10  12  1   
 22  11  15  1   
 23  11  16  1   
 24  13  17  ar  
 25  13  18  ar  
 26  14  19  1   
 27  14  40  1   
 28  14  41  1   
 29  15  20  1   
 30  15  42  1   
 31  15  43  1   
 32  16  21  1   
 33  16  44  1   
 34  16  45  1   
 35  17  22  ar  
 36  17  46  1   
 37  18  23  ar  
 38  18  47  1   
 39  19  24  1   
 40  20  25  1   
 41  20  48  1   
 42  20  49  1   
 43  21  25  1   
 44  21  50  1   
 45  21  51  1   
 46  22  26  ar  
 47  22  52  1   
 48  23  26  ar  
 49  23  53  1   
 50  24  27  ar  
 51  24  28  ar  
 52  26  54  1   
 53  27  29  ar  
 54  27  30  1   
 55  28  31  ar  
 56  28  55  1   
 57  29  32  ar  
 58  29  56  1   
 59  30  57  1   
 60  30  58  1   
 61  30  59  1   
 62  31  32  ar  
 63  31  60  1   
 64  32  61  1   
@<TRIPOS>SUBSTRUCTURE
  1 ****   3 GROUP 4 **** **** 0

# MOE 2024.06 (io_trps.svl 2023.06)
