@<TRIPOS>MOLECULE
NONAME
42 44 1 0 0 
SMALL
USER_CHARGES


@<TRIPOS>ATOM
  1 F        0.3340     3.3360    -3.0010 F     1 <1>  -0.3400 
  2 C        0.0870     2.8370    -1.7930 C.3   1 <1>   1.1640 
  3 F       -1.1290     2.2980    -1.8750 F     1 <1>  -0.3400 
  4 F        0.9200     1.8110    -1.6370 F     1 <1>  -0.3400 
  5 C        0.2110     3.8950    -0.6600 C.ar  1 <1>   0.1660 
  6 N        1.3750     4.5380    -0.5180 N.ar  1 <1>  -0.6200 
  7 C       -0.8800     4.1440     0.1710 C.ar  1 <1>  -0.1500 
  8 C        1.4640     5.4370     0.4530 C.ar  1 <1>   0.4100 
  9 C       -0.7870     5.0770     1.1830 C.ar  1 <1>  -0.1500 
 10 N        2.6590     6.1110     0.5840 N.pl3 1 <1>  -0.8380 
 11 C        0.4140     5.7280     1.3150 C.ar  1 <1>  -0.1500 
 12 C        2.6730     7.5320     0.1260 C.3   1 <1>   0.2090 
 13 C        3.9170     5.3850     0.2630 C.3   1 <1>   0.2090 
 14 C        3.8420     8.2930     0.7680 C.3   1 <1>   0.2000 
 15 C        5.1050     6.1050     0.9120 C.3   1 <1>  -0.1600 
 16 O        3.8820     9.5740     0.2160 O.3   1 <1>  -0.5600 
 17 C        5.1800     7.5850     0.4960 C.3   1 <1>  -0.1600 
 18 C        4.4610    10.5560     1.0350 C.3   1 <1>   0.2630 
 19 C        4.4650    11.9350     0.3760 C.ar  1 <1>   0.1670 
 20 N        4.9240    12.9200     1.1390 N.ar  1 <1>  -0.6200 
 21 C        4.0190    12.1200    -0.9270 C.ar  1 <1>  -0.1500 
 22 C        4.9380    14.1220     0.5860 C.ar  1 <1>   0.1600 
 23 C        4.0390    13.3790    -1.4890 C.ar  1 <1>  -0.1500 
 24 C        4.5140    14.4030    -0.7010 C.ar  1 <1>  -0.1500 
 25 H       -1.8090     3.6170     0.0430 H     1 <1>   0.1500 
 26 H       -1.6160     5.2830     1.8380 H     1 <1>   0.1500 
 27 H        0.5650     6.4640     2.0810 H     1 <1>   0.1500 
 28 H        1.7470     8.0110     0.3930 H     1 <1>   0.0800 
 29 H        2.7760     7.5510    -0.9450 H     1 <1>   0.0800 
 30 H        4.0430     5.3470    -0.8070 H     1 <1>   0.0800 
 31 H        3.8540     4.3750     0.6310 H     1 <1>   0.0800 
 32 H        3.6560     8.3680     1.8260 H     1 <1>   0.0800 
 33 H        6.0140     5.6050     0.6330 H     1 <1>   0.0800 
 34 H        5.0040     6.0320     1.9810 H     1 <1>   0.0800 
 35 H        5.9740     8.0620     1.0410 H     1 <1>   0.0800 
 36 H        5.3990     7.6420    -0.5560 H     1 <1>   0.0800 
 37 H        5.4750    10.2740     1.2540 H     1 <1>   0.0800 
 38 H        3.9000    10.6100     1.9510 H     1 <1>   0.0800 
 39 H        3.6570    11.2880    -1.5030 H     1 <1>   0.1500 
 40 H        5.3080    14.9300     1.1940 H     1 <1>   0.1500 
 41 H        3.6990    13.5510    -2.4960 H     1 <1>   0.1500 
 42 H        4.5570    15.4090    -1.0760 H     1 <1>   0.1500 
@<TRIPOS>BOND
  1   1   2  1   
  2   2   3  1   
  3   2   4  1   
  4   2   5  1   
  5   5   6  ar  
  6   5   7  ar  
  7   6   8  ar  
  8   7   9  ar  
  9   7  25  1   
 10   8  10  1   
 11   8  11  ar  
 12   9  11  ar  
 13   9  26  1   
 14  10  12  1   
 15  10  13  1   
 16  11  27  1   
 17  12  14  1   
 18  12  28  1   
 19  12  29  1   
 20  13  15  1   
 21  13  30  1   
 22  13  31  1   
 23  14  16  1   
 24  14  17  1   
 25  14  32  1   
 26  15  17  1   
 27  15  33  1   
 28  15  34  1   
 29  16  18  1   
 30  17  35  1   
 31  17  36  1   
 32  18  19  1   
 33  18  37  1   
 34  18  38  1   
 35  19  20  ar  
 36  19  21  ar  
 37  20  22  ar  
 38  21  23  ar  
 39  21  39  1   
 40  22  24  ar  
 41  22  40  1   
 42  23  24  ar  
 43  23  41  1   
 44  24  42  1   
@<TRIPOS>SUBSTRUCTURE
  1 ****  12 GROUP 4 **** **** 0

# MOE 2024.06 (io_trps.svl 2023.06)
