@<TRIPOS>MOLECULE
NONAME
51 54 1 0 0 
SMALL
USER_CHARGES


@<TRIPOS>ATOM
  1 S       -0.2290     0.4450    -1.2850 S.o2  1 <1>   1.5760 
  2 O        0.8110     0.0670    -2.2170 O.2   1 <1>  -0.6500 
  3 O       -1.2160     1.4370    -1.6500 O.2   1 <1>  -0.6500 
  4 N       -1.0260    -0.9460    -0.7560 N.am  1 <1>  -0.8490 
  5 N        0.5050     0.9250     0.1540 N.am  1 <1>  -0.8490 
  6 C       -1.5030    -1.7330    -1.8930 C.3   1 <1>   0.1960 
  7 C       -2.1390    -0.6130     0.1360 C.3   1 <1>   0.1960 
  8 C        1.1540     2.2140     0.0420 C.3   1 <1>   0.1960 
  9 C        1.5320     0.0110     0.6200 C.3   1 <1>   0.1960 
 10 C       -2.0810    -3.0600    -1.3990 C.3   1 <1>  -0.1600 
 11 C       -2.7350    -1.8960     0.7170 C.3   1 <1>  -0.1600 
 12 C        2.0810     2.2800     1.2510 C.3   1 <1>  -0.1600 
 13 C        2.3140     0.8210     1.6470 C.3   1 <1>  -0.1600 
 14 C       -3.2180    -2.8370    -0.3960 C.3   1 <1>   0.4240 
 15 O       -4.2240    -2.1740    -1.1250 O.3   1 <1>  -0.5600 
 16 C       -3.7180    -4.1830     0.1760 C.ar  1 <1>  -0.1430 
 17 C       -5.5230    -2.2240    -0.6240 C.3   1 <1>   0.1200 
 18 C       -5.0450    -4.5760     0.0340 C.ar  1 <1>  -0.1430 
 19 C       -2.8460    -5.0280     0.8540 C.ar  1 <1>  -0.1500 
 20 C       -6.0180    -3.6660    -0.6890 C.3   1 <1>  -0.0170 
 21 C       -5.4840    -5.7870     0.5460 C.ar  1 <1>  -0.1500 
 22 C       -3.2840    -6.2350     1.3690 C.ar  1 <1>  -0.1500 
 23 C       -4.6020    -6.6260     1.2180 C.ar  1 <1>   0.0830 
 24 O       -4.9500    -7.8250     1.7490 O.3   1 <1>  -0.3620 
 25 C       -6.2630    -8.3250     1.6320 C.3   1 <1>   0.0400 
 26 H       -0.6830    -1.9410    -2.5620 H     1 <1>   0.0800 
 27 H       -2.2500    -1.1790    -2.4400 H     1 <1>   0.0800 
 28 H       -2.8950    -0.0620    -0.4010 H     1 <1>   0.0800 
 29 H       -1.7870     0.0060     0.9450 H     1 <1>   0.0800 
 30 H        0.4290     3.0110     0.0420 H     1 <1>   0.0800 
 31 H        1.7350     2.2570    -0.8660 H     1 <1>   0.0800 
 32 H        2.1850    -0.2660    -0.1920 H     1 <1>   0.0800 
 33 H        1.0950    -0.8760     1.0470 H     1 <1>   0.0800 
 34 H       -1.2860    -3.6210    -0.9450 H     1 <1>   0.0800 
 35 H       -2.4510    -3.6330    -2.2290 H     1 <1>   0.0800 
 36 H       -3.5420    -1.6610     1.3830 H     1 <1>   0.0800 
 37 H       -1.9750    -2.3820     1.2990 H     1 <1>   0.0800 
 38 H        1.5960     2.8110     2.0510 H     1 <1>   0.0800 
 39 H        2.9980     2.7820     0.9990 H     1 <1>   0.0800 
 40 H        3.3560     0.5550     1.6320 H     1 <1>   0.0800 
 41 H        1.9160     0.6340     2.6290 H     1 <1>   0.0800 
 42 H       -6.1370    -1.5870    -1.2360 H     1 <1>   0.0800 
 43 H       -5.5300    -1.8570     0.3860 H     1 <1>   0.0800 
 44 H       -1.8150    -4.7550     0.9910 H     1 <1>   0.1500 
 45 H       -6.1020    -3.9680    -1.7180 H     1 <1>   0.0800 
 46 H       -6.9910    -3.7260    -0.2370 H     1 <1>   0.0800 
 47 H       -6.5120    -6.0640     0.4150 H     1 <1>   0.1500 
 48 H       -2.6040    -6.8840     1.8910 H     1 <1>   0.1500 
 49 H       -6.2990    -9.2840     2.1150 H     1 <1>   0.0800 
 50 H       -6.5040    -8.4320     0.5890 H     1 <1>   0.0800 
 51 H       -6.9400    -7.6450     2.1170 H     1 <1>   0.0800 
@<TRIPOS>BOND
  1   1   2  2   
  2   1   3  2   
  3   1   4  am  
  4   1   5  am  
  5   4   6  1   
  6   4   7  1   
  7   5   8  1   
  8   5   9  1   
  9   6  10  1   
 10   6  26  1   
 11   6  27  1   
 12   7  11  1   
 13   7  28  1   
 14   7  29  1   
 15   8  12  1   
 16   8  30  1   
 17   8  31  1   
 18   9  13  1   
 19   9  32  1   
 20   9  33  1   
 21  10  14  1   
 22  10  34  1   
 23  10  35  1   
 24  11  14  1   
 25  11  36  1   
 26  11  37  1   
 27  12  13  1   
 28  12  38  1   
 29  12  39  1   
 30  13  40  1   
 31  13  41  1   
 32  14  15  1   
 33  14  16  1   
 34  15  17  1   
 35  16  18  ar  
 36  16  19  ar  
 37  17  20  1   
 38  17  42  1   
 39  17  43  1   
 40  18  20  1   
 41  18  21  ar  
 42  19  22  ar  
 43  19  44  1   
 44  20  45  1   
 45  20  46  1   
 46  21  23  ar  
 47  21  47  1   
 48  22  23  ar  
 49  22  48  1   
 50  23  24  1   
 51  24  25  1   
 52  25  49  1   
 53  25  50  1   
 54  25  51  1   
@<TRIPOS>SUBSTRUCTURE
  1 ****  11 GROUP 4 **** **** 0

# MOE 2024.06 (io_trps.svl 2023.06)
