@<TRIPOS>MOLECULE
NONAME
47 48 1 0 0 
SMALL
USER_CHARGES


@<TRIPOS>ATOM
  1 O       -2.2030     0.4270    -3.2950 O.2   1 <1>  -0.5700 
  2 C       -1.8700     0.7680    -2.1850 C.2   1 <1>   0.5690 
  3 N       -1.9750    -0.0590    -1.1170 N.am  1 <1>  -0.7300 
  4 C       -1.3120     2.1760    -1.9530 C.3   1 <1>   0.1710 
  5 C       -2.4520    -1.4570    -1.1280 C.3   1 <1>   0.2200 
  6 N       -0.4950     2.3210    -0.7060 N.3   1 <1>  -0.8100 
  7 C       -3.6340    -1.5870    -0.1840 C.3   1 <1>  -0.0800 
  8 C       -1.4120    -2.3640    -0.4710 C.3   1 <1>   0.1200 
  9 C       -0.3440     3.7500    -0.3570 C.3   1 <1>   0.1100 
 10 C        0.8170     1.6710    -0.8770 C.3   1 <1>   0.0300 
 11 C       -2.9310    -1.7760     1.1620 C.3   1 <1>   0.1200 
 12 C       -4.5210    -2.7910    -0.5520 C.3   1 <1>  -0.0160 
 13 O       -1.7210    -2.4190     0.8930 O.3   1 <1>  -0.5600 
 14 C        0.1180     3.9350     1.0900 C.3   1 <1>   0.1200 
 15 C       -5.7130    -2.9110     0.3860 C.ar  1 <1>  -0.1440 
 16 O        0.1640     5.3000     1.3650 O.3   1 <1>  -0.5600 
 17 C       -6.8070    -2.0760     0.2800 C.ar  1 <1>  -0.1500 
 18 C       -5.7630    -3.8570     1.3900 C.ar  1 <1>  -0.1500 
 19 C        0.5390     5.5990     2.6700 C.3   1 <1>   0.0400 
 20 C       -7.8660    -2.2190     1.1610 C.ar  1 <1>   0.1600 
 21 C       -6.8710    -3.9170     2.2190 C.ar  1 <1>   0.1600 
 22 N       -7.9240    -3.1190     2.1290 N.ar  1 <1>  -0.6200 
 23 H       -1.5970     0.2980    -0.2320 H     1 <1>   0.3700 
 24 H       -2.1600     2.8340    -1.9010 H     1 <1>   0.0800 
 25 H       -0.7280     2.4640    -2.8100 H     1 <1>   0.0800 
 26 H       -2.6770    -1.7630    -2.1360 H     1 <1>   0.0800 
 27 H       -4.2360    -0.6950    -0.1860 H     1 <1>   0.0800 
 28 H       -0.4090    -1.9980    -0.5990 H     1 <1>   0.0800 
 29 H       -1.4860    -3.3650    -0.8590 H     1 <1>   0.0800 
 30 H        0.3540     4.2250    -1.0260 H     1 <1>   0.0800 
 31 H       -1.2980     4.2420    -0.4520 H     1 <1>   0.0800 
 32 H        1.3680     1.6910     0.0470 H     1 <1>   0.0800 
 33 H        1.3920     2.1730    -1.6370 H     1 <1>   0.0800 
 34 H        0.6920     0.6410    -1.1630 H     1 <1>   0.0800 
 35 H       -3.4970    -2.3630     1.8630 H     1 <1>   0.0800 
 36 H       -2.6990    -0.8220     1.6030 H     1 <1>   0.0800 
 37 H       -3.9470    -3.7010    -0.5220 H     1 <1>   0.0800 
 38 H       -4.8860    -2.6720    -1.5570 H     1 <1>   0.0800 
 39 H        1.1030     3.5290     1.2330 H     1 <1>   0.0800 
 40 H       -0.5830     3.4700     1.7620 H     1 <1>   0.0800 
 41 H       -6.8450    -1.3150    -0.4780 H     1 <1>   0.1500 
 42 H       -4.9520    -4.5460     1.5370 H     1 <1>   0.1500 
 43 H        0.5470     6.6690     2.7800 H     1 <1>   0.0800 
 44 H        1.5250     5.2080     2.8550 H     1 <1>   0.0800 
 45 H       -0.1740     5.1690     3.3520 H     1 <1>   0.0800 
 46 H       -8.7100    -1.5590     1.0640 H     1 <1>   0.1500 
 47 H       -6.8930    -4.6610     2.9970 H     1 <1>   0.1500 
@<TRIPOS>BOND
  1   1   2  2   
  2   2   3  am  
  3   2   4  1   
  4   3   5  1   
  5   3  23  1   
  6   4   6  1   
  7   4  24  1   
  8   4  25  1   
  9   5   7  1   
 10   5   8  1   
 11   5  26  1   
 12   6   9  1   
 13   6  10  1   
 14   7  11  1   
 15   7  12  1   
 16   7  27  1   
 17   8  13  1   
 18   8  28  1   
 19   8  29  1   
 20   9  14  1   
 21   9  30  1   
 22   9  31  1   
 23  10  32  1   
 24  10  33  1   
 25  10  34  1   
 26  11  13  1   
 27  11  35  1   
 28  11  36  1   
 29  12  15  1   
 30  12  37  1   
 31  12  38  1   
 32  14  16  1   
 33  14  39  1   
 34  14  40  1   
 35  15  17  ar  
 36  15  18  ar  
 37  16  19  1   
 38  17  20  ar  
 39  17  41  1   
 40  18  21  ar  
 41  18  42  1   
 42  19  43  1   
 43  19  44  1   
 44  19  45  1   
 45  20  22  ar  
 46  20  46  1   
 47  21  22  ar  
 48  21  47  1   
@<TRIPOS>SUBSTRUCTURE
  1 ****   3 GROUP 4 **** **** 0

# MOE 2024.06 (io_trps.svl 2023.06)
