@<TRIPOS>MOLECULE
NONAME
57 60 1 0 0 
SMALL
USER_CHARGES


@<TRIPOS>ATOM
  1 O       -1.6830     1.1920    -3.2260 O.2   1 <1>  -0.5700 
  2 C       -2.2440     1.3390    -2.1540 C.2   1 <1>   0.7160 
  3 N       -3.3460     0.5620    -1.8570 N.am  1 <1>  -0.6600 
  4 C       -1.7540     2.3290    -1.2150 C.2   1 <1>  -0.0860 
  5 C       -3.7170    -0.6320    -2.6610 C.3   1 <1>   0.1400 
  6 C       -4.2890     0.8650    -0.7480 C.3   1 <1>   0.1400 
  7 C       -1.8130     3.6990    -1.3070 C.2   1 <1>  -0.3320 
  8 C       -1.1100     2.0720     0.0070 C.2   1 <1>  -0.1810 
  9 C       -3.7790    -1.8540    -1.7410 C.3   1 <1>  -0.1600 
 10 C       -4.3770    -0.3360     0.1960 C.3   1 <1>  -0.1600 
 11 N       -1.2540     4.2550    -0.2180 N.pl3 1 <1>   0.0330 
 12 C       -2.3990     4.5220    -2.4410 C.3   1 <1>  -0.0600 
 13 C       -0.8110     3.2640     0.6190 C.2   1 <1>  -0.2370 
 14 C       -0.7810     0.6880     0.5430 C.3   1 <1>  -0.0590 
 15 C       -4.7300    -1.6390    -0.5490 C.3   1 <1>   0.4240 
 16 C       -0.1630     3.5210     1.8760 C.2   1 <1>   0.5940 
 17 O       -5.9860    -1.4290    -1.1580 O.3   1 <1>  -0.5600 
 18 C       -4.7460    -2.8770     0.3940 C.ar  1 <1>  -0.1430 
 19 O        0.1830     2.6600     2.6440 O.2   1 <1>  -0.5700 
 20 C        0.1090     4.9520     2.2870 C.3   1 <1>  -0.1790 
 21 C       -7.1260    -1.6500    -0.3940 C.3   1 <1>   0.1200 
 22 C       -3.6000    -3.3160     1.0710 C.ar  1 <1>   0.0830 
 23 C       -5.9330    -3.5840     0.5880 C.ar  1 <1>  -0.1430 
 24 C       -7.2100    -3.1380    -0.0940 C.3   1 <1>  -0.0160 
 25 O       -2.4360    -2.6290     0.9160 O.3   1 <1>  -0.3630 
 26 C       -3.6590    -4.4400     1.8940 C.ar  1 <1>  -0.1500 
 27 C       -5.9790    -4.7000     1.4070 C.ar  1 <1>  -0.1500 
 28 C       -1.2480    -2.9690     1.5970 C.3   1 <1>   0.0400 
 29 C       -4.8420    -5.1300     2.0600 C.ar  1 <1>  -0.1500 
 30 H       -2.9960    -0.8070    -3.4410 H     1 <1>   0.0800 
 31 H       -4.6750    -0.4640    -3.1220 H     1 <1>   0.0800 
 32 H       -5.2600     1.0710    -1.1660 H     1 <1>   0.0800 
 33 H       -3.9740     1.7350    -0.1990 H     1 <1>   0.0800 
 34 H       -2.7820    -2.0560    -1.4050 H     1 <1>   0.0800 
 35 H       -4.1060    -2.7130    -2.2980 H     1 <1>   0.0800 
 36 H       -5.0980    -0.1450     0.9660 H     1 <1>   0.0800 
 37 H       -3.4300    -0.4330     0.6840 H     1 <1>   0.0800 
 38 H       -1.1660     5.2620    -0.0450 H     1 <1>   0.2700 
 39 H       -2.7760     3.8800    -3.2170 H     1 <1>   0.0800 
 40 H       -1.6410     5.1550    -2.8680 H     1 <1>   0.0800 
 41 H       -3.2070     5.1330    -2.0810 H     1 <1>   0.0800 
 42 H       -1.0500    -0.0790    -0.1600 H     1 <1>   0.0800 
 43 H       -1.3090     0.5190     1.4640 H     1 <1>   0.0800 
 44 H        0.2740     0.6170     0.7370 H     1 <1>   0.0800 
 45 H        0.7180     5.4350     1.5460 H     1 <1>   0.0800 
 46 H        0.6340     4.9660     3.2250 H     1 <1>   0.0800 
 47 H       -0.8170     5.4810     2.4040 H     1 <1>   0.0800 
 48 H       -7.9770    -1.3310    -0.9700 H     1 <1>   0.0800 
 49 H       -7.0700    -1.0700     0.5110 H     1 <1>   0.0800 
 50 H       -7.3440    -3.6830    -1.0100 H     1 <1>   0.0800 
 51 H       -8.0580    -3.3220     0.5400 H     1 <1>   0.0800 
 52 H       -2.7950    -4.7990     2.4180 H     1 <1>   0.1500 
 53 H       -6.9000    -5.2400     1.5420 H     1 <1>   0.1500 
 54 H       -0.4870    -2.2640     1.3140 H     1 <1>   0.0800 
 55 H       -0.9510    -3.9600     1.3070 H     1 <1>   0.0800 
 56 H       -1.4230    -2.9100     2.6560 H     1 <1>   0.0800 
 57 H       -4.8800    -5.9980     2.6950 H     1 <1>   0.1500 
@<TRIPOS>BOND
  1   1   2  2   
  2   2   3  am  
  3   2   4  1   
  4   3   5  1   
  5   3   6  1   
  6   4   7  2   
  7   4   8  1   
  8   5   9  1   
  9   5  30  1   
 10   5  31  1   
 11   6  10  1   
 12   6  32  1   
 13   6  33  1   
 14   7  11  1   
 15   7  12  1   
 16   8  13  2   
 17   8  14  1   
 18   9  15  1   
 19   9  34  1   
 20   9  35  1   
 21  10  15  1   
 22  10  36  1   
 23  10  37  1   
 24  11  13  1   
 25  11  38  1   
 26  12  39  1   
 27  12  40  1   
 28  12  41  1   
 29  13  16  1   
 30  14  42  1   
 31  14  43  1   
 32  14  44  1   
 33  15  17  1   
 34  15  18  1   
 35  16  19  2   
 36  16  20  1   
 37  17  21  1   
 38  18  22  ar  
 39  18  23  ar  
 40  20  45  1   
 41  20  46  1   
 42  20  47  1   
 43  21  24  1   
 44  21  48  1   
 45  21  49  1   
 46  22  25  1   
 47  22  26  ar  
 48  23  24  1   
 49  23  27  ar  
 50  24  50  1   
 51  24  51  1   
 52  25  28  1   
 53  26  29  ar  
 54  26  52  1   
 55  27  29  ar  
 56  27  53  1   
 57  28  54  1   
 58  28  55  1   
 59  28  56  1   
 60  29  57  1   
@<TRIPOS>SUBSTRUCTURE
  1 ****  10 GROUP 4 **** **** 0

# MOE 2024.06 (io_trps.svl 2023.06)
