@<TRIPOS>MOLECULE
NONAME
41 42 1 0 0 
SMALL
USER_CHARGES


@<TRIPOS>ATOM
  1 S        1.0770     0.3630    -1.6390 S.o2  1 <1>   1.3330 
  2 O        0.5350     1.4950    -2.3570 O.2   1 <1>  -0.6500 
  3 O        1.5230    -0.7990    -2.3740 O.2   1 <1>  -0.6500 
  4 N       -0.1060    -0.1440    -0.5290 N.am  1 <1>  -0.8490 
  5 C        2.4340     0.9150    -0.6060 C.3   1 <1>  -0.0550 
  6 C       -0.8690     0.9660     0.0530 C.3   1 <1>   0.1160 
  7 C       -1.0250    -1.1230    -1.1160 C.3   1 <1>   0.1160 
  8 C        3.1320    -0.2140     0.1830 C.3   1 <1>  -0.0800 
  9 C        4.3950     0.2180     0.9100 C.3   1 <1>   0.2890 
 10 C        2.2960    -0.8300     1.3100 C.3   1 <1>   0.1200 
 11 N        4.1920     1.5380     1.5540 N.pl3 1 <1>  -0.8690 
 12 C        4.4950    -0.8660     1.9760 C.3   1 <1>   0.1200 
 13 O        3.1820    -1.1710     2.3380 O.3   1 <1>  -0.5600 
 14 C        4.8460     2.6640     1.2050 C.ar  1 <1>   0.7200 
 15 N        5.2540     2.7720    -0.0540 N.ar  1 <1>  -0.6200 
 16 N        4.9820     3.5410     2.1900 N.ar  1 <1>  -0.6200 
 17 C        5.8670     3.9040    -0.3530 C.ar  1 <1>   0.3930 
 18 C        5.6010     4.6620     1.8730 C.ar  1 <1>   0.1600 
 19 O        6.3060     4.1040    -1.6150 O.3   1 <1>  -0.3630 
 20 C        6.0610     4.8840     0.6030 C.ar  1 <1>   0.1900 
 21 C        6.0820     3.1460    -2.6320 C.3   1 <1>   0.0400 
 22 F        6.6730     6.0120     0.3170 F     1 <1>  -0.1900 
 23 H        3.1660     1.3760    -1.2400 H     1 <1>   0.0800 
 24 H        2.0830     1.6680     0.0700 H     1 <1>   0.0800 
 25 H       -1.5430     0.5950     0.8060 H     1 <1>   0.0800 
 26 H       -1.4390     1.4730    -0.7090 H     1 <1>   0.0800 
 27 H       -0.2030     1.6740     0.5150 H     1 <1>   0.0800 
 28 H       -1.7520    -1.4370    -0.3860 H     1 <1>   0.0800 
 29 H       -0.4790    -1.9930    -1.4420 H     1 <1>   0.0800 
 30 H       -1.5340    -0.6970    -1.9650 H     1 <1>   0.0800 
 31 H        3.3950    -1.0030    -0.5000 H     1 <1>   0.0800 
 32 H        5.2600     0.2270     0.2680 H     1 <1>   0.0800 
 33 H        1.7720    -1.7140     0.9870 H     1 <1>   0.0800 
 34 H        1.5950    -0.1200     1.7130 H     1 <1>   0.0800 
 35 H        3.9490     1.4960     2.5450 H     1 <1>   0.4000 
 36 H        5.0470    -0.5490     2.8430 H     1 <1>   0.0800 
 37 H        4.9350    -1.7590     1.5680 H     1 <1>   0.0800 
 38 H        5.7400     5.4090     2.6340 H     1 <1>   0.1500 
 39 H        6.5070     3.5190    -3.5460 H     1 <1>   0.0800 
 40 H        5.0220     3.0030    -2.7490 H     1 <1>   0.0800 
 41 H        6.5580     2.2230    -2.3520 H     1 <1>   0.0800 
@<TRIPOS>BOND
  1   1   2  2   
  2   1   3  2   
  3   1   4  am  
  4   1   5  1   
  5   4   6  1   
  6   4   7  1   
  7   5   8  1   
  8   5  23  1   
  9   5  24  1   
 10   6  25  1   
 11   6  26  1   
 12   6  27  1   
 13   7  28  1   
 14   7  29  1   
 15   7  30  1   
 16   8   9  1   
 17   8  10  1   
 18   8  31  1   
 19   9  11  1   
 20   9  12  1   
 21   9  32  1   
 22  10  13  1   
 23  10  33  1   
 24  10  34  1   
 25  11  14  1   
 26  11  35  1   
 27  12  13  1   
 28  12  36  1   
 29  12  37  1   
 30  14  15  ar  
 31  14  16  ar  
 32  15  17  ar  
 33  16  18  ar  
 34  17  19  1   
 35  17  20  ar  
 36  18  20  ar  
 37  18  38  1   
 38  19  21  1   
 39  20  22  1   
 40  21  39  1   
 41  21  40  1   
 42  21  41  1   
@<TRIPOS>SUBSTRUCTURE
  1 ****   5 GROUP 4 **** **** 0

# MOE 2024.06 (io_trps.svl 2023.06)
