@<TRIPOS>MOLECULE
NONAME
40 42 1 0 0 
SMALL
USER_CHARGES


@<TRIPOS>ATOM
  1 S        2.5540    -0.5970     2.4600 S.3   1 <1>  -0.0800 
  2 C        1.7820    -0.7510     0.8880 C.2   1 <1>   0.3250 
  3 C        1.8950    -2.1210     2.9370 C.2   1 <1>  -0.1100 
  4 N        1.1130    -1.8450     0.7850 N.2   1 <1>  -0.5650 
  5 C        1.9530     0.2960    -0.1000 C.ar  1 <1>   0.0530 
  6 C        1.1540    -2.6450     1.9380 C.2   1 <1>   0.1410 
  7 C        1.4850     0.1060    -1.4020 C.ar  1 <1>  -0.1500 
  8 C        2.5730     1.5190     0.1760 C.ar  1 <1>  -0.1500 
  9 C        0.4720    -3.9380     2.0310 C.2   1 <1>   0.7160 
 10 C        1.6250     1.0770    -2.3770 C.ar  1 <1>  -0.1500 
 11 C        2.7170     2.4940    -0.7950 C.ar  1 <1>  -0.1500 
 12 O        0.8560    -4.7370     2.8680 O.2   1 <1>  -0.5700 
 13 N       -0.5960    -4.3140     1.2320 N.am  1 <1>  -0.6600 
 14 C        2.2430     2.2760    -2.0750 C.ar  1 <1>  -0.1500 
 15 C       -1.0520    -5.7470     1.2020 C.3   1 <1>   0.1400 
 16 C       -1.4310    -3.3260     0.4770 C.3   1 <1>   0.1400 
 17 C       -1.6600    -6.0940    -0.1650 C.3   1 <1>   0.2000 
 18 C       -2.8550    -3.8510     0.2600 C.3   1 <1>  -0.1600 
 19 O       -0.6790    -5.8640    -1.1180 O.3   1 <1>  -0.6800 
 20 C       -2.9090    -5.2260    -0.4580 C.3   1 <1>  -0.0800 
 21 C       -3.1750    -5.0970    -1.9700 C.3   1 <1>   0.1200 
 22 O       -4.4240    -4.5310    -2.1830 O.3   1 <1>  -0.6800 
 23 H        2.1210    -2.4950     3.9200 H     1 <1>   0.1500 
 24 H        1.0020    -0.8220    -1.6550 H     1 <1>   0.1500 
 25 H        2.9510     1.7260     1.1600 H     1 <1>   0.1500 
 26 H        1.2530     0.8990    -3.3720 H     1 <1>   0.1500 
 27 H        3.1980     3.4270    -0.5550 H     1 <1>   0.1500 
 28 H        2.3550     3.0340    -2.8310 H     1 <1>   0.1500 
 29 H       -0.2240    -6.4080     1.3980 H     1 <1>   0.0800 
 30 H       -1.7840    -5.8990     1.9750 H     1 <1>   0.0800 
 31 H       -1.4770    -2.3990     1.0220 H     1 <1>   0.0800 
 32 H       -0.9720    -3.1290    -0.4770 H     1 <1>   0.0800 
 33 H       -1.9150    -7.1390    -0.2160 H     1 <1>   0.0800 
 34 H       -3.3220    -3.9390     1.2260 H     1 <1>   0.0800 
 35 H       -3.4180    -3.1150    -0.2870 H     1 <1>   0.0800 
 36 H       -0.1670    -5.0780    -0.8310 H     1 <1>   0.4000 
 37 H       -3.7450    -5.7600    -0.0390 H     1 <1>   0.0800 
 38 H       -3.1550    -6.0600    -2.4510 H     1 <1>   0.0800 
 39 H       -2.4410    -4.4610    -2.4350 H     1 <1>   0.0800 
 40 H       -5.1320    -5.1320    -1.8810 H     1 <1>   0.4000 
@<TRIPOS>BOND
  1   1   2  1   
  2   1   3  1   
  3   2   4  2   
  4   2   5  1   
  5   3   6  2   
  6   3  23  1   
  7   4   6  1   
  8   5   7  ar  
  9   5   8  ar  
 10   6   9  1   
 11   7  10  ar  
 12   7  24  1   
 13   8  11  ar  
 14   8  25  1   
 15   9  12  2   
 16   9  13  am  
 17  10  14  ar  
 18  10  26  1   
 19  11  14  ar  
 20  11  27  1   
 21  13  15  1   
 22  13  16  1   
 23  14  28  1   
 24  15  17  1   
 25  15  29  1   
 26  15  30  1   
 27  16  18  1   
 28  16  31  1   
 29  16  32  1   
 30  17  19  1   
 31  17  20  1   
 32  17  33  1   
 33  18  20  1   
 34  18  34  1   
 35  18  35  1   
 36  19  36  1   
 37  20  21  1   
 38  20  37  1   
 39  21  22  1   
 40  21  38  1   
 41  21  39  1   
 42  22  40  1   
@<TRIPOS>SUBSTRUCTURE
  1 ****   4 GROUP 4 **** **** 0

# MOE 2024.06 (io_trps.svl 2023.06)
