@<TRIPOS>MOLECULE
NONAME
41 43 1 0 0 
SMALL
USER_CHARGES


@<TRIPOS>ATOM
  1 F        0.9250     0.2390     1.6120 F     1 <1>  -0.1900 
  2 C        1.7660    -0.5990     1.0700 C.ar  1 <1>   0.1900 
  3 C        1.7420    -1.9170     1.4760 C.ar  1 <1>  -0.1500 
  4 C        2.6460    -0.1400     0.1130 C.ar  1 <1>  -0.1500 
  5 C        2.6260    -2.8240     0.9040 C.ar  1 <1>  -0.1440 
  6 C        3.5320    -1.0390    -0.4500 C.ar  1 <1>  -0.1500 
  7 C        3.5420    -2.3820    -0.0660 C.ar  1 <1>  -0.0230 
  8 C        2.5610    -4.2740     1.3700 C.3   1 <1>   0.4870 
  9 N        4.4900    -3.2570    -0.6780 N.pl3 1 <1>   0.5930 
 10 N        1.2810    -4.8700     0.9200 N.4   1 <1>  -0.9590 
 11 N        4.1700    -4.4880    -1.1510 N.2   1 <1>  -0.7070 
 12 C        5.8090    -3.0220    -0.8740 C.2   1 <1>  -0.3020 
 13 C        0.9560    -6.1330     1.6850 C.3   1 <1>   0.3430 
 14 C        1.2860    -5.1220    -0.5530 C.3   1 <1>   0.3430 
 15 C        5.2710    -4.9760    -1.6340 C.2   1 <1>   0.1390 
 16 C        6.3390    -4.1000    -1.4870 C.2   1 <1>  -0.1500 
 17 C       -0.0190    -7.0740     0.9480 C.3   1 <1>   0.2000 
 18 C       -0.1380    -5.4480    -1.0150 C.3   1 <1>  -0.1600 
 19 O        0.7250    -7.9500     0.1760 O.3   1 <1>  -0.6800 
 20 C       -0.9420    -6.2830     0.0150 C.3   1 <1>  -0.1860 
 21 C       -1.9290    -7.2190    -0.6420 C.2   1 <1>   0.9060 
 22 O       -3.1250    -6.9570    -0.5470 O.co2 1 <1>  -0.9000 
 23 O       -1.4830    -8.2190    -1.2170 O.co2 1 <1>  -0.9000 
 24 H        1.0340    -2.2070     2.2330 H     1 <1>   0.1500 
 25 H        2.6340     0.8960    -0.1790 H     1 <1>   0.1500 
 26 H        4.2220    -0.6870    -1.2000 H     1 <1>   0.1500 
 27 H        2.6090    -4.2920     2.4460 H     1 <1>   0.0800 
 28 H        3.3900    -4.8500     0.9940 H     1 <1>   0.0800 
 29 H        0.5270    -4.1940     1.0740 H     1 <1>   0.4500 
 30 H        6.2860    -2.1080    -0.5690 H     1 <1>   0.1500 
 31 H        1.8560    -6.6910     1.8840 H     1 <1>   0.0800 
 32 H        0.5160    -5.8620     2.6290 H     1 <1>   0.0800 
 33 H        1.6550    -4.2650    -1.0920 H     1 <1>   0.0800 
 34 H        1.9320    -5.9590    -0.7700 H     1 <1>   0.0800 
 35 H        5.3450    -5.9490    -2.0950 H     1 <1>   0.1500 
 36 H        7.3530    -4.2750    -1.8030 H     1 <1>   0.1500 
 37 H       -0.5880    -7.6660     1.6460 H     1 <1>   0.0800 
 38 H       -0.6740    -4.5430    -1.2410 H     1 <1>   0.0800 
 39 H       -0.0580    -6.0000    -1.9370 H     1 <1>   0.0800 
 40 H        0.0730    -8.3510    -0.4800 H     1 <1>   0.4000 
 41 H       -1.5200    -5.6110     0.6220 H     1 <1>   0.0800 
@<TRIPOS>BOND
  1   1   2  1   
  2   2   3  ar  
  3   2   4  ar  
  4   3   5  ar  
  5   3  24  1   
  6   4   6  ar  
  7   4  25  1   
  8   5   7  ar  
  9   5   8  1   
 10   6   7  ar  
 11   6  26  1   
 12   7   9  1   
 13   8  10  1   
 14   8  27  1   
 15   8  28  1   
 16   9  11  1   
 17   9  12  1   
 18  10  13  1   
 19  10  14  1   
 20  10  29  1   
 21  11  15  2   
 22  12  16  2   
 23  12  30  1   
 24  13  17  1   
 25  13  31  1   
 26  13  32  1   
 27  14  18  1   
 28  14  33  1   
 29  14  34  1   
 30  15  16  1   
 31  15  35  1   
 32  16  36  1   
 33  17  19  1   
 34  17  20  1   
 35  17  37  1   
 36  18  20  1   
 37  18  38  1   
 38  18  39  1   
 39  19  40  1   
 40  20  21  1   
 41  20  41  1   
 42  21  22  ar  
 43  21  23  ar  
@<TRIPOS>SUBSTRUCTURE
  1 ****  14 GROUP 4 **** **** 0

# MOE 2024.06 (io_trps.svl 2023.06)
