@<TRIPOS>MOLECULE
NONAME
51 54 1 0 0 
SMALL
USER_CHARGES


@<TRIPOS>ATOM
  1 O        1.1130    -0.2930     1.9270 O.2   1 <1>  -0.5700 
  2 C        1.7170    -0.8410     1.0130 C.2   1 <1>   0.6160 
  3 N        2.3780    -0.0970     0.0490 N.am  1 <1>  -0.4690 
  4 C        1.7460    -2.2530     0.9100 C.2   1 <1>  -0.1360 
  5 C        3.0480    -0.7380    -0.9750 C.2   1 <1>  -0.0410 
  6 C        2.3880     1.3850     0.1180 C.3   1 <1>   0.1400 
  7 C        2.3810    -2.9050    -0.1110 C.2   1 <1>   0.0140 
  8 C        3.0600    -2.0920    -1.0650 C.2   1 <1>  -0.1500 
  9 C        3.6190     1.8560     0.8920 C.3   1 <1>  -0.2400 
 10 C        2.4020    -4.3480    -0.2490 C.2   1 <1>   0.6160 
 11 O        3.4380    -4.9070    -0.5500 O.2   1 <1>  -0.5700 
 12 N        1.2690    -5.1060    -0.0620 N.am  1 <1>  -0.6600 
 13 C       -0.1220    -4.5970    -0.1800 C.3   1 <1>   0.1400 
 14 C        1.2890    -6.5870    -0.1760 C.3   1 <1>   0.1400 
 15 C       -0.9600    -5.8200    -0.5480 C.3   1 <1>   0.2000 
 16 C       -0.1720    -7.0220    -0.0360 C.3   1 <1>  -0.0800 
 17 O       -2.2110    -5.7800     0.0480 O.3   1 <1>  -0.6800 
 18 C       -0.5090    -8.3210    -0.7870 C.3   1 <1>  -0.0170 
 19 C        0.2770    -9.4980    -0.2330 C.ar  1 <1>   0.1670 
 20 N        1.4800    -9.6770    -0.6850 N.ar  1 <1>  -0.6200 
 21 C       -0.3200   -10.3210     0.7350 C.ar  1 <1>  -0.1500 
 22 C        2.1970   -10.7160    -0.1850 C.ar  1 <1>   0.3100 
 23 C        0.3740   -11.3730     1.2520 C.ar  1 <1>  -0.1500 
 24 C        1.6820   -11.5970     0.7910 C.ar  1 <1>   0.0000 
 25 C        3.5040   -10.9250    -0.6510 C.ar  1 <1>  -0.1500 
 26 C        2.4930   -12.6500     1.2580 C.ar  1 <1>  -0.1500 
 27 C        4.2770   -11.9540    -0.1830 C.ar  1 <1>  -0.1500 
 28 C        3.7640   -12.8270     0.7820 C.ar  1 <1>  -0.1500 
 29 H        1.2400    -2.7880     1.6900 H     1 <1>   0.1500 
 30 H        3.5640    -0.1220    -1.6940 H     1 <1>   0.1500 
 31 H        2.4040     1.7900    -0.8790 H     1 <1>   0.0800 
 32 H        1.4930     1.7360     0.6030 H     1 <1>   0.0800 
 33 H        3.5870    -2.5930    -1.8600 H     1 <1>   0.1500 
 34 H        4.5190     1.5220     0.4080 H     1 <1>   0.0800 
 35 H        3.5890     1.4730     1.8970 H     1 <1>   0.0800 
 36 H        3.6300     2.9290     0.9370 H     1 <1>   0.0800 
 37 H       -0.4340    -4.1960     0.7680 H     1 <1>   0.0800 
 38 H       -0.1890    -3.8430    -0.9450 H     1 <1>   0.0800 
 39 H        1.6820    -6.8620    -1.1410 H     1 <1>   0.0800 
 40 H        1.9080    -7.0230     0.5900 H     1 <1>   0.0800 
 41 H       -1.0920    -5.8640    -1.6160 H     1 <1>   0.0800 
 42 H       -0.3630    -7.1570     1.0140 H     1 <1>   0.0800 
 43 H       -2.1270    -5.7750     1.0210 H     1 <1>   0.4000 
 44 H       -0.2810    -8.2110    -1.8320 H     1 <1>   0.0800 
 45 H       -1.5630    -8.5210    -0.7050 H     1 <1>   0.0800 
 46 H       -1.3230   -10.1110     1.0600 H     1 <1>   0.1500 
 47 H       -0.0490   -12.0260     1.9940 H     1 <1>   0.1500 
 48 H        3.8800   -10.2420    -1.3910 H     1 <1>   0.1500 
 49 H        2.0930   -13.3170     2.0010 H     1 <1>   0.1500 
 50 H        5.2790   -12.1030    -0.5490 H     1 <1>   0.1500 
 51 H        4.3820   -13.6320     1.1410 H     1 <1>   0.1500 
@<TRIPOS>BOND
  1   1   2  2   
  2   2   3  am  
  3   2   4  1   
  4   3   5  1   
  5   3   6  1   
  6   4   7  2   
  7   4  29  1   
  8   5   8  2   
  9   5  30  1   
 10   6   9  1   
 11   6  31  1   
 12   6  32  1   
 13   7   8  1   
 14   7  10  1   
 15   8  33  1   
 16   9  34  1   
 17   9  35  1   
 18   9  36  1   
 19  10  11  2   
 20  10  12  am  
 21  12  13  1   
 22  12  14  1   
 23  13  15  1   
 24  13  37  1   
 25  13  38  1   
 26  14  16  1   
 27  14  39  1   
 28  14  40  1   
 29  15  16  1   
 30  15  17  1   
 31  15  41  1   
 32  16  18  1   
 33  16  42  1   
 34  17  43  1   
 35  18  19  1   
 36  18  44  1   
 37  18  45  1   
 38  19  20  ar  
 39  19  21  ar  
 40  20  22  ar  
 41  21  23  ar  
 42  21  46  1   
 43  22  24  ar  
 44  22  25  ar  
 45  23  24  ar  
 46  23  47  1   
 47  24  26  ar  
 48  25  27  ar  
 49  25  48  1   
 50  26  28  ar  
 51  26  49  1   
 52  27  28  ar  
 53  27  50  1   
 54  28  51  1   
@<TRIPOS>SUBSTRUCTURE
  1 ****  14 GROUP 4 **** **** 0

# MOE 2024.06 (io_trps.svl 2023.06)
