@<TRIPOS>MOLECULE
NONAME
40 42 1 0 0 
SMALL
USER_CHARGES


@<TRIPOS>ATOM
  1 F        4.2030     1.3450    -1.4830 F     1 <1>  -0.1900 
  2 C        3.7820     0.2210    -0.9690 C.ar  1 <1>   0.1900 
  3 C        3.1330     0.2110     0.2740 C.ar  1 <1>   0.0860 
  4 C        4.0240    -0.9180    -1.7210 C.ar  1 <1>  -0.1500 
  5 C        2.8660     1.3970     1.0740 C.2   1 <1>   0.5440 
  6 C        2.7330    -1.0460     0.7390 C.ar  1 <1>  -0.1500 
  7 C        3.6140    -2.1470    -1.2360 C.ar  1 <1>  -0.1500 
  8 O        2.5650     1.2850     2.2470 O.2   1 <1>  -0.5700 
  9 N        2.9220     2.6570     0.5570 N.am  1 <1>  -0.7300 
 10 C        2.9750    -2.1810    -0.0100 C.ar  1 <1>   0.1900 
 11 C        2.6520     3.9150     1.2840 C.3   1 <1>   0.2200 
 12 F        2.5850    -3.3360     0.4560 F     1 <1>  -0.1900 
 13 C        1.8590     4.8570     0.3940 C.3   1 <1>   0.1200 
 14 C        3.9420     4.6890     1.4380 C.3   1 <1>  -0.1600 
 15 O        2.7950     5.4240    -0.4710 O.3   1 <1>  -0.5600 
 16 C        4.0560     5.4940     0.1310 C.3   1 <1>   0.2800 
 17 C        4.3580     6.9840     0.4050 C.3   1 <1>  -0.1600 
 18 C        5.0520     4.8650    -0.8740 C.3   1 <1>  -0.1600 
 19 C        4.8880     7.6930    -0.8480 C.3   1 <1>  -0.1600 
 20 C        6.3970     5.6050    -0.9130 C.3   1 <1>  -0.1600 
 21 C        6.2200     7.0800    -1.3210 C.3   1 <1>  -0.1600 
 22 H        4.5280    -0.8410    -2.6690 H     1 <1>   0.1500 
 23 H        2.2320    -1.1380     1.6870 H     1 <1>   0.1500 
 24 H        3.7820    -3.0560    -1.7870 H     1 <1>   0.1500 
 25 H        3.2130     2.7990    -0.4160 H     1 <1>   0.3700 
 26 H        2.1600     3.7230     2.2230 H     1 <1>   0.0800 
 27 H        1.4220     5.6510     0.9730 H     1 <1>   0.0800 
 28 H        1.0980     4.3520    -0.1740 H     1 <1>   0.0800 
 29 H        4.7890     4.0550     1.6270 H     1 <1>   0.0800 
 30 H        3.8410     5.3600     2.2710 H     1 <1>   0.0800 
 31 H        5.1070     7.0620     1.1730 H     1 <1>   0.0800 
 32 H        3.4700     7.4740     0.7630 H     1 <1>   0.0800 
 33 H        4.6280     4.9040    -1.8630 H     1 <1>   0.0800 
 34 H        5.2260     3.8320    -0.6370 H     1 <1>   0.0800 
 35 H        5.0190     8.7440    -0.6550 H     1 <1>   0.0800 
 36 H        4.1540     7.5940    -1.6310 H     1 <1>   0.0800 
 37 H        7.0660     5.1190    -1.6020 H     1 <1>   0.0800 
 38 H        6.8470     5.5580     0.0640 H     1 <1>   0.0800 
 39 H        7.0400     7.6480    -0.9170 H     1 <1>   0.0800 
 40 H        6.2690     7.1620    -2.3940 H     1 <1>   0.0800 
@<TRIPOS>BOND
  1   1   2  1   
  2   2   3  ar  
  3   2   4  ar  
  4   3   5  1   
  5   3   6  ar  
  6   4   7  ar  
  7   4  22  1   
  8   5   8  2   
  9   5   9  am  
 10   6  10  ar  
 11   6  23  1   
 12   7  10  ar  
 13   7  24  1   
 14   9  11  1   
 15   9  25  1   
 16  10  12  1   
 17  11  13  1   
 18  11  14  1   
 19  11  26  1   
 20  13  15  1   
 21  13  27  1   
 22  13  28  1   
 23  14  16  1   
 24  14  29  1   
 25  14  30  1   
 26  15  16  1   
 27  16  17  1   
 28  16  18  1   
 29  17  19  1   
 30  17  31  1   
 31  17  32  1   
 32  18  20  1   
 33  18  33  1   
 34  18  34  1   
 35  19  21  1   
 36  19  35  1   
 37  19  36  1   
 38  20  21  1   
 39  20  37  1   
 40  20  38  1   
 41  21  39  1   
 42  21  40  1   
@<TRIPOS>SUBSTRUCTURE
  1 ****   9 GROUP 4 **** **** 0

# MOE 2024.06 (io_trps.svl 2023.06)
