@<TRIPOS>MOLECULE
NONAME
61 65 1 0 0 
SMALL
USER_CHARGES


@<TRIPOS>ATOM
  1 O       -0.5000     1.6430    -2.1950 O.2   1 <1>  -0.5700 
  2 C       -1.3580     1.7890    -1.3390 C.2   1 <1>   0.5440 
  3 N       -2.4300     0.9130    -1.3110 N.am  1 <1>  -0.6600 
  4 C       -1.2660     2.8970    -0.4190 C.ar  1 <1>   0.0860 
  5 C       -2.5810    -0.1770    -2.3160 C.3   1 <1>   0.1400 
  6 C       -3.6280     1.1110    -0.4470 C.3   1 <1>   0.1400 
  7 C       -0.5150     2.8370     0.7700 C.ar  1 <1>   0.1000 
  8 C       -1.9740     4.0680    -0.6990 C.ar  1 <1>  -0.1500 
  9 C       -2.9120    -1.4910    -1.6070 C.3   1 <1>  -0.1600 
 10 C       -3.9820    -0.1940     0.2680 C.3   1 <1>  -0.1600 
 11 N        0.2640     1.7430     1.1350 N.pl3 1 <1>  -0.8380 
 12 C       -0.5350     3.9240     1.6380 C.ar  1 <1>  -0.1500 
 13 C       -1.9740     5.1410     0.1700 C.ar  1 <1>  -0.1500 
 14 C       -4.1550    -1.3660    -0.7130 C.3   1 <1>   0.4240 
 15 C        1.4160     1.2880     0.2950 C.3   1 <1>   0.2090 
 16 C       -0.1990     0.7630     2.1560 C.3   1 <1>   0.2090 
 17 C       -1.2540     5.0650     1.3490 C.ar  1 <1>  -0.1500 
 18 O       -5.2110    -1.0480    -1.5890 O.3   1 <1>  -0.5600 
 19 C       -4.4140    -2.6880     0.0410 C.ar  1 <1>  -0.1430 
 20 C        1.2690    -0.1860    -0.1320 C.3   1 <1>   0.1200 
 21 C       -0.2530    -0.6600     1.5710 C.3   1 <1>   0.1200 
 22 C       -6.5110    -1.3000    -1.1530 C.3   1 <1>   0.1200 
 23 C       -5.6210    -3.3690    -0.0910 C.ar  1 <1>  -0.1430 
 24 C       -3.4410    -3.2240     0.8790 C.ar  1 <1>  -0.1500 
 25 O        0.9590    -1.0060     0.9640 O.3   1 <1>  -0.5600 
 26 C       -6.6970    -2.8060    -0.9980 C.3   1 <1>  -0.0170 
 27 C       -5.8460    -4.5520     0.5940 C.ar  1 <1>  -0.1500 
 28 C       -3.6650    -4.4040     1.5650 C.ar  1 <1>  -0.1500 
 29 C       -4.8660    -5.0760     1.4300 C.ar  1 <1>   0.0830 
 30 O       -5.0070    -6.2250     2.1370 O.3   1 <1>  -0.3630 
 31 C       -6.1810    -7.0000     2.0520 C.3   1 <1>   0.0400 
 32 H       -1.6760    -0.3000    -2.8870 H     1 <1>   0.0800 
 33 H       -3.3720     0.0830    -2.9990 H     1 <1>   0.0800 
 34 H       -4.4530     1.4200    -1.0670 H     1 <1>   0.0800 
 35 H       -3.4540     1.8780     0.2860 H     1 <1>   0.0800 
 36 H       -2.5320     4.1240    -1.6170 H     1 <1>   0.1500 
 37 H       -2.0580    -1.7800    -1.0270 H     1 <1>   0.0800 
 38 H       -3.0810    -2.2630    -2.3340 H     1 <1>   0.0800 
 39 H       -4.8780    -0.0620     0.8440 H     1 <1>   0.0800 
 40 H       -3.2010    -0.4190     0.9650 H     1 <1>   0.0800 
 41 H        0.0370     3.8630     2.5450 H     1 <1>   0.1500 
 42 H       -2.5290     6.0330    -0.0660 H     1 <1>   0.1500 
 43 H        2.3220     1.3960     0.8620 H     1 <1>   0.0800 
 44 H        1.5010     1.9090    -0.5800 H     1 <1>   0.0800 
 45 H       -1.1740     1.0440     2.5120 H     1 <1>   0.0800 
 46 H        0.4810     0.7760     2.9900 H     1 <1>   0.0800 
 47 H       -1.2500     5.8960     2.0330 H     1 <1>   0.1500 
 48 H        2.1910    -0.5380    -0.5580 H     1 <1>   0.0800 
 49 H        0.4930    -0.2910    -0.8690 H     1 <1>   0.0800 
 50 H       -1.0280    -0.7230     0.8310 H     1 <1>   0.0800 
 51 H       -0.4500    -1.3750     2.3490 H     1 <1>   0.0800 
 52 H       -7.1880    -0.9120    -1.8930 H     1 <1>   0.0800 
 53 H       -6.6800    -0.7910    -0.2200 H     1 <1>   0.0800 
 54 H       -2.4950    -2.7310     1.0070 H     1 <1>   0.1500 
 55 H       -6.6370    -3.2740    -1.9640 H     1 <1>   0.0800 
 56 H       -7.6710    -3.0020    -0.5870 H     1 <1>   0.0800 
 57 H       -6.7850    -5.0550     0.4680 H     1 <1>   0.1500 
 58 H       -2.9080    -4.8120     2.2090 H     1 <1>   0.1500 
 59 H       -6.0610    -7.8600     2.6860 H     1 <1>   0.0800 
 60 H       -6.3190    -7.3140     1.0330 H     1 <1>   0.0800 
 61 H       -7.0140    -6.4100     2.3910 H     1 <1>   0.0800 
@<TRIPOS>BOND
  1   1   2  2   
  2   2   3  am  
  3   2   4  1   
  4   3   5  1   
  5   3   6  1   
  6   4   7  ar  
  7   4   8  ar  
  8   5   9  1   
  9   5  32  1   
 10   5  33  1   
 11   6  10  1   
 12   6  34  1   
 13   6  35  1   
 14   7  11  1   
 15   7  12  ar  
 16   8  13  ar  
 17   8  36  1   
 18   9  14  1   
 19   9  37  1   
 20   9  38  1   
 21  10  14  1   
 22  10  39  1   
 23  10  40  1   
 24  11  15  1   
 25  11  16  1   
 26  12  17  ar  
 27  12  41  1   
 28  13  17  ar  
 29  13  42  1   
 30  14  18  1   
 31  14  19  1   
 32  15  20  1   
 33  15  43  1   
 34  15  44  1   
 35  16  21  1   
 36  16  45  1   
 37  16  46  1   
 38  17  47  1   
 39  18  22  1   
 40  19  23  ar  
 41  19  24  ar  
 42  20  25  1   
 43  20  48  1   
 44  20  49  1   
 45  21  25  1   
 46  21  50  1   
 47  21  51  1   
 48  22  26  1   
 49  22  52  1   
 50  22  53  1   
 51  23  26  1   
 52  23  27  ar  
 53  24  28  ar  
 54  24  54  1   
 55  26  55  1   
 56  26  56  1   
 57  27  29  ar  
 58  27  57  1   
 59  28  29  ar  
 60  28  58  1   
 61  29  30  1   
 62  30  31  1   
 63  31  59  1   
 64  31  60  1   
 65  31  61  1   
@<TRIPOS>SUBSTRUCTURE
  1 ****  10 GROUP 4 **** **** 0

# MOE 2024.06 (io_trps.svl 2023.06)
