@<TRIPOS>MOLECULE
NONAME
57 59 1 0 0 
SMALL
USER_CHARGES


@<TRIPOS>ATOM
  1 O       -1.4590     0.5410     0.0550 O.2   1 <1>  -0.5700 
  2 C       -0.9960     1.6500     0.1860 C.2   1 <1>   0.5690 
  3 N       -1.7790     2.7430     0.4460 N.am  1 <1>  -0.6600 
  4 C        0.5180     1.8170     0.0210 C.3   1 <1>   0.1810 
  5 C       -1.1750     4.1100     0.5760 C.3   1 <1>   0.3640 
  6 C       -3.2270     2.6280     0.7850 C.3   1 <1>   0.0600 
  7 O        1.0180     3.0090     0.5790 O.3   1 <1>  -0.5600 
  8 C       -1.9790     5.1630    -0.2080 C.ar  1 <1>  -0.1430 
  9 C        0.3190     4.1700     0.1710 C.3   1 <1>   0.2610 
 10 C       -2.3620     5.0460    -1.5490 C.ar  1 <1>  -0.1430 
 11 C       -2.3280     6.3140     0.4890 C.ar  1 <1>  -0.1500 
 12 C        0.9920     5.4460     0.7020 C.2   1 <1>   0.5690 
 13 C       -3.0730     6.0790    -2.1450 C.ar  1 <1>  -0.1500 
 14 C       -2.0660     3.8270    -2.4180 C.3   1 <1>  -0.0960 
 15 C       -3.0370     7.3340    -0.1150 C.ar  1 <1>  -0.1500 
 16 O        0.6040     5.9270     1.7460 O.2   1 <1>  -0.5700 
 17 N        2.0010     6.0400    -0.0250 N.am  1 <1>  -0.6600 
 18 C       -3.4090     7.2170    -1.4390 C.ar  1 <1>  -0.1500 
 19 C        2.4580     7.4350     0.2830 C.3   1 <1>   0.1400 
 20 C        2.8470     5.2630    -0.9780 C.3   1 <1>   0.0600 
 21 C        1.7900     8.5190    -0.6040 C.3   1 <1>   0.0000 
 22 C        0.2710     8.6070    -0.3300 C.3   1 <1>  -0.1600 
 23 C        2.3440     9.9120    -0.2090 C.3   1 <1>  -0.1600 
 24 C        2.0630     8.2080    -2.0980 C.3   1 <1>   0.1200 
 25 C       -0.0690    10.0920    -0.2460 C.3   1 <1>  -0.1600 
 26 C        1.1760    10.7110     0.3720 C.3   1 <1>  -0.1600 
 27 O        1.5390     9.1850    -2.9290 O.3   1 <1>  -0.6800 
 28 H        0.7660     1.7990    -1.0240 H     1 <1>   0.0800 
 29 H        1.0160     0.9980     0.5070 H     1 <1>   0.0800 
 30 H       -1.2310     4.3540     1.6230 H     1 <1>   0.0800 
 31 H       -3.8180     3.1810     0.0760 H     1 <1>   0.0800 
 32 H       -3.4020     3.0210     1.7710 H     1 <1>   0.0800 
 33 H       -3.5420     1.5990     0.7650 H     1 <1>   0.0800 
 34 H        0.3770     4.2130    -0.8970 H     1 <1>   0.0800 
 35 H       -2.0410     6.4330     1.5210 H     1 <1>   0.1500 
 36 H       -3.3780     6.0030    -3.1750 H     1 <1>   0.1500 
 37 H       -2.2050     4.0550    -3.4590 H     1 <1>   0.0800 
 38 H       -2.7350     3.0260    -2.1620 H     1 <1>   0.0800 
 39 H       -1.0580     3.4850    -2.2960 H     1 <1>   0.0800 
 40 H       -3.2940     8.2170     0.4440 H     1 <1>   0.1500 
 41 H       -3.9610     8.0080    -1.9170 H     1 <1>   0.1500 
 42 H        2.2500     7.6580     1.3160 H     1 <1>   0.0800 
 43 H        3.5270     7.4890     0.1680 H     1 <1>   0.0800 
 44 H        3.8070     5.7320    -1.1030 H     1 <1>   0.0800 
 45 H        2.3620     5.2010    -1.9360 H     1 <1>   0.0800 
 46 H        3.0080     4.2680    -0.6000 H     1 <1>   0.0800 
 47 H       -0.3200     8.0950    -1.0700 H     1 <1>   0.0800 
 48 H        0.0460     8.1740     0.6280 H     1 <1>   0.0800 
 49 H        3.1430     9.8500     0.5100 H     1 <1>   0.0800 
 50 H        2.7260    10.4330    -1.0700 H     1 <1>   0.0800 
 51 H        1.5980     7.2780    -2.3750 H     1 <1>   0.0800 
 52 H        3.1190     8.1450    -2.2910 H     1 <1>   0.0800 
 53 H       -0.2260    10.4970    -1.2310 H     1 <1>   0.0800 
 54 H       -0.9470    10.2700     0.3510 H     1 <1>   0.0800 
 55 H        1.1450    10.5730     1.4400 H     1 <1>   0.0800 
 56 H        1.2560    11.7620     0.1540 H     1 <1>   0.0800 
 57 H        0.6560     9.4460    -2.6010 H     1 <1>   0.4000 
@<TRIPOS>BOND
  1   1   2  2   
  2   2   3  am  
  3   2   4  1   
  4   3   5  1   
  5   3   6  1   
  6   4   7  1   
  7   4  28  1   
  8   4  29  1   
  9   5   8  1   
 10   5   9  1   
 11   5  30  1   
 12   6  31  1   
 13   6  32  1   
 14   6  33  1   
 15   7   9  1   
 16   8  10  ar  
 17   8  11  ar  
 18   9  12  1   
 19   9  34  1   
 20  10  13  ar  
 21  10  14  1   
 22  11  15  ar  
 23  11  35  1   
 24  12  16  2   
 25  12  17  am  
 26  13  18  ar  
 27  13  36  1   
 28  14  37  1   
 29  14  38  1   
 30  14  39  1   
 31  15  18  ar  
 32  15  40  1   
 33  17  19  1   
 34  17  20  1   
 35  18  41  1   
 36  19  21  1   
 37  19  42  1   
 38  19  43  1   
 39  20  44  1   
 40  20  45  1   
 41  20  46  1   
 42  21  22  1   
 43  21  23  1   
 44  21  24  1   
 45  22  25  1   
 46  22  47  1   
 47  22  48  1   
 48  23  26  1   
 49  23  49  1   
 50  23  50  1   
 51  24  27  1   
 52  24  51  1   
 53  24  52  1   
 54  25  26  1   
 55  25  53  1   
 56  25  54  1   
 57  26  55  1   
 58  26  56  1   
 59  27  57  1   
@<TRIPOS>SUBSTRUCTURE
  1 ****  12 GROUP 4 **** **** 0

# MOE 2024.06 (io_trps.svl 2023.06)
