@<TRIPOS>MOLECULE
NONAME
45 46 1 0 0 
SMALL
USER_CHARGES


@<TRIPOS>ATOM
  1 F        0.0070    -0.7060    -0.8070 F     1 <1>  -0.1900 
  2 C       -0.6310    -1.8030    -0.4820 C.ar  1 <1>   0.1900 
  3 C        0.0290    -3.0290    -0.3390 C.ar  1 <1>   0.0830 
  4 C       -1.9920    -1.6860    -0.2810 C.ar  1 <1>  -0.1500 
  5 O        1.3610    -3.2700    -0.5110 O.3   1 <1>  -0.3630 
  6 C       -0.7340    -4.1300     0.0160 C.ar  1 <1>  -0.1500 
  7 C       -2.7210    -2.8060     0.0750 C.ar  1 <1>  -0.1500 
  8 C        2.2640    -2.2930    -0.9780 C.3   1 <1>   0.0400 
  9 C       -2.1130    -4.0520     0.2290 C.ar  1 <1>   0.0530 
 10 C       -2.8620    -5.2240     0.6150 C.2   1 <1>   0.0870 
 11 O       -2.2910    -6.1060     1.4050 O.3   1 <1>  -0.0190 
 12 C       -4.1140    -5.6870     0.3500 C.2   1 <1>  -0.2330 
 13 N       -3.0720    -7.1110     1.6990 N.2   1 <1>  -0.4100 
 14 C       -4.1750    -6.8680     1.0890 C.2   1 <1>   0.3720 
 15 C       -5.1700    -5.2100    -0.4960 C.2   1 <1>   1.0330 
 16 N       -5.2850    -7.6930     1.1450 N.pl3 1 <1>  -0.8520 
 17 O       -5.0100    -4.2270    -1.2340 O.co2 1 <1>  -0.9000 
 18 O       -6.2740    -5.7900    -0.5250 O.co2 1 <1>  -0.9000 
 19 C       -5.1350    -8.9080     0.3270 C.3   1 <1>   0.2090 
 20 C       -6.4290    -9.7520     0.2830 C.3   1 <1>  -0.0800 
 21 C       -6.2030   -11.0050    -0.6260 C.3   1 <1>  -0.0800 
 22 C       -7.6220    -8.8670    -0.1570 C.3   1 <1>   0.1200 
 23 C       -7.4460   -11.8920    -0.8170 C.3   1 <1>  -0.2400 
 24 C       -5.0720   -11.9040    -0.0930 C.3   1 <1>  -0.2400 
 25 O       -8.8200    -9.4930     0.1560 O.3   1 <1>  -0.6800 
 26 H       -2.4790    -0.7360    -0.4030 H     1 <1>   0.1500 
 27 H       -0.2420    -5.0790     0.1290 H     1 <1>   0.1500 
 28 H       -3.7820    -2.7180     0.2300 H     1 <1>   0.1500 
 29 H        3.2290    -2.7520    -1.0830 H     1 <1>   0.0800 
 30 H        2.3170    -1.4940    -0.2590 H     1 <1>   0.0800 
 31 H        1.9260    -1.9320    -1.9330 H     1 <1>   0.0800 
 32 H       -6.0410    -7.1260     0.7050 H     1 <1>   0.4000 
 33 H       -4.3290    -9.4810     0.7490 H     1 <1>   0.0800 
 34 H       -4.8590    -8.6200    -0.6740 H     1 <1>   0.0800 
 35 H       -6.6160   -10.0770     1.2910 H     1 <1>   0.0800 
 36 H       -5.9100   -10.6580    -1.6040 H     1 <1>   0.0800 
 37 H       -7.5940    -8.6760    -1.2160 H     1 <1>   0.0800 
 38 H       -7.6340    -7.9190     0.3540 H     1 <1>   0.0800 
 39 H       -7.8710   -12.1600     0.1350 H     1 <1>   0.0800 
 40 H       -7.1860   -12.7990    -1.3350 H     1 <1>   0.0800 
 41 H       -8.1830   -11.3950    -1.4210 H     1 <1>   0.0800 
 42 H       -5.2670   -12.1900     0.9260 H     1 <1>   0.0800 
 43 H       -4.1190   -11.4090    -0.1370 H     1 <1>   0.0800 
 44 H       -4.9850   -12.7970    -0.6860 H     1 <1>   0.0800 
 45 H       -8.7830   -10.4180    -0.1470 H     1 <1>   0.4000 
@<TRIPOS>BOND
  1   1   2  1   
  2   2   3  ar  
  3   2   4  ar  
  4   3   5  1   
  5   3   6  ar  
  6   4   7  ar  
  7   4  26  1   
  8   5   8  1   
  9   6   9  ar  
 10   6  27  1   
 11   7   9  ar  
 12   7  28  1   
 13   8  29  1   
 14   8  30  1   
 15   8  31  1   
 16   9  10  1   
 17  10  11  1   
 18  10  12  2   
 19  11  13  1   
 20  12  14  1   
 21  12  15  1   
 22  13  14  2   
 23  14  16  1   
 24  15  17  ar  
 25  15  18  ar  
 26  16  19  1   
 27  16  32  1   
 28  19  20  1   
 29  19  33  1   
 30  19  34  1   
 31  20  21  1   
 32  20  22  1   
 33  20  35  1   
 34  21  23  1   
 35  21  24  1   
 36  21  36  1   
 37  22  25  1   
 38  22  37  1   
 39  22  38  1   
 40  23  39  1   
 41  23  40  1   
 42  23  41  1   
 43  24  42  1   
 44  24  43  1   
 45  24  44  1   
 46  25  45  1   
@<TRIPOS>SUBSTRUCTURE
  1 ****  12 GROUP 4 **** **** 0

# MOE 2024.06 (io_trps.svl 2023.06)
