@<TRIPOS>MOLECULE
NONAME
53 56 1 0 0 
SMALL
USER_CHARGES


@<TRIPOS>ATOM
  1 O        1.5040    -2.0110    -1.6860 O.2   1 <1>  -0.5700 
  2 C        2.6300    -2.2310    -1.3250 C.2   1 <1>   0.5690 
  3 N        2.8720    -2.9150    -0.1690 N.am  1 <1>  -0.6600 
  4 C        3.7590    -1.7300    -2.1880 C.3   1 <1>  -0.0990 
  5 C        4.2460    -3.2600     0.3180 C.3   1 <1>   0.1400 
  6 C        1.7120    -3.2800     0.7170 C.3   1 <1>   0.3080 
  7 C        4.5410    -0.6560    -1.4490 C.3   1 <1>   0.3430 
  8 C        5.0900    -2.0120     0.6570 C.3   1 <1>   0.3430 
  9 C        0.9010    -4.4670     0.1880 C.2   1 <1>   0.1820 
 10 N        5.5870    -1.2450    -0.5420 N.4   1 <1>  -0.9590 
 11 N        0.1120    -5.2590     0.9900 N.pl3 1 <1>  -0.7000 
 12 C        0.7860    -4.9370    -1.0710 C.2   1 <1>   0.2000 
 13 C        6.5760    -0.1720    -0.1680 C.3   1 <1>   0.3430 
 14 C       -0.4710    -6.1970     0.2210 C.cat 1 <1>   0.7910 
 15 N       -0.0640    -6.0230    -1.0570 N.pl3 1 <1>  -0.6290 
 16 C        6.2440     0.7100     1.0590 C.3   1 <1>  -0.0800 
 17 C       -1.3700    -7.2330     0.5620 C.2   1 <1>  -0.1290 
 18 C       -0.5240    -6.8460    -2.0590 C.2   1 <1>   0.2290 
 19 C        4.8550     1.3290     1.0300 C.3   1 <1>   0.1200 
 20 C        7.0720     1.9890     0.9580 C.3   1 <1>  -0.1600 
 21 C       -1.8270    -8.0590    -0.4320 C.2   1 <1>  -0.1500 
 22 C       -1.8240    -7.4260     2.0050 C.3   1 <1>  -0.1020 
 23 C       -1.3930    -7.8550    -1.7590 C.2   1 <1>  -0.1500 
 24 O        4.9620     2.2460     0.0020 O.3   1 <1>  -0.5600 
 25 C        6.1740     2.9270     0.1410 C.3   1 <1>   0.1200 
 26 H        3.3260    -1.2810    -3.0650 H     1 <1>   0.0800 
 27 H        4.3880    -2.5360    -2.5150 H     1 <1>   0.0800 
 28 H        4.7550    -3.8570    -0.4200 H     1 <1>   0.0800 
 29 H        4.1660    -3.8630     1.2070 H     1 <1>   0.0800 
 30 H        1.0540    -2.4310     0.8050 H     1 <1>   0.0800 
 31 H        2.0700    -3.5110     1.7050 H     1 <1>   0.0800 
 32 H        3.8570    -0.0280    -0.9040 H     1 <1>   0.0800 
 33 H        5.0280    -0.0320    -2.1820 H     1 <1>   0.0800 
 34 H        5.9450    -2.3400     1.2270 H     1 <1>   0.0800 
 35 H        4.5090    -1.3660     1.2950 H     1 <1>   0.0800 
 36 H        6.1200    -1.9030    -1.1280 H     1 <1>   0.4500 
 37 H       -0.0640    -5.1770     1.9930 H     1 <1>   0.4500 
 38 H        1.2400    -4.5740    -1.9780 H     1 <1>   0.1500 
 39 H        6.7020     0.4820    -1.0160 H     1 <1>   0.0800 
 40 H        7.5360    -0.6290     0.0140 H     1 <1>   0.0800 
 41 H        6.4380     0.1880     1.9790 H     1 <1>   0.0800 
 42 H       -0.1810    -6.6670    -3.0660 H     1 <1>   0.1500 
 43 H        4.6470     1.8700     1.9400 H     1 <1>   0.0800 
 44 H        4.0490     0.6480     0.8400 H     1 <1>   0.0800 
 45 H        8.0350     1.8530     0.4950 H     1 <1>   0.0800 
 46 H        7.2250     2.4180     1.9340 H     1 <1>   0.0800 
 47 H       -2.5130    -8.8670    -0.2330 H     1 <1>   0.1500 
 48 H       -2.3310    -6.5460     2.3600 H     1 <1>   0.0800 
 49 H       -0.9790    -7.6270     2.6410 H     1 <1>   0.0800 
 50 H       -2.5040    -8.2560     2.0830 H     1 <1>   0.0800 
 51 H       -1.7620    -8.5100    -2.5300 H     1 <1>   0.1500 
 52 H        6.5680     3.1260    -0.8410 H     1 <1>   0.0800 
 53 H        5.9910     3.8540     0.6590 H     1 <1>   0.0800 
@<TRIPOS>BOND
  1   1   2  2   
  2   2   3  am  
  3   2   4  1   
  4   3   5  1   
  5   3   6  1   
  6   4   7  1   
  7   4  26  1   
  8   4  27  1   
  9   5   8  1   
 10   5  28  1   
 11   5  29  1   
 12   6   9  1   
 13   6  30  1   
 14   6  31  1   
 15   7  10  1   
 16   7  32  1   
 17   7  33  1   
 18   8  10  1   
 19   8  34  1   
 20   8  35  1   
 21   9  11  1   
 22   9  12  2   
 23  10  13  1   
 24  10  36  1   
 25  11  14  ar  
 26  11  37  1   
 27  12  15  1   
 28  12  38  1   
 29  13  16  1   
 30  13  39  1   
 31  13  40  1   
 32  14  15  ar  
 33  14  17  1   
 34  15  18  1   
 35  16  19  1   
 36  16  20  1   
 37  16  41  1   
 38  17  21  2   
 39  17  22  1   
 40  18  23  2   
 41  18  42  1   
 42  19  24  1   
 43  19  43  1   
 44  19  44  1   
 45  20  25  1   
 46  20  45  1   
 47  20  46  1   
 48  21  23  1   
 49  21  47  1   
 50  22  48  1   
 51  22  49  1   
 52  22  50  1   
 53  23  51  1   
 54  24  25  1   
 55  25  52  1   
 56  25  53  1   
@<TRIPOS>SUBSTRUCTURE
  1 ****   3 GROUP 4 **** **** 0

# MOE 2024.06 (io_trps.svl 2023.06)
