@<TRIPOS>MOLECULE
NONAME
59 61 1 0 0 
SMALL
USER_CHARGES


@<TRIPOS>ATOM
  1 O        0.8440     2.9010    -2.5450 O.co2 1 <1>  -0.9000 
  2 C        0.0010     2.3510    -1.8280 C.2   1 <1>   0.9060 
  3 O       -0.8580     1.5960    -2.3110 O.co2 1 <1>  -0.9000 
  4 C       -0.0480     2.6000    -0.3220 C.3   1 <1>  -0.1060 
  5 C       -1.4680     3.1490    -0.0580 C.3   1 <1>   0.2000 
  6 C        1.0130     3.6290     0.1630 C.3   1 <1>   0.1100 
  7 C        0.2030     1.2500     0.4190 C.3   1 <1>  -0.0170 
  8 O       -2.3900     2.1220    -0.0240 O.3   1 <1>  -0.6800 
  9 C       -1.5460     3.9570     1.2310 C.3   1 <1>  -0.1600 
 10 N        0.5330     5.0270     0.2620 N.3   1 <1>  -0.8100 
 11 C        1.6640     0.8000     0.4700 C.ar  1 <1>  -0.1440 
 12 C       -0.6510     5.2030     1.1340 C.3   1 <1>   0.1100 
 13 C        0.3880     5.6600    -1.0930 C.3   1 <1>   0.1710 
 14 C        2.3210     0.4020    -0.6840 C.ar  1 <1>  -0.1500 
 15 C        2.3470     0.7770     1.6770 C.ar  1 <1>  -0.1500 
 16 C        0.4440     7.1910    -1.0600 C.2   1 <1>   0.5690 
 17 C        3.6420    -0.0090    -0.6340 C.ar  1 <1>  -0.1500 
 18 C        3.6680     0.3640     1.7310 C.ar  1 <1>  -0.1500 
 19 O       -0.1160     7.8490    -1.9070 O.2   1 <1>  -0.5700 
 20 N        1.1360     7.7650    -0.0430 N.am  1 <1>  -0.7300 
 21 C        4.3170    -0.0300     0.5740 C.ar  1 <1>  -0.1500 
 22 C        1.3970     9.2050     0.1530 C.3   1 <1>   0.1400 
 23 C        2.9030     9.4640     0.3190 C.3   1 <1>  -0.0800 
 24 C        3.1480    10.9480     0.6470 C.3   1 <1>  -0.1600 
 25 C        3.6960     9.0570    -0.9390 C.3   1 <1>  -0.1600 
 26 C        4.6440    11.2520     0.8020 C.3   1 <1>  -0.1600 
 27 C        5.1920     9.3650    -0.7900 C.3   1 <1>  -0.1600 
 28 C        5.4250    10.8430    -0.4530 C.3   1 <1>  -0.1600 
 29 H       -1.7630     3.7860    -0.8740 H     1 <1>   0.0800 
 30 H        1.8900     3.5820    -0.4610 H     1 <1>   0.0800 
 31 H        1.3330     3.3510     1.1510 H     1 <1>   0.0800 
 32 H       -0.1650     1.3330     1.4240 H     1 <1>   0.0800 
 33 H       -0.3680     0.4670    -0.0490 H     1 <1>   0.0800 
 34 H       -2.2410     1.6170    -0.8670 H     1 <1>   0.4000 
 35 H       -2.5600     4.2640     1.4110 H     1 <1>   0.0800 
 36 H       -1.2240     3.3530     2.0580 H     1 <1>   0.0800 
 37 H       -0.3120     5.4590     2.1230 H     1 <1>   0.0800 
 38 H       -1.2380     6.0310     0.7740 H     1 <1>   0.0800 
 39 H        1.1930     5.3290    -1.7270 H     1 <1>   0.0800 
 40 H       -0.5280     5.3540    -1.5610 H     1 <1>   0.0800 
 41 H        1.8070     0.4160    -1.6320 H     1 <1>   0.1500 
 42 H        1.8520     1.0810     2.5820 H     1 <1>   0.1500 
 43 H        4.1370    -0.3090    -1.5400 H     1 <1>   0.1500 
 44 H        4.1890     0.3500     2.6710 H     1 <1>   0.1500 
 45 H        1.5220     7.1040     0.6390 H     1 <1>   0.3700 
 46 H        5.3430    -0.3490     0.6110 H     1 <1>   0.1500 
 47 H        1.0210     9.7580    -0.6920 H     1 <1>   0.0800 
 48 H        0.8690     9.5340     1.0310 H     1 <1>   0.0800 
 49 H        3.2520     8.8780     1.1520 H     1 <1>   0.0800 
 50 H        2.7460    11.5600    -0.1420 H     1 <1>   0.0800 
 51 H        2.6390    11.2080     1.5600 H     1 <1>   0.0800 
 52 H        3.5740     8.0040    -1.1260 H     1 <1>   0.0800 
 53 H        3.3070     9.5850    -1.7930 H     1 <1>   0.0800 
 54 H        4.7820    12.3040     0.9840 H     1 <1>   0.0800 
 55 H        5.0320    10.7170     1.6530 H     1 <1>   0.0800 
 56 H        5.6040     8.7510    -0.0080 H     1 <1>   0.0800 
 57 H        5.7010     9.1190    -1.7060 H     1 <1>   0.0800 
 58 H        6.4750    11.0160    -0.2980 H     1 <1>   0.0800 
 59 H        5.1090    11.4510    -1.2830 H     1 <1>   0.0800 
@<TRIPOS>BOND
  1   1   2  ar  
  2   2   3  ar  
  3   2   4  1   
  4   4   5  1   
  5   4   6  1   
  6   4   7  1   
  7   5   8  1   
  8   5   9  1   
  9   5  29  1   
 10   6  10  1   
 11   6  30  1   
 12   6  31  1   
 13   7  11  1   
 14   7  32  1   
 15   7  33  1   
 16   8  34  1   
 17   9  12  1   
 18   9  35  1   
 19   9  36  1   
 20  10  12  1   
 21  10  13  1   
 22  11  14  ar  
 23  11  15  ar  
 24  12  37  1   
 25  12  38  1   
 26  13  16  1   
 27  13  39  1   
 28  13  40  1   
 29  14  17  ar  
 30  14  41  1   
 31  15  18  ar  
 32  15  42  1   
 33  16  19  2   
 34  16  20  am  
 35  17  21  ar  
 36  17  43  1   
 37  18  21  ar  
 38  18  44  1   
 39  20  22  1   
 40  20  45  1   
 41  21  46  1   
 42  22  23  1   
 43  22  47  1   
 44  22  48  1   
 45  23  24  1   
 46  23  25  1   
 47  23  49  1   
 48  24  26  1   
 49  24  50  1   
 50  24  51  1   
 51  25  27  1   
 52  25  52  1   
 53  25  53  1   
 54  26  28  1   
 55  26  54  1   
 56  26  55  1   
 57  27  28  1   
 58  27  56  1   
 59  27  57  1   
 60  28  58  1   
 61  28  59  1   
@<TRIPOS>SUBSTRUCTURE
  1 ****  10 GROUP 4 **** **** 0

# MOE 2024.06 (io_trps.svl 2023.06)
