@<TRIPOS>MOLECULE
NONAME
22 21 1 0 0 
SMALL
USER_CHARGES


@<TRIPOS>ATOM
  1 O        0.2620     0.5880     1.0120 O.2   1 <1>  -0.5700 
  2 C        0.7190     1.4480     0.3040 C.2   1 <1>   0.6590 
  3 O       -0.0410     2.3920    -0.2340 O.3   1 <1>  -0.4300 
  4 C        2.1970     1.5280    -0.0250 C.3   1 <1>  -0.0190 
  5 C       -1.4300     2.4430     0.0000 C.3   1 <1>   0.1200 
  6 C        2.8340     0.1270     0.0660 C.3   1 <1>   0.1200 
  7 C        2.8400     2.5430     0.9300 C.3   1 <1>   0.1200 
  8 C       -1.9910     3.6450    -0.7520 C.3   1 <1>  -0.2400 
  9 O        4.1540     0.1550    -0.3730 O.3   1 <1>  -0.6800 
 10 O        4.1620     2.7420     0.5760 O.3   1 <1>  -0.6800 
 11 H        2.2740     1.8900    -1.0340 H     1 <1>   0.0800 
 12 H       -1.5950     2.5380     1.0600 H     1 <1>   0.0800 
 13 H       -1.8700     1.5250    -0.3530 H     1 <1>   0.0800 
 14 H        2.2940    -0.5820    -0.5400 H     1 <1>   0.0800 
 15 H        2.8310    -0.2200     1.0860 H     1 <1>   0.0800 
 16 H        2.8140     2.1840     1.9450 H     1 <1>   0.0800 
 17 H        2.3400     3.4960     0.8780 H     1 <1>   0.0800 
 18 H       -1.5360     4.5520    -0.3960 H     1 <1>   0.0800 
 19 H       -3.0520     3.7100    -0.5910 H     1 <1>   0.0800 
 20 H       -1.8110     3.5410    -1.8070 H     1 <1>   0.0800 
 21 H        4.1970     0.2410    -1.3470 H     1 <1>   0.4000 
 22 H        4.5750     1.8600     0.4040 H     1 <1>   0.4000 
@<TRIPOS>BOND
  1   1   2  2   
  2   2   3  1   
  3   2   4  1   
  4   3   5  1   
  5   4   6  1   
  6   4   7  1   
  7   4  11  1   
  8   5   8  1   
  9   5  12  1   
 10   5  13  1   
 11   6   9  1   
 12   6  14  1   
 13   6  15  1   
 14   7  10  1   
 15   7  16  1   
 16   7  17  1   
 17   8  18  1   
 18   8  19  1   
 19   8  20  1   
 20   9  21  1   
 21  10  22  1   
@<TRIPOS>SUBSTRUCTURE
  1 ****   2 GROUP 4 **** **** 0

# MOE 2024.06 (io_trps.svl 2023.06)
