@<TRIPOS>MOLECULE
NONAME
59 61 1 0 0 
SMALL
USER_CHARGES


@<TRIPOS>ATOM
  1 O       -1.1630     0.1650     1.2870 O.2   1 <1>  -0.5700 
  2 C       -1.9520     1.0810     1.1340 C.2   1 <1>   0.7150 
  3 N       -3.2910     0.7750     1.0900 N.am  1 <1>  -0.6600 
  4 C       -1.4980     2.4330     0.9810 C.2   1 <1>  -0.2370 
  5 C       -3.7890    -0.5390     1.5890 C.3   1 <1>   0.1400 
  6 C       -4.2180     1.4330     0.1270 C.3   1 <1>   0.1400 
  7 N       -0.3410     2.8130     0.3760 N.pl3 1 <1>   0.3140 
  8 C       -2.0900     3.5930     1.3770 C.2   1 <1>  -0.1500 
  9 C       -3.9460    -1.5010     0.3890 C.3   1 <1>   0.4230 
 10 C       -4.4350     0.4900    -1.0670 C.3   1 <1>  -0.1600 
 11 N       -0.1960     4.1480     0.3610 N.2   1 <1>  -0.7070 
 12 C        0.6840     1.9540    -0.2630 C.3   1 <1>   0.0960 
 13 C       -1.2490     4.6080     0.9630 C.2   1 <1>   0.1080 
 14 N       -4.3420    -2.9020     0.7630 N.4   1 <1>  -0.9590 
 15 C       -4.9500    -0.9120    -0.6270 C.3   1 <1>  -0.1060 
 16 C        0.1960     1.4110    -1.6140 C.3   1 <1>  -0.2400 
 17 C       -1.4970     6.0920     1.1670 C.3   1 <1>   0.0210 
 18 C       -4.3590    -3.8090    -0.4120 C.3   1 <1>   0.3430 
 19 C       -3.6090    -3.4830     1.9190 C.3   1 <1>   0.2630 
 20 C       -6.3290    -0.7970     0.0520 C.2   1 <1>   0.9060 
 21 C       -5.0250    -1.8280    -1.8720 C.3   1 <1>  -0.1600 
 22 C       -2.8080     6.5750     0.5150 C.3   1 <1>  -0.0800 
 23 C       -5.3210    -3.2850    -1.4810 C.3   1 <1>  -0.1600 
 24 O       -6.6460    -1.6350     0.9120 O.co2 1 <1>  -0.9000 
 25 O       -7.0820     0.1250    -0.2560 O.co2 1 <1>  -0.9000 
 26 C       -2.8010     6.3510    -1.0040 C.3   1 <1>  -0.2400 
 27 C       -3.0380     8.0610     0.8170 C.3   1 <1>  -0.2400 
 28 H       -3.0860    -0.9320     2.3000 H     1 <1>   0.0800 
 29 H       -4.7300    -0.3910     2.0910 H     1 <1>   0.0800 
 30 H       -5.1570     1.6420     0.6150 H     1 <1>   0.0800 
 31 H       -3.8140     2.3660    -0.2260 H     1 <1>   0.0800 
 32 H       -3.0220     3.7120     1.9010 H     1 <1>   0.1500 
 33 H       -2.9820    -1.5510    -0.0870 H     1 <1>   0.0800 
 34 H       -5.1500     0.9430    -1.7330 H     1 <1>   0.0800 
 35 H       -3.5090     0.4010    -1.6050 H     1 <1>   0.0800 
 36 H        1.5670     2.5480    -0.4130 H     1 <1>   0.0800 
 37 H        0.9330     1.1500     0.4040 H     1 <1>   0.0800 
 38 H       -5.3540    -2.7530     1.0320 H     1 <1>   0.4500 
 39 H       -0.0520     2.2270    -2.2700 H     1 <1>   0.0800 
 40 H       -0.6660     0.7830    -1.4800 H     1 <1>   0.0800 
 41 H        0.9740     0.8280    -2.0710 H     1 <1>   0.0800 
 42 H       -1.5250     6.2840     2.2240 H     1 <1>   0.0800 
 43 H       -0.6660     6.6390     0.7580 H     1 <1>   0.0800 
 44 H       -3.3660    -3.8810    -0.8250 H     1 <1>   0.0800 
 45 H       -4.6750    -4.7930    -0.1080 H     1 <1>   0.0800 
 46 H       -2.5540    -3.5320     1.7050 H     1 <1>   0.0800 
 47 H       -3.9730    -4.4760     2.1260 H     1 <1>   0.0800 
 48 H       -3.7610    -2.8780     2.7980 H     1 <1>   0.0800 
 49 H       -5.7990    -1.4700    -2.5310 H     1 <1>   0.0800 
 50 H       -4.0920    -1.7920    -2.4090 H     1 <1>   0.0800 
 51 H       -3.6260     6.0160     0.9370 H     1 <1>   0.0800 
 52 H       -5.2530    -3.9090    -2.3540 H     1 <1>   0.0800 
 53 H       -6.3300    -3.3640    -1.1130 H     1 <1>   0.0800 
 54 H       -1.9790     6.8750    -1.4590 H     1 <1>   0.0800 
 55 H       -3.7190     6.7030    -1.4400 H     1 <1>   0.0800 
 56 H       -2.7020     5.3040    -1.2310 H     1 <1>   0.0800 
 57 H       -2.2440     8.6590     0.4060 H     1 <1>   0.0800 
 58 H       -3.0790     8.2260     1.8790 H     1 <1>   0.0800 
 59 H       -3.9700     8.3880     0.3900 H     1 <1>   0.0800 
@<TRIPOS>BOND
  1   1   2  2   
  2   2   3  am  
  3   2   4  1   
  4   3   5  1   
  5   3   6  1   
  6   4   7  1   
  7   4   8  2   
  8   5   9  1   
  9   5  28  1   
 10   5  29  1   
 11   6  10  1   
 12   6  30  1   
 13   6  31  1   
 14   7  11  1   
 15   7  12  1   
 16   8  13  1   
 17   8  32  1   
 18   9  14  1   
 19   9  15  1   
 20   9  33  1   
 21  10  15  1   
 22  10  34  1   
 23  10  35  1   
 24  11  13  2   
 25  12  16  1   
 26  12  36  1   
 27  12  37  1   
 28  13  17  1   
 29  14  18  1   
 30  14  19  1   
 31  14  38  1   
 32  15  20  1   
 33  15  21  1   
 34  16  39  1   
 35  16  40  1   
 36  16  41  1   
 37  17  22  1   
 38  17  42  1   
 39  17  43  1   
 40  18  23  1   
 41  18  44  1   
 42  18  45  1   
 43  19  46  1   
 44  19  47  1   
 45  19  48  1   
 46  20  24  ar  
 47  20  25  ar  
 48  21  23  1   
 49  21  49  1   
 50  21  50  1   
 51  22  26  1   
 52  22  27  1   
 53  22  51  1   
 54  23  52  1   
 55  23  53  1   
 56  26  54  1   
 57  26  55  1   
 58  26  56  1   
 59  27  57  1   
 60  27  58  1   
 61  27  59  1   
@<TRIPOS>SUBSTRUCTURE
  1 ****   3 GROUP 4 **** **** 0

# MOE 2024.06 (io_trps.svl 2023.06)
