@<TRIPOS>MOLECULE
NONAME
54 57 1 0 0 
SMALL
USER_CHARGES


@<TRIPOS>ATOM
  1 O        0.0510     0.4080     1.0550 O.3   1 <1>  -0.6800 
  2 C        0.7450    -0.1210    -0.0270 C.3   1 <1>   0.2000 
  3 C        1.2490    -1.5050     0.3740 C.3   1 <1>  -0.0800 
  4 C        2.0350     0.6960    -0.2140 C.3   1 <1>   0.3430 
  5 C        2.4410    -1.1350     1.2600 C.3   1 <1>   0.3430 
  6 C        1.6480    -2.3280    -0.8770 C.3   1 <1>  -0.0170 
  7 N        3.1170    -0.0440     0.5210 N.4   1 <1>  -0.9590 
  8 C        2.8140    -3.2660    -0.6170 C.ar  1 <1>   0.1670 
  9 C        3.9440     0.8320     1.3860 C.3   1 <1>   0.5240 
 10 N        4.0110    -2.7770    -0.7630 N.ar  1 <1>  -0.6200 
 11 C        2.5460    -4.5850    -0.2200 C.ar  1 <1>  -0.1500 
 12 C        4.4670     1.9830     0.5550 C.2   1 <1>  -0.1810 
 13 C        5.0580    -3.6240    -0.5560 C.ar  1 <1>   0.3100 
 14 C        3.5760    -5.4360     0.0340 C.ar  1 <1>  -0.1500 
 15 C        5.4430     1.9310    -0.4360 C.2   1 <1>   0.1080 
 16 C        4.0900     3.2810     0.5930 C.2   1 <1>  -0.3020 
 17 C        4.8870    -4.9600    -0.1290 C.ar  1 <1>   0.0000 
 18 C        6.3670    -3.1610    -0.7710 C.ar  1 <1>  -0.1500 
 19 N        5.6430     3.0880    -0.9760 N.2   1 <1>  -0.7070 
 20 C        6.2160     0.7100    -0.8820 C.3   1 <1>  -0.0590 
 21 N        4.8150     3.9310    -0.3380 N.pl3 1 <1>   0.3140 
 22 C        6.0230    -5.7610     0.1030 C.ar  1 <1>  -0.1500 
 23 C        7.4590    -3.9570    -0.5450 C.ar  1 <1>  -0.1500 
 24 C        4.7740     5.3660    -0.6620 C.3   1 <1>   0.0960 
 25 C        7.2840    -5.2690    -0.0980 C.ar  1 <1>  -0.1500 
 26 C        6.0210     6.0510    -0.1060 C.3   1 <1>   0.1200 
 27 O        5.9620     7.4050    -0.4000 O.3   1 <1>  -0.6800 
 28 H       -0.8670     0.0640     1.0960 H     1 <1>   0.4000 
 29 H        0.1050    -0.1030    -0.8940 H     1 <1>   0.0800 
 30 H        0.5200    -2.0560     0.9420 H     1 <1>   0.0800 
 31 H        1.8970     1.6910     0.1740 H     1 <1>   0.0800 
 32 H        2.2910     0.7580    -1.2590 H     1 <1>   0.0800 
 33 H        3.1010    -1.9700     1.4370 H     1 <1>   0.0800 
 34 H        2.0730    -0.7640     2.2030 H     1 <1>   0.0800 
 35 H        1.9340    -1.6810    -1.6880 H     1 <1>   0.0800 
 36 H        0.7980    -2.8910    -1.2220 H     1 <1>   0.0800 
 37 H        3.7320    -0.5010    -0.1730 H     1 <1>   0.4500 
 38 H        3.3440     1.2210     2.1920 H     1 <1>   0.0800 
 39 H        4.7670     0.2770     1.8050 H     1 <1>   0.0800 
 40 H        1.5270    -4.9150    -0.1170 H     1 <1>   0.1500 
 41 H        3.4130    -6.4540     0.3450 H     1 <1>   0.1500 
 42 H        3.3650     3.7780     1.2140 H     1 <1>   0.1500 
 43 H        6.4940    -2.1600    -1.1290 H     1 <1>   0.1500 
 44 H        6.3930     0.0490    -0.0550 H     1 <1>   0.0800 
 45 H        7.1660     1.0170    -1.2830 H     1 <1>   0.0800 
 46 H        5.6720     0.1960    -1.6520 H     1 <1>   0.0800 
 47 H        5.8830    -6.7730     0.4390 H     1 <1>   0.1500 
 48 H        8.4580    -3.5900    -0.7120 H     1 <1>   0.1500 
 49 H        4.7400     5.4670    -1.7300 H     1 <1>   0.0800 
 50 H        3.8910     5.7970    -0.2270 H     1 <1>   0.0800 
 51 H        8.1510    -5.8840     0.0790 H     1 <1>   0.1500 
 52 H        6.9180     5.6440    -0.5440 H     1 <1>   0.0800 
 53 H        6.0610     5.9500     0.9650 H     1 <1>   0.0800 
 54 H        6.2030     7.5730    -1.3330 H     1 <1>   0.4000 
@<TRIPOS>BOND
  1   1   2  1   
  2   1  28  1   
  3   2   3  1   
  4   2   4  1   
  5   2  29  1   
  6   3   5  1   
  7   3   6  1   
  8   3  30  1   
  9   4   7  1   
 10   4  31  1   
 11   4  32  1   
 12   5   7  1   
 13   5  33  1   
 14   5  34  1   
 15   6   8  1   
 16   6  35  1   
 17   6  36  1   
 18   7   9  1   
 19   7  37  1   
 20   8  10  ar  
 21   8  11  ar  
 22   9  12  1   
 23   9  38  1   
 24   9  39  1   
 25  10  13  ar  
 26  11  14  ar  
 27  11  40  1   
 28  12  15  1   
 29  12  16  2   
 30  13  17  ar  
 31  13  18  ar  
 32  14  17  ar  
 33  14  41  1   
 34  15  19  2   
 35  15  20  1   
 36  16  21  1   
 37  16  42  1   
 38  17  22  ar  
 39  18  23  ar  
 40  18  43  1   
 41  19  21  1   
 42  20  44  1   
 43  20  45  1   
 44  20  46  1   
 45  21  24  1   
 46  22  25  ar  
 47  22  47  1   
 48  23  25  ar  
 49  23  48  1   
 50  24  26  1   
 51  24  49  1   
 52  24  50  1   
 53  25  51  1   
 54  26  27  1   
 55  26  52  1   
 56  26  53  1   
 57  27  54  1   
@<TRIPOS>SUBSTRUCTURE
  1 ****   7 GROUP 4 **** **** 0

# MOE 2024.06 (io_trps.svl 2023.06)
