@<TRIPOS>MOLECULE
NONAME
57 60 1 0 0 
SMALL
USER_CHARGES


@<TRIPOS>ATOM
  1 O       -2.0480     0.2090    -1.0700 O.3   1 <1>  -0.6800 
  2 C       -1.4490     0.6440     0.1060 C.3   1 <1>   0.1200 
  3 C       -1.3950     2.2390     0.0360 C.3   1 <1>   0.0000 
  4 C       -1.3350     3.8480    -0.1300 C.3   1 <1>   0.4230 
  5 C       -0.1050     2.1650    -0.9370 C.3   1 <1>  -0.1600 
  6 C       -2.6310     2.3570     1.0510 C.3   1 <1>  -0.1600 
  7 N       -2.6390     4.6420    -0.2100 N.4   1 <1>  -0.9590 
  8 C       -0.2630     4.4140     0.8470 C.3   1 <1>   0.3430 
  9 C        1.1960     2.7690    -0.3510 C.3   1 <1>   0.3430 
 10 C       -3.9320     2.6640     0.2900 C.3   1 <1>  -0.1600 
 11 C       -3.7220     3.7640    -0.7390 C.3   1 <1>   0.3430 
 12 C       -2.5550     5.9060    -1.0030 C.3   1 <1>   0.4860 
 13 N        0.9340     3.4980     0.9330 N.4   1 <1>  -0.9590 
 14 C       -3.8320     6.6870    -0.7770 C.ar  1 <1>  -0.1430 
 15 C        2.1640     4.2160     1.4070 C.3   1 <1>   0.2630 
 16 C       -4.8160     6.7040    -1.7550 C.ar  1 <1>  -0.1500 
 17 C       -4.0460     7.3750     0.4090 C.ar  1 <1>  -0.1500 
 18 C       -6.0030     7.3750    -1.5330 C.ar  1 <1>  -0.1500 
 19 C       -5.2370     8.0450     0.6200 C.ar  1 <1>  -0.1500 
 20 C       -6.2440     8.0540    -0.3420 C.ar  1 <1>   0.0000 
 21 C       -7.5050     8.7310    -0.1190 C.ar  1 <1>   0.3100 
 22 N       -8.6220     8.0300    -0.3190 N.ar  1 <1>  -0.6200 
 23 C       -7.5230    10.0630     0.2900 C.ar  1 <1>  -0.1500 
 24 C       -9.7620     8.6620    -0.1030 C.ar  1 <1>   0.1600 
 25 C       -8.7180    10.7110     0.5130 C.ar  1 <1>  -0.1500 
 26 C       -9.8670     9.9790     0.3080 C.ar  1 <1>  -0.1500 
 27 H       -2.1490    -0.7670    -1.0840 H     1 <1>   0.4000 
 28 H       -1.9910     0.1460     0.8890 H     1 <1>   0.0800 
 29 H       -0.4820     0.1740     0.1980 H     1 <1>   0.0800 
 30 H       -0.9150     4.0750    -1.0910 H     1 <1>   0.0800 
 31 H       -0.3120     2.6140    -1.8970 H     1 <1>   0.0800 
 32 H        0.2200     1.2020    -1.3000 H     1 <1>   0.0800 
 33 H       -2.8670     1.5510     1.7250 H     1 <1>   0.0800 
 34 H       -2.4650     3.1310     1.7830 H     1 <1>   0.0800 
 35 H       -2.9740     4.9070     0.7260 H     1 <1>   0.4500 
 36 H       -0.6890     4.5280     1.8310 H     1 <1>   0.0800 
 37 H        0.0510     5.3820     0.4940 H     1 <1>   0.0800 
 38 H        1.6350     3.4380    -1.0750 H     1 <1>   0.0800 
 39 H        1.9060     1.9760    -0.1720 H     1 <1>   0.0800 
 40 H       -4.7010     2.9630     0.9830 H     1 <1>   0.0800 
 41 H       -4.2870     1.7820    -0.2170 H     1 <1>   0.0800 
 42 H       -4.6430     4.3090    -0.8810 H     1 <1>   0.0800 
 43 H       -3.4230     3.3320    -1.6810 H     1 <1>   0.0800 
 44 H       -1.7190     6.5040    -0.6800 H     1 <1>   0.0800 
 45 H       -2.4390     5.6880    -2.0520 H     1 <1>   0.0800 
 46 H        0.7280     2.7700     1.6390 H     1 <1>   0.4500 
 47 H        2.4530     4.9810     0.7030 H     1 <1>   0.0800 
 48 H        2.9850     3.5240     1.5120 H     1 <1>   0.0800 
 49 H        1.9880     4.6790     2.3650 H     1 <1>   0.0800 
 50 H       -4.6810     6.1980    -2.6960 H     1 <1>   0.1500 
 51 H       -3.3000     7.4030     1.1840 H     1 <1>   0.1500 
 52 H       -6.7710     7.3750    -2.2890 H     1 <1>   0.1500 
 53 H       -5.4000     8.5670     1.5480 H     1 <1>   0.1500 
 54 H       -6.5960    10.5870     0.4280 H     1 <1>   0.1500 
 55 H      -10.6670     8.0990    -0.2610 H     1 <1>   0.1500 
 56 H       -8.7540    11.7390     0.8290 H     1 <1>   0.1500 
 57 H      -10.8340    10.4210     0.4630 H     1 <1>   0.1500 
@<TRIPOS>BOND
  1   1   2  1   
  2   1  27  1   
  3   2   3  1   
  4   2  28  1   
  5   2  29  1   
  6   3   4  1   
  7   3   5  1   
  8   3   6  1   
  9   4   7  1   
 10   4   8  1   
 11   4  30  1   
 12   5   9  1   
 13   5  31  1   
 14   5  32  1   
 15   6  10  1   
 16   6  33  1   
 17   6  34  1   
 18   7  11  1   
 19   7  12  1   
 20   7  35  1   
 21   8  13  1   
 22   8  36  1   
 23   8  37  1   
 24   9  13  1   
 25   9  38  1   
 26   9  39  1   
 27  10  11  1   
 28  10  40  1   
 29  10  41  1   
 30  11  42  1   
 31  11  43  1   
 32  12  14  1   
 33  12  44  1   
 34  12  45  1   
 35  13  15  1   
 36  13  46  1   
 37  14  16  ar  
 38  14  17  ar  
 39  15  47  1   
 40  15  48  1   
 41  15  49  1   
 42  16  18  ar  
 43  16  50  1   
 44  17  19  ar  
 45  17  51  1   
 46  18  20  ar  
 47  18  52  1   
 48  19  20  ar  
 49  19  53  1   
 50  20  21  1   
 51  21  22  ar  
 52  21  23  ar  
 53  22  24  ar  
 54  23  25  ar  
 55  23  54  1   
 56  24  26  ar  
 57  24  55  1   
 58  25  26  ar  
 59  25  56  1   
 60  26  57  1   
@<TRIPOS>SUBSTRUCTURE
  1 ****  14 GROUP 4 **** **** 0

# MOE 2024.06 (io_trps.svl 2023.06)
