@<TRIPOS>MOLECULE
NONAME
27 26 1 0 0 
SMALL
USER_CHARGES


@<TRIPOS>ATOM
  1 O        0.3390    -1.1330    -1.6070 O.2   1 <1>  -0.5700 
  2 C        0.0080    -1.5830    -0.5410 C.2   1 <1>   0.6590 
  3 O        0.7630    -1.4740     0.5450 O.3   1 <1>  -0.4300 
  4 C       -1.2880    -2.3420    -0.3800 C.3   1 <1>  -0.0990 
  5 C        1.9880    -0.7720     0.5230 C.3   1 <1>   0.0400 
  6 C       -2.4770    -1.3890    -0.2490 C.3   1 <1>   0.2000 
  7 O       -2.3290    -0.6450     0.9060 O.3   1 <1>  -0.6800 
  8 C       -3.8150    -2.1400    -0.1830 C.3   1 <1>  -0.1600 
  9 C       -5.0280    -1.2010    -0.0780 C.3   1 <1>  -0.1600 
 10 C       -6.3430    -1.9900    -0.0820 C.3   1 <1>  -0.1600 
 11 C       -7.5480    -1.0510     0.0230 C.3   1 <1>  -0.2400 
 12 H       -1.2280    -2.9950     0.4700 H     1 <1>   0.0800 
 13 H       -1.4200    -2.9480    -1.2570 H     1 <1>   0.0800 
 14 H        2.4210    -0.8110     1.5060 H     1 <1>   0.0800 
 15 H        1.7960     0.2490     0.2420 H     1 <1>   0.0800 
 16 H        2.6430    -1.2380    -0.1920 H     1 <1>   0.0800 
 17 H       -2.4820    -0.6990    -1.0780 H     1 <1>   0.0800 
 18 H       -2.4340    -1.2120     1.6930 H     1 <1>   0.4000 
 19 H       -3.8080    -2.8230     0.6480 H     1 <1>   0.0800 
 20 H       -3.9160    -2.7250    -1.0800 H     1 <1>   0.0800 
 21 H       -5.0200    -0.5140    -0.9070 H     1 <1>   0.0800 
 22 H       -4.9640    -0.6230     0.8290 H     1 <1>   0.0800 
 23 H       -6.3560    -2.6750     0.7490 H     1 <1>   0.0800 
 24 H       -6.4200    -2.5630    -0.9900 H     1 <1>   0.0800 
 25 H       -7.5030    -0.4820     0.9350 H     1 <1>   0.0800 
 26 H       -8.4600    -1.6210     0.0190 H     1 <1>   0.0800 
 27 H       -7.5670    -0.3700    -0.8100 H     1 <1>   0.0800 
@<TRIPOS>BOND
  1   1   2  2   
  2   2   3  1   
  3   2   4  1   
  4   3   5  1   
  5   4   6  1   
  6   4  12  1   
  7   4  13  1   
  8   5  14  1   
  9   5  15  1   
 10   5  16  1   
 11   6   7  1   
 12   6   8  1   
 13   6  17  1   
 14   7  18  1   
 15   8   9  1   
 16   8  19  1   
 17   8  20  1   
 18   9  10  1   
 19   9  21  1   
 20   9  22  1   
 21  10  11  1   
 22  10  23  1   
 23  10  24  1   
 24  11  25  1   
 25  11  26  1   
 26  11  27  1   
@<TRIPOS>SUBSTRUCTURE
  1 ****   6 GROUP 4 **** **** 0

# MOE 2024.06 (io_trps.svl 2023.06)
