@<TRIPOS>MOLECULE
NONAME
56 59 1 0 0 
SMALL
USER_CHARGES


@<TRIPOS>ATOM
  1 O        0.6820    -0.7350     4.1500 O.3   1 <1>  -0.6800 
  2 C        0.6940    -0.5730     2.7710 C.3   1 <1>   0.2000 
  3 C        1.4200    -1.7750     2.1680 C.3   1 <1>  -0.0800 
  4 C        1.6050     0.6210     2.4440 C.3   1 <1>   0.3430 
  5 C        2.8880    -1.4150     2.4120 C.3   1 <1>   0.3430 
  6 C        1.0780    -1.9630     0.6720 C.3   1 <1>  -0.0160 
  7 N        2.9610     0.0480     2.1880 N.4   1 <1>  -0.9590 
  8 C        2.0890    -2.8810    -0.0060 C.ar  1 <1>  -0.1430 
  9 C        4.0470     0.7540     2.9040 C.3   1 <1>   0.5240 
 10 C        3.2230    -2.4030    -0.7110 C.ar  1 <1>   0.0000 
 11 C        1.9300    -4.2330     0.0890 C.ar  1 <1>  -0.1500 
 12 C        4.3500     2.0040     2.0840 C.2   1 <1>   0.0460 
 13 C        4.1450    -3.3650    -1.1950 C.ar  1 <1>   0.3100 
 14 C        3.5120    -1.0380    -0.9550 C.ar  1 <1>  -0.1500 
 15 C        2.8810    -5.0970    -0.4640 C.ar  1 <1>   0.1600 
 16 N        4.2240     1.9740     0.7370 N.2   1 <1>  -0.5650 
 17 C        4.7450     3.2270     2.5000 C.2   1 <1>  -0.3020 
 18 N        3.9540    -4.7010    -1.0690 N.ar  1 <1>  -0.6200 
 19 C        5.3190    -2.9270    -1.8280 C.ar  1 <1>  -0.1500 
 20 C        4.6660    -0.6450    -1.5750 C.ar  1 <1>  -0.1500 
 21 C        4.5570     3.1670     0.3640 C.2   1 <1>   0.0060 
 22 N        4.8850     3.9800     1.3930 N.pl3 1 <1>   0.0330 
 23 C        5.5860    -1.5990    -2.0130 C.ar  1 <1>  -0.1500 
 24 C        4.5900     3.6230    -1.0830 C.3   1 <1>   0.0200 
 25 C        6.0180     3.5690    -1.6390 C.3   1 <1>  -0.1600 
 26 C        6.0620     3.9660    -3.1200 C.3   1 <1>  -0.1600 
 27 C        7.4910     3.8940    -3.6650 C.3   1 <1>  -0.2400 
 28 H       -0.0130    -1.3690     4.4300 H     1 <1>   0.4000 
 29 H       -0.3180    -0.4370     2.4270 H     1 <1>   0.0800 
 30 H        1.1780    -2.6860     2.6870 H     1 <1>   0.0800 
 31 H        1.6120     1.3190     3.2650 H     1 <1>   0.0800 
 32 H        1.2560     1.1220     1.5560 H     1 <1>   0.0800 
 33 H        3.5610    -1.9560     1.7660 H     1 <1>   0.0800 
 34 H        3.1300    -1.6340     3.4400 H     1 <1>   0.0800 
 35 H        1.0140    -1.0230     0.1580 H     1 <1>   0.0800 
 36 H        0.1000    -2.4080     0.5960 H     1 <1>   0.0800 
 37 H        3.2090     0.2490     1.2020 H     1 <1>   0.4500 
 38 H        3.7560     1.0070     3.9100 H     1 <1>   0.0800 
 39 H        4.9300     0.1380     2.9300 H     1 <1>   0.0800 
 40 H        1.0860    -4.6720     0.5910 H     1 <1>   0.1500 
 41 H        2.8180    -0.2760    -0.6670 H     1 <1>   0.1500 
 42 H        2.7150    -6.1580    -0.3730 H     1 <1>   0.1500 
 43 H        4.9380     3.6040     3.4900 H     1 <1>   0.1500 
 44 H        6.0060    -3.6800    -2.1680 H     1 <1>   0.1500 
 45 H        4.8770     0.3990    -1.7410 H     1 <1>   0.1500 
 46 H        5.1850     4.9590     1.3300 H     1 <1>   0.2700 
 47 H        6.4920    -1.2770    -2.4990 H     1 <1>   0.1500 
 48 H        3.9550     2.9780    -1.6650 H     1 <1>   0.0800 
 49 H        4.2000     4.6230    -1.1580 H     1 <1>   0.0800 
 50 H        6.6500     4.2300    -1.0710 H     1 <1>   0.0800 
 51 H        6.3990     2.5690    -1.5260 H     1 <1>   0.0800 
 52 H        5.4340     3.3050    -3.6940 H     1 <1>   0.0800 
 53 H        5.6890     4.9700    -3.2410 H     1 <1>   0.0800 
 54 H        7.8770     2.8930    -3.5800 H     1 <1>   0.0800 
 55 H        8.1370     4.5620    -3.1210 H     1 <1>   0.0800 
 56 H        7.5040     4.1770    -4.7030 H     1 <1>   0.0800 
@<TRIPOS>BOND
  1   1   2  1   
  2   1  28  1   
  3   2   3  1   
  4   2   4  1   
  5   2  29  1   
  6   3   5  1   
  7   3   6  1   
  8   3  30  1   
  9   4   7  1   
 10   4  31  1   
 11   4  32  1   
 12   5   7  1   
 13   5  33  1   
 14   5  34  1   
 15   6   8  1   
 16   6  35  1   
 17   6  36  1   
 18   7   9  1   
 19   7  37  1   
 20   8  10  ar  
 21   8  11  ar  
 22   9  12  1   
 23   9  38  1   
 24   9  39  1   
 25  10  13  ar  
 26  10  14  ar  
 27  11  15  ar  
 28  11  40  1   
 29  12  16  1   
 30  12  17  2   
 31  13  18  ar  
 32  13  19  ar  
 33  14  20  ar  
 34  14  41  1   
 35  15  18  ar  
 36  15  42  1   
 37  16  21  2   
 38  17  22  1   
 39  17  43  1   
 40  19  23  ar  
 41  19  44  1   
 42  20  23  ar  
 43  20  45  1   
 44  21  22  1   
 45  21  24  1   
 46  22  46  1   
 47  23  47  1   
 48  24  25  1   
 49  24  48  1   
 50  24  49  1   
 51  25  26  1   
 52  25  50  1   
 53  25  51  1   
 54  26  27  1   
 55  26  52  1   
 56  26  53  1   
 57  27  54  1   
 58  27  55  1   
 59  27  56  1   
@<TRIPOS>SUBSTRUCTURE
  1 ****  14 GROUP 4 **** **** 0

# MOE 2024.06 (io_trps.svl 2023.06)
