@<TRIPOS>MOLECULE
NONAME
29 29 1 0 0 
SMALL
USER_CHARGES


@<TRIPOS>ATOM
  1 S        0.6410    -0.5000     0.8750 S.3   1 <1>  -0.9530 
  2 C        1.7650     0.7580     0.7950 C.ar  1 <1>  -0.0470 
  3 C        1.3490     2.0640     0.5760 C.ar  1 <1>  -0.1500 
  4 C        3.1110     0.4650     0.9430 C.ar  1 <1>  -0.1500 
  5 C        2.2800     3.0920     0.4890 C.ar  1 <1>   0.1170 
  6 C        4.0460     1.4780     0.8660 C.ar  1 <1>  -0.1500 
  7 N        1.9370     4.4290     0.2280 N.am  1 <1>  -0.5470 
  8 C        3.6310     2.7820     0.6390 C.ar  1 <1>  -0.1500 
  9 C        0.7820     5.1280     0.3840 C.2   1 <1>   0.7800 
 10 O       -0.2250     4.6940     0.9000 O.2   1 <1>  -0.5700 
 11 O        0.8440     6.3810    -0.0720 O.3   1 <1>  -0.4300 
 12 C       -0.1860     7.3470    -0.0540 C.3   1 <1>   0.2800 
 13 C       -1.3780     6.8680    -0.8910 C.3   1 <1>  -0.2400 
 14 C        0.4200     8.5900    -0.7060 C.3   1 <1>  -0.2400 
 15 C       -0.5800     7.6770     1.3910 C.3   1 <1>  -0.2400 
 16 H        0.2970     2.2440     0.4710 H     1 <1>   0.1500 
 17 H        3.3890    -0.5580     1.1150 H     1 <1>   0.1500 
 18 H        5.0890     1.2500     0.9830 H     1 <1>   0.1500 
 19 H        2.6790     4.9980    -0.1600 H     1 <1>   0.3700 
 20 H        4.3650     3.5620     0.5800 H     1 <1>   0.1500 
 21 H       -1.0530     6.5780    -1.8730 H     1 <1>   0.0800 
 22 H       -2.0990     7.6590    -0.9900 H     1 <1>   0.0800 
 23 H       -1.8730     6.0370    -0.4230 H     1 <1>   0.0800 
 24 H        0.7260     8.3710    -1.7130 H     1 <1>   0.0800 
 25 H        1.2730     8.9270    -0.1450 H     1 <1>   0.0800 
 26 H       -0.3010     9.3860    -0.7370 H     1 <1>   0.0800 
 27 H       -1.0770     6.8460     1.8570 H     1 <1>   0.0800 
 28 H       -1.2590     8.5090     1.4060 H     1 <1>   0.0800 
 29 H        0.2900     7.9350     1.9670 H     1 <1>   0.0800 
@<TRIPOS>BOND
  1   1   2  1   
  2   2   3  ar  
  3   2   4  ar  
  4   3   5  ar  
  5   3  16  1   
  6   4   6  ar  
  7   4  17  1   
  8   5   7  1   
  9   5   8  ar  
 10   6   8  ar  
 11   6  18  1   
 12   7   9  am  
 13   7  19  1   
 14   8  20  1   
 15   9  10  2   
 16   9  11  1   
 17  11  12  1   
 18  12  13  1   
 19  12  14  1   
 20  12  15  1   
 21  13  21  1   
 22  13  22  1   
 23  13  23  1   
 24  14  24  1   
 25  14  25  1   
 26  14  26  1   
 27  15  27  1   
 28  15  28  1   
 29  15  29  1   
@<TRIPOS>SUBSTRUCTURE
  1 ****   7 GROUP 4 **** **** 0

# MOE 2024.06 (io_trps.svl 2023.06)
