@<TRIPOS>MOLECULE
NONAME
58 59 1 0 0 
SMALL
USER_CHARGES


@<TRIPOS>ATOM
  1 O       -1.1610     0.1690     1.9260 O.2   1 <1>  -0.5700 
  2 C       -1.7250     0.4920     0.9070 C.2   1 <1>   0.5690 
  3 N       -2.2690    -0.4660     0.0760 N.am  1 <1>  -0.6600 
  4 C       -1.7500     2.0050     0.6240 C.3   1 <1>  -0.0190 
  5 C       -3.1650    -0.2030    -1.0850 C.3   1 <1>   0.2840 
  6 C       -2.0620    -1.9200     0.3590 C.3   1 <1>   0.1400 
  7 C       -3.1490     2.6430     0.5200 C.3   1 <1>  -0.1600 
  8 C       -0.8390     2.4180    -0.5560 C.3   1 <1>  -0.1600 
  9 C       -4.6230     0.0170    -0.6800 C.ar  1 <1>  -0.1440 
 10 C       -0.9910    -2.5380    -0.5620 C.3   1 <1>  -0.0800 
 11 C       -3.0920     4.1830     0.5370 C.3   1 <1>   0.2000 
 12 C       -1.1820     3.8070    -1.1320 C.3   1 <1>  -0.1600 
 13 C       -5.1200    -0.2900     0.5810 C.ar  1 <1>  -0.1500 
 14 C       -5.4830     0.5760    -1.6140 C.ar  1 <1>  -0.1500 
 15 C       -0.8540    -4.0370    -0.2660 C.3   1 <1>  -0.2400 
 16 C        0.3770    -1.8590    -0.4010 C.3   1 <1>  -0.2400 
 17 O       -4.1760     4.6790    -0.2150 O.3   1 <1>  -0.5600 
 18 C       -1.7650     4.7340    -0.0580 C.3   1 <1>   0.2000 
 19 C       -6.4420    -0.0330     0.9000 C.ar  1 <1>  -0.1500 
 20 C       -6.8050     0.8330    -1.2950 C.ar  1 <1>  -0.1500 
 21 C       -5.4370     4.5030     0.3580 C.3   1 <1>   0.0400 
 22 O       -2.0050     5.9610    -0.6400 O.3   1 <1>  -0.6800 
 23 C       -7.2930     0.5320    -0.0350 C.ar  1 <1>  -0.1440 
 24 C       -8.7420     0.8230     0.3190 C.3   1 <1>  -0.0170 
 25 C       -8.8850     2.2490     0.8560 C.3   1 <1>  -0.2400 
 26 H       -1.3100     2.4510     1.5010 H     1 <1>   0.0800 
 27 H       -2.8130     0.6570    -1.6240 H     1 <1>   0.0800 
 28 H       -3.1240    -1.0340    -1.7660 H     1 <1>   0.0800 
 29 H       -1.7660    -2.0600     1.3850 H     1 <1>   0.0800 
 30 H       -2.9960    -2.4390     0.2270 H     1 <1>   0.0800 
 31 H       -3.7660     2.2940     1.3290 H     1 <1>   0.0800 
 32 H       -3.5980     2.3550    -0.4080 H     1 <1>   0.0800 
 33 H        0.1790     2.4210    -0.2040 H     1 <1>   0.0800 
 34 H       -0.8890     1.6940    -1.3490 H     1 <1>   0.0800 
 35 H       -1.3090    -2.4350    -1.5850 H     1 <1>   0.0800 
 36 H       -3.1800     4.5470     1.5460 H     1 <1>   0.0800 
 37 H       -1.9110     3.6930    -1.9150 H     1 <1>   0.0800 
 38 H       -0.2970     4.2500    -1.5550 H     1 <1>   0.0800 
 39 H       -4.4850    -0.7240     1.3340 H     1 <1>   0.1500 
 40 H       -5.1280     0.8240    -2.5990 H     1 <1>   0.1500 
 41 H       -0.5270    -4.1930     0.7470 H     1 <1>   0.0800 
 42 H       -0.1360    -4.4850    -0.9300 H     1 <1>   0.0800 
 43 H       -1.7980    -4.5350    -0.4040 H     1 <1>   0.0800 
 44 H        0.6960    -1.8970     0.6260 H     1 <1>   0.0800 
 45 H        0.3240    -0.8270    -0.6990 H     1 <1>   0.0800 
 46 H        1.1160    -2.3460    -1.0110 H     1 <1>   0.0800 
 47 H       -1.0370     4.8750     0.7230 H     1 <1>   0.0800 
 48 H       -6.8040    -0.2740     1.8840 H     1 <1>   0.1500 
 49 H       -7.4530     1.2720    -2.0330 H     1 <1>   0.1500 
 50 H       -6.1570     5.0130    -0.2570 H     1 <1>   0.0800 
 51 H       -5.4440     4.9240     1.3480 H     1 <1>   0.0800 
 52 H       -5.6790     3.4530     0.3890 H     1 <1>   0.0800 
 53 H       -2.9550     5.9460    -0.8990 H     1 <1>   0.4000 
 54 H       -9.3590     0.7020    -0.5540 H     1 <1>   0.0800 
 55 H       -9.0840     0.1210     1.0590 H     1 <1>   0.0800 
 56 H       -8.5660     2.9590     0.1140 H     1 <1>   0.0800 
 57 H       -8.2820     2.3740     1.7380 H     1 <1>   0.0800 
 58 H       -9.9120     2.4480     1.1080 H     1 <1>   0.0800 
@<TRIPOS>BOND
  1   1   2  2   
  2   2   3  am  
  3   2   4  1   
  4   3   5  1   
  5   3   6  1   
  6   4   7  1   
  7   4   8  1   
  8   4  26  1   
  9   5   9  1   
 10   5  27  1   
 11   5  28  1   
 12   6  10  1   
 13   6  29  1   
 14   6  30  1   
 15   7  11  1   
 16   7  31  1   
 17   7  32  1   
 18   8  12  1   
 19   8  33  1   
 20   8  34  1   
 21   9  13  ar  
 22   9  14  ar  
 23  10  15  1   
 24  10  16  1   
 25  10  35  1   
 26  11  17  1   
 27  11  18  1   
 28  11  36  1   
 29  12  18  1   
 30  12  37  1   
 31  12  38  1   
 32  13  19  ar  
 33  13  39  1   
 34  14  20  ar  
 35  14  40  1   
 36  15  41  1   
 37  15  42  1   
 38  15  43  1   
 39  16  44  1   
 40  16  45  1   
 41  16  46  1   
 42  17  21  1   
 43  18  22  1   
 44  18  47  1   
 45  19  23  ar  
 46  19  48  1   
 47  20  23  ar  
 48  20  49  1   
 49  21  50  1   
 50  21  51  1   
 51  21  52  1   
 52  22  53  1   
 53  23  24  1   
 54  24  25  1   
 55  24  54  1   
 56  24  55  1   
 57  25  56  1   
 58  25  57  1   
 59  25  58  1   
@<TRIPOS>SUBSTRUCTURE
  1 ****   7 GROUP 4 **** **** 0

# MOE 2024.06 (io_trps.svl 2023.06)
