@<TRIPOS>MOLECULE
NONAME
51 54 1 0 0 
SMALL
USER_CHARGES


@<TRIPOS>ATOM
  1 F        1.2630     1.2230    -1.1480 F     1 <1>  -0.1900 
  2 C        1.2160     2.3620    -0.5040 C.ar  1 <1>   0.1900 
  3 C        0.1720     3.2740    -0.6930 C.ar  1 <1>   0.0820 
  4 C        2.2580     2.6190     0.3670 C.ar  1 <1>  -0.1500 
  5 O       -0.9020     3.1400    -1.5190 O.3   1 <1>  -0.3630 
  6 C        0.2140     4.4590     0.0260 C.ar  1 <1>  -0.1500 
  7 C        2.2770     3.8100     1.0720 C.ar  1 <1>  -0.1500 
  8 C       -1.1900     1.9450    -2.2130 C.3   1 <1>   0.0400 
  9 C        1.2570     4.7370     0.9000 C.ar  1 <1>  -0.1430 
 10 C        1.2800     6.0580     1.6480 C.3   1 <1>   0.4870 
 11 N        2.3380     6.9240     1.0700 N.4   1 <1>  -0.9590 
 12 C        2.5920     8.1800     1.8590 C.3   1 <1>   0.4230 
 13 C        2.2480     7.0530    -0.4240 C.3   1 <1>   0.3430 
 14 C        1.7250     9.3780     1.4110 C.3   1 <1>   0.1200 
 15 C        4.1070     8.5230     1.8320 C.3   1 <1>   0.1400 
 16 C        3.0100     8.2370    -1.0520 C.3   1 <1>  -0.0800 
 17 O        2.3180    10.0830     0.3620 O.3   1 <1>  -0.5600 
 18 N        4.8350     7.8760     0.6860 N.am  1 <1>  -0.6600 
 19 C        2.2110     9.5430    -0.9120 C.3   1 <1>   0.1200 
 20 C        4.5070     8.3830    -0.6790 C.3   1 <1>   0.1400 
 21 C        5.4480     6.6530     0.8580 C.2   1 <1>   0.7150 
 22 O        4.9090     5.8970     1.6510 O.2   1 <1>  -0.5700 
 23 C        6.6010     6.2570     0.0800 C.2   1 <1>   0.0550 
 24 O        6.8370     4.9740    -0.1800 O.3   1 <1>  -0.2800 
 25 C        7.5830     7.0000    -0.5040 C.2   1 <1>  -0.1500 
 26 C        7.9290     4.8800    -0.9030 C.2   1 <1>  -0.0100 
 27 C        8.4430     6.1050    -1.1420 C.2   1 <1>  -0.1500 
 28 H        3.0440     1.8930     0.4890 H     1 <1>   0.1500 
 29 H       -0.5930     5.1570    -0.1160 H     1 <1>   0.1500 
 30 H        3.0960     3.9980     1.7490 H     1 <1>   0.1500 
 31 H       -2.1270     2.0710    -2.7240 H     1 <1>   0.0800 
 32 H       -1.2680     1.1370    -1.5060 H     1 <1>   0.0800 
 33 H       -0.4090     1.7560    -2.9280 H     1 <1>   0.0800 
 34 H        1.4830     5.8700     2.6900 H     1 <1>   0.0800 
 35 H        0.3200     6.5390     1.5670 H     1 <1>   0.0800 
 36 H        3.2200     6.3910     1.2190 H     1 <1>   0.4500 
 37 H        2.3360     7.9850     2.8870 H     1 <1>   0.0800 
 38 H        2.6190     6.1400    -0.8630 H     1 <1>   0.0800 
 39 H        1.2120     7.1370    -0.7070 H     1 <1>   0.0800 
 40 H        1.6520    10.0730     2.2300 H     1 <1>   0.0800 
 41 H        0.7290     9.0810     1.1350 H     1 <1>   0.0800 
 42 H        4.5440     8.1820     2.7550 H     1 <1>   0.0800 
 43 H        4.2590     9.5890     1.8020 H     1 <1>   0.0800 
 44 H        2.9980     8.0430    -2.1100 H     1 <1>   0.0800 
 45 H        1.1690     9.4030    -1.1440 H     1 <1>   0.0800 
 46 H        2.6040    10.2800    -1.5920 H     1 <1>   0.0800 
 47 H        4.8040     9.4170    -0.7500 H     1 <1>   0.0800 
 48 H        5.0880     7.8390    -1.4040 H     1 <1>   0.0800 
 49 H        7.7030     8.0690    -0.4880 H     1 <1>   0.1500 
 50 H        8.2750     3.9060    -1.2060 H     1 <1>   0.1500 
 51 H        9.3270     6.3640    -1.6980 H     1 <1>   0.1500 
@<TRIPOS>BOND
  1   1   2  1   
  2   2   3  ar  
  3   2   4  ar  
  4   3   5  1   
  5   3   6  ar  
  6   4   7  ar  
  7   4  28  1   
  8   5   8  1   
  9   6   9  ar  
 10   6  29  1   
 11   7   9  ar  
 12   7  30  1   
 13   8  31  1   
 14   8  32  1   
 15   8  33  1   
 16   9  10  1   
 17  10  11  1   
 18  10  34  1   
 19  10  35  1   
 20  11  12  1   
 21  11  13  1   
 22  11  36  1   
 23  12  14  1   
 24  12  15  1   
 25  12  37  1   
 26  13  16  1   
 27  13  38  1   
 28  13  39  1   
 29  14  17  1   
 30  14  40  1   
 31  14  41  1   
 32  15  18  1   
 33  15  42  1   
 34  15  43  1   
 35  16  19  1   
 36  16  20  1   
 37  16  44  1   
 38  17  19  1   
 39  18  20  1   
 40  18  21  am  
 41  19  45  1   
 42  19  46  1   
 43  20  47  1   
 44  20  48  1   
 45  21  22  2   
 46  21  23  1   
 47  23  24  1   
 48  23  25  2   
 49  24  26  1   
 50  25  27  1   
 51  25  49  1   
 52  26  27  2   
 53  26  50  1   
 54  27  51  1   
@<TRIPOS>SUBSTRUCTURE
  1 ****  13 GROUP 4 **** **** 0

# MOE 2024.06 (io_trps.svl 2023.06)
