@<TRIPOS>MOLECULE
NONAME
38 40 1 0 0 
SMALL
USER_CHARGES


@<TRIPOS>ATOM
  1 O       -0.7330    -1.3060     2.0550 O.2   1 <1>  -0.5700 
  2 C       -1.6990    -1.4900     1.3350 C.2   1 <1>   0.6900 
  3 N       -2.4190    -2.6230     1.2460 N.am  1 <1>  -0.5390 
  4 N       -2.2210    -0.5860     0.4790 N.am  1 <1>  -0.5390 
  5 C       -3.4330    -2.4490     0.2900 C.2   1 <1>   0.1230 
  6 C       -3.2800    -1.1830    -0.1720 C.2   1 <1>  -0.0410 
  7 C       -4.3720    -3.4950    -0.0650 C.2   1 <1>   0.6160 
  8 O       -4.0740    -4.6590     0.1460 O.2   1 <1>  -0.5700 
  9 N       -5.6020    -3.2370    -0.6430 N.am  1 <1>  -0.6600 
 10 C       -6.2730    -4.2960    -1.4530 C.3   1 <1>   0.1400 
 11 C       -6.4180    -2.0410    -0.3140 C.3   1 <1>   0.1400 
 12 C       -7.1510    -5.1970    -0.5740 C.3   1 <1>   0.1400 
 13 C       -7.6460    -2.4060     0.5240 C.3   1 <1>  -0.1600 
 14 N       -8.5120    -4.6420    -0.2690 N.am  1 <1>  -0.6600 
 15 C       -8.7220    -3.1630    -0.2600 C.3   1 <1>   0.1400 
 16 C       -9.6110    -5.4770    -0.2160 C.2   1 <1>   0.7160 
 17 O      -10.7040    -5.0270    -0.5050 O.2   1 <1>  -0.5700 
 18 C       -9.5050    -6.8710     0.1500 C.2   1 <1>  -0.0860 
 19 C      -10.2890    -7.9000    -0.2720 C.2   1 <1>  -0.0100 
 20 C       -8.5940    -7.4840     1.0390 C.2   1 <1>  -0.1500 
 21 O       -9.9190    -9.0400     0.2610 O.3   1 <1>  -0.2800 
 22 C       -8.8990    -8.7980     1.0550 C.2   1 <1>  -0.0100 
 23 H       -2.1840    -3.4920     1.7240 H     1 <1>   0.3700 
 24 H       -1.8110     0.3420     0.3690 H     1 <1>   0.3700 
 25 H       -3.8480    -0.6710    -0.9310 H     1 <1>   0.1500 
 26 H       -5.5130    -4.9090    -1.9060 H     1 <1>   0.0800 
 27 H       -6.8520    -3.8610    -2.2480 H     1 <1>   0.0800 
 28 H       -6.7220    -1.5540    -1.2260 H     1 <1>   0.0800 
 29 H       -5.8330    -1.3400     0.2540 H     1 <1>   0.0800 
 30 H       -6.6300    -5.4010     0.3450 H     1 <1>   0.0800 
 31 H       -7.2720    -6.1320    -1.0930 H     1 <1>   0.0800 
 32 H       -8.0860    -1.4820     0.8530 H     1 <1>   0.0800 
 33 H       -7.3610    -2.9520     1.4070 H     1 <1>   0.0800 
 34 H       -8.7800    -2.8030    -1.2730 H     1 <1>   0.0800 
 35 H       -9.6720    -2.9550     0.2050 H     1 <1>   0.0800 
 36 H      -11.1250    -7.8810    -0.9490 H     1 <1>   0.1500 
 37 H       -7.8240    -6.9740     1.5900 H     1 <1>   0.1500 
 38 H       -8.4560    -9.6170     1.5950 H     1 <1>   0.1500 
@<TRIPOS>BOND
  1   1   2  2   
  2   2   3  am  
  3   2   4  am  
  4   3   5  1   
  5   3  23  1   
  6   4   6  1   
  7   4  24  1   
  8   5   6  2   
  9   5   7  1   
 10   6  25  1   
 11   7   8  2   
 12   7   9  am  
 13   9  10  1   
 14   9  11  1   
 15  10  12  1   
 16  10  26  1   
 17  10  27  1   
 18  11  13  1   
 19  11  28  1   
 20  11  29  1   
 21  12  14  1   
 22  12  30  1   
 23  12  31  1   
 24  13  15  1   
 25  13  32  1   
 26  13  33  1   
 27  14  15  1   
 28  14  16  am  
 29  15  34  1   
 30  15  35  1   
 31  16  17  2   
 32  16  18  1   
 33  18  19  2   
 34  18  20  1   
 35  19  21  1   
 36  19  36  1   
 37  20  22  2   
 38  20  37  1   
 39  21  22  1   
 40  22  38  1   
@<TRIPOS>SUBSTRUCTURE
  1 ****  12 GROUP 4 **** **** 0

# MOE 2024.06 (io_trps.svl 2023.06)
