@<TRIPOS>MOLECULE
NONAME
45 46 1 0 0 
SMALL
USER_CHARGES


@<TRIPOS>ATOM
  1 O       -0.2130    -0.2590     0.3920 O.2   1 <1>  -0.5700 
  2 C       -1.1120     0.4910     0.0720 C.2   1 <1>   0.5690 
  3 N       -2.3660    -0.0410    -0.1500 N.am  1 <1>  -0.6600 
  4 C       -0.7900     2.0160    -0.1090 C.3   1 <1>   0.3410 
  5 C       -3.6340     0.6750    -0.4600 C.3   1 <1>   0.1400 
  6 C       -2.6420    -1.4870     0.0430 C.3   1 <1>   0.1400 
  7 O       -1.7470     2.7750     0.6070 O.3   1 <1>  -0.5600 
  8 C        0.6140     2.3630     0.4320 C.3   1 <1>  -0.2400 
  9 C       -0.8660     2.3850    -1.6030 C.3   1 <1>  -0.2400 
 10 C       -4.7280    -0.2620     0.0480 C.3   1 <1>   0.2000 
 11 C       -4.1460    -1.6570    -0.1950 C.3   1 <1>  -0.0800 
 12 C       -1.6670     4.1670     0.6590 C.3   1 <1>   0.1200 
 13 O       -4.8740    -0.0490     1.4100 O.3   1 <1>  -0.6800 
 14 C       -4.7810    -2.7900     0.6330 C.3   1 <1>  -0.0170 
 15 C       -2.9230     4.6580     1.3670 C.3   1 <1>  -0.2400 
 16 C       -4.1850    -4.1370     0.2550 C.ar  1 <1>  -0.1440 
 17 C       -4.6450    -4.8570    -0.8290 C.ar  1 <1>  -0.1500 
 18 C       -3.1520    -4.7070     0.9710 C.ar  1 <1>  -0.1500 
 19 C       -4.0640    -6.0750    -1.1380 C.ar  1 <1>   0.1600 
 20 C       -2.6390    -5.9320     0.5760 C.ar  1 <1>   0.1600 
 21 N       -3.0700    -6.6290    -0.4630 N.ar  1 <1>  -0.6200 
 22 H       -3.7070     1.6360     0.0130 H     1 <1>   0.0800 
 23 H       -3.7190     0.7890    -1.5260 H     1 <1>   0.0800 
 24 H       -2.0640    -2.0800    -0.6460 H     1 <1>   0.0800 
 25 H       -2.3770    -1.7590     1.0500 H     1 <1>   0.0800 
 26 H        1.3490     1.7360    -0.0400 H     1 <1>   0.0800 
 27 H        0.6520     2.1800     1.4910 H     1 <1>   0.0800 
 28 H        0.8850     3.3810     0.2280 H     1 <1>   0.0800 
 29 H       -0.2630     1.6970    -2.1670 H     1 <1>   0.0800 
 30 H       -0.4890     3.3730    -1.7860 H     1 <1>   0.0800 
 31 H       -1.8760     2.3160    -1.9580 H     1 <1>   0.0800 
 32 H       -5.6810    -0.1040    -0.4290 H     1 <1>   0.0800 
 33 H       -4.2790    -1.8870    -1.2370 H     1 <1>   0.0800 
 34 H       -0.7940     4.4530     1.2190 H     1 <1>   0.0800 
 35 H       -1.6240     4.5700    -0.3370 H     1 <1>   0.0800 
 36 H       -3.9820     0.0630     1.8000 H     1 <1>   0.4000 
 37 H       -5.8430    -2.8070     0.4600 H     1 <1>   0.0800 
 38 H       -4.6310    -2.6150     1.6840 H     1 <1>   0.0800 
 39 H       -2.9710     4.2470     2.3590 H     1 <1>   0.0800 
 40 H       -3.7980     4.3650     0.8150 H     1 <1>   0.0800 
 41 H       -2.9050     5.7300     1.4400 H     1 <1>   0.0800 
 42 H       -5.4490    -4.4820    -1.4350 H     1 <1>   0.1500 
 43 H       -2.7380    -4.2120     1.8300 H     1 <1>   0.1500 
 44 H       -4.4360    -6.6230    -1.9870 H     1 <1>   0.1500 
 45 H       -1.8320    -6.3600     1.1450 H     1 <1>   0.1500 
@<TRIPOS>BOND
  1   1   2  2   
  2   2   3  am  
  3   2   4  1   
  4   3   5  1   
  5   3   6  1   
  6   4   7  1   
  7   4   8  1   
  8   4   9  1   
  9   5  10  1   
 10   5  22  1   
 11   5  23  1   
 12   6  11  1   
 13   6  24  1   
 14   6  25  1   
 15   7  12  1   
 16   8  26  1   
 17   8  27  1   
 18   8  28  1   
 19   9  29  1   
 20   9  30  1   
 21   9  31  1   
 22  10  11  1   
 23  10  13  1   
 24  10  32  1   
 25  11  14  1   
 26  11  33  1   
 27  12  15  1   
 28  12  34  1   
 29  12  35  1   
 30  13  36  1   
 31  14  16  1   
 32  14  37  1   
 33  14  38  1   
 34  15  39  1   
 35  15  40  1   
 36  15  41  1   
 37  16  17  ar  
 38  16  18  ar  
 39  17  19  ar  
 40  17  42  1   
 41  18  20  ar  
 42  18  43  1   
 43  19  21  ar  
 44  19  44  1   
 45  20  21  ar  
 46  20  45  1   
@<TRIPOS>SUBSTRUCTURE
  1 ****   6 GROUP 4 **** **** 0

# MOE 2024.06 (io_trps.svl 2023.06)
