@<TRIPOS>MOLECULE
NONAME
40 41 1 0 0 
SMALL
USER_CHARGES


@<TRIPOS>ATOM
  1 O       -0.3340    -0.4620    -0.8900 O.3   1 <1>  -0.5320 
  2 C       -1.4870    -1.0160    -0.4910 C.ar  1 <1>   0.0820 
  3 C       -1.4650    -1.9640     0.5150 C.ar  1 <1>  -0.1500 
  4 C       -2.6850    -0.6420    -1.0770 C.ar  1 <1>  -0.1500 
  5 C       -2.6460    -2.5470     0.9380 C.ar  1 <1>  -0.1500 
  6 C       -3.8650    -1.2270    -0.6530 C.ar  1 <1>  -0.1500 
  7 C       -3.8520    -2.1850     0.3520 C.ar  1 <1>  -0.1440 
  8 C       -5.1430    -2.8410     0.8010 C.3   1 <1>  -0.0170 
  9 C       -5.3640    -4.1010    -0.0390 C.3   1 <1>   0.3430 
 10 N       -6.5810    -4.8610     0.3850 N.4   1 <1>  -0.9590 
 11 C       -6.5710    -6.2230    -0.2570 C.3   1 <1>   0.3430 
 12 C       -7.8430    -4.1290     0.0600 C.3   1 <1>   0.3430 
 13 C       -7.7880    -7.0770     0.1450 C.3   1 <1>   0.2000 
 14 C       -9.0520    -4.9340     0.5350 C.3   1 <1>  -0.1600 
 15 O       -7.7480    -8.2330    -0.6130 O.3   1 <1>  -0.6800 
 16 C       -9.1110    -6.3350    -0.1140 C.3   1 <1>  -0.0800 
 17 C      -10.3230    -7.1450     0.3800 C.3   1 <1>   0.1200 
 18 O      -11.4720    -6.4100     0.1540 O.3   1 <1>  -0.6800 
 19 H       -0.4460     0.2100    -1.5860 H     1 <1>   0.4500 
 20 H       -0.5240    -2.2350     0.9610 H     1 <1>   0.1500 
 21 H       -2.7010     0.1000    -1.8550 H     1 <1>   0.1500 
 22 H       -2.6090    -3.2790     1.7250 H     1 <1>   0.1500 
 23 H       -4.7890    -0.9250    -1.1150 H     1 <1>   0.1500 
 24 H       -5.9520    -2.1450     0.6720 H     1 <1>   0.0800 
 25 H       -5.0680    -3.0950     1.8430 H     1 <1>   0.0800 
 26 H       -4.4930    -4.7290     0.0660 H     1 <1>   0.0800 
 27 H       -5.4430    -3.8260    -1.0790 H     1 <1>   0.0800 
 28 H       -6.5420    -4.9940     1.4040 H     1 <1>   0.4500 
 29 H       -6.5820    -6.1100    -1.3290 H     1 <1>   0.0800 
 30 H       -5.6730    -6.7510     0.0180 H     1 <1>   0.0800 
 31 H       -7.8500    -3.1650     0.5420 H     1 <1>   0.0800 
 32 H       -7.9140    -3.9750    -1.0050 H     1 <1>   0.0800 
 33 H       -7.7040    -7.3620     1.1810 H     1 <1>   0.0800 
 34 H       -9.0380    -5.0160     1.6080 H     1 <1>   0.0800 
 35 H       -9.9370    -4.3800     0.2710 H     1 <1>   0.0800 
 36 H       -8.4520    -8.8640    -0.3600 H     1 <1>   0.4000 
 37 H       -9.2150    -6.2050    -1.1790 H     1 <1>   0.0800 
 38 H      -10.2570    -7.3450     1.4370 H     1 <1>   0.0800 
 39 H      -10.4140    -8.0730    -0.1590 H     1 <1>   0.0800 
 40 H      -12.2740    -6.9180     0.3960 H     1 <1>   0.4000 
@<TRIPOS>BOND
  1   1   2  1   
  2   1  19  1   
  3   2   3  ar  
  4   2   4  ar  
  5   3   5  ar  
  6   3  20  1   
  7   4   6  ar  
  8   4  21  1   
  9   5   7  ar  
 10   5  22  1   
 11   6   7  ar  
 12   6  23  1   
 13   7   8  1   
 14   8   9  1   
 15   8  24  1   
 16   8  25  1   
 17   9  10  1   
 18   9  26  1   
 19   9  27  1   
 20  10  11  1   
 21  10  12  1   
 22  10  28  1   
 23  11  13  1   
 24  11  29  1   
 25  11  30  1   
 26  12  14  1   
 27  12  31  1   
 28  12  32  1   
 29  13  15  1   
 30  13  16  1   
 31  13  33  1   
 32  14  16  1   
 33  14  34  1   
 34  14  35  1   
 35  15  36  1   
 36  16  17  1   
 37  16  37  1   
 38  17  18  1   
 39  17  38  1   
 40  17  39  1   
 41  18  40  1   
@<TRIPOS>SUBSTRUCTURE
  1 ****   9 GROUP 4 **** **** 0

# MOE 2024.06 (io_trps.svl 2023.06)
