@<TRIPOS>MOLECULE
NONAME
56 59 1 0 0 
SMALL
USER_CHARGES


@<TRIPOS>ATOM
  1 O        4.5040    -2.2900    -0.0630 O.2   1 <1>  -0.5700 
  2 C        3.5770    -1.6870     0.4190 C.2   1 <1>   0.5690 
  3 N        3.7030    -0.3530     0.6880 N.am  1 <1>  -0.6600 
  4 C        2.2740    -2.4470     0.6900 C.3   1 <1>  -0.0190 
  5 C        5.0850     0.1770     1.0100 C.3   1 <1>   0.2200 
  6 C        2.6330     0.6230     0.3270 C.3   1 <1>   0.1400 
  7 C        2.5230    -3.5830     1.7020 C.3   1 <1>  -0.1600 
  8 C        1.6770    -3.0240    -0.6100 C.3   1 <1>  -0.1600 
  9 C        5.0700     1.4180     1.9180 C.3   1 <1>   0.1200 
 10 C        5.8970     0.4570    -0.2770 C.3   1 <1>   0.3430 
 11 C        3.1560     1.9260    -0.3140 C.3   1 <1>  -0.0800 
 12 C        1.2890    -4.4570     1.9180 C.3   1 <1>   0.3430 
 13 C        0.4610    -3.9160    -0.3500 C.3   1 <1>   0.3430 
 14 O        4.9550     2.5830     1.1560 O.3   1 <1>  -0.5600 
 15 N        5.0180     0.5620    -1.4920 N.4   1 <1>  -0.9590 
 16 C        3.6740     2.9150     0.7430 C.3   1 <1>   0.1200 
 17 C        4.1370     1.7790    -1.5030 C.3   1 <1>   0.3430 
 18 N        0.8270    -4.9960     0.6120 N.4   1 <1>  -0.9590 
 19 C        5.8290     0.4560    -2.7390 C.3   1 <1>   0.2630 
 20 C       -0.2900    -5.9710     0.7930 C.3   1 <1>   0.5230 
 21 C       -0.4290    -6.8420    -0.4430 C.2   1 <1>  -0.0400 
 22 O       -0.9090    -6.3150    -1.5540 O.3   1 <1>  -0.2800 
 23 C       -0.1400    -8.1490    -0.6290 C.2   1 <1>  -0.1500 
 24 C       -0.9380    -7.2650    -2.4680 C.2   1 <1>  -0.0100 
 25 C       -0.4730    -8.4260    -1.9610 C.2   1 <1>  -0.1500 
 26 H        1.5600    -1.7700     1.1250 H     1 <1>   0.0800 
 27 H        5.6070    -0.5880     1.5610 H     1 <1>   0.0800 
 28 H        1.9550     0.1560    -0.3680 H     1 <1>   0.0800 
 29 H        2.0680     0.8620     1.2130 H     1 <1>   0.0800 
 30 H        2.8210    -3.1590     2.6460 H     1 <1>   0.0800 
 31 H        3.3350    -4.2060     1.3660 H     1 <1>   0.0800 
 32 H        2.4210    -3.6030    -1.1310 H     1 <1>   0.0800 
 33 H        1.3840    -2.2210    -1.2620 H     1 <1>   0.0800 
 34 H        6.0120     1.4870     2.4350 H     1 <1>   0.0800 
 35 H        4.2860     1.3730     2.6560 H     1 <1>   0.0800 
 36 H        6.5840    -0.3620    -0.4110 H     1 <1>   0.0800 
 37 H        6.4800     1.3550    -0.1550 H     1 <1>   0.0800 
 38 H        2.2860     2.4140    -0.7170 H     1 <1>   0.0800 
 39 H        0.5050    -3.8710     2.3720 H     1 <1>   0.0800 
 40 H        1.5390    -5.2660     2.5870 H     1 <1>   0.0800 
 41 H        0.1350    -4.3420    -1.2860 H     1 <1>   0.0800 
 42 H       -0.3470    -3.3260     0.0510 H     1 <1>   0.0800 
 43 H        4.4130    -0.2720    -1.4120 H     1 <1>   0.4500 
 44 H        3.0280     2.9610     1.6040 H     1 <1>   0.0800 
 45 H        3.7330     3.9040     0.3210 H     1 <1>   0.0800 
 46 H        4.7550     2.6620    -1.5460 H     1 <1>   0.0800 
 47 H        3.5530     1.7580    -2.4080 H     1 <1>   0.0800 
 48 H        1.5960    -5.5290     0.1840 H     1 <1>   0.4500 
 49 H        6.5050     1.2920    -2.8180 H     1 <1>   0.0800 
 50 H        5.1870     0.4470    -3.6050 H     1 <1>   0.0800 
 51 H        6.4060    -0.4550    -2.7320 H     1 <1>   0.0800 
 52 H       -0.0810    -6.6100     1.6350 H     1 <1>   0.0800 
 53 H       -1.2180    -5.4550     0.9790 H     1 <1>   0.0800 
 54 H        0.2590    -8.8730     0.0620 H     1 <1>   0.1500 
 55 H       -1.3050    -7.0350    -3.4550 H     1 <1>   0.1500 
 56 H       -0.3700    -9.3800    -2.4490 H     1 <1>   0.1500 
@<TRIPOS>BOND
  1   1   2  2   
  2   2   3  am  
  3   2   4  1   
  4   3   5  1   
  5   3   6  1   
  6   4   7  1   
  7   4   8  1   
  8   4  26  1   
  9   5   9  1   
 10   5  10  1   
 11   5  27  1   
 12   6  11  1   
 13   6  28  1   
 14   6  29  1   
 15   7  12  1   
 16   7  30  1   
 17   7  31  1   
 18   8  13  1   
 19   8  32  1   
 20   8  33  1   
 21   9  14  1   
 22   9  34  1   
 23   9  35  1   
 24  10  15  1   
 25  10  36  1   
 26  10  37  1   
 27  11  16  1   
 28  11  17  1   
 29  11  38  1   
 30  12  18  1   
 31  12  39  1   
 32  12  40  1   
 33  13  18  1   
 34  13  41  1   
 35  13  42  1   
 36  14  16  1   
 37  15  17  1   
 38  15  19  1   
 39  15  43  1   
 40  16  44  1   
 41  16  45  1   
 42  17  46  1   
 43  17  47  1   
 44  18  20  1   
 45  18  48  1   
 46  19  49  1   
 47  19  50  1   
 48  19  51  1   
 49  20  21  1   
 50  20  52  1   
 51  20  53  1   
 52  21  22  1   
 53  21  23  2   
 54  22  24  1   
 55  23  25  1   
 56  23  54  1   
 57  24  25  2   
 58  24  55  1   
 59  25  56  1   
@<TRIPOS>SUBSTRUCTURE
  1 ****   4 GROUP 4 **** **** 0

# MOE 2024.06 (io_trps.svl 2023.06)
