@<TRIPOS>MOLECULE
NONAME
50 52 1 0 0 
SMALL
USER_CHARGES


@<TRIPOS>ATOM
  1 O       -0.7040     0.2280     1.1080 O.2   1 <1>  -0.5700 
  2 C       -1.6060     0.6670     0.4190 C.2   1 <1>   0.5440 
  3 N       -1.5460     1.9840     0.0110 N.am  1 <1>  -0.6600 
  4 C       -2.7080    -0.1990     0.0680 C.ar  1 <1>   0.0860 
  5 C       -2.7510     2.8220    -0.2690 C.3   1 <1>   0.1400 
  6 C       -0.2880     2.7870     0.1170 C.3   1 <1>   0.1400 
  7 C       -3.2520    -1.0670     1.0110 C.ar  1 <1>   0.1600 
  8 C       -3.2720    -0.2260    -1.2050 C.ar  1 <1>  -0.1500 
  9 C       -2.8040     4.0320     0.6820 C.3   1 <1>   0.1200 
 10 C       -0.4900     3.9880     1.0540 C.3   1 <1>   0.1200 
 11 N       -4.2680    -1.8900     0.8170 N.ar  1 <1>  -0.6200 
 12 C       -4.3250    -1.0800    -1.4270 C.ar  1 <1>  -0.1500 
 13 O       -1.5990     4.7430     0.6520 O.3   1 <1>  -0.5600 
 14 C       -4.7980    -1.8910    -0.4000 C.ar  1 <1>   0.4100 
 15 N       -5.8500    -2.7360    -0.6330 N.pl3 1 <1>  -0.8690 
 16 C       -6.3140    -3.7370     0.3480 C.3   1 <1>   0.2090 
 17 C       -7.5100    -4.4850    -0.2340 C.3   1 <1>  -0.1600 
 18 C       -8.0560    -5.5180     0.7570 C.3   1 <1>   0.0210 
 19 C       -9.2340    -6.2570     0.1470 C.2   1 <1>  -0.1810 
 20 C       -9.1850    -7.4390    -0.5930 C.2   1 <1>   0.1080 
 21 C      -10.5450    -5.9320     0.1880 C.2   1 <1>  -0.3320 
 22 N      -10.3580    -7.8260    -0.9790 N.2   1 <1>  -0.7070 
 23 C       -7.9360    -8.2210    -0.9310 C.3   1 <1>  -0.0590 
 24 N      -11.1990    -6.8950    -0.4950 N.pl3 1 <1>   0.3000 
 25 C      -11.2470    -4.7510     0.8360 C.3   1 <1>  -0.0600 
 26 H       -3.6520     2.2480    -0.1460 H     1 <1>   0.0800 
 27 H       -2.7110     3.1730    -1.2850 H     1 <1>   0.0800 
 28 H       -0.0150     3.1440    -0.8600 H     1 <1>   0.0800 
 29 H        0.5230     2.1810     0.4820 H     1 <1>   0.0800 
 30 H       -2.8080    -1.0700     1.9920 H     1 <1>   0.1500 
 31 H       -2.8840     0.4040    -1.9860 H     1 <1>   0.1500 
 32 H       -2.9900     3.7110     1.6920 H     1 <1>   0.0800 
 33 H       -3.5890     4.7040     0.3840 H     1 <1>   0.0800 
 34 H        0.3720     4.6290     1.0260 H     1 <1>   0.0800 
 35 H       -0.6430     3.6540     2.0650 H     1 <1>   0.0800 
 36 H       -4.7940    -1.1330    -2.3900 H     1 <1>   0.1500 
 37 H       -6.1060    -2.9280    -1.6020 H     1 <1>   0.4000 
 38 H       -6.5930    -3.2350     1.2600 H     1 <1>   0.0800 
 39 H       -5.5100    -4.4200     0.5650 H     1 <1>   0.0800 
 40 H       -7.2150    -4.9870    -1.1380 H     1 <1>   0.0800 
 41 H       -8.2900    -3.7820    -0.4680 H     1 <1>   0.0800 
 42 H       -8.3740    -5.0270     1.6590 H     1 <1>   0.0800 
 43 H       -7.2880    -6.2230     1.0220 H     1 <1>   0.0800 
 44 H       -7.1710    -7.5600    -1.2920 H     1 <1>   0.0800 
 45 H       -8.1580    -8.9450    -1.6940 H     1 <1>   0.0800 
 46 H       -7.5850    -8.7350    -0.0560 H     1 <1>   0.0800 
 47 H      -12.2120    -6.9450    -0.6510 H     1 <1>   0.2700 
 48 H      -10.5340    -4.0850     1.2860 H     1 <1>   0.0800 
 49 H      -11.9220    -5.0950     1.5990 H     1 <1>   0.0800 
 50 H      -11.8030    -4.2020     0.0970 H     1 <1>   0.0800 
@<TRIPOS>BOND
  1   1   2  2   
  2   2   3  am  
  3   2   4  1   
  4   3   5  1   
  5   3   6  1   
  6   4   7  ar  
  7   4   8  ar  
  8   5   9  1   
  9   5  26  1   
 10   5  27  1   
 11   6  10  1   
 12   6  28  1   
 13   6  29  1   
 14   7  11  ar  
 15   7  30  1   
 16   8  12  ar  
 17   8  31  1   
 18   9  13  1   
 19   9  32  1   
 20   9  33  1   
 21  10  13  1   
 22  10  34  1   
 23  10  35  1   
 24  11  14  ar  
 25  12  14  ar  
 26  12  36  1   
 27  14  15  1   
 28  15  16  1   
 29  15  37  1   
 30  16  17  1   
 31  16  38  1   
 32  16  39  1   
 33  17  18  1   
 34  17  40  1   
 35  17  41  1   
 36  18  19  1   
 37  18  42  1   
 38  18  43  1   
 39  19  20  1   
 40  19  21  2   
 41  20  22  2   
 42  20  23  1   
 43  21  24  1   
 44  21  25  1   
 45  22  24  1   
 46  23  44  1   
 47  23  45  1   
 48  23  46  1   
 49  24  47  1   
 50  25  48  1   
 51  25  49  1   
 52  25  50  1   
@<TRIPOS>SUBSTRUCTURE
  1 ****  14 GROUP 4 **** **** 0

# MOE 2024.06 (io_trps.svl 2023.06)
