@<TRIPOS>MOLECULE
NONAME
45 46 1 0 0 
SMALL
USER_CHARGES


@<TRIPOS>ATOM
  1 S        0.7160    -0.0920    -0.2130 S.o2  1 <1>   1.3330 
  2 O        1.1860    -1.1660     0.6320 O.2   1 <1>  -0.6500 
  3 O       -0.4150    -0.3180    -1.0850 O.2   1 <1>  -0.6500 
  4 N        0.3320     1.2250     0.7860 N.am  1 <1>  -0.8490 
  5 C        2.1000     0.4930    -1.1920 C.3   1 <1>  -0.0550 
  6 C       -0.2970     2.3390     0.0670 C.3   1 <1>   0.1160 
  7 C       -0.5090     0.8210     1.9150 C.3   1 <1>   0.1160 
  8 C        3.2950     0.9910    -0.3590 C.3   1 <1>  -0.0800 
  9 C        4.3430     1.6700    -1.2350 C.3   1 <1>   0.2200 
 10 C        4.0670    -0.1220     0.3520 C.3   1 <1>   0.1200 
 11 N        4.4720     3.0870    -0.8370 N.am  1 <1>  -0.7300 
 12 C        5.6220     0.8860    -0.9490 C.3   1 <1>   0.1200 
 13 O        5.4070     0.2410     0.2620 O.3   1 <1>  -0.5600 
 14 C        3.6170     4.0770    -1.2020 C.2   1 <1>   0.5690 
 15 O        2.6660     3.8570    -1.9160 O.2   1 <1>  -0.5700 
 16 C        3.8420     5.4980    -0.6960 C.3   1 <1>   0.1810 
 17 O        4.8710     5.5370     0.2840 O.3   1 <1>  -0.3630 
 18 C        5.2570     6.7020     0.8750 C.ar  1 <1>   0.0820 
 19 C        6.2680     6.6520     1.8350 C.ar  1 <1>   0.1900 
 20 C        4.6930     7.9410     0.5670 C.ar  1 <1>  -0.1500 
 21 F        6.8110     5.4990     2.1370 F     1 <1>  -0.1900 
 22 C        6.7300     7.7740     2.4910 C.ar  1 <1>  -0.1500 
 23 C        5.1410     9.0850     1.2130 C.ar  1 <1>  -0.1500 
 24 C        6.1470     8.9800     2.1590 C.ar  1 <1>   0.1900 
 25 F        6.5590    10.0650     2.7600 F     1 <1>  -0.1900 
 26 H        2.4240    -0.2920    -1.8470 H     1 <1>   0.0800 
 27 H        1.7590     1.3020    -1.8090 H     1 <1>   0.0800 
 28 H       -0.4800     3.1580     0.7410 H     1 <1>   0.0800 
 29 H       -1.2320     2.0280    -0.3690 H     1 <1>   0.0800 
 30 H        0.3510     2.6920    -0.7170 H     1 <1>   0.0800 
 31 H       -0.7120     1.6650     2.5500 H     1 <1>   0.0800 
 32 H       -0.0030     0.0720     2.5010 H     1 <1>   0.0800 
 33 H       -1.4400     0.4100     1.5590 H     1 <1>   0.0800 
 34 H        2.9400     1.6770     0.3900 H     1 <1>   0.0800 
 35 H        4.1030     1.6180    -2.2840 H     1 <1>   0.0800 
 36 H        3.9470    -1.0730    -0.1390 H     1 <1>   0.0800 
 37 H        3.7930    -0.2120     1.3900 H     1 <1>   0.0800 
 38 H        5.1740     3.2910    -0.1150 H     1 <1>   0.3700 
 39 H        6.4930     1.5120    -0.8720 H     1 <1>   0.0800 
 40 H        5.7780     0.1290    -1.6970 H     1 <1>   0.0800 
 41 H        2.9350     5.8640    -0.2510 H     1 <1>   0.0800 
 42 H        4.1300     6.1240    -1.5190 H     1 <1>   0.0800 
 43 H        3.9120     8.0410    -0.1640 H     1 <1>   0.1500 
 44 H        7.5100     7.7120     3.2280 H     1 <1>   0.1500 
 45 H        4.7190    10.0500     0.9900 H     1 <1>   0.1500 
@<TRIPOS>BOND
  1   1   2  2   
  2   1   3  2   
  3   1   4  am  
  4   1   5  1   
  5   4   6  1   
  6   4   7  1   
  7   5   8  1   
  8   5  26  1   
  9   5  27  1   
 10   6  28  1   
 11   6  29  1   
 12   6  30  1   
 13   7  31  1   
 14   7  32  1   
 15   7  33  1   
 16   8   9  1   
 17   8  10  1   
 18   8  34  1   
 19   9  11  1   
 20   9  12  1   
 21   9  35  1   
 22  10  13  1   
 23  10  36  1   
 24  10  37  1   
 25  11  14  am  
 26  11  38  1   
 27  12  13  1   
 28  12  39  1   
 29  12  40  1   
 30  14  15  2   
 31  14  16  1   
 32  16  17  1   
 33  16  41  1   
 34  16  42  1   
 35  17  18  1   
 36  18  19  ar  
 37  18  20  ar  
 38  19  21  1   
 39  19  22  ar  
 40  20  23  ar  
 41  20  43  1   
 42  22  24  ar  
 43  22  44  1   
 44  23  24  ar  
 45  23  45  1   
 46  24  25  1   
@<TRIPOS>SUBSTRUCTURE
  1 ****  11 GROUP 4 **** **** 0

# MOE 2024.06 (io_trps.svl 2023.06)
