@<TRIPOS>MOLECULE
NONAME
54 57 1 0 0 
SMALL
USER_CHARGES


@<TRIPOS>ATOM
  1 F       -2.5090     0.8430    -2.9360 F     1 <1>  -0.1900 
  2 C       -3.1250     0.0420    -2.1100 C.ar  1 <1>   0.1900 
  3 C       -4.1090     0.5590    -1.2910 C.ar  1 <1>  -0.1500 
  4 C       -2.7670    -1.2920    -2.0890 C.ar  1 <1>  -0.1500 
  5 C       -4.7760    -0.2810    -0.4040 C.ar  1 <1>   0.0000 
  6 C       -3.4260    -2.1340    -1.2100 C.ar  1 <1>  -0.1500 
  7 C       -5.8110     0.2270     0.4690 C.ar  1 <1>   0.0000 
  8 C       -4.4160    -1.6290    -0.3800 C.ar  1 <1>  -0.1500 
  9 C       -7.0700    -0.3620     0.5030 C.ar  1 <1>  -0.1500 
 10 C       -5.5770     1.3150     1.3040 C.ar  1 <1>  -0.1500 
 11 C       -8.0890     0.0980     1.3320 C.ar  1 <1>   0.0860 
 12 C       -6.5660     1.7910     2.1440 C.ar  1 <1>  -0.1500 
 13 C       -9.3910    -0.5450     1.3330 C.2   1 <1>   0.5440 
 14 C       -7.8080     1.1850     2.1590 C.ar  1 <1>  -0.1500 
 15 O       -9.4560    -1.7540     1.4550 O.2   1 <1>  -0.5700 
 16 N      -10.5610     0.1710     1.1890 N.am  1 <1>  -0.6600 
 17 C      -10.6000     1.5610     0.6480 C.3   1 <1>   0.1400 
 18 C      -11.8750    -0.4920     1.4330 C.3   1 <1>   0.1400 
 19 C      -11.8220     1.7230    -0.2560 C.3   1 <1>  -0.1600 
 20 C      -12.9580     0.5550     1.7000 C.3   1 <1>  -0.1600 
 21 C      -13.1530     1.5350     0.5180 C.3   1 <1>   0.2800 
 22 O      -13.5160     2.7480     1.1220 O.3   1 <1>  -0.5600 
 23 C      -14.3070     1.0430    -0.3890 C.3   1 <1>  -0.1600 
 24 C      -13.9870     3.8100     0.3410 C.3   1 <1>   0.1200 
 25 C      -14.9140     2.1180    -1.2930 C.3   1 <1>   0.2800 
 26 C      -15.2040     3.3750    -0.4760 C.3   1 <1>  -0.1600 
 27 O      -14.0090     2.4390    -2.2740 O.3   1 <1>  -0.6800 
 28 C      -16.1620     1.6150    -2.0140 C.3   1 <1>  -0.2400 
 29 H       -4.3550     1.6030    -1.3470 H     1 <1>   0.1500 
 30 H       -1.9960    -1.6570    -2.7440 H     1 <1>   0.1500 
 31 H       -3.1710    -3.1790    -1.1700 H     1 <1>   0.1500 
 32 H       -4.9190    -2.2910     0.3030 H     1 <1>   0.1500 
 33 H       -7.2730    -1.2060    -0.1330 H     1 <1>   0.1500 
 34 H       -4.6090     1.7850     1.3000 H     1 <1>   0.1500 
 35 H       -6.3660     2.6290     2.7900 H     1 <1>   0.1500 
 36 H       -8.5740     1.5480     2.8230 H     1 <1>   0.1500 
 37 H       -9.7080     1.7620     0.0800 H     1 <1>   0.0800 
 38 H      -10.6560     2.2620     1.4640 H     1 <1>   0.0800 
 39 H      -11.7890    -1.1490     2.2830 H     1 <1>   0.0800 
 40 H      -12.1330    -1.0870     0.5750 H     1 <1>   0.0800 
 41 H      -11.7460     0.9790    -1.0300 H     1 <1>   0.0800 
 42 H      -11.7690     2.6780    -0.7360 H     1 <1>   0.0800 
 43 H      -12.6630     1.1020     2.5790 H     1 <1>   0.0800 
 44 H      -13.8750     0.0520     1.9410 H     1 <1>   0.0800 
 45 H      -15.1000     0.6880     0.2430 H     1 <1>   0.0800 
 46 H      -13.9890     0.2030    -0.9800 H     1 <1>   0.0800 
 47 H      -13.1970     4.1700    -0.2920 H     1 <1>   0.0800 
 48 H      -14.2630     4.6040     1.0130 H     1 <1>   0.0800 
 49 H      -15.5190     4.1720    -1.1240 H     1 <1>   0.0800 
 50 H      -16.0110     3.1770     0.2080 H     1 <1>   0.0800 
 51 H      -13.1750     2.7150    -1.8570 H     1 <1>   0.4000 
 52 H      -16.9240     1.3520    -1.3040 H     1 <1>   0.0800 
 53 H      -15.9280     0.7450    -2.6010 H     1 <1>   0.0800 
 54 H      -16.5520     2.3800    -2.6620 H     1 <1>   0.0800 
@<TRIPOS>BOND
  1   1   2  1   
  2   2   3  ar  
  3   2   4  ar  
  4   3   5  ar  
  5   3  29  1   
  6   4   6  ar  
  7   4  30  1   
  8   5   7  1   
  9   5   8  ar  
 10   6   8  ar  
 11   6  31  1   
 12   7   9  ar  
 13   7  10  ar  
 14   8  32  1   
 15   9  11  ar  
 16   9  33  1   
 17  10  12  ar  
 18  10  34  1   
 19  11  13  1   
 20  11  14  ar  
 21  12  14  ar  
 22  12  35  1   
 23  13  15  2   
 24  13  16  am  
 25  14  36  1   
 26  16  17  1   
 27  16  18  1   
 28  17  19  1   
 29  17  37  1   
 30  17  38  1   
 31  18  20  1   
 32  18  39  1   
 33  18  40  1   
 34  19  21  1   
 35  19  41  1   
 36  19  42  1   
 37  20  21  1   
 38  20  43  1   
 39  20  44  1   
 40  21  22  1   
 41  21  23  1   
 42  22  24  1   
 43  23  25  1   
 44  23  45  1   
 45  23  46  1   
 46  24  26  1   
 47  24  47  1   
 48  24  48  1   
 49  25  26  1   
 50  25  27  1   
 51  25  28  1   
 52  26  49  1   
 53  26  50  1   
 54  27  51  1   
 55  28  52  1   
 56  28  53  1   
 57  28  54  1   
@<TRIPOS>SUBSTRUCTURE
  1 ****  17 GROUP 4 **** **** 0

# MOE 2024.06 (io_trps.svl 2023.06)
