@<TRIPOS>MOLECULE
NONAME
53 56 1 0 0 
SMALL
USER_CHARGES


@<TRIPOS>ATOM
  1 O        0.7260    -0.6350    -1.6130 O.3   1 <1>  -0.6800 
  2 C        2.0860    -0.7010    -1.9120 C.3   1 <1>   0.2000 
  3 C        2.8130    -1.6090    -0.9150 C.3   1 <1>  -0.0800 
  4 C        2.7240     0.6780    -1.6980 C.3   1 <1>   0.2090 
  5 C        3.1140    -0.6720     0.2560 C.3   1 <1>   0.2090 
  6 C        2.0660    -2.8950    -0.5040 C.3   1 <1>  -0.0170 
  7 N        3.3890     0.6460    -0.3640 N.pl3 1 <1>  -0.8380 
  8 C        2.8450    -3.8890     0.3680 C.ar  1 <1>  -0.1440 
  9 C        4.6750     1.1280    -0.2960 C.ar  1 <1>   0.4100 
 10 C        2.1670    -4.9800     0.9690 C.ar  1 <1>   0.0000 
 11 C        4.1900    -3.7960     0.6000 C.ar  1 <1>  -0.1500 
 12 N        5.6210     0.3660    -0.8120 N.ar  1 <1>  -0.6200 
 13 C        4.9590     2.3620     0.2750 C.ar  1 <1>  -0.1430 
 14 C        2.9190    -5.8700     1.7750 C.ar  1 <1>   0.3100 
 15 C        0.7850    -5.2460     0.8130 C.ar  1 <1>  -0.1500 
 16 C        4.8390    -4.7330     1.4110 C.ar  1 <1>   0.1600 
 17 C        6.8430     0.8510    -0.7510 C.ar  1 <1>   0.4770 
 18 C        6.2770     2.7460     0.2710 C.ar  1 <1>   0.1600 
 19 C        3.8210     3.2030     0.8620 C.3   1 <1>  -0.0160 
 20 N        4.2510    -5.7330     1.9860 N.ar  1 <1>  -0.6200 
 21 C        2.2690    -6.9530     2.3880 C.ar  1 <1>  -0.1500 
 22 C        0.1820    -6.3130     1.4220 C.ar  1 <1>  -0.1500 
 23 N        7.2370     2.0010    -0.2400 N.ar  1 <1>  -0.6200 
 24 C        7.9330    -0.0100    -1.3410 C.3   1 <1>  -0.0970 
 25 C        4.2510     4.5250     1.5150 C.3   1 <1>  -0.1600 
 26 C        0.9310    -7.1780     2.2220 C.ar  1 <1>  -0.1500 
 27 C        3.0450     5.2810     2.0820 C.3   1 <1>  -0.2400 
 28 H        0.2860    -1.4790    -1.8210 H     1 <1>   0.4000 
 29 H        2.1910    -1.0300    -2.9310 H     1 <1>   0.0800 
 30 H        3.7500    -1.8740    -1.3720 H     1 <1>   0.0800 
 31 H        1.9840     1.4580    -1.7320 H     1 <1>   0.0800 
 32 H        3.4630     0.8570    -2.4600 H     1 <1>   0.0800 
 33 H        3.9510    -1.0090     0.8420 H     1 <1>   0.0800 
 34 H        2.2520    -0.5780     0.8950 H     1 <1>   0.0800 
 35 H        1.7570    -3.4120    -1.3950 H     1 <1>   0.0800 
 36 H        1.1810    -2.6010     0.0340 H     1 <1>   0.0800 
 37 H        4.8040    -3.0200     0.1820 H     1 <1>   0.1500 
 38 H        0.1850    -4.6010     0.2000 H     1 <1>   0.1500 
 39 H        5.8980    -4.6140     1.5660 H     1 <1>   0.1500 
 40 H        6.5790     3.6880     0.6930 H     1 <1>   0.1500 
 41 H        3.1190     3.4140     0.0740 H     1 <1>   0.0800 
 42 H        3.3070     2.6040     1.5940 H     1 <1>   0.0800 
 43 H        2.8670    -7.6060     2.9960 H     1 <1>   0.1500 
 44 H       -0.8710    -6.5000     1.2950 H     1 <1>   0.1500 
 45 H        8.7800    -0.0230    -0.6820 H     1 <1>   0.0800 
 46 H        8.2300     0.3970    -2.2890 H     1 <1>   0.0800 
 47 H        7.5840    -1.0160    -1.4830 H     1 <1>   0.0800 
 48 H        4.9440     4.3250     2.3130 H     1 <1>   0.0800 
 49 H        4.7390     5.1470     0.7840 H     1 <1>   0.0800 
 50 H        0.4460    -8.0140     2.6980 H     1 <1>   0.1500 
 51 H        2.5470     4.6900     2.8310 H     1 <1>   0.0800 
 52 H        2.3420     5.5120     1.3000 H     1 <1>   0.0800 
 53 H        3.3670     6.2030     2.5340 H     1 <1>   0.0800 
@<TRIPOS>BOND
  1   1   2  1   
  2   1  28  1   
  3   2   3  1   
  4   2   4  1   
  5   2  29  1   
  6   3   5  1   
  7   3   6  1   
  8   3  30  1   
  9   4   7  1   
 10   4  31  1   
 11   4  32  1   
 12   5   7  1   
 13   5  33  1   
 14   5  34  1   
 15   6   8  1   
 16   6  35  1   
 17   6  36  1   
 18   7   9  1   
 19   8  10  ar  
 20   8  11  ar  
 21   9  12  ar  
 22   9  13  ar  
 23  10  14  ar  
 24  10  15  ar  
 25  11  16  ar  
 26  11  37  1   
 27  12  17  ar  
 28  13  18  ar  
 29  13  19  1   
 30  14  20  ar  
 31  14  21  ar  
 32  15  22  ar  
 33  15  38  1   
 34  16  20  ar  
 35  16  39  1   
 36  17  23  ar  
 37  17  24  1   
 38  18  23  ar  
 39  18  40  1   
 40  19  25  1   
 41  19  41  1   
 42  19  42  1   
 43  21  26  ar  
 44  21  43  1   
 45  22  26  ar  
 46  22  44  1   
 47  24  45  1   
 48  24  46  1   
 49  24  47  1   
 50  25  27  1   
 51  25  48  1   
 52  25  49  1   
 53  26  50  1   
 54  27  51  1   
 55  27  52  1   
 56  27  53  1   
@<TRIPOS>SUBSTRUCTURE
  1 ****   5 GROUP 4 **** **** 0

# MOE 2024.06 (io_trps.svl 2023.06)
