@<TRIPOS>MOLECULE
NONAME
41 43 1 0 0 
SMALL
USER_CHARGES


@<TRIPOS>ATOM
  1 S        0.2800     0.3490     1.4570 S.o2  1 <1>   1.4470 
  2 O       -0.3740     1.5110     2.0140 O.2   1 <1>  -0.6500 
  3 O        0.8100    -0.6530     2.3520 O.2   1 <1>  -0.6500 
  4 N        1.6650     0.9390     0.6660 N.am  1 <1>  -0.8490 
  5 C       -0.7500    -0.3380     0.1480 C.ar  1 <1>  -0.0090 
  6 C        2.3430     1.9500     1.5060 C.3   1 <1>   0.1960 
  7 C        2.5630    -0.1340     0.2210 C.3   1 <1>   0.1960 
  8 C       -1.4250    -1.5390     0.2890 C.ar  1 <1>   0.1900 
  9 C       -0.9550     0.3200    -1.0560 C.ar  1 <1>   0.1900 
 10 C        3.6410     2.5750     0.9300 C.3   1 <1>   0.4230 
 11 C        3.5200     0.3420    -0.8950 C.3   1 <1>  -0.0800 
 12 F       -1.3120    -2.2170     1.3960 F     1 <1>  -0.1900 
 13 C       -2.2350    -2.0790    -0.6980 C.ar  1 <1>  -0.1500 
 14 F       -0.3760     1.4700    -1.2760 F     1 <1>  -0.1900 
 15 C       -1.7570    -0.1800    -2.0690 C.ar  1 <1>  -0.1500 
 16 N        3.6000     2.8780    -0.5540 N.4   1 <1>  -0.9590 
 17 C        4.8960     1.7310     1.2680 C.3   1 <1>   0.1200 
 18 C        5.0110     0.1750    -0.5270 C.3   1 <1>   0.1200 
 19 C        3.1630     1.7410    -1.4360 C.3   1 <1>   0.3430 
 20 C       -2.4010    -1.3930    -1.8890 C.ar  1 <1>  -0.1500 
 21 C        2.8190     4.1100    -0.8620 C.3   1 <1>   0.2630 
 22 O        5.5450     1.3020     0.1020 O.3   1 <1>  -0.5600 
 23 H        1.6600     2.7650     1.6720 H     1 <1>   0.0800 
 24 H        2.5530     1.5280     2.4760 H     1 <1>   0.0800 
 25 H        3.1020    -0.5400     1.0620 H     1 <1>   0.0800 
 26 H        1.9690    -0.9400    -0.1790 H     1 <1>   0.0800 
 27 H        3.7760     3.5050     1.4570 H     1 <1>   0.0800 
 28 H        3.3520    -0.3440    -1.7070 H     1 <1>   0.0800 
 29 H       -2.7300    -3.0200    -0.5300 H     1 <1>   0.1500 
 30 H       -1.8800     0.3740    -2.9840 H     1 <1>   0.1500 
 31 H        4.6000     3.0090    -0.7860 H     1 <1>   0.4500 
 32 H        4.6710     0.8800     1.8880 H     1 <1>   0.0800 
 33 H        5.5950     2.3460     1.8080 H     1 <1>   0.0800 
 34 H        5.5890     0.0270    -1.4240 H     1 <1>   0.0800 
 35 H        5.1700    -0.6810     0.1080 H     1 <1>   0.0800 
 36 H        2.0930     1.7860    -1.5670 H     1 <1>   0.0800 
 37 H        3.6120     1.8640    -2.4080 H     1 <1>   0.0800 
 38 H       -3.0290    -1.7970    -2.6660 H     1 <1>   0.1500 
 39 H        1.7790     3.9580    -0.6200 H     1 <1>   0.0800 
 40 H        2.8960     4.3490    -1.9100 H     1 <1>   0.0800 
 41 H        3.1910     4.9450    -0.2910 H     1 <1>   0.0800 
@<TRIPOS>BOND
  1   1   2  2   
  2   1   3  2   
  3   1   4  am  
  4   1   5  1   
  5   4   6  1   
  6   4   7  1   
  7   5   8  ar  
  8   5   9  ar  
  9   6  10  1   
 10   6  23  1   
 11   6  24  1   
 12   7  11  1   
 13   7  25  1   
 14   7  26  1   
 15   8  12  1   
 16   8  13  ar  
 17   9  14  1   
 18   9  15  ar  
 19  10  16  1   
 20  10  17  1   
 21  10  27  1   
 22  11  18  1   
 23  11  19  1   
 24  11  28  1   
 25  13  20  ar  
 26  13  29  1   
 27  15  20  ar  
 28  15  30  1   
 29  16  19  1   
 30  16  21  1   
 31  16  31  1   
 32  17  22  1   
 33  17  32  1   
 34  17  33  1   
 35  18  22  1   
 36  18  34  1   
 37  18  35  1   
 38  19  36  1   
 39  19  37  1   
 40  20  38  1   
 41  21  39  1   
 42  21  40  1   
 43  21  41  1   
@<TRIPOS>SUBSTRUCTURE
  1 ****   4 GROUP 4 **** **** 0

# MOE 2024.06 (io_trps.svl 2023.06)
