@<TRIPOS>MOLECULE
NONAME
56 58 1 0 0 
SMALL
USER_CHARGES


@<TRIPOS>ATOM
  1 O        0.3060     1.0140    -1.1300 O.2   1 <1>  -0.5700 
  2 C        0.0590     2.1560    -0.8240 C.2   1 <1>   0.5690 
  3 N       -0.9830     2.4980    -0.0020 N.am  1 <1>  -0.6600 
  4 C        0.9620     3.2430    -1.4040 C.3   1 <1>   0.1810 
  5 C       -1.2770     3.9520     0.2900 C.3   1 <1>   0.3640 
  6 C       -1.7020     1.4230     0.7540 C.3   1 <1>   0.2200 
  7 O        0.9750     4.4160    -0.6260 O.3   1 <1>  -0.5600 
  8 C       -2.7040     4.3160    -0.1210 C.ar  1 <1>  -0.1440 
  9 C       -0.3190     4.9560    -0.4150 C.3   1 <1>   0.2610 
 10 C       -3.0180     1.0590     0.0700 C.3   1 <1>  -0.2400 
 11 C       -1.9250     1.7850     2.2240 C.3   1 <1>  -0.2400 
 12 C       -3.5240     4.9990     0.7660 C.ar  1 <1>  -0.1500 
 13 C       -3.1930     3.9980    -1.3820 C.ar  1 <1>  -0.1500 
 14 C       -0.2140     6.2950     0.3420 C.2   1 <1>   0.5690 
 15 C       -4.8110     5.3560     0.4010 C.ar  1 <1>  -0.1500 
 16 C       -4.4800     4.3540    -1.7480 C.ar  1 <1>  -0.1500 
 17 O       -0.6370     6.3740     1.4730 O.2   1 <1>  -0.5700 
 18 N        0.4100     7.3890    -0.2240 N.am  1 <1>  -0.6600 
 19 C       -5.2890     5.0340    -0.8560 C.ar  1 <1>  -0.1500 
 20 C        0.6540     8.6140     0.5930 C.3   1 <1>   0.1400 
 21 C        1.3380     7.3070    -1.3890 C.3   1 <1>   0.1400 
 22 C        2.0920     8.5680     1.1450 C.3   1 <1>   0.3430 
 23 C        2.7860     7.2320    -0.8630 C.3   1 <1>   0.3430 
 24 N        3.1260     8.3890     0.0500 N.4   1 <1>  -0.9590 
 25 C        4.4920     8.2140     0.6080 C.3   1 <1>   0.3430 
 26 C        4.9860     9.5340     1.1880 C.3   1 <1>  -0.2400 
 27 H        0.6340     3.4870    -2.3980 H     1 <1>   0.0800 
 28 H        1.9680     2.8700    -1.4530 H     1 <1>   0.0800 
 29 H       -1.1730     4.0870     1.3500 H     1 <1>   0.0800 
 30 H       -1.0870     0.5380     0.7460 H     1 <1>   0.0800 
 31 H       -0.7260     5.1790    -1.3840 H     1 <1>   0.0800 
 32 H       -3.7480     1.8380     0.1840 H     1 <1>   0.0800 
 33 H       -3.4180     0.1660     0.5130 H     1 <1>   0.0800 
 34 H       -2.8500     0.8700    -0.9750 H     1 <1>   0.0800 
 35 H       -2.6340     2.5850     2.3270 H     1 <1>   0.0800 
 36 H       -0.9930     2.0570     2.6860 H     1 <1>   0.0800 
 37 H       -2.3170     0.9300     2.7450 H     1 <1>   0.0800 
 38 H       -3.1660     5.2640     1.7470 H     1 <1>   0.1500 
 39 H       -2.5800     3.4590    -2.0830 H     1 <1>   0.1500 
 40 H       -5.4390     5.8850     1.0970 H     1 <1>   0.1500 
 41 H       -4.8530     4.0990    -2.7240 H     1 <1>   0.1500 
 42 H       -6.2900     5.3110    -1.1390 H     1 <1>   0.1500 
 43 H        0.5140     9.4910    -0.0140 H     1 <1>   0.0800 
 44 H       -0.0440     8.6740     1.4110 H     1 <1>   0.0800 
 45 H        1.1260     6.4490    -2.0000 H     1 <1>   0.0800 
 46 H        1.2150     8.1780    -2.0090 H     1 <1>   0.0800 
 47 H        2.1540     7.7460     1.8390 H     1 <1>   0.0800 
 48 H        2.2860     9.4760     1.6910 H     1 <1>   0.0800 
 49 H        3.4650     7.2140    -1.7000 H     1 <1>   0.0800 
 50 H        2.8970     6.3020    -0.3280 H     1 <1>   0.0800 
 51 H        3.1270     9.2460    -0.5190 H     1 <1>   0.4500 
 52 H        4.4890     7.4500     1.3700 H     1 <1>   0.0800 
 53 H        5.1680     7.9050    -0.1750 H     1 <1>   0.0800 
 54 H        4.4020     9.8360     2.0390 H     1 <1>   0.0800 
 55 H        4.9750    10.3100     0.4440 H     1 <1>   0.0800 
 56 H        6.0020     9.4110     1.5210 H     1 <1>   0.0800 
@<TRIPOS>BOND
  1   1   2  2   
  2   2   3  am  
  3   2   4  1   
  4   3   5  1   
  5   3   6  1   
  6   4   7  1   
  7   4  27  1   
  8   4  28  1   
  9   5   8  1   
 10   5   9  1   
 11   5  29  1   
 12   6  10  1   
 13   6  11  1   
 14   6  30  1   
 15   7   9  1   
 16   8  12  ar  
 17   8  13  ar  
 18   9  14  1   
 19   9  31  1   
 20  10  32  1   
 21  10  33  1   
 22  10  34  1   
 23  11  35  1   
 24  11  36  1   
 25  11  37  1   
 26  12  15  ar  
 27  12  38  1   
 28  13  16  ar  
 29  13  39  1   
 30  14  17  2   
 31  14  18  am  
 32  15  19  ar  
 33  15  40  1   
 34  16  19  ar  
 35  16  41  1   
 36  18  20  1   
 37  18  21  1   
 38  19  42  1   
 39  20  22  1   
 40  20  43  1   
 41  20  44  1   
 42  21  23  1   
 43  21  45  1   
 44  21  46  1   
 45  22  24  1   
 46  22  47  1   
 47  22  48  1   
 48  23  24  1   
 49  23  49  1   
 50  23  50  1   
 51  24  25  1   
 52  24  51  1   
 53  25  26  1   
 54  25  52  1   
 55  25  53  1   
 56  26  54  1   
 57  26  55  1   
 58  26  56  1   
@<TRIPOS>SUBSTRUCTURE
  1 ****   9 GROUP 4 **** **** 0

# MOE 2024.06 (io_trps.svl 2023.06)
