@<TRIPOS>MOLECULE
NONAME
47 49 1 0 0 
SMALL
USER_CHARGES


@<TRIPOS>ATOM
  1 O        0.0720     2.5700     0.8170 O.2   1 <1>  -0.5700 
  2 C       -1.0860     2.5100     0.4500 C.2   1 <1>   0.5440 
  3 N       -1.8650     3.6170     0.6020 N.am  1 <1>  -0.7300 
  4 C       -1.6150     1.3040    -0.1570 C.ar  1 <1>   0.0860 
  5 C       -1.3810     4.9530     1.0650 C.3   1 <1>   0.2010 
  6 C       -1.2290     0.0440     0.3020 C.ar  1 <1>  -0.1500 
  7 C       -2.5160     1.3540    -1.2230 C.ar  1 <1>  -0.1500 
  8 C       -0.5850     5.6930    -0.0230 C.2   1 <1>   0.5690 
  9 C       -1.7230    -1.1140    -0.2710 C.ar  1 <1>  -0.1500 
 10 C       -3.0130     0.1990    -1.7990 C.ar  1 <1>  -0.1500 
 11 O       -1.2350     6.1150    -0.9510 O.2   1 <1>  -0.5700 
 12 N        0.7880     5.8650    -0.0060 N.am  1 <1>  -0.6600 
 13 C       -2.6170    -1.0380    -1.3230 C.ar  1 <1>  -0.1500 
 14 C        1.6940     5.4930     1.1530 C.3   1 <1>   0.2200 
 15 C        1.4150     6.4930    -1.2190 C.3   1 <1>   0.1400 
 16 C        2.6440     6.6390     1.5440 C.3   1 <1>   0.1200 
 17 C        2.5050     4.2050     0.8670 C.3   1 <1>   0.3430 
 18 C        2.9220     6.2390    -1.4070 C.3   1 <1>  -0.0800 
 19 O        3.8300     6.5740     0.8090 O.3   1 <1>  -0.5600 
 20 N        2.5040     3.8500    -0.5890 N.4   1 <1>  -0.9590 
 21 C        3.7790     7.1050    -0.4710 C.3   1 <1>   0.1200 
 22 C        3.3520     4.7560    -1.4230 C.3   1 <1>   0.3430 
 23 C        2.8290     2.4100    -0.7850 C.3   1 <1>   0.2630 
 24 H       -2.8160     3.6100     0.2250 H     1 <1>   0.3700 
 25 H       -2.2360     5.5570     1.3140 H     1 <1>   0.0800 
 26 H       -0.8140     4.8230     1.9630 H     1 <1>   0.0800 
 27 H       -0.5360    -0.0250     1.1220 H     1 <1>   0.1500 
 28 H       -2.8280     2.3060    -1.6140 H     1 <1>   0.1500 
 29 H       -1.4140    -2.0770     0.1020 H     1 <1>   0.1500 
 30 H       -3.7080     0.2580    -2.6200 H     1 <1>   0.1500 
 31 H       -3.0030    -1.9380    -1.7700 H     1 <1>   0.1500 
 32 H        1.1010     5.3110     2.0270 H     1 <1>   0.0800 
 33 H        0.9080     6.1250    -2.0960 H     1 <1>   0.0800 
 34 H        1.2340     7.5540    -1.1820 H     1 <1>   0.0800 
 35 H        2.9230     6.5270     2.5770 H     1 <1>   0.0800 
 36 H        2.1820     7.6050     1.4240 H     1 <1>   0.0800 
 37 H        2.0580     3.4020     1.4290 H     1 <1>   0.0800 
 38 H        3.5150     4.3180     1.2250 H     1 <1>   0.0800 
 39 H        3.1500     6.6140    -2.3890 H     1 <1>   0.0800 
 40 H        1.5170     4.0020    -0.8630 H     1 <1>   0.4500 
 41 H        3.4130     8.1170    -0.4170 H     1 <1>   0.0800 
 42 H        4.7940     7.1390    -0.8320 H     1 <1>   0.0800 
 43 H        4.3790     4.6860    -1.1010 H     1 <1>   0.0800 
 44 H        3.3080     4.4110    -2.4430 H     1 <1>   0.0800 
 45 H        3.8360     2.2050    -0.4610 H     1 <1>   0.0800 
 46 H        2.7350     2.1430    -1.8240 H     1 <1>   0.0800 
 47 H        2.1490     1.7980    -0.2120 H     1 <1>   0.0800 
@<TRIPOS>BOND
  1   1   2  2   
  2   2   3  am  
  3   2   4  1   
  4   3   5  1   
  5   3  24  1   
  6   4   6  ar  
  7   4   7  ar  
  8   5   8  1   
  9   5  25  1   
 10   5  26  1   
 11   6   9  ar  
 12   6  27  1   
 13   7  10  ar  
 14   7  28  1   
 15   8  11  2   
 16   8  12  am  
 17   9  13  ar  
 18   9  29  1   
 19  10  13  ar  
 20  10  30  1   
 21  12  14  1   
 22  12  15  1   
 23  13  31  1   
 24  14  16  1   
 25  14  17  1   
 26  14  32  1   
 27  15  18  1   
 28  15  33  1   
 29  15  34  1   
 30  16  19  1   
 31  16  35  1   
 32  16  36  1   
 33  17  20  1   
 34  17  37  1   
 35  17  38  1   
 36  18  21  1   
 37  18  22  1   
 38  18  39  1   
 39  19  21  1   
 40  20  22  1   
 41  20  23  1   
 42  20  40  1   
 43  21  41  1   
 44  21  42  1   
 45  22  43  1   
 46  22  44  1   
 47  23  45  1   
 48  23  46  1   
 49  23  47  1   
@<TRIPOS>SUBSTRUCTURE
  1 ****   1 GROUP 4 **** **** 0

# MOE 2024.06 (io_trps.svl 2023.06)
