@<TRIPOS>MOLECULE
NONAME
45 47 1 0 0 
SMALL
USER_CHARGES


@<TRIPOS>ATOM
  1 O       -1.8900    -2.3250    -1.4870 O.2   1 <1>  -0.5700 
  2 C       -0.8320    -2.4540    -0.9120 C.2   1 <1>   0.6900 
  3 N       -0.6880    -2.6360     0.4310 N.am  1 <1>  -0.4200 
  4 N        0.3630    -2.4630    -1.5370 N.am  1 <1>  -0.7300 
  5 C        0.6220    -2.8530     0.7300 C.2   1 <1>   0.5690 
  6 C       -1.8180    -2.9790     1.3290 C.3   1 <1>   0.2010 
  7 C        1.4310    -2.7920    -0.5580 C.3   1 <1>   0.2010 
  8 O        1.0830    -3.0510     1.8270 O.2   1 <1>  -0.5700 
  9 C       -2.4490    -4.3280     0.9630 C.2   1 <1>   0.5690 
 10 O       -1.6940    -5.2430     0.7190 O.2   1 <1>  -0.5700 
 11 N       -3.8150    -4.5000     0.9050 N.am  1 <1>  -0.6600 
 12 C       -4.3950    -5.7560     0.3420 C.3   1 <1>   0.1400 
 13 C       -4.8220    -3.4620     1.2600 C.3   1 <1>   0.1400 
 14 C       -5.1200    -5.5020    -0.9890 C.3   1 <1>   0.1400 
 15 C       -5.2080    -2.6790     0.0020 C.3   1 <1>  -0.1600 
 16 N       -6.4200    -4.7880    -0.7800 N.am  1 <1>  -0.6600 
 17 C       -6.3600    -3.2920    -0.8090 C.3   1 <1>   0.1400 
 18 C       -7.6390    -5.4240    -0.6800 C.2   1 <1>   0.5770 
 19 O       -8.6590    -4.7940    -0.5200 O.2   1 <1>  -0.5700 
 20 C       -7.7480    -6.9480    -0.7890 C.3   1 <1>   0.0530 
 21 C       -9.1530    -7.5710    -0.5350 C.3   1 <1>   0.0000 
 22 C       -7.2720    -7.7370     0.4610 C.3   1 <1>   0.0000 
 23 C       -8.4190    -8.7390     0.1700 C.3   1 <1>   0.0000 
 24 H        0.4390    -2.6280    -2.5420 H     1 <1>   0.3700 
 25 H       -2.5390    -2.1900     1.2590 H     1 <1>   0.0800 
 26 H       -1.4640    -3.0320     2.3420 H     1 <1>   0.0800 
 27 H        2.1720    -2.0140    -0.5120 H     1 <1>   0.0800 
 28 H        1.8750    -3.7480    -0.7710 H     1 <1>   0.0800 
 29 H       -5.0720    -6.1850     1.0570 H     1 <1>   0.0800 
 30 H       -3.6160    -6.4770     0.1670 H     1 <1>   0.0800 
 31 H       -4.4170    -2.7940     1.9990 H     1 <1>   0.0800 
 32 H       -5.6930    -3.9240     1.6950 H     1 <1>   0.0800 
 33 H       -5.2910    -6.4450    -1.4740 H     1 <1>   0.0800 
 34 H       -4.4820    -4.9270    -1.6390 H     1 <1>   0.0800 
 35 H       -4.3500    -2.5560    -0.6340 H     1 <1>   0.0800 
 36 H       -5.5160    -1.6910     0.2930 H     1 <1>   0.0800 
 37 H       -6.2860    -2.9670    -1.8330 H     1 <1>   0.0800 
 38 H       -7.2800    -2.8920    -0.4180 H     1 <1>   0.0800 
 39 H       -7.3210    -7.3350    -1.7000 H     1 <1>   0.0000 
 40 H       -9.6690    -7.8630    -1.4320 H     1 <1>   0.0000 
 41 H       -9.7660    -7.0130     0.1520 H     1 <1>   0.0000 
 42 H       -7.4170    -7.1970     1.3810 H     1 <1>   0.0000 
 43 H       -6.2920    -8.1670     0.3610 H     1 <1>   0.0000 
 44 H       -8.1270    -9.5200    -0.5110 H     1 <1>   0.0000 
 45 H       -8.9180    -9.0990     1.0530 H     1 <1>   0.0000 
@<TRIPOS>BOND
  1   1   2  2   
  2   2   3  am  
  3   2   4  am  
  4   3   5  am  
  5   3   6  1   
  6   4   7  1   
  7   4  24  1   
  8   5   7  1   
  9   5   8  2   
 10   6   9  1   
 11   6  25  1   
 12   6  26  1   
 13   7  27  1   
 14   7  28  1   
 15   9  10  2   
 16   9  11  am  
 17  11  12  1   
 18  11  13  1   
 19  12  14  1   
 20  12  29  1   
 21  12  30  1   
 22  13  15  1   
 23  13  31  1   
 24  13  32  1   
 25  14  16  1   
 26  14  33  1   
 27  14  34  1   
 28  15  17  1   
 29  15  35  1   
 30  15  36  1   
 31  16  17  1   
 32  16  18  am  
 33  17  37  1   
 34  17  38  1   
 35  18  19  2   
 36  18  20  1   
 37  20  21  1   
 38  20  22  1   
 39  20  39  1   
 40  21  23  1   
 41  21  40  1   
 42  21  41  1   
 43  22  23  1   
 44  22  42  1   
 45  22  43  1   
 46  23  44  1   
 47  23  45  1   
@<TRIPOS>SUBSTRUCTURE
  1 ****  11 GROUP 4 **** **** 0

# MOE 2024.06 (io_trps.svl 2023.06)
