@<TRIPOS>MOLECULE
NONAME
48 49 1 0 0 
SMALL
USER_CHARGES


@<TRIPOS>ATOM
  1 O        4.0470     0.1290     1.1440 O.2   1 <1>  -0.5700 
  2 C        3.1610    -0.4160     0.5130 C.2   1 <1>   0.5440 
  3 N        2.7440     0.2270    -0.6270 N.am  1 <1>  -0.6600 
  4 C        2.7150    -1.7540     0.8530 C.ar  1 <1>   0.0860 
  5 C        3.1210    -0.3460    -1.9530 C.3   1 <1>   0.1400 
  6 C        2.4210     1.6830    -0.6200 C.3   1 <1>   0.1400 
  7 C        1.3850    -2.1860     0.7550 C.ar  1 <1>   0.1660 
  8 C        3.6490    -2.6900     1.2830 C.ar  1 <1>  -0.1500 
  9 C        4.6490    -0.2670    -2.1750 C.3   1 <1>   0.3430 
 10 C        3.6690     2.5800    -0.6920 C.3   1 <1>  -0.1600 
 11 N        0.9780    -3.4240     0.9810 N.ar  1 <1>  -0.6200 
 12 C        0.2580    -1.2350     0.3820 C.3   1 <1>  -0.0960 
 13 C        3.2260    -3.9740     1.5390 C.ar  1 <1>  -0.1500 
 14 N        5.2720     0.8610    -1.4110 N.4   1 <1>  -0.9590 
 15 C        4.7060     2.1940    -1.7500 C.3   1 <1>   0.3430 
 16 C        1.8920    -4.2940     1.3670 C.ar  1 <1>   0.1670 
 17 C        6.7530     0.8280    -1.4050 C.3   1 <1>   0.5430 
 18 C        1.3990    -5.7000     1.6300 C.3   1 <1>  -0.0970 
 19 C        7.2200     1.7320    -0.3230 C.1   1 <1>  -0.2000 
 20 C        7.5320     2.4590     0.5630 C.1   1 <1>  -0.2000 
 21 C        7.8820     3.3580     1.7000 C.3   1 <1>   0.0400 
 22 C        6.6110     3.8450     2.3980 C.3   1 <1>  -0.2400 
 23 H        2.6140     0.1910    -2.7360 H     1 <1>   0.0800 
 24 H        2.8020    -1.3730    -2.0120 H     1 <1>   0.0800 
 25 H        1.8800     1.9150     0.2830 H     1 <1>   0.0800 
 26 H        1.7670     1.9010    -1.4480 H     1 <1>   0.0800 
 27 H        4.6810    -2.4160     1.4160 H     1 <1>   0.1500 
 28 H        4.8560    -0.1710    -3.2280 H     1 <1>   0.0800 
 29 H        5.0800    -1.1960    -1.8400 H     1 <1>   0.0800 
 30 H        4.1440     2.6080     0.2730 H     1 <1>   0.0800 
 31 H        3.3410     3.5840    -0.8930 H     1 <1>   0.0800 
 32 H        0.4110    -0.2680     0.8220 H     1 <1>   0.0800 
 33 H       -0.6810    -1.6150     0.7430 H     1 <1>   0.0800 
 34 H        0.1970    -1.1410    -0.6860 H     1 <1>   0.0800 
 35 H        3.9260    -4.7200     1.8710 H     1 <1>   0.1500 
 36 H        4.9890     0.7140    -0.4150 H     1 <1>   0.4500 
 37 H        5.4880     2.9370    -1.7480 H     1 <1>   0.0800 
 38 H        4.2560     2.1780    -2.7290 H     1 <1>   0.0800 
 39 H        7.1430     1.1510    -2.3560 H     1 <1>   0.0800 
 40 H        7.1020    -0.1710    -1.2020 H     1 <1>   0.0800 
 41 H        0.9550    -6.0980     0.7350 H     1 <1>   0.0800 
 42 H        0.6530    -5.6790     2.4040 H     1 <1>   0.0800 
 43 H        2.2010    -6.3440     1.9370 H     1 <1>   0.0800 
 44 H        8.4440     4.1990     1.3330 H     1 <1>   0.0800 
 45 H        8.4970     2.8200     2.4010 H     1 <1>   0.0800 
 46 H        5.9990     4.4060     1.7140 H     1 <1>   0.0800 
 47 H        6.8690     4.4800     3.2280 H     1 <1>   0.0800 
 48 H        6.0440     3.0090     2.7690 H     1 <1>   0.0800 
@<TRIPOS>BOND
  1   1   2  2   
  2   2   3  am  
  3   2   4  1   
  4   3   5  1   
  5   3   6  1   
  6   4   7  ar  
  7   4   8  ar  
  8   5   9  1   
  9   5  23  1   
 10   5  24  1   
 11   6  10  1   
 12   6  25  1   
 13   6  26  1   
 14   7  11  ar  
 15   7  12  1   
 16   8  13  ar  
 17   8  27  1   
 18   9  14  1   
 19   9  28  1   
 20   9  29  1   
 21  10  15  1   
 22  10  30  1   
 23  10  31  1   
 24  11  16  ar  
 25  12  32  1   
 26  12  33  1   
 27  12  34  1   
 28  13  16  ar  
 29  13  35  1   
 30  14  15  1   
 31  14  17  1   
 32  14  36  1   
 33  15  37  1   
 34  15  38  1   
 35  16  18  1   
 36  17  19  1   
 37  17  39  1   
 38  17  40  1   
 39  18  41  1   
 40  18  42  1   
 41  18  43  1   
 42  19  20  3   
 43  20  21  1   
 44  21  22  1   
 45  21  44  1   
 46  21  45  1   
 47  22  46  1   
 48  22  47  1   
 49  22  48  1   
@<TRIPOS>SUBSTRUCTURE
  1 ****   2 GROUP 4 **** **** 0

# MOE 2024.06 (io_trps.svl 2023.06)
