@<TRIPOS>MOLECULE
NONAME
47 49 1 0 0 
SMALL
USER_CHARGES


@<TRIPOS>ATOM
  1 O        0.2050     0.6040     0.5830 O.3   1 <1>  -0.0190 
  2 N        1.0390    -0.3880     0.4540 N.2   1 <1>  -0.4100 
  3 C        0.6930     1.7200     0.1110 C.2   1 <1>  -0.0400 
  4 C        2.0840     0.0990    -0.1130 C.2   1 <1>   0.1080 
  5 C        1.9220     1.4580    -0.3630 C.2   1 <1>  -0.1500 
  6 C       -0.1580     2.9780     0.1810 C.3   1 <1>   0.0200 
  7 C        3.3180    -0.7040    -0.4570 C.3   1 <1>  -0.0590 
  8 C        0.5810     4.2370    -0.3080 C.3   1 <1>  -0.0800 
  9 C       -0.2940     5.4900    -0.4320 C.3   1 <1>   0.2000 
 10 C        1.7210     4.6740     0.6130 C.3   1 <1>   0.2090 
 11 O       -1.1820     5.5280     0.6540 O.3   1 <1>  -0.5600 
 12 C        0.7120     6.6510    -0.3620 C.3   1 <1>   0.2090 
 13 N        1.9230     6.1030     0.2960 N.pl3 1 <1>  -0.8380 
 14 C       -2.2520     6.4090     0.5170 C.3   1 <1>   0.0400 
 15 C        3.1450     6.7290     0.2650 C.ar  1 <1>   0.7200 
 16 N        3.1750     7.9560    -0.2480 N.ar  1 <1>  -0.6200 
 17 N        4.1840     6.0540     0.7460 N.ar  1 <1>  -0.6200 
 18 C        4.3370     8.5630    -0.2680 C.ar  1 <1>   0.1660 
 19 C        5.3320     6.6790     0.7180 C.ar  1 <1>   0.1600 
 20 C        5.4790     7.9550     0.2180 C.ar  1 <1>  -0.1430 
 21 C        4.3380     9.9700    -0.8540 C.3   1 <1>  -0.0170 
 22 C        6.8500     8.6220     0.2260 C.3   1 <1>  -0.0970 
 23 C        3.9660    11.0160     0.2030 C.3   1 <1>  -0.2400 
 24 H        2.6410     2.1040    -0.8310 H     1 <1>   0.1500 
 25 H       -1.0360     2.8260    -0.4190 H     1 <1>   0.0800 
 26 H       -0.4800     3.1180     1.1990 H     1 <1>   0.0800 
 27 H        3.5220    -0.6270    -1.5080 H     1 <1>   0.0800 
 28 H        3.1640    -1.7390    -0.2070 H     1 <1>   0.0800 
 29 H        4.1590    -0.3330     0.0980 H     1 <1>   0.0800 
 30 H        1.0040     4.0400    -1.2770 H     1 <1>   0.0800 
 31 H       -0.8590     5.4920    -1.3470 H     1 <1>   0.0800 
 32 H        2.6130     4.0970     0.4430 H     1 <1>   0.0800 
 33 H        1.4300     4.5880     1.6470 H     1 <1>   0.0800 
 34 H        0.3300     7.4870     0.1950 H     1 <1>   0.0800 
 35 H        0.9710     6.9690    -1.3570 H     1 <1>   0.0800 
 36 H       -2.8570     6.3360     1.4030 H     1 <1>   0.0800 
 37 H       -2.8370     6.1290    -0.3430 H     1 <1>   0.0800 
 38 H       -1.8850     7.4140     0.4160 H     1 <1>   0.0800 
 39 H        6.1870     6.1550     1.1080 H     1 <1>   0.1500 
 40 H        5.2970    10.2050    -1.2760 H     1 <1>   0.0800 
 41 H        3.6210    10.0100    -1.6570 H     1 <1>   0.0800 
 42 H        7.5630     8.0290     0.7700 H     1 <1>   0.0800 
 43 H        6.7910     9.5870     0.6940 H     1 <1>   0.0800 
 44 H        7.2060     8.7410    -0.7820 H     1 <1>   0.0800 
 45 H        4.6730    11.0000     1.0120 H     1 <1>   0.0800 
 46 H        2.9880    10.8020     0.5990 H     1 <1>   0.0800 
 47 H        3.9550    11.9990    -0.2330 H     1 <1>   0.0800 
@<TRIPOS>BOND
  1   1   2  1   
  2   1   3  1   
  3   2   4  2   
  4   3   5  2   
  5   3   6  1   
  6   4   5  1   
  7   4   7  1   
  8   5  24  1   
  9   6   8  1   
 10   6  25  1   
 11   6  26  1   
 12   7  27  1   
 13   7  28  1   
 14   7  29  1   
 15   8   9  1   
 16   8  10  1   
 17   8  30  1   
 18   9  11  1   
 19   9  12  1   
 20   9  31  1   
 21  10  13  1   
 22  10  32  1   
 23  10  33  1   
 24  11  14  1   
 25  12  13  1   
 26  12  34  1   
 27  12  35  1   
 28  13  15  1   
 29  14  36  1   
 30  14  37  1   
 31  14  38  1   
 32  15  16  ar  
 33  15  17  ar  
 34  16  18  ar  
 35  17  19  ar  
 36  18  20  ar  
 37  18  21  1   
 38  19  20  ar  
 39  19  39  1   
 40  20  22  1   
 41  21  23  1   
 42  21  40  1   
 43  21  41  1   
 44  22  42  1   
 45  22  43  1   
 46  22  44  1   
 47  23  45  1   
 48  23  46  1   
 49  23  47  1   
@<TRIPOS>SUBSTRUCTURE
  1 ****  10 GROUP 4 **** **** 0

# MOE 2024.06 (io_trps.svl 2023.06)
