@<TRIPOS>MOLECULE
NONAME
48 50 1 0 0 
SMALL
USER_CHARGES


@<TRIPOS>ATOM
  1 O       -3.6810     2.0620    -1.6150 O.2   1 <1>  -0.5700 
  2 C       -2.9460     1.8460    -0.6850 C.2   1 <1>   0.5690 
  3 N       -2.5550     0.5920    -0.3560 N.am  1 <1>  -0.7300 
  4 C       -2.4430     3.0060     0.1510 C.3   1 <1>  -0.0990 
  5 C       -2.9190    -0.6290    -1.1060 C.3   1 <1>   0.2200 
  6 C       -0.9420     3.2650    -0.0660 C.3   1 <1>  -0.1600 
  7 C       -3.9280    -1.4290    -0.3000 C.3   1 <1>  -0.0800 
  8 C       -1.7270    -1.5790    -1.1410 C.3   1 <1>   0.1200 
  9 C       -0.4500     4.4670     0.7470 C.3   1 <1>  -0.0170 
 10 C       -3.0270    -2.2300     0.6470 C.3   1 <1>   0.1200 
 11 C       -4.7790    -2.3380    -1.2070 C.3   1 <1>  -0.0170 
 12 O       -1.7530    -2.2740     0.0700 O.3   1 <1>  -0.5600 
 13 C        1.0400     4.6740     0.5320 C.ar  1 <1>  -0.1440 
 14 C       -5.8080    -3.1200    -0.4040 C.ar  1 <1>  -0.1440 
 15 C        1.4920     5.4360    -0.5350 C.ar  1 <1>  -0.1500 
 16 C        1.9610     4.1000     1.3950 C.ar  1 <1>  -0.1500 
 17 C       -5.6620    -4.4670    -0.1350 C.ar  1 <1>  -0.1500 
 18 C       -6.9450    -2.5190     0.0970 C.ar  1 <1>  -0.1500 
 19 C        2.8490     5.6240    -0.7360 C.ar  1 <1>  -0.1500 
 20 C        3.3180     4.2870     1.1950 C.ar  1 <1>  -0.1500 
 21 C       -6.6290    -5.1260     0.6050 C.ar  1 <1>   0.1600 
 22 C       -7.8520    -3.2700     0.8260 C.ar  1 <1>   0.1600 
 23 C        3.7630     5.0490     0.1300 C.ar  1 <1>  -0.1500 
 24 N       -7.7210    -4.5590     1.0940 N.ar  1 <1>  -0.6200 
 25 H       -1.9300     0.4310     0.4360 H     1 <1>   0.3700 
 26 H       -3.0020     3.8840    -0.1190 H     1 <1>   0.0800 
 27 H       -2.6370     2.7940     1.1860 H     1 <1>   0.0800 
 28 H       -3.2670    -0.3730    -2.0930 H     1 <1>   0.0800 
 29 H       -0.3770     2.3940     0.2160 H     1 <1>   0.0800 
 30 H       -0.7620     3.4490    -1.1120 H     1 <1>   0.0800 
 31 H       -4.5860    -0.7790     0.2500 H     1 <1>   0.0800 
 32 H       -0.7880    -1.0640    -1.2450 H     1 <1>   0.0800 
 33 H       -1.8370    -2.2990    -1.9330 H     1 <1>   0.0800 
 34 H       -0.6420     4.3070     1.7940 H     1 <1>   0.0800 
 35 H       -0.9810     5.3540     0.4490 H     1 <1>   0.0800 
 36 H       -3.3710    -3.2360     0.8090 H     1 <1>   0.0800 
 37 H       -2.9340    -1.7300     1.5960 H     1 <1>   0.0800 
 38 H       -4.1490    -3.0220    -1.7480 H     1 <1>   0.0800 
 39 H       -5.2980    -1.7330    -1.9300 H     1 <1>   0.0800 
 40 H        0.7890     5.8840    -1.2140 H     1 <1>   0.1500 
 41 H        1.6260     3.5050     2.2260 H     1 <1>   0.1500 
 42 H       -4.8060    -5.0100    -0.4920 H     1 <1>   0.1500 
 43 H       -7.1340    -1.4750    -0.0730 H     1 <1>   0.1500 
 44 H        3.1930     6.2160    -1.5650 H     1 <1>   0.1500 
 45 H        4.0270     3.8390     1.8690 H     1 <1>   0.1500 
 46 H       -6.4980    -6.1750     0.8050 H     1 <1>   0.1500 
 47 H       -8.7330    -2.7840     1.2090 H     1 <1>   0.1500 
 48 H        4.8180     5.1950    -0.0250 H     1 <1>   0.1500 
@<TRIPOS>BOND
  1   1   2  2   
  2   2   3  am  
  3   2   4  1   
  4   3   5  1   
  5   3  25  1   
  6   4   6  1   
  7   4  26  1   
  8   4  27  1   
  9   5   7  1   
 10   5   8  1   
 11   5  28  1   
 12   6   9  1   
 13   6  29  1   
 14   6  30  1   
 15   7  10  1   
 16   7  11  1   
 17   7  31  1   
 18   8  12  1   
 19   8  32  1   
 20   8  33  1   
 21   9  13  1   
 22   9  34  1   
 23   9  35  1   
 24  10  12  1   
 25  10  36  1   
 26  10  37  1   
 27  11  14  1   
 28  11  38  1   
 29  11  39  1   
 30  13  15  ar  
 31  13  16  ar  
 32  14  17  ar  
 33  14  18  ar  
 34  15  19  ar  
 35  15  40  1   
 36  16  20  ar  
 37  16  41  1   
 38  17  21  ar  
 39  17  42  1   
 40  18  22  ar  
 41  18  43  1   
 42  19  23  ar  
 43  19  44  1   
 44  20  23  ar  
 45  20  45  1   
 46  21  24  ar  
 47  21  46  1   
 48  22  24  ar  
 49  22  47  1   
 50  23  48  1   
@<TRIPOS>SUBSTRUCTURE
  1 ****   3 GROUP 4 **** **** 0

# MOE 2024.06 (io_trps.svl 2023.06)
