@<TRIPOS>MOLECULE
NONAME
55 58 1 0 0 
SMALL
USER_CHARGES


@<TRIPOS>ATOM
  1 S        1.5060     0.3920     0.1010 S.o2  1 <1>   1.3330 
  2 O        0.7130    -0.3340     1.0680 O.2   1 <1>  -0.6500 
  3 O        2.8080     0.8980     0.4770 O.2   1 <1>  -0.6500 
  4 N        1.7060    -0.5930    -1.2670 N.am  1 <1>  -0.8490 
  5 C        0.5030     1.7430    -0.5240 C.3   1 <1>  -0.0550 
  6 C        2.7900    -0.1500    -2.1510 C.3   1 <1>   0.1160 
  7 C        1.8970    -2.0030    -0.9130 C.3   1 <1>   0.1160 
  8 C       -0.1100     2.6380     0.5750 C.3   1 <1>  -0.0800 
  9 C       -1.0010     3.7130    -0.0390 C.3   1 <1>   0.2000 
 10 C        0.9450     3.4700     1.3120 C.3   1 <1>   0.1100 
 11 O       -1.8880     4.1630     0.9270 O.3   1 <1>  -0.6800 
 12 C       -0.0320     4.8490    -0.3720 C.3   1 <1>   0.1100 
 13 N        1.1450     4.6860     0.5060 N.3   1 <1>  -0.8100 
 14 C        1.4860     5.8570     1.3350 C.3   1 <1>   0.2780 
 15 C        2.0550     6.9970     0.4910 C.2   1 <1>   0.1820 
 16 N        1.3180     8.0770     0.0270 N.pl3 1 <1>  -0.6290 
 17 C        3.3460     7.1450     0.0900 C.2   1 <1>   0.3090 
 18 C        2.1870     8.8480    -0.6580 C.cat 1 <1>   0.9620 
 19 C        0.0110     8.4720     0.1380 C.2   1 <1>   0.2290 
 20 N        3.3930     8.3130    -0.6270 N.pl3 1 <1>  -0.7000 
 21 C        4.5160     6.3260     0.3230 C.ar  1 <1>   0.0410 
 22 N        1.8740     9.9910    -1.2740 N.2   1 <1>  -0.6120 
 23 C       -0.3450     9.6290    -0.4730 C.2   1 <1>  -0.1360 
 24 C        4.4950     4.9480     0.1140 C.ar  1 <1>  -0.1500 
 25 C        5.7060     6.8970     0.7740 C.ar  1 <1>  -0.1500 
 26 C        0.6340    10.3560    -1.1750 C.2   1 <1>   0.3760 
 27 C        5.6090     4.1680     0.3600 C.ar  1 <1>  -0.1500 
 28 C        6.8250     6.1210     1.0150 C.ar  1 <1>  -0.1500 
 29 C        6.7780     4.7540     0.8100 C.ar  1 <1>  -0.1500 
 30 H        1.0930     2.3400    -1.1910 H     1 <1>   0.0800 
 31 H       -0.3020     1.3180    -1.0930 H     1 <1>   0.0800 
 32 H        2.8140    -0.7590    -3.0390 H     1 <1>   0.0800 
 33 H        3.7410    -0.2250    -1.6490 H     1 <1>   0.0800 
 34 H        2.6350     0.8730    -2.4450 H     1 <1>   0.0800 
 35 H        2.0040    -2.6010    -1.8020 H     1 <1>   0.0800 
 36 H        1.0420    -2.3650    -0.3670 H     1 <1>   0.0800 
 37 H        2.7740    -2.1200    -0.2980 H     1 <1>   0.0800 
 38 H       -0.6650     2.0140     1.2550 H     1 <1>   0.0800 
 39 H       -1.5710     3.3850    -0.8920 H     1 <1>   0.0800 
 40 H        1.8760     2.9480     1.4510 H     1 <1>   0.0800 
 41 H        0.5600     3.7300     2.2850 H     1 <1>   0.0800 
 42 H       -1.4410     4.2090     1.7920 H     1 <1>   0.4000 
 43 H       -0.5130     5.8030    -0.2610 H     1 <1>   0.0800 
 44 H        0.2930     4.7450    -1.3930 H     1 <1>   0.0800 
 45 H        0.6250     6.1890     1.8880 H     1 <1>   0.0800 
 46 H        2.2410     5.5640     2.0460 H     1 <1>   0.0800 
 47 H       -0.6820     7.8620     0.6980 H     1 <1>   0.1500 
 48 H        4.1950     8.7250    -1.1020 H     1 <1>   0.4500 
 49 H       -1.3510    10.0080    -0.4380 H     1 <1>   0.1500 
 50 H        3.6030     4.4660    -0.2470 H     1 <1>   0.1500 
 51 H        5.7630     7.9570     0.9490 H     1 <1>   0.1500 
 52 H        0.3300    11.2710    -1.6540 H     1 <1>   0.0600 
 53 H        5.5670     3.1030     0.2010 H     1 <1>   0.1500 
 54 H        7.7370     6.5770     1.3650 H     1 <1>   0.1500 
 55 H        7.6470     4.1470     1.0010 H     1 <1>   0.1500 
@<TRIPOS>BOND
  1   1   2  2   
  2   1   3  2   
  3   1   4  am  
  4   1   5  1   
  5   4   6  1   
  6   4   7  1   
  7   5   8  1   
  8   5  30  1   
  9   5  31  1   
 10   6  32  1   
 11   6  33  1   
 12   6  34  1   
 13   7  35  1   
 14   7  36  1   
 15   7  37  1   
 16   8   9  1   
 17   8  10  1   
 18   8  38  1   
 19   9  11  1   
 20   9  12  1   
 21   9  39  1   
 22  10  13  1   
 23  10  40  1   
 24  10  41  1   
 25  11  42  1   
 26  12  13  1   
 27  12  43  1   
 28  12  44  1   
 29  13  14  1   
 30  14  15  1   
 31  14  45  1   
 32  14  46  1   
 33  15  16  1   
 34  15  17  2   
 35  16  18  ar  
 36  16  19  1   
 37  17  20  1   
 38  17  21  1   
 39  18  20  ar  
 40  18  22  1   
 41  19  23  2   
 42  19  47  1   
 43  20  48  1   
 44  21  24  ar  
 45  21  25  ar  
 46  22  26  2   
 47  23  26  1   
 48  23  49  1   
 49  24  27  ar  
 50  24  50  1   
 51  25  28  ar  
 52  25  51  1   
 53  26  52  1   
 54  27  29  ar  
 55  27  53  1   
 56  28  29  ar  
 57  28  54  1   
 58  29  55  1   
@<TRIPOS>SUBSTRUCTURE
  1 ****  13 GROUP 4 **** **** 0

# MOE 2024.06 (io_trps.svl 2023.06)
