@<TRIPOS>MOLECULE
NONAME
46 48 1 0 0 
SMALL
USER_CHARGES


@<TRIPOS>ATOM
  1 O        0.3550    -0.0060    -0.5800 O.3   1 <1>  -0.5600 
  2 C        1.5530    -0.6290    -0.9770 C.3   1 <1>   0.2000 
  3 C        0.3730     1.3900    -0.5970 C.3   1 <1>   0.1200 
  4 C        2.7530    -0.1450    -0.1180 C.3   1 <1>   0.5660 
  5 C        1.3810    -2.1520    -0.8460 C.3   1 <1>   0.1200 
  6 C        1.4390     1.9120     0.3810 C.3   1 <1>   0.3430 
  7 N        2.7920     1.3390     0.0820 N.4   1 <1>  -0.9590 
  8 C        4.0790    -0.5570    -0.7430 C.ar  1 <1>  -0.1440 
  9 O        1.4400    -2.5310     0.4930 O.3   1 <1>  -0.6800 
 10 C        3.7980     1.7180     1.1020 C.3   1 <1>   0.5240 
 11 C        4.9200    -1.4100    -0.0420 C.ar  1 <1>  -0.1500 
 12 C        4.4710    -0.0920    -1.9930 C.ar  1 <1>  -0.1500 
 13 C        4.0710     3.1890     0.9110 C.2   1 <1>  -0.1810 
 14 C        6.1410    -1.7820    -0.5760 C.ar  1 <1>  -0.1500 
 15 C        5.6920    -0.4670    -2.5260 C.ar  1 <1>  -0.1500 
 16 C        4.9050     3.8050     0.0430 C.2   1 <1>  -0.3320 
 17 C        3.4700     4.2190     1.6240 C.2   1 <1>   0.1390 
 18 C        6.5280    -1.3090    -1.8160 C.ar  1 <1>  -0.1500 
 19 N        4.7640     5.1360     0.2530 N.pl3 1 <1>   0.3140 
 20 C        5.8610     3.2090    -0.9820 C.3   1 <1>  -0.0600 
 21 N        3.8680     5.3810     1.2220 N.2   1 <1>  -0.7070 
 22 C        5.4670     6.2350    -0.4250 C.3   1 <1>   0.0160 
 23 H        1.7080    -0.3890    -2.0140 H     1 <1>   0.0800 
 24 H        0.5600     1.7280    -1.6010 H     1 <1>   0.0800 
 25 H       -0.6030     1.7320    -0.2960 H     1 <1>   0.0800 
 26 H        2.6650    -0.6190     0.8460 H     1 <1>   0.0800 
 27 H        2.1680    -2.6680    -1.3690 H     1 <1>   0.0800 
 28 H        0.4300    -2.4540    -1.2530 H     1 <1>   0.0800 
 29 H        1.1390     1.6410     1.3800 H     1 <1>   0.0800 
 30 H        1.4750     2.9880     0.3240 H     1 <1>   0.0800 
 31 H        3.1370     1.7530    -0.7890 H     1 <1>   0.4500 
 32 H        1.1010    -3.4440     0.6080 H     1 <1>   0.4000 
 33 H        3.4350     1.5200     2.0970 H     1 <1>   0.0800 
 34 H        4.7150     1.1720     0.9490 H     1 <1>   0.0800 
 35 H        4.6350    -1.8010     0.9210 H     1 <1>   0.1500 
 36 H        3.8420     0.5610    -2.5740 H     1 <1>   0.1500 
 37 H        6.7920    -2.4440    -0.0290 H     1 <1>   0.1500 
 38 H        5.9960    -0.1090    -3.4960 H     1 <1>   0.1500 
 39 H        2.7540     4.0980     2.4200 H     1 <1>   0.1500 
 40 H        7.4790    -1.6010    -2.2310 H     1 <1>   0.1500 
 41 H        5.8850     2.1380    -0.9120 H     1 <1>   0.0800 
 42 H        6.8590     3.5740    -0.8100 H     1 <1>   0.0800 
 43 H        5.5620     3.4850    -1.9780 H     1 <1>   0.0800 
 44 H        5.3110     6.1600    -1.4840 H     1 <1>   0.0800 
 45 H        6.5150     6.1750    -0.2000 H     1 <1>   0.0800 
 46 H        5.0790     7.1720    -0.0700 H     1 <1>   0.0800 
@<TRIPOS>BOND
  1   1   2  1   
  2   1   3  1   
  3   2   4  1   
  4   2   5  1   
  5   2  23  1   
  6   3   6  1   
  7   3  24  1   
  8   3  25  1   
  9   4   7  1   
 10   4   8  1   
 11   4  26  1   
 12   5   9  1   
 13   5  27  1   
 14   5  28  1   
 15   6   7  1   
 16   6  29  1   
 17   6  30  1   
 18   7  10  1   
 19   7  31  1   
 20   8  11  ar  
 21   8  12  ar  
 22   9  32  1   
 23  10  13  1   
 24  10  33  1   
 25  10  34  1   
 26  11  14  ar  
 27  11  35  1   
 28  12  15  ar  
 29  12  36  1   
 30  13  16  2   
 31  13  17  1   
 32  14  18  ar  
 33  14  37  1   
 34  15  18  ar  
 35  15  38  1   
 36  16  19  1   
 37  16  20  1   
 38  17  21  2   
 39  17  39  1   
 40  18  40  1   
 41  19  21  1   
 42  19  22  1   
 43  20  41  1   
 44  20  42  1   
 45  20  43  1   
 46  22  44  1   
 47  22  45  1   
 48  22  46  1   
@<TRIPOS>SUBSTRUCTURE
  1 ****   7 GROUP 4 **** **** 0

# MOE 2024.06 (io_trps.svl 2023.06)
