@<TRIPOS>MOLECULE
NONAME
46 48 1 0 0 
SMALL
USER_CHARGES


@<TRIPOS>ATOM
  1 O       -2.1810     0.4750    -2.0460 O.2   1 <1>  -0.5700 
  2 C       -2.1490     0.6630    -0.8560 C.2   1 <1>   0.5690 
  3 N       -2.1120    -0.3600     0.0290 N.am  1 <1>  -0.7300 
  4 C       -2.1530     2.0810    -0.3310 C.3   1 <1>  -0.0990 
  5 C       -2.0870    -1.7960    -0.3370 C.3   1 <1>   0.2200 
  6 C       -0.9020     2.8460    -0.7780 C.3   1 <1>  -0.0170 
  7 C       -3.4390    -2.4530    -0.0870 C.3   1 <1>  -0.0800 
  8 C       -1.2270    -2.5410     0.6740 C.3   1 <1>   0.1200 
  9 C       -0.8870     4.2360    -0.1530 C.ar  1 <1>  -0.1440 
 10 C       -3.3790    -2.8170     1.4020 C.3   1 <1>   0.1200 
 11 C       -4.6750    -1.6280    -0.4900 C.3   1 <1>  -0.0170 
 12 O       -2.0420    -2.6870     1.7950 O.3   1 <1>  -0.5600 
 13 C       -0.3840     4.4780     1.1240 C.ar  1 <1>   0.0820 
 14 C       -1.4080     5.3010    -0.8730 C.ar  1 <1>  -0.1500 
 15 C       -5.9520    -2.4250    -0.2780 C.ar  1 <1>  -0.1440 
 16 O        0.1380     3.4860     1.8630 O.3   1 <1>  -0.5320 
 17 C       -0.4070     5.7510     1.6660 C.ar  1 <1>  -0.1500 
 18 C       -1.4300     6.5770    -0.3340 C.ar  1 <1>  -0.1500 
 19 C       -6.3840    -3.3590    -1.1980 C.ar  1 <1>  -0.1500 
 20 C       -6.7430    -2.2600     0.8410 C.ar  1 <1>  -0.1500 
 21 C       -0.9300     6.8030     0.9370 C.ar  1 <1>  -0.1500 
 22 C       -7.5500    -4.0670    -0.9580 C.ar  1 <1>   0.1600 
 23 C       -7.8930    -3.0200     0.9840 C.ar  1 <1>   0.1600 
 24 N       -8.3140    -3.9220     0.1130 N.ar  1 <1>  -0.6200 
 25 H       -2.1340    -0.1960     1.0390 H     1 <1>   0.3700 
 26 H       -3.0280     2.5800    -0.7060 H     1 <1>   0.0800 
 27 H       -2.2120     2.0720     0.7420 H     1 <1>   0.0800 
 28 H       -1.7400    -1.9270    -1.3480 H     1 <1>   0.0800 
 29 H       -0.9030     2.9300    -1.8520 H     1 <1>   0.0800 
 30 H       -0.0140     2.3030    -0.5080 H     1 <1>   0.0800 
 31 H       -3.4600    -3.3760    -0.6400 H     1 <1>   0.0800 
 32 H       -0.3320    -2.0050     0.9390 H     1 <1>   0.0800 
 33 H       -0.9760    -3.5240     0.3150 H     1 <1>   0.0800 
 34 H       -3.6990    -3.8300     1.5770 H     1 <1>   0.0800 
 35 H       -3.9620    -2.1420     2.0040 H     1 <1>   0.0800 
 36 H       -4.5960    -1.3510    -1.5280 H     1 <1>   0.0800 
 37 H       -4.7260    -0.7190     0.0820 H     1 <1>   0.0800 
 38 H       -1.8050     5.1440    -1.8610 H     1 <1>   0.1500 
 39 H        0.2020     2.6500     1.3730 H     1 <1>   0.4500 
 40 H       -0.0140     5.9110     2.6540 H     1 <1>   0.1500 
 41 H       -1.8370     7.3940    -0.9030 H     1 <1>   0.1500 
 42 H       -5.8270    -3.5420    -2.0980 H     1 <1>   0.1500 
 43 H       -6.4810    -1.5490     1.6020 H     1 <1>   0.1500 
 44 H       -0.9480     7.7930     1.3570 H     1 <1>   0.1500 
 45 H       -7.8720    -4.7920    -1.6870 H     1 <1>   0.1500 
 46 H       -8.4980    -2.8790     1.8640 H     1 <1>   0.1500 
@<TRIPOS>BOND
  1   1   2  2   
  2   2   3  am  
  3   2   4  1   
  4   3   5  1   
  5   3  25  1   
  6   4   6  1   
  7   4  26  1   
  8   4  27  1   
  9   5   7  1   
 10   5   8  1   
 11   5  28  1   
 12   6   9  1   
 13   6  29  1   
 14   6  30  1   
 15   7  10  1   
 16   7  11  1   
 17   7  31  1   
 18   8  12  1   
 19   8  32  1   
 20   8  33  1   
 21   9  13  ar  
 22   9  14  ar  
 23  10  12  1   
 24  10  34  1   
 25  10  35  1   
 26  11  15  1   
 27  11  36  1   
 28  11  37  1   
 29  13  16  1   
 30  13  17  ar  
 31  14  18  ar  
 32  14  38  1   
 33  15  19  ar  
 34  15  20  ar  
 35  16  39  1   
 36  17  21  ar  
 37  17  40  1   
 38  18  21  ar  
 39  18  41  1   
 40  19  22  ar  
 41  19  42  1   
 42  20  23  ar  
 43  20  43  1   
 44  21  44  1   
 45  22  24  ar  
 46  22  45  1   
 47  23  24  ar  
 48  23  46  1   
@<TRIPOS>SUBSTRUCTURE
  1 ****   3 GROUP 4 **** **** 0

# MOE 2024.06 (io_trps.svl 2023.06)
