@<TRIPOS>MOLECULE
NONAME
50 52 1 0 0 
SMALL
USER_CHARGES


@<TRIPOS>ATOM
  1 CL      -1.1660    -0.7340    -0.2440 Cl    1 <1>  -0.1770 
  2 C       -2.7860    -0.0960    -0.1600 C.ar  1 <1>   0.1770 
  3 C       -3.6050    -0.4550     0.8940 C.ar  1 <1>  -0.1500 
  4 C       -3.2330     0.7610    -1.1470 C.ar  1 <1>  -0.1500 
  5 C       -4.8910     0.0510     0.9550 C.ar  1 <1>  -0.1500 
  6 C       -4.5220     1.2600    -1.0770 C.ar  1 <1>  -0.1500 
  7 C       -5.3790     0.9120    -0.0310 C.ar  1 <1>   0.0530 
  8 C       -6.7240     1.4260     0.0220 C.2   1 <1>   0.0870 
  9 O       -6.9970     2.6240    -0.4280 O.3   1 <1>  -0.0190 
 10 C       -7.8890     0.9060     0.4910 C.2   1 <1>  -0.0860 
 11 N       -8.2520     2.9530    -0.2730 N.2   1 <1>  -0.4100 
 12 C       -8.8060     1.9380     0.2900 C.2   1 <1>   0.3720 
 13 C       -8.2140    -0.3630     1.0640 C.2   1 <1>   0.7160 
 14 N      -10.1460     1.8660     0.6570 N.pl3 1 <1>  -0.8520 
 15 O       -8.8520    -0.3860     2.1040 O.2   1 <1>  -0.5700 
 16 N       -7.8270    -1.5590     0.4870 N.am  1 <1>  -0.6600 
 17 C      -10.8230     3.1470     0.9940 C.3   1 <1>   0.2090 
 18 C       -7.3190    -1.6370    -0.9160 C.3   1 <1>   0.1400 
 19 C       -7.9790    -2.8380     1.2340 C.3   1 <1>   0.1400 
 20 C      -12.3120     2.9020     1.2350 C.3   1 <1>   0.1200 
 21 C       -7.8100    -2.8600    -1.7020 C.3   1 <1>  -0.1600 
 22 C       -9.3820    -3.4190     1.0220 C.3   1 <1>  -0.1600 
 23 O      -12.9100     4.0980     1.6290 O.3   1 <1>  -0.5600 
 24 C       -9.3100    -3.1600    -1.5480 C.3   1 <1>  -0.1600 
 25 C       -9.6060    -4.0730    -0.3500 C.3   1 <1>  -0.1600 
 26 C      -14.2780     3.9940     1.8540 C.3   1 <1>   0.0400 
 27 H       -3.2340    -1.1190     1.6540 H     1 <1>   0.1500 
 28 H       -2.5780     1.0300    -1.9560 H     1 <1>   0.1500 
 29 H       -5.5230    -0.2240     1.7820 H     1 <1>   0.1500 
 30 H       -4.8720     1.9290    -1.8450 H     1 <1>   0.1500 
 31 H      -10.2610     1.1710     1.4090 H     1 <1>   0.4000 
 32 H      -10.7080     3.8410     0.1790 H     1 <1>   0.0800 
 33 H      -10.3750     3.5650     1.8790 H     1 <1>   0.0800 
 34 H       -6.2430    -1.6420    -0.9010 H     1 <1>   0.0800 
 35 H       -7.6350    -0.7590    -1.4550 H     1 <1>   0.0800 
 36 H       -7.8380    -2.6470     2.2850 H     1 <1>   0.0800 
 37 H       -7.2250    -3.5430     0.9300 H     1 <1>   0.0800 
 38 H      -12.4470     2.1780     2.0200 H     1 <1>   0.0800 
 39 H      -12.7790     2.5630     0.3270 H     1 <1>   0.0800 
 40 H       -7.2270    -3.7240    -1.4340 H     1 <1>   0.0800 
 41 H       -7.6080    -2.6700    -2.7410 H     1 <1>   0.0800 
 42 H      -10.1120    -2.6450     1.1810 H     1 <1>   0.0800 
 43 H       -9.5490    -4.1670     1.7760 H     1 <1>   0.0800 
 44 H       -9.6440    -3.6680    -2.4360 H     1 <1>   0.0800 
 45 H       -9.8720    -2.2450    -1.4710 H     1 <1>   0.0800 
 46 H      -10.6350    -4.3840    -0.4060 H     1 <1>   0.0800 
 47 H       -9.0040    -4.9620    -0.4230 H     1 <1>   0.0800 
 48 H      -14.6430     4.9620     2.1500 H     1 <1>   0.0800 
 49 H      -14.4570     3.2820     2.6410 H     1 <1>   0.0800 
 50 H      -14.7650     3.6860     0.9450 H     1 <1>   0.0800 
@<TRIPOS>BOND
  1   1   2  1   
  2   2   3  ar  
  3   2   4  ar  
  4   3   5  ar  
  5   3  27  1   
  6   4   6  ar  
  7   4  28  1   
  8   5   7  ar  
  9   5  29  1   
 10   6   7  ar  
 11   6  30  1   
 12   7   8  1   
 13   8   9  1   
 14   8  10  2   
 15   9  11  1   
 16  10  12  1   
 17  10  13  1   
 18  11  12  2   
 19  12  14  1   
 20  13  15  2   
 21  13  16  am  
 22  14  17  1   
 23  14  31  1   
 24  16  18  1   
 25  16  19  1   
 26  17  20  1   
 27  17  32  1   
 28  17  33  1   
 29  18  21  1   
 30  18  34  1   
 31  18  35  1   
 32  19  22  1   
 33  19  36  1   
 34  19  37  1   
 35  20  23  1   
 36  20  38  1   
 37  20  39  1   
 38  21  24  1   
 39  21  40  1   
 40  21  41  1   
 41  22  25  1   
 42  22  42  1   
 43  22  43  1   
 44  23  26  1   
 45  24  25  1   
 46  24  44  1   
 47  24  45  1   
 48  25  46  1   
 49  25  47  1   
 50  26  48  1   
 51  26  49  1   
 52  26  50  1   
@<TRIPOS>SUBSTRUCTURE
  1 ****  10 GROUP 4 **** **** 0

# MOE 2024.06 (io_trps.svl 2023.06)
