@<TRIPOS>MOLECULE
NONAME
56 58 1 0 0 
SMALL
USER_CHARGES


@<TRIPOS>ATOM
  1 O       -2.1920    -2.2620     0.7860 O.2   1 <1>  -0.5700 
  2 C       -0.9990    -2.4670     0.6150 C.2   1 <1>   0.7670 
  3 N       -0.1370    -1.9680     1.5520 N.2   1 <1>  -0.6610 
  4 C       -0.5200    -3.1890    -0.5240 C.2   1 <1>  -0.1240 
  5 C        1.1110    -2.1800     1.3820 C.2   1 <1>   0.4390 
  6 C        0.8170    -3.3980    -0.6470 C.2   1 <1>  -0.0380 
  7 C       -1.5610    -3.6950    -1.5290 C.3   1 <1>   0.0390 
  8 N        1.6200    -2.8690     0.3240 N.pl3 1 <1>  -0.5500 
  9 C        2.1050    -1.6560     2.3880 C.3   1 <1>  -0.1790 
 10 C        1.5330    -4.1770    -1.7380 C.3   1 <1>  -0.1020 
 11 C       -2.1170    -5.0540    -1.1200 C.2   1 <1>   0.5690 
 12 O       -1.3080    -5.9070    -0.8310 O.2   1 <1>  -0.5700 
 13 N       -3.4640    -5.3240    -1.0990 N.am  1 <1>  -0.6600 
 14 C       -3.9660    -6.6320    -0.5650 C.3   1 <1>   0.1400 
 15 C       -4.5540    -4.4060    -1.5440 C.3   1 <1>   0.1400 
 16 C       -4.4860    -6.4990     0.8750 C.3   1 <1>   0.1400 
 17 C       -5.0340    -3.4690    -0.4240 C.3   1 <1>  -0.1600 
 18 N       -5.5430    -5.4470     0.9930 N.am  1 <1>  -0.6600 
 19 C       -5.0070    -4.0570     0.9920 C.3   1 <1>   0.1400 
 20 C       -6.8970    -5.7030     1.1040 C.2   1 <1>   0.7150 
 21 O       -7.6360    -4.7770     1.3930 O.2   1 <1>  -0.5700 
 22 C       -7.4700    -7.0160     0.8830 C.2   1 <1>   0.0550 
 23 O       -6.9830    -7.8360    -0.0420 O.3   1 <1>  -0.2800 
 24 C       -8.5210    -7.6210     1.4760 C.2   1 <1>   0.0460 
 25 C       -7.7770    -8.8820     0.0640 C.2   1 <1>   0.2980 
 26 N       -8.7050    -8.8230     0.9460 N.2   1 <1>  -0.5650 
 27 C       -9.4400    -7.1400     2.5820 C.3   1 <1>  -0.0590 
 28 C       -7.5050   -10.0500    -0.8740 C.3   1 <1>   0.0200 
 29 C       -8.4590   -11.2380    -0.6830 C.3   1 <1>  -0.2400 
 30 H       -1.1270    -3.7940    -2.5030 H     1 <1>   0.0800 
 31 H       -2.3420    -2.9670    -1.6200 H     1 <1>   0.0800 
 32 H        2.6310    -3.0080     0.2820 H     1 <1>   0.4000 
 33 H        2.7870    -0.9780     1.9100 H     1 <1>   0.0800 
 34 H        2.6510    -2.4720     2.8220 H     1 <1>   0.0800 
 35 H        1.5900    -1.1300     3.1720 H     1 <1>   0.0800 
 36 H        2.2190    -4.8760    -1.2940 H     1 <1>   0.0800 
 37 H        2.0830    -3.5050    -2.3710 H     1 <1>   0.0800 
 38 H        0.8510    -4.7430    -2.3430 H     1 <1>   0.0800 
 39 H       -3.1790    -7.3650    -0.5790 H     1 <1>   0.0800 
 40 H       -4.7520    -7.0040    -1.1980 H     1 <1>   0.0800 
 41 H       -5.3910    -4.9990    -1.8690 H     1 <1>   0.0800 
 42 H       -4.2340    -3.8300    -2.3940 H     1 <1>   0.0800 
 43 H       -3.6600    -6.2490     1.5190 H     1 <1>   0.0800 
 44 H       -4.8650    -7.4480     1.2080 H     1 <1>   0.0800 
 45 H       -6.0400    -3.1620    -0.6460 H     1 <1>   0.0800 
 46 H       -4.4390    -2.5750    -0.4290 H     1 <1>   0.0800 
 47 H       -5.5830    -3.4340     1.6540 H     1 <1>   0.0800 
 48 H       -3.9940    -4.0610     1.3580 H     1 <1>   0.0800 
 49 H       -9.1320    -6.1810     2.9520 H     1 <1>   0.0800 
 50 H       -9.4270    -7.8450     3.3920 H     1 <1>   0.0800 
 51 H      -10.4430    -7.0620     2.2050 H     1 <1>   0.0800 
 52 H       -6.4950   -10.3810    -0.7160 H     1 <1>   0.0800 
 53 H       -7.5830    -9.6940    -1.8850 H     1 <1>   0.0800 
 54 H       -8.3820   -11.6170     0.3210 H     1 <1>   0.0800 
 55 H       -8.2160   -12.0270    -1.3720 H     1 <1>   0.0800 
 56 H       -9.4750   -10.9270    -0.8550 H     1 <1>   0.0800 
@<TRIPOS>BOND
  1   1   2  2   
  2   2   3  1   
  3   2   4  1   
  4   3   5  2   
  5   4   6  2   
  6   4   7  1   
  7   5   8  1   
  8   5   9  1   
  9   6   8  1   
 10   6  10  1   
 11   7  11  1   
 12   7  30  1   
 13   7  31  1   
 14   8  32  1   
 15   9  33  1   
 16   9  34  1   
 17   9  35  1   
 18  10  36  1   
 19  10  37  1   
 20  10  38  1   
 21  11  12  2   
 22  11  13  am  
 23  13  14  1   
 24  13  15  1   
 25  14  16  1   
 26  14  39  1   
 27  14  40  1   
 28  15  17  1   
 29  15  41  1   
 30  15  42  1   
 31  16  18  1   
 32  16  43  1   
 33  16  44  1   
 34  17  19  1   
 35  17  45  1   
 36  17  46  1   
 37  18  19  1   
 38  18  20  am  
 39  19  47  1   
 40  19  48  1   
 41  20  21  2   
 42  20  22  1   
 43  22  23  1   
 44  22  24  2   
 45  23  25  1   
 46  24  26  1   
 47  24  27  1   
 48  25  26  2   
 49  25  28  1   
 50  27  49  1   
 51  27  50  1   
 52  27  51  1   
 53  28  29  1   
 54  28  52  1   
 55  28  53  1   
 56  29  54  1   
 57  29  55  1   
 58  29  56  1   
@<TRIPOS>SUBSTRUCTURE
  1 ****  13 GROUP 4 **** **** 0

# MOE 2024.06 (io_trps.svl 2023.06)
