@<TRIPOS>MOLECULE
NONAME
55 57 1 0 0 
SMALL
USER_CHARGES


@<TRIPOS>ATOM
  1 CL      -3.8460     0.7790    -2.1840 Cl    1 <1>  -0.1770 
  2 C       -3.8680    -0.2860    -0.7970 C.ar  1 <1>   0.1770 
  3 C       -4.3230     0.1700     0.4360 C.ar  1 <1>   0.0820 
  4 C       -3.4610    -1.5930    -0.9640 C.ar  1 <1>  -0.1500 
  5 O       -4.8400     1.4030     0.5920 O.3   1 <1>  -0.3630 
  6 C       -4.3060    -0.6930     1.5200 C.ar  1 <1>  -0.1500 
  7 C       -3.5130    -2.4950     0.0990 C.ar  1 <1>   0.0860 
  8 C       -3.9190     2.4500     0.8050 C.3   1 <1>   0.1200 
  9 C       -3.8960    -2.0030     1.3480 C.ar  1 <1>  -0.1500 
 10 C       -3.1680    -3.8880    -0.1040 C.2   1 <1>   0.5440 
 11 C       -4.7010     3.7540     0.9160 C.3   1 <1>  -0.2400 
 12 O       -2.0360    -4.1440    -0.4630 O.2   1 <1>  -0.5700 
 13 N       -4.0590    -4.9340     0.0880 N.am  1 <1>  -0.6600 
 14 C       -5.5410    -4.9310    -0.1290 C.3   1 <1>   0.2200 
 15 C       -3.5140    -6.3050     0.3190 C.3   1 <1>   0.0600 
 16 C       -6.0310    -4.1080    -1.3200 C.3   1 <1>  -0.1600 
 17 C       -6.3190    -4.4450     1.0920 C.3   1 <1>  -0.1600 
 18 C       -7.4590    -3.6710    -0.9630 C.3   1 <1>  -0.0800 
 19 C       -7.5350    -3.6620     0.5700 C.3   1 <1>  -0.0800 
 20 C       -7.7770    -2.2400    -1.4080 C.3   1 <1>  -0.1600 
 21 C       -7.5740    -2.1810     0.9940 C.3   1 <1>  -0.1600 
 22 C       -7.2350    -1.3870    -0.2670 C.3   1 <1>   0.4230 
 23 N       -7.7270     0.0260    -0.2460 N.4   1 <1>  -0.9590 
 24 C       -9.2020     0.1930    -0.0510 C.3   1 <1>   0.2630 
 25 C       -7.2910     0.7670    -1.4690 C.3   1 <1>   0.2630 
 26 H       -3.1090    -1.9300    -1.9240 H     1 <1>   0.1500 
 27 H       -4.6130    -0.3390     2.4890 H     1 <1>   0.1500 
 28 H       -3.3750     2.2490     1.7130 H     1 <1>   0.0800 
 29 H       -3.2330     2.4860    -0.0250 H     1 <1>   0.0800 
 30 H       -3.8650    -2.6690     2.1950 H     1 <1>   0.1500 
 31 H       -5.3880     3.7090     1.7430 H     1 <1>   0.0800 
 32 H       -5.2390     3.9460     0.0050 H     1 <1>   0.0800 
 33 H       -4.0210     4.5690     1.0850 H     1 <1>   0.0800 
 34 H       -5.8590    -5.9430    -0.3190 H     1 <1>   0.0800 
 35 H       -4.1010    -6.8160     1.0620 H     1 <1>   0.0800 
 36 H       -2.4960    -6.2550     0.6680 H     1 <1>   0.0800 
 37 H       -3.5350    -6.8630    -0.6010 H     1 <1>   0.0800 
 38 H       -5.4140    -3.2530    -1.4880 H     1 <1>   0.0800 
 39 H       -6.0270    -4.7050    -2.2150 H     1 <1>   0.0800 
 40 H       -6.6500    -5.2990     1.6570 H     1 <1>   0.0800 
 41 H       -5.7060    -3.8500     1.7350 H     1 <1>   0.0800 
 42 H       -8.1640    -4.3770    -1.3720 H     1 <1>   0.0800 
 43 H       -8.4410    -4.1510     0.8930 H     1 <1>   0.0800 
 44 H       -8.8430    -2.1360    -1.4910 H     1 <1>   0.0800 
 45 H       -7.3140    -2.0070    -2.3510 H     1 <1>   0.0800 
 46 H       -6.8860    -1.9610     1.7890 H     1 <1>   0.0800 
 47 H       -8.5690    -1.9700     1.3350 H     1 <1>   0.0800 
 48 H       -6.1620    -1.3810    -0.3600 H     1 <1>   0.0800 
 49 H       -7.2410     0.4790     0.5470 H     1 <1>   0.4500 
 50 H       -9.7440    -0.2900    -0.8470 H     1 <1>   0.0800 
 51 H       -9.4600     1.2400    -0.0470 H     1 <1>   0.0800 
 52 H       -9.5130    -0.2320     0.8890 H     1 <1>   0.0800 
 53 H       -7.7470     0.3450    -2.3490 H     1 <1>   0.0800 
 54 H       -6.2220     0.7140    -1.5740 H     1 <1>   0.0800 
 55 H       -7.5710     1.8050    -1.3970 H     1 <1>   0.0800 
@<TRIPOS>BOND
  1   1   2  1   
  2   2   3  ar  
  3   2   4  ar  
  4   3   5  1   
  5   3   6  ar  
  6   4   7  ar  
  7   4  26  1   
  8   5   8  1   
  9   6   9  ar  
 10   6  27  1   
 11   7   9  ar  
 12   7  10  1   
 13   8  11  1   
 14   8  28  1   
 15   8  29  1   
 16   9  30  1   
 17  10  12  2   
 18  10  13  am  
 19  11  31  1   
 20  11  32  1   
 21  11  33  1   
 22  13  14  1   
 23  13  15  1   
 24  14  16  1   
 25  14  17  1   
 26  14  34  1   
 27  15  35  1   
 28  15  36  1   
 29  15  37  1   
 30  16  18  1   
 31  16  38  1   
 32  16  39  1   
 33  17  19  1   
 34  17  40  1   
 35  17  41  1   
 36  18  19  1   
 37  18  20  1   
 38  18  42  1   
 39  19  21  1   
 40  19  43  1   
 41  20  22  1   
 42  20  44  1   
 43  20  45  1   
 44  21  22  1   
 45  21  46  1   
 46  21  47  1   
 47  22  23  1   
 48  22  48  1   
 49  23  24  1   
 50  23  25  1   
 51  23  49  1   
 52  24  50  1   
 53  24  51  1   
 54  24  52  1   
 55  25  53  1   
 56  25  54  1   
 57  25  55  1   
@<TRIPOS>SUBSTRUCTURE
  1 ****  22 GROUP 4 **** **** 0

# MOE 2024.06 (io_trps.svl 2023.06)
