@<TRIPOS>MOLECULE
NONAME
60 63 1 0 0 
SMALL
USER_CHARGES


@<TRIPOS>ATOM
  1 F        0.5360     0.5420     1.9510 F     1 <1>  -0.1900 
  2 C        1.5890     0.5100     1.1770 C.ar  1 <1>   0.1900 
  3 C        2.4930    -0.5200     1.3290 C.ar  1 <1>  -0.1500 
  4 C        1.7490     1.5070     0.2350 C.ar  1 <1>  -0.1500 
  5 C        3.6220    -0.5880     0.5120 C.ar  1 <1>   0.0860 
  6 C        2.8700     1.4650    -0.5730 C.ar  1 <1>  -0.1500 
  7 C        4.5410    -1.7000     0.6650 C.2   1 <1>   0.5440 
  8 C        3.7990     0.4420    -0.4290 C.ar  1 <1>   0.0830 
  9 O        5.6490    -1.4990     1.1340 O.2   1 <1>  -0.5700 
 10 N        4.1540    -2.9980     0.3800 N.am  1 <1>  -0.6600 
 11 O        4.8770     0.4720    -1.2330 O.3   1 <1>  -0.3630 
 12 C        4.9640    -4.1710     0.8710 C.3   1 <1>   0.1400 
 13 C        2.8210    -3.3180    -0.2160 C.3   1 <1>   0.1400 
 14 C        6.0460     1.0530    -0.6990 C.3   1 <1>   0.1200 
 15 C        4.9620    -5.4210    -0.0470 C.3   1 <1>   0.2800 
 16 C        2.9020    -4.4880    -1.1980 C.3   1 <1>  -0.1600 
 17 C        7.2440     0.2290    -1.1680 C.3   1 <1>  -0.1600 
 18 O        5.7450    -5.1580    -1.1650 O.3   1 <1>  -0.6800 
 19 C        5.5510    -6.6530     0.6920 C.3   1 <1>   0.1400 
 20 C        3.5440    -5.7250    -0.5540 C.3   1 <1>  -0.1600 
 21 C        8.4780     0.5080    -0.2910 C.3   1 <1>   0.0960 
 22 N        7.0240    -6.5530     0.9080 N.am  1 <1>  -0.7300 
 23 N        9.4410    -0.6060    -0.3610 N.pl3 1 <1>   0.3140 
 24 C        7.9310    -6.8640    -0.0510 C.2   1 <1>   0.5690 
 25 N       10.7140    -0.4990    -0.7590 N.2   1 <1>  -0.4180 
 26 C        9.1840    -1.8700    -0.0430 C.2   1 <1>  -0.3020 
 27 O        7.6170    -7.4810    -1.0390 O.2   1 <1>  -0.5700 
 28 C        9.3300    -6.2920     0.0620 C.3   1 <1>  -0.0990 
 29 N       11.2540    -1.6710    -0.7120 N.2   1 <1>  -0.2270 
 30 C       10.3240    -2.5320    -0.2840 C.2   1 <1>   0.0460 
 31 C        9.2390    -4.7600    -0.0040 C.3   1 <1>  -0.1600 
 32 C       10.5790    -4.0240    -0.1420 C.3   1 <1>   0.0210 
 33 H        2.3250    -1.2710     2.0790 H     1 <1>   0.1500 
 34 H        1.0170     2.2900     0.1430 H     1 <1>   0.1500 
 35 H        3.0320     2.2230    -1.3190 H     1 <1>   0.1500 
 36 H        4.5640    -4.4520     1.8280 H     1 <1>   0.0800 
 37 H        5.9860    -3.8720     1.0270 H     1 <1>   0.0800 
 38 H        2.4330    -2.4630    -0.7420 H     1 <1>   0.0800 
 39 H        2.1370    -3.5640     0.5780 H     1 <1>   0.0800 
 40 H        5.9760     1.0350     0.3760 H     1 <1>   0.0800 
 41 H        6.1070     2.0720    -1.0390 H     1 <1>   0.0800 
 42 H        3.4730    -4.1810    -2.0580 H     1 <1>   0.0800 
 43 H        1.9110    -4.7320    -1.5380 H     1 <1>   0.0800 
 44 H        7.4650     0.4530    -2.1960 H     1 <1>   0.0800 
 45 H        6.9720    -0.8090    -1.0930 H     1 <1>   0.0800 
 46 H        6.2730    -5.9590    -1.3850 H     1 <1>   0.4000 
 47 H        5.3450    -7.5380     0.1120 H     1 <1>   0.0800 
 48 H        5.0600    -6.7780     1.6410 H     1 <1>   0.0800 
 49 H        2.9320    -6.0440     0.2720 H     1 <1>   0.0800 
 50 H        3.5780    -6.5300    -1.2670 H     1 <1>   0.0800 
 51 H        8.1860     0.6050     0.7390 H     1 <1>   0.0800 
 52 H        8.9670     1.4130    -0.6000 H     1 <1>   0.0800 
 53 H        7.3230    -5.9620     1.6850 H     1 <1>   0.3700 
 54 H        8.2230    -2.2000     0.3100 H     1 <1>   0.1500 
 55 H        9.9210    -6.6620    -0.7570 H     1 <1>   0.0800 
 56 H        9.7820    -6.6110     0.9830 H     1 <1>   0.0800 
 57 H        8.7390    -4.4040     0.8790 H     1 <1>   0.0800 
 58 H        8.6280    -4.4970    -0.8530 H     1 <1>   0.0800 
 59 H       11.2020    -4.2000     0.7160 H     1 <1>   0.0800 
 60 H       11.0950    -4.3700    -1.0200 H     1 <1>   0.0800 
@<TRIPOS>BOND
  1   1   2  1   
  2   2   3  ar  
  3   2   4  ar  
  4   3   5  ar  
  5   3  33  1   
  6   4   6  ar  
  7   4  34  1   
  8   5   7  1   
  9   5   8  ar  
 10   6   8  ar  
 11   6  35  1   
 12   7   9  2   
 13   7  10  am  
 14   8  11  1   
 15  10  12  1   
 16  10  13  1   
 17  11  14  1   
 18  12  15  1   
 19  12  36  1   
 20  12  37  1   
 21  13  16  1   
 22  13  38  1   
 23  13  39  1   
 24  14  17  1   
 25  14  40  1   
 26  14  41  1   
 27  15  18  1   
 28  15  19  1   
 29  15  20  1   
 30  16  20  1   
 31  16  42  1   
 32  16  43  1   
 33  17  21  1   
 34  17  44  1   
 35  17  45  1   
 36  18  46  1   
 37  19  22  1   
 38  19  47  1   
 39  19  48  1   
 40  20  49  1   
 41  20  50  1   
 42  21  23  1   
 43  21  51  1   
 44  21  52  1   
 45  22  24  am  
 46  22  53  1   
 47  23  25  1   
 48  23  26  1   
 49  24  27  2   
 50  24  28  1   
 51  25  29  2   
 52  26  30  2   
 53  26  54  1   
 54  28  31  1   
 55  28  55  1   
 56  28  56  1   
 57  29  30  1   
 58  30  32  1   
 59  31  32  1   
 60  31  57  1   
 61  31  58  1   
 62  32  59  1   
 63  32  60  1   
@<TRIPOS>SUBSTRUCTURE
  1 ****   9 GROUP 4 **** **** 0

# MOE 2024.06 (io_trps.svl 2023.06)
