@<TRIPOS>MOLECULE
NONAME
56 61 1 0 0 
SMALL
USER_CHARGES


@<TRIPOS>ATOM
  1 O        0.1260     0.6660     0.2420 O.2   1 <1>  -0.5700 
  2 C       -0.5630     1.6660     0.1040 C.2   1 <1>   0.7160 
  3 N       -1.9390     1.4980     0.2010 N.am  1 <1>  -0.6600 
  4 C        0.0950     2.9470    -0.1740 C.2   1 <1>   0.2030 
  5 C       -2.9470     2.4770    -0.3170 C.3   1 <1>   0.1400 
  6 C       -2.5480     0.2470     0.7380 C.3   1 <1>   0.1400 
  7 N       -0.3480     4.1670     0.1140 N.2   1 <1>  -0.7070 
  8 C        1.3470     3.0520    -0.8030 C.2   1 <1>  -0.1810 
  9 C       -3.9520     2.8710     0.7820 C.3   1 <1>   0.1430 
 10 C       -3.5630     0.5850     1.8370 C.3   1 <1>  -0.1600 
 11 N        0.5930     5.0170    -0.3280 N.pl3 1 <1>   0.3000 
 12 C        1.6160     4.3610    -0.8970 C.2   1 <1>  -0.3320 
 13 C        2.3000     1.9820    -1.3210 C.3   1 <1>   0.3010 
 14 C       -4.9580     3.8350     0.1820 C.ar  1 <1>   0.1670 
 15 C       -4.6150     1.6000     1.3550 C.3   1 <1>  -0.1600 
 16 C       -3.2920     3.7310     1.8920 C.3   1 <1>  -0.1600 
 17 C        2.8820     4.8880    -1.5370 C.3   1 <1>   0.0200 
 18 O        3.5540     2.5590    -1.6150 O.3   1 <1>  -0.5600 
 19 N       -5.9220     3.5130    -0.6470 N.ar  1 <1>  -0.6200 
 20 C       -4.7340     5.1120     0.5960 C.ar  1 <1>  -0.1440 
 21 C       -3.5500     5.2020     1.5250 C.3   1 <1>  -0.0170 
 22 C        3.5200     3.7500    -2.3590 C.3   1 <1>   0.1200 
 23 C       -6.7000     4.5230    -1.0600 C.ar  1 <1>   0.6200 
 24 C       -5.5710     6.0900     0.1270 C.ar  1 <1>   0.1600 
 25 N       -6.5560     5.8070    -0.6960 N.ar  1 <1>  -0.6200 
 26 C       -7.7860     4.2010    -1.9770 C.ar  1 <1>   0.0000 
 27 C       -8.9520     4.9700    -2.0310 C.ar  1 <1>  -0.1500 
 28 C       -7.7140     3.1080    -2.8450 C.ar  1 <1>  -0.1500 
 29 C       -9.9860     4.6680    -2.8990 C.ar  1 <1>  -0.1500 
 30 C       -8.7430     2.7980    -3.7160 C.ar  1 <1>  -0.1500 
 31 C       -9.8830     3.5790    -3.7450 C.ar  1 <1>  -0.1500 
 32 H       -3.4860     2.0120    -1.1240 H     1 <1>   0.0800 
 33 H       -2.4800     3.3550    -0.7190 H     1 <1>   0.0800 
 34 H       -1.7920    -0.4050     1.1430 H     1 <1>   0.0800 
 35 H       -3.0390    -0.2740    -0.0670 H     1 <1>   0.0800 
 36 H       -3.0330     0.9780     2.6870 H     1 <1>   0.0800 
 37 H       -4.0550    -0.3190     2.1520 H     1 <1>   0.0800 
 38 H        0.5140     6.0360    -0.2290 H     1 <1>   0.2700 
 39 H        1.9130     1.5280    -2.2160 H     1 <1>   0.0800 
 40 H        2.4610     1.2220    -0.5770 H     1 <1>   0.0800 
 41 H       -5.2100     1.1410     0.5840 H     1 <1>   0.0800 
 42 H       -5.2800     1.8590     2.1610 H     1 <1>   0.0800 
 43 H       -2.2420     3.5280     2.0070 H     1 <1>   0.0800 
 44 H       -3.7750     3.5350     2.8330 H     1 <1>   0.0800 
 45 H        3.5710     5.2130    -0.7780 H     1 <1>   0.0800 
 46 H        2.6660     5.7180    -2.1850 H     1 <1>   0.0800 
 47 H       -2.7050     5.6100     0.9980 H     1 <1>   0.0800 
 48 H       -3.7630     5.7970     2.3960 H     1 <1>   0.0800 
 49 H        4.5320     4.0010    -2.6260 H     1 <1>   0.0800 
 50 H        2.9550     3.5680    -3.2570 H     1 <1>   0.0800 
 51 H       -5.4340     7.1150     0.4270 H     1 <1>   0.1500 
 52 H       -9.0510     5.8210    -1.3800 H     1 <1>   0.1500 
 53 H       -6.8340     2.4880    -2.8390 H     1 <1>   0.1500 
 54 H      -10.8700     5.2800    -2.9160 H     1 <1>   0.1500 
 55 H       -8.6560     1.9490    -4.3720 H     1 <1>   0.1500 
 56 H      -10.6860     3.3410    -4.4220 H     1 <1>   0.1500 
@<TRIPOS>BOND
  1   1   2  2   
  2   2   3  am  
  3   2   4  1   
  4   3   5  1   
  5   3   6  1   
  6   4   7  2   
  7   4   8  1   
  8   5   9  1   
  9   5  32  1   
 10   5  33  1   
 11   6  10  1   
 12   6  34  1   
 13   6  35  1   
 14   7  11  1   
 15   8  12  2   
 16   8  13  1   
 17   9  14  1   
 18   9  15  1   
 19   9  16  1   
 20  10  15  1   
 21  10  36  1   
 22  10  37  1   
 23  11  12  1   
 24  11  38  1   
 25  12  17  1   
 26  13  18  1   
 27  13  39  1   
 28  13  40  1   
 29  14  19  ar  
 30  14  20  ar  
 31  15  41  1   
 32  15  42  1   
 33  16  21  1   
 34  16  43  1   
 35  16  44  1   
 36  17  22  1   
 37  17  45  1   
 38  17  46  1   
 39  18  22  1   
 40  19  23  ar  
 41  20  21  1   
 42  20  24  ar  
 43  21  47  1   
 44  21  48  1   
 45  22  49  1   
 46  22  50  1   
 47  23  25  ar  
 48  23  26  1   
 49  24  25  ar  
 50  24  51  1   
 51  26  27  ar  
 52  26  28  ar  
 53  27  29  ar  
 54  27  52  1   
 55  28  30  ar  
 56  28  53  1   
 57  29  31  ar  
 58  29  54  1   
 59  30  31  ar  
 60  30  55  1   
 61  31  56  1   
@<TRIPOS>SUBSTRUCTURE
  1 ****   5 GROUP 4 **** **** 0

# MOE 2024.06 (io_trps.svl 2023.06)
