@<TRIPOS>MOLECULE
NONAME
49 51 1 0 0 
SMALL
USER_CHARGES


@<TRIPOS>ATOM
  1 O       -1.0840    -0.8970    -1.6110 O.co2 1 <1>  -0.9000 
  2 C       -1.9530    -0.4540    -0.8550 C.2   1 <1>   0.9060 
  3 O       -1.7140     0.2870     0.1030 O.co2 1 <1>  -0.9000 
  4 C       -3.3680    -1.0220    -0.9760 C.3   1 <1>   0.2370 
  5 N       -3.5760    -2.3680    -0.2940 N.4   1 <1>  -0.9590 
  6 C       -3.3190    -2.2690     1.1890 C.3   1 <1>   0.4230 
  7 C       -2.8050    -3.4350    -1.0070 C.3   1 <1>   0.3430 
  8 C       -1.8520    -2.4860     1.6440 C.3   1 <1>   0.1200 
  9 C       -4.2780    -3.2560     1.9010 C.3   1 <1>   0.1400 
 10 C       -2.5260    -4.7230    -0.2020 C.3   1 <1>  -0.0800 
 11 O       -1.5500    -3.8430     1.8230 O.3   1 <1>  -0.5600 
 12 N       -4.7490    -4.3720     0.9980 N.am  1 <1>  -0.6600 
 13 C       -1.2700    -4.5490     0.6640 C.3   1 <1>   0.1200 
 14 C       -3.7100    -5.3590     0.5750 C.3   1 <1>   0.1400 
 15 C       -5.9750    -4.2940     0.3900 C.2   1 <1>   0.5690 
 16 O       -6.4370    -3.2020     0.1450 O.2   1 <1>  -0.5700 
 17 C       -6.7510    -5.5240    -0.0850 C.3   1 <1>   0.1810 
 18 O       -6.4930    -6.6590     0.7260 O.3   1 <1>  -0.3630 
 19 C       -6.9910    -7.8790     0.4060 C.ar  1 <1>   0.0830 
 20 C       -7.8770    -8.1050    -0.6440 C.ar  1 <1>  -0.1500 
 21 C       -6.5750    -8.9460     1.1850 C.ar  1 <1>  -0.1500 
 22 C       -8.3240    -9.3880    -0.9070 C.ar  1 <1>  -0.1500 
 23 C       -7.0240   -10.2270     0.9190 C.ar  1 <1>  -0.1500 
 24 C       -7.8990   -10.4550    -0.1310 C.ar  1 <1>  -0.1430 
 25 C       -8.3940   -11.8600    -0.4230 C.3   1 <1>  -0.0970 
 26 H       -3.5880    -1.1060    -2.0240 H     1 <1>   0.0800 
 27 H       -4.0340    -0.2940    -0.5500 H     1 <1>   0.0800 
 28 H       -4.5800    -2.6230    -0.3420 H     1 <1>   0.4500 
 29 H       -3.5830    -1.2720     1.5030 H     1 <1>   0.0800 
 30 H       -3.3430    -3.6980    -1.9030 H     1 <1>   0.0800 
 31 H       -1.8550    -3.0310    -1.3200 H     1 <1>   0.0800 
 32 H       -1.7250    -2.0200     2.6050 H     1 <1>   0.0800 
 33 H       -1.1350    -2.0410     0.9770 H     1 <1>   0.0800 
 34 H       -5.1330    -2.7000     2.2440 H     1 <1>   0.0800 
 35 H       -3.8150    -3.6720     2.7800 H     1 <1>   0.0800 
 36 H       -2.2320    -5.4520    -0.9360 H     1 <1>   0.0800 
 37 H       -0.4810    -4.0430     0.1290 H     1 <1>   0.0800 
 38 H       -0.9010    -5.5130     0.9710 H     1 <1>   0.0800 
 39 H       -3.3440    -5.8740     1.4480 H     1 <1>   0.0800 
 40 H       -4.1620    -6.1020    -0.0570 H     1 <1>   0.0800 
 41 H       -6.4660    -5.7550    -1.0950 H     1 <1>   0.0800 
 42 H       -7.8040    -5.3170    -0.0410 H     1 <1>   0.0800 
 43 H       -8.2340    -7.3050    -1.2640 H     1 <1>   0.1500 
 44 H       -5.8980    -8.7690     2.0010 H     1 <1>   0.1500 
 45 H       -9.0090    -9.5560    -1.7200 H     1 <1>   0.1500 
 46 H       -6.6920   -11.0450     1.5340 H     1 <1>   0.1500 
 47 H       -8.6030   -11.9760    -1.4710 H     1 <1>   0.0800 
 48 H       -9.2930   -12.0520     0.1350 H     1 <1>   0.0800 
 49 H       -7.6510   -12.5860    -0.1440 H     1 <1>   0.0800 
@<TRIPOS>BOND
  1   1   2  ar  
  2   2   3  ar  
  3   2   4  1   
  4   4   5  1   
  5   4  26  1   
  6   4  27  1   
  7   5   6  1   
  8   5   7  1   
  9   5  28  1   
 10   6   8  1   
 11   6   9  1   
 12   6  29  1   
 13   7  10  1   
 14   7  30  1   
 15   7  31  1   
 16   8  11  1   
 17   8  32  1   
 18   8  33  1   
 19   9  12  1   
 20   9  34  1   
 21   9  35  1   
 22  10  13  1   
 23  10  14  1   
 24  10  36  1   
 25  11  13  1   
 26  12  14  1   
 27  12  15  am  
 28  13  37  1   
 29  13  38  1   
 30  14  39  1   
 31  14  40  1   
 32  15  16  2   
 33  15  17  1   
 34  17  18  1   
 35  17  41  1   
 36  17  42  1   
 37  18  19  1   
 38  19  20  ar  
 39  19  21  ar  
 40  20  22  ar  
 41  20  43  1   
 42  21  23  ar  
 43  21  44  1   
 44  22  24  ar  
 45  22  45  1   
 46  23  24  ar  
 47  23  46  1   
 48  24  25  1   
 49  25  47  1   
 50  25  48  1   
 51  25  49  1   
@<TRIPOS>SUBSTRUCTURE
  1 ****  12 GROUP 4 **** **** 0

# MOE 2024.06 (io_trps.svl 2023.06)
