@<TRIPOS>MOLECULE
NONAME
40 41 1 0 0 
SMALL
USER_CHARGES


@<TRIPOS>ATOM
  1 O       -1.0690    -0.7290     0.9500 O.2   1 <1>  -0.5700 
  2 C       -1.9300    -0.1850     0.3030 C.2   1 <1>   0.5690 
  3 N       -2.9120    -0.8060    -0.3820 N.am  1 <1>  -0.6600 
  4 C       -2.0520     1.3070     0.1700 C.3   1 <1>  -0.0990 
  5 C       -3.8340     0.1240    -1.0510 C.3   1 <1>   0.1400 
  6 C       -3.0800    -2.2740    -0.5010 C.3   1 <1>   0.1400 
  7 C       -3.4180     1.5020    -0.5140 C.3   1 <1>  -0.1600 
  8 C       -3.8430    -2.8120     0.7110 C.3   1 <1>   0.1400 
  9 N       -4.0800    -4.2690     0.5650 N.am  1 <1>  -0.7300 
 10 C       -5.0700    -4.8330    -0.1780 C.2   1 <1>   0.7150 
 11 O       -5.8220    -4.1040    -0.7940 O.2   1 <1>  -0.5700 
 12 C       -5.1550    -6.2660    -0.2240 C.2   1 <1>  -0.2370 
 13 N       -6.3080    -7.0270    -0.1880 N.pl3 1 <1>   0.0480 
 14 C       -4.0900    -7.1290    -0.3070 C.2   1 <1>  -0.1500 
 15 C       -5.9320    -8.3310    -0.2510 C.2   1 <1>  -0.3020 
 16 C       -7.7460    -6.6410    -0.0440 C.3   1 <1>   0.1760 
 17 C       -4.5800    -8.4280    -0.3250 C.2   1 <1>  -0.1500 
 18 C       -8.3220    -6.1170    -1.3640 C.3   1 <1>  -0.2400 
 19 C       -7.9830    -5.6740     1.1240 C.3   1 <1>  -0.2400 
 20 H       -1.2510     1.6680    -0.4490 H     1 <1>   0.0800 
 21 H       -2.0140     1.7770     1.1350 H     1 <1>   0.0800 
 22 H       -4.8560    -0.1060    -0.8020 H     1 <1>   0.0800 
 23 H       -3.6930     0.0650    -2.1170 H     1 <1>   0.0800 
 24 H       -2.1080    -2.7350    -0.5450 H     1 <1>   0.0800 
 25 H       -3.6180    -2.5010    -1.4050 H     1 <1>   0.0800 
 26 H       -3.3730     2.2310    -1.3030 H     1 <1>   0.0800 
 27 H       -4.1440     1.8250     0.2120 H     1 <1>   0.0800 
 28 H       -4.7910    -2.3070     0.7880 H     1 <1>   0.0800 
 29 H       -3.2760    -2.6290     1.6070 H     1 <1>   0.0800 
 30 H       -3.4580    -4.8940     1.0770 H     1 <1>   0.3700 
 31 H       -3.0470    -6.8700    -0.3590 H     1 <1>   0.1500 
 32 H       -6.6420    -9.1390    -0.2390 H     1 <1>   0.1500 
 33 H       -8.2790    -7.5440     0.1930 H     1 <1>   0.0800 
 34 H       -3.9850    -9.3230    -0.3880 H     1 <1>   0.1500 
 35 H       -7.8740    -5.1820    -1.6440 H     1 <1>   0.0800 
 36 H       -9.3810    -5.9620    -1.2640 H     1 <1>   0.0800 
 37 H       -8.1560    -6.8330    -2.1490 H     1 <1>   0.0800 
 38 H       -7.6020    -4.6940     0.9070 H     1 <1>   0.0800 
 39 H       -7.5150    -6.0490     2.0160 H     1 <1>   0.0800 
 40 H       -9.0380    -5.5820     1.3060 H     1 <1>   0.0800 
@<TRIPOS>BOND
  1   1   2  2   
  2   2   3  am  
  3   2   4  1   
  4   3   5  1   
  5   3   6  1   
  6   4   7  1   
  7   4  20  1   
  8   4  21  1   
  9   5   7  1   
 10   5  22  1   
 11   5  23  1   
 12   6   8  1   
 13   6  24  1   
 14   6  25  1   
 15   7  26  1   
 16   7  27  1   
 17   8   9  1   
 18   8  28  1   
 19   8  29  1   
 20   9  10  am  
 21   9  30  1   
 22  10  11  2   
 23  10  12  1   
 24  12  13  1   
 25  12  14  2   
 26  13  15  1   
 27  13  16  1   
 28  14  17  1   
 29  14  31  1   
 30  15  17  2   
 31  15  32  1   
 32  16  18  1   
 33  16  19  1   
 34  16  33  1   
 35  17  34  1   
 36  18  35  1   
 37  18  36  1   
 38  18  37  1   
 39  19  38  1   
 40  19  39  1   
 41  19  40  1   
@<TRIPOS>SUBSTRUCTURE
  1 ****   9 GROUP 4 **** **** 0

# MOE 2024.06 (io_trps.svl 2023.06)
