@<TRIPOS>MOLECULE
NONAME
52 55 1 0 0 
SMALL
USER_CHARGES


@<TRIPOS>ATOM
  1 O        0.2800    -1.1390     0.5890 O.3   1 <1>  -0.0190 
  2 N       -0.7040    -0.5110     0.0230 N.2   1 <1>  -0.4100 
  3 C        1.3450    -0.4580     0.2410 C.2   1 <1>   0.2980 
  4 C       -0.2050     0.4800    -0.6060 C.2   1 <1>   0.3350 
  5 N        1.1140     0.5630    -0.4920 N.2   1 <1>  -0.5650 
  6 C        2.7030    -0.9540     0.7640 C.3   1 <1>   0.4690 
  7 C       -0.9830     1.5150    -1.4230 C.3   1 <1>   0.1010 
  8 N        3.1250    -2.2630     0.1830 N.pl3 1 <1>  -0.8380 
  9 C        3.8790    -0.0190     0.4750 C.3   1 <1>  -0.1600 
 10 C       -1.2450     2.7770    -0.5890 C.3   1 <1>  -0.2400 
 11 C       -2.3090     0.9610    -1.9690 C.3   1 <1>  -0.2400 
 12 C        2.5840    -3.3730     0.7860 C.ar  1 <1>   0.4100 
 13 C        4.5810    -2.2420    -0.1040 C.3   1 <1>   0.2090 
 14 C        5.0960    -0.9350     0.4870 C.3   1 <1>  -0.1600 
 15 N        3.1520    -3.8150     1.8910 N.ar  1 <1>  -0.6200 
 16 C        1.4610    -3.9650     0.2700 C.ar  1 <1>  -0.1500 
 17 C        2.5570    -4.8560     2.4410 C.ar  1 <1>   0.4700 
 18 C        0.9070    -5.0230     0.9470 C.ar  1 <1>   0.4100 
 19 N        1.4720    -5.4920     2.0470 N.ar  1 <1>  -0.6200 
 20 N       -0.2650    -5.6120     0.5140 N.pl3 1 <1>  -0.8380 
 21 C       -1.4650    -4.7480     0.3450 C.3   1 <1>   0.2090 
 22 C       -0.5630    -7.0220     0.8820 C.3   1 <1>   0.2090 
 23 C       -2.3670    -5.3440    -0.7340 C.3   1 <1>  -0.1600 
 24 C       -1.4640    -7.6440    -0.1850 C.3   1 <1>  -0.1600 
 25 C       -2.7170    -6.7920    -0.3880 C.3   1 <1>   0.2000 
 26 O       -3.4440    -7.3260    -1.4280 O.3   1 <1>  -0.6800 
 27 H        2.6220    -1.0710     1.8310 H     1 <1>   0.0800 
 28 H       -0.3680     1.7870    -2.2630 H     1 <1>   0.0800 
 29 H        3.7650     0.4130    -0.5040 H     1 <1>   0.0800 
 30 H        3.9450     0.7700     1.2020 H     1 <1>   0.0800 
 31 H       -1.8500     2.5360     0.2680 H     1 <1>   0.0800 
 32 H       -1.7520     3.5200    -1.1770 H     1 <1>   0.0800 
 33 H       -0.3130     3.1880    -0.2450 H     1 <1>   0.0800 
 34 H       -2.9660     0.6940    -1.1600 H     1 <1>   0.0800 
 35 H       -2.1220     0.0820    -2.5610 H     1 <1>   0.0800 
 36 H       -2.7970     1.6940    -2.5860 H     1 <1>   0.0800 
 37 H        5.0880    -3.0920     0.3220 H     1 <1>   0.0800 
 38 H        4.7210    -2.2480    -1.1720 H     1 <1>   0.0800 
 39 H        5.4170    -1.1140     1.4990 H     1 <1>   0.0800 
 40 H        5.9190    -0.5370    -0.0800 H     1 <1>   0.0800 
 41 H        1.0240    -3.5990    -0.6360 H     1 <1>   0.1500 
 42 H        3.0180    -5.2360     3.3370 H     1 <1>   0.1500 
 43 H       -1.9940    -4.6950     1.2810 H     1 <1>   0.0800 
 44 H       -1.1790    -3.7470     0.0680 H     1 <1>   0.0800 
 45 H        0.3550    -7.5830     0.9510 H     1 <1>   0.0800 
 46 H       -1.0470    -7.0430     1.8440 H     1 <1>   0.0800 
 47 H       -1.8490    -5.2970    -1.6750 H     1 <1>   0.0800 
 48 H       -3.2670    -4.7600    -0.8020 H     1 <1>   0.0800 
 49 H       -1.7450    -8.6340     0.1260 H     1 <1>   0.0800 
 50 H       -0.9050    -7.7120    -1.1000 H     1 <1>   0.0800 
 51 H       -3.3340    -6.8230     0.4950 H     1 <1>   0.0800 
 52 H       -2.9070    -7.3120    -2.2430 H     1 <1>   0.4000 
@<TRIPOS>BOND
  1   1   2  1   
  2   1   3  1   
  3   2   4  2   
  4   3   5  2   
  5   3   6  1   
  6   4   5  1   
  7   4   7  1   
  8   6   8  1   
  9   6   9  1   
 10   6  27  1   
 11   7  10  1   
 12   7  11  1   
 13   7  28  1   
 14   8  12  1   
 15   8  13  1   
 16   9  14  1   
 17   9  29  1   
 18   9  30  1   
 19  10  31  1   
 20  10  32  1   
 21  10  33  1   
 22  11  34  1   
 23  11  35  1   
 24  11  36  1   
 25  12  15  ar  
 26  12  16  ar  
 27  13  14  1   
 28  13  37  1   
 29  13  38  1   
 30  14  39  1   
 31  14  40  1   
 32  15  17  ar  
 33  16  18  ar  
 34  16  41  1   
 35  17  19  ar  
 36  17  42  1   
 37  18  19  ar  
 38  18  20  1   
 39  20  21  1   
 40  20  22  1   
 41  21  23  1   
 42  21  43  1   
 43  21  44  1   
 44  22  24  1   
 45  22  45  1   
 46  22  46  1   
 47  23  25  1   
 48  23  47  1   
 49  23  48  1   
 50  24  25  1   
 51  24  49  1   
 52  24  50  1   
 53  25  26  1   
 54  25  51  1   
 55  26  52  1   
@<TRIPOS>SUBSTRUCTURE
  1 ****  16 GROUP 4 **** **** 0

# MOE 2024.06 (io_trps.svl 2023.06)
