@<TRIPOS>MOLECULE
NONAME
42 43 1 0 0 
SMALL
USER_CHARGES


@<TRIPOS>ATOM
  1 F        0.1370     1.4030     1.8920 F     1 <1>  -0.1900 
  2 C        0.3420     2.6590     1.6110 C.ar  1 <1>   0.1900 
  3 C        0.1020     3.6120     2.5820 C.ar  1 <1>  -0.1500 
  4 C        0.7940     2.9980     0.3510 C.ar  1 <1>  -0.1500 
  5 C        0.3210     4.9430     2.2720 C.ar  1 <1>  -0.1500 
  6 C        1.0080     4.3350     0.0580 C.ar  1 <1>  -0.1500 
  7 C        0.7710     5.3380     1.0070 C.ar  1 <1>   0.0860 
  8 C        0.9810     6.7450     0.7060 C.2   1 <1>   0.5440 
  9 O        1.2630     7.5350     1.5860 O.2   1 <1>  -0.5700 
 10 N        0.8580     7.2190    -0.5720 N.am  1 <1>  -0.7300 
 11 C        0.9750     8.6480    -0.9480 C.3   1 <1>   0.1400 
 12 C        2.4450     9.0080    -1.1430 C.3   1 <1>  -0.0990 
 13 C        2.5800    10.5000    -1.3120 C.2   1 <1>   0.5690 
 14 O        2.5560    10.9690    -2.4220 O.2   1 <1>  -0.5700 
 15 N        2.7120    11.2630    -0.1990 N.am  1 <1>  -0.7300 
 16 C        2.8450    12.7320    -0.1890 C.3   1 <1>   0.1400 
 17 C        4.2870    13.0940     0.1580 C.3   1 <1>  -0.1600 
 18 C        4.5030    14.6110     0.1190 C.3   1 <1>   0.0200 
 19 C        5.9270    14.9630     0.5030 C.2   1 <1>   0.0060 
 20 N        6.2570    15.4460     1.6560 N.2   1 <1>  -0.5650 
 21 N        6.9760    14.7960    -0.3320 N.pl3 1 <1>   0.0330 
 22 C        7.5920    15.6050     1.5710 C.2   1 <1>   0.0770 
 23 C        8.0490    15.2120     0.3620 C.2   1 <1>  -0.3020 
 24 H       -0.2450     3.3140     3.5550 H     1 <1>   0.1500 
 25 H        0.9750     2.2280    -0.3780 H     1 <1>   0.1500 
 26 H        0.1420     5.6980     3.0190 H     1 <1>   0.1500 
 27 H        1.3730     4.6010    -0.9170 H     1 <1>   0.1500 
 28 H        0.5470     6.5900    -1.3130 H     1 <1>   0.3700 
 29 H        0.5540     9.2540    -0.1630 H     1 <1>   0.0800 
 30 H        0.4220     8.8370    -1.8530 H     1 <1>   0.0800 
 31 H        2.8310     8.5180    -2.0170 H     1 <1>   0.0800 
 32 H        3.0170     8.7000    -0.2880 H     1 <1>   0.0800 
 33 H        2.7330    10.8080     0.7180 H     1 <1>   0.3700 
 34 H        2.1670    13.1480     0.5380 H     1 <1>   0.0800 
 35 H        2.5890    13.1260    -1.1590 H     1 <1>   0.0800 
 36 H        4.9480    12.6230    -0.5480 H     1 <1>   0.0800 
 37 H        4.5230    12.7350     1.1450 H     1 <1>   0.0800 
 38 H        3.8330    15.0890     0.8130 H     1 <1>   0.0800 
 39 H        4.2920    14.9950    -0.8640 H     1 <1>   0.0800 
 40 H        6.9510    14.4290    -1.2870 H     1 <1>   0.2700 
 41 H        8.1600    16.0000     2.3970 H     1 <1>   0.1500 
 42 H        9.0510    15.2080    -0.0270 H     1 <1>   0.1500 
@<TRIPOS>BOND
  1   1   2  1   
  2   2   3  ar  
  3   2   4  ar  
  4   3   5  ar  
  5   3  24  1   
  6   4   6  ar  
  7   4  25  1   
  8   5   7  ar  
  9   5  26  1   
 10   6   7  ar  
 11   6  27  1   
 12   7   8  1   
 13   8   9  2   
 14   8  10  am  
 15  10  11  1   
 16  10  28  1   
 17  11  12  1   
 18  11  29  1   
 19  11  30  1   
 20  12  13  1   
 21  12  31  1   
 22  12  32  1   
 23  13  14  2   
 24  13  15  am  
 25  15  16  1   
 26  15  33  1   
 27  16  17  1   
 28  16  34  1   
 29  16  35  1   
 30  17  18  1   
 31  17  36  1   
 32  17  37  1   
 33  18  19  1   
 34  18  38  1   
 35  18  39  1   
 36  19  20  2   
 37  19  21  1   
 38  20  22  1   
 39  21  23  1   
 40  21  40  1   
 41  22  23  2   
 42  22  41  1   
 43  23  42  1   
@<TRIPOS>SUBSTRUCTURE
  1 ****  12 GROUP 4 **** **** 0

# MOE 2024.06 (io_trps.svl 2023.06)
