@<TRIPOS>MOLECULE
NONAME
47 50 1 0 0 
SMALL
USER_CHARGES


@<TRIPOS>ATOM
  1 F       -2.5800    -1.1600     2.2420 F     1 <1>  -0.1900 
  2 C       -2.0830    -2.2190     1.6560 C.ar  1 <1>   0.1900 
  3 C       -2.6910    -3.4350     1.8510 C.ar  1 <1>  -0.1500 
  4 C       -0.9480    -2.0500     0.8560 C.ar  1 <1>  -0.1500 
  5 C       -2.1350    -4.5400     1.2110 C.ar  1 <1>   0.2270 
  6 C       -0.4010    -3.1460     0.2250 C.ar  1 <1>  -0.1500 
  7 N       -2.5350    -5.8410     1.2310 N.2   1 <1>  -0.5650 
  8 C       -1.0110    -4.3910     0.4140 C.ar  1 <1>  -0.1520 
  9 C       -1.6850    -6.4490     0.4790 C.2   1 <1>   0.0060 
 10 N       -0.7350    -5.6360    -0.0490 N.pl3 1 <1>   0.0330 
 11 C       -1.7390    -7.9350     0.1940 C.3   1 <1>   0.0200 
 12 C       -2.5840    -8.2040    -1.0540 C.3   1 <1>  -0.0990 
 13 C       -2.7870    -9.6920    -1.2380 C.2   1 <1>   0.5690 
 14 O       -1.9440   -10.2950    -1.8570 O.2   1 <1>  -0.5700 
 15 N       -3.8740   -10.3170    -0.6950 N.am  1 <1>  -0.6600 
 16 C       -4.9330    -9.6940     0.1420 C.3   1 <1>   0.1400 
 17 C       -4.0840   -11.7810    -0.7920 C.3   1 <1>   0.1400 
 18 C       -5.8200   -10.8560     0.5960 C.3   1 <1>   0.2000 
 19 C       -4.9920   -12.1230     0.3900 C.3   1 <1>  -0.0800 
 20 O       -6.1740   -10.7380     1.9300 O.3   1 <1>  -0.6800 
 21 C       -5.8670   -13.3700     0.1760 C.3   1 <1>  -0.0160 
 22 C       -5.0290   -14.6280     0.0080 C.ar  1 <1>   0.1670 
 23 N       -4.5380   -14.8530    -1.2000 N.ar  1 <1>  -0.6200 
 24 C       -4.8120   -15.4720     1.0960 C.ar  1 <1>   0.1600 
 25 C       -3.8200   -15.9630    -1.2460 C.ar  1 <1>   0.1600 
 26 N       -4.0940   -16.5820     1.0530 N.ar  1 <1>  -0.6200 
 27 C       -3.6050   -16.7980    -0.1560 C.ar  1 <1>   0.1600 
 28 H       -3.5610    -3.5520     2.4670 H     1 <1>   0.1500 
 29 H       -0.5240    -1.0680     0.7490 H     1 <1>   0.1500 
 30 H        0.4720    -3.0540    -0.3990 H     1 <1>   0.1500 
 31 H        0.0330    -5.9010    -0.6710 H     1 <1>   0.2700 
 32 H       -0.7470    -8.3290     0.0630 H     1 <1>   0.0800 
 33 H       -2.1810    -8.4280     1.0420 H     1 <1>   0.0800 
 34 H       -2.0830    -7.8130    -1.9200 H     1 <1>   0.0800 
 35 H       -3.5310    -7.7040    -0.9730 H     1 <1>   0.0800 
 36 H       -4.4850    -9.1960     0.9840 H     1 <1>   0.0800 
 37 H       -5.5030    -8.9930    -0.4430 H     1 <1>   0.0800 
 38 H       -4.5670   -12.0050    -1.7280 H     1 <1>   0.0800 
 39 H       -3.1490   -12.3140    -0.7420 H     1 <1>   0.0800 
 40 H       -6.7210   -10.8760     0.0060 H     1 <1>   0.0800 
 41 H       -4.3540   -12.2770     1.2420 H     1 <1>   0.0800 
 42 H       -5.3770   -10.6790     2.4920 H     1 <1>   0.4000 
 43 H       -6.4830   -13.2420    -0.6980 H     1 <1>   0.0800 
 44 H       -6.5250   -13.4870     1.0190 H     1 <1>   0.0800 
 45 H       -5.2490   -15.2170     2.0450 H     1 <1>   0.1500 
 46 H       -3.3790   -16.2240    -2.1920 H     1 <1>   0.1500 
 47 H       -3.0040   -17.6800    -0.2930 H     1 <1>   0.1500 
@<TRIPOS>BOND
  1   1   2  1   
  2   2   3  ar  
  3   2   4  ar  
  4   3   5  ar  
  5   3  28  1   
  6   4   6  ar  
  7   4  29  1   
  8   5   7  1   
  9   5   8  ar  
 10   6   8  ar  
 11   6  30  1   
 12   7   9  2   
 13   8  10  1   
 14   9  10  1   
 15   9  11  1   
 16  10  31  1   
 17  11  12  1   
 18  11  32  1   
 19  11  33  1   
 20  12  13  1   
 21  12  34  1   
 22  12  35  1   
 23  13  14  2   
 24  13  15  am  
 25  15  16  1   
 26  15  17  1   
 27  16  18  1   
 28  16  36  1   
 29  16  37  1   
 30  17  19  1   
 31  17  38  1   
 32  17  39  1   
 33  18  19  1   
 34  18  20  1   
 35  18  40  1   
 36  19  21  1   
 37  19  41  1   
 38  20  42  1   
 39  21  22  1   
 40  21  43  1   
 41  21  44  1   
 42  22  23  ar  
 43  22  24  ar  
 44  23  25  ar  
 45  24  26  ar  
 46  24  45  1   
 47  25  27  ar  
 48  25  46  1   
 49  26  27  ar  
 50  27  47  1   
@<TRIPOS>SUBSTRUCTURE
  1 ****  15 GROUP 4 **** **** 0

# MOE 2024.06 (io_trps.svl 2023.06)
