@<TRIPOS>MOLECULE
NONAME
41 43 1 0 0 
SMALL
USER_CHARGES


@<TRIPOS>ATOM
  1 O       -1.0670    -1.4530     0.6590 O.2   1 <1>  -0.5700 
  2 C        0.0980    -1.7860     0.6790 C.2   1 <1>   0.7800 
  3 O        0.8590    -1.6270     1.7500 O.3   1 <1>  -0.4300 
  4 N        0.7630    -2.3960    -0.3230 N.am  1 <1>  -0.6600 
  5 C        2.1460    -2.1790     1.5400 C.3   1 <1>   0.1200 
  6 C        2.1060    -2.7710     0.1250 C.3   1 <1>   0.1400 
  7 C        0.1330    -3.0110    -1.5300 C.3   1 <1>   0.2010 
  8 C       -0.0290    -4.5280    -1.4090 C.2   1 <1>   0.5690 
  9 O        0.8300    -5.2260    -1.8980 O.2   1 <1>  -0.5700 
 10 N       -1.1010    -5.0790    -0.7580 N.am  1 <1>  -0.6600 
 11 C       -2.2150    -4.3450    -0.1010 C.3   1 <1>   0.1400 
 12 C       -1.2560    -6.5410    -0.5730 C.3   1 <1>   0.1400 
 13 C       -3.2200    -5.4340     0.2720 C.3   1 <1>   0.2000 
 14 C       -2.3830    -6.6980     0.4500 C.3   1 <1>  -0.0800 
 15 O       -3.8990    -5.1380     1.4420 O.3   1 <1>  -0.6800 
 16 C       -3.1950    -7.9900     0.2800 C.3   1 <1>   0.0200 
 17 C       -2.2970    -9.2090     0.3780 C.2   1 <1>  -0.0400 
 18 O       -1.6460    -9.4530     1.4830 O.3   1 <1>  -0.0190 
 19 C       -1.9900   -10.1720    -0.5040 C.2   1 <1>  -0.1500 
 20 N       -0.9160   -10.5260     1.3880 N.2   1 <1>  -0.4100 
 21 C       -1.1040   -10.9810     0.2010 C.2   1 <1>   0.1080 
 22 C       -0.4450   -12.2280    -0.3460 C.3   1 <1>  -0.0590 
 23 H        2.8750    -1.3920     1.6200 H     1 <1>   0.0800 
 24 H        2.3280    -2.9340     2.2840 H     1 <1>   0.0800 
 25 H        2.2210    -3.8420     0.1500 H     1 <1>   0.0800 
 26 H        2.8590    -2.3340    -0.5070 H     1 <1>   0.0800 
 27 H       -0.8280    -2.5620    -1.7000 H     1 <1>   0.0800 
 28 H        0.7480    -2.8000    -2.3860 H     1 <1>   0.0800 
 29 H       -1.8440    -3.8610     0.7850 H     1 <1>   0.0800 
 30 H       -2.6550    -3.6240    -0.7670 H     1 <1>   0.0800 
 31 H       -1.5240    -6.9840    -1.5170 H     1 <1>   0.0800 
 32 H       -0.3390    -6.9840    -0.2200 H     1 <1>   0.0800 
 33 H       -3.9410    -5.5500    -0.5190 H     1 <1>   0.0800 
 34 H       -1.9280    -6.6890     1.4260 H     1 <1>   0.0800 
 35 H       -3.2700    -4.9560     2.1680 H     1 <1>   0.4000 
 36 H       -3.6900    -7.9910    -0.6740 H     1 <1>   0.0800 
 37 H       -3.9470    -8.0460     1.0470 H     1 <1>   0.0800 
 38 H       -2.3220   -10.3160    -1.5150 H     1 <1>   0.1500 
 39 H       -1.1950   -12.9400    -0.6340 H     1 <1>   0.0800 
 40 H        0.1840   -12.6700     0.4060 H     1 <1>   0.0800 
 41 H        0.1560   -11.9780    -1.2000 H     1 <1>   0.0800 
@<TRIPOS>BOND
  1   1   2  2   
  2   2   3  1   
  3   2   4  am  
  4   3   5  1   
  5   4   6  1   
  6   4   7  1   
  7   5   6  1   
  8   5  23  1   
  9   5  24  1   
 10   6  25  1   
 11   6  26  1   
 12   7   8  1   
 13   7  27  1   
 14   7  28  1   
 15   8   9  2   
 16   8  10  am  
 17  10  11  1   
 18  10  12  1   
 19  11  13  1   
 20  11  29  1   
 21  11  30  1   
 22  12  14  1   
 23  12  31  1   
 24  12  32  1   
 25  13  14  1   
 26  13  15  1   
 27  13  33  1   
 28  14  16  1   
 29  14  34  1   
 30  15  35  1   
 31  16  17  1   
 32  16  36  1   
 33  16  37  1   
 34  17  18  1   
 35  17  19  2   
 36  18  20  1   
 37  19  21  1   
 38  19  38  1   
 39  20  21  2   
 40  21  22  1   
 41  22  39  1   
 42  22  40  1   
 43  22  41  1   
@<TRIPOS>SUBSTRUCTURE
  1 ****  12 GROUP 4 **** **** 0

# MOE 2024.06 (io_trps.svl 2023.06)
