@<TRIPOS>MOLECULE
NONAME
54 57 1 0 0 
SMALL
USER_CHARGES


@<TRIPOS>ATOM
  1 O        4.7760    -1.7660    -0.5860 O.2   1 <1>  -0.5700 
  2 C        3.5790    -1.7210    -0.4050 C.2   1 <1>   0.5690 
  3 N        2.9080    -0.5970    -0.8160 N.am  1 <1>  -0.6600 
  4 C        2.9020    -2.8800     0.3420 C.3   1 <1>   0.1250 
  5 C        3.2700     0.0790    -2.1060 C.3   1 <1>   0.1400 
  6 C        2.0930     0.2190     0.1200 C.3   1 <1>   0.1400 
  7 C        1.3900    -2.9330     0.2430 C.ar  1 <1>  -0.1440 
  8 C        3.1610    -2.8430     1.8660 C.3   1 <1>  -0.1600 
  9 C        4.5180     0.9810    -1.9880 C.3   1 <1>   0.3430 
 10 C        3.0150     1.0860     0.9920 C.3   1 <1>  -0.1600 
 11 C        0.8190    -3.1390     1.4750 C.ar  1 <1>  -0.1440 
 12 C        0.5960    -2.8050    -0.8840 C.ar  1 <1>  -0.1500 
 13 C        1.8600    -3.2890     2.5550 C.3   1 <1>  -0.0160 
 14 N        4.9640     1.1130    -0.5650 N.4   1 <1>  -0.9590 
 15 C        4.0250     1.9580     0.2330 C.3   1 <1>   0.3430 
 16 C       -0.5540    -3.2020     1.6200 C.ar  1 <1>  -0.1500 
 17 C       -0.7810    -2.8660    -0.7500 C.ar  1 <1>  -0.1500 
 18 C        6.4060     1.4890    -0.4670 C.3   1 <1>   0.3430 
 19 C       -1.3550    -3.0610     0.4980 C.ar  1 <1>  -0.1500 
 20 C        7.0120     1.0590     0.8720 C.3   1 <1>   0.0960 
 21 N        8.4470     1.3800     0.8540 N.pl3 1 <1>   0.0480 
 22 C        9.0770     2.5070     1.2060 C.2   1 <1>   0.0060 
 23 C        9.4410     0.6150     0.4010 C.2   1 <1>   0.0360 
 24 N       10.3390     2.4290     0.9720 N.2   1 <1>  -0.3380 
 25 C        8.4170     3.7340     1.8060 C.3   1 <1>  -0.0600 
 26 N       10.5720     1.2210     0.4580 N.2   1 <1>  -0.3380 
 27 H        3.2840    -3.8040    -0.0550 H     1 <1>   0.0800 
 28 H        2.4350     0.6610    -2.4560 H     1 <1>   0.0800 
 29 H        3.4610    -0.6730    -2.8530 H     1 <1>   0.0800 
 30 H        1.4980    -0.4190     0.7520 H     1 <1>   0.0800 
 31 H        1.4100     0.8370    -0.4380 H     1 <1>   0.0800 
 32 H        3.3830    -1.8390     2.1740 H     1 <1>   0.0800 
 33 H        3.9870    -3.4780     2.1360 H     1 <1>   0.0800 
 34 H        4.3170     1.9490    -2.4180 H     1 <1>   0.0800 
 35 H        5.3050     0.5240    -2.5660 H     1 <1>   0.0800 
 36 H        3.5410     0.4620     1.6900 H     1 <1>   0.0800 
 37 H        2.3900     1.7360     1.5780 H     1 <1>   0.0800 
 38 H        1.0380    -2.6580    -1.8540 H     1 <1>   0.1500 
 39 H        1.6320    -2.6800     3.4120 H     1 <1>   0.0800 
 40 H        1.9200    -4.3230     2.8500 H     1 <1>   0.0800 
 41 H        4.8580     0.1290    -0.2330 H     1 <1>   0.4500 
 42 H        4.5790     2.5420     0.9490 H     1 <1>   0.0800 
 43 H        3.5010     2.6430    -0.4160 H     1 <1>   0.0800 
 44 H       -0.9960    -3.3620     2.5880 H     1 <1>   0.1500 
 45 H       -1.4110    -2.7660    -1.6180 H     1 <1>   0.1500 
 46 H        6.5170     2.5540    -0.5960 H     1 <1>   0.0800 
 47 H        6.9520     0.9940    -1.2540 H     1 <1>   0.0800 
 48 H       -2.4250    -3.1080     0.5950 H     1 <1>   0.1500 
 49 H        6.9010    -0.0030     1.0070 H     1 <1>   0.0800 
 50 H        6.5490     1.5760     1.6910 H     1 <1>   0.0800 
 51 H        9.3080    -0.3860     0.0300 H     1 <1>   0.1500 
 52 H        7.6990     4.1500     1.1240 H     1 <1>   0.0800 
 53 H        9.1650     4.4810     2.0070 H     1 <1>   0.0800 
 54 H        7.9360     3.4820     2.7340 H     1 <1>   0.0800 
@<TRIPOS>BOND
  1   1   2  2   
  2   2   3  am  
  3   2   4  1   
  4   3   5  1   
  5   3   6  1   
  6   4   7  1   
  7   4   8  1   
  8   4  27  1   
  9   5   9  1   
 10   5  28  1   
 11   5  29  1   
 12   6  10  1   
 13   6  30  1   
 14   6  31  1   
 15   7  11  ar  
 16   7  12  ar  
 17   8  13  1   
 18   8  32  1   
 19   8  33  1   
 20   9  14  1   
 21   9  34  1   
 22   9  35  1   
 23  10  15  1   
 24  10  36  1   
 25  10  37  1   
 26  11  13  1   
 27  11  16  ar  
 28  12  17  ar  
 29  12  38  1   
 30  13  39  1   
 31  13  40  1   
 32  14  15  1   
 33  14  18  1   
 34  14  41  1   
 35  15  42  1   
 36  15  43  1   
 37  16  19  ar  
 38  16  44  1   
 39  17  19  ar  
 40  17  45  1   
 41  18  20  1   
 42  18  46  1   
 43  18  47  1   
 44  19  48  1   
 45  20  21  1   
 46  20  49  1   
 47  20  50  1   
 48  21  22  1   
 49  21  23  1   
 50  22  24  2   
 51  22  25  1   
 52  23  26  2   
 53  23  51  1   
 54  24  26  1   
 55  25  52  1   
 56  25  53  1   
 57  25  54  1   
@<TRIPOS>SUBSTRUCTURE
  1 ****   2 GROUP 4 **** **** 0

# MOE 2024.06 (io_trps.svl 2023.06)
