@<TRIPOS>MOLECULE
NONAME
44 46 1 0 0 
SMALL
USER_CHARGES


@<TRIPOS>ATOM
  1 O        0.0230     0.5570     0.2180 O.2   1 <1>  -0.5700 
  2 C       -0.0870     1.7610     0.0310 C.2   1 <1>   0.7160 
  3 N       -1.3610     2.3050     0.1280 N.am  1 <1>  -0.6600 
  4 C        1.1190     2.5310    -0.2860 C.2   1 <1>   0.2030 
  5 C       -2.4960     1.5070     0.6790 C.3   1 <1>   0.1400 
  6 C       -1.6810     3.6930    -0.3230 C.3   1 <1>   0.1400 
  7 N        1.2930     3.8440    -0.2440 N.2   1 <1>  -0.7070 
  8 C        2.3150     1.9100    -0.6830 C.2   1 <1>  -0.1500 
  9 C       -3.4700     2.4230     1.4240 C.3   1 <1>  -0.1600 
 10 C       -3.1600     3.8110    -0.6930 C.3   1 <1>  -0.1600 
 11 N        2.5740     4.0460    -0.6140 N.pl3 1 <1>   0.3000 
 12 C        3.2210     2.8880    -0.8800 C.2   1 <1>  -0.0680 
 13 C       -4.0840     3.5090     0.5070 C.3   1 <1>   0.2800 
 14 N        4.5580     2.7710    -1.2810 N.pl3 1 <1>  -0.8840 
 15 O       -4.0910     4.6940     1.2770 O.3   1 <1>  -0.5600 
 16 C       -5.5280     3.1070     0.0680 C.3   1 <1>   0.2000 
 17 C       -5.2950     5.3710     1.5030 C.3   1 <1>   0.1200 
 18 O       -5.5410     1.9880    -0.7740 O.3   1 <1>  -0.6800 
 19 C       -6.3540     4.2870    -0.5270 C.3   1 <1>   0.2800 
 20 C       -5.9940     5.6140     0.1630 C.3   1 <1>  -0.1600 
 21 O       -7.6820     4.0210    -0.2470 O.3   1 <1>  -0.6800 
 22 C       -6.2910     4.4380    -2.0540 C.3   1 <1>  -0.2400 
 23 H       -3.0030     1.0080    -0.1290 H     1 <1>   0.0800 
 24 H       -2.1250     0.7580     1.3570 H     1 <1>   0.0800 
 25 H       -1.4430     4.3850     0.4680 H     1 <1>   0.0800 
 26 H       -1.0860     3.9420    -1.1840 H     1 <1>   0.0800 
 27 H        2.4440     0.8490    -0.7970 H     1 <1>   0.1500 
 28 H       -2.9290     2.8850     2.2310 H     1 <1>   0.0800 
 29 H       -4.2430     1.8180     1.8590 H     1 <1>   0.0800 
 30 H       -3.3490     3.1230    -1.4970 H     1 <1>   0.0800 
 31 H       -3.3510     4.8000    -1.0630 H     1 <1>   0.0800 
 32 H        2.9900     4.9780    -0.7020 H     1 <1>   0.2700 
 33 H        5.2370     3.3050    -0.7270 H     1 <1>   0.4000 
 34 H        4.8800     1.8000    -1.3700 H     1 <1>   0.4000 
 35 H       -6.0360     2.7940     0.9640 H     1 <1>   0.0800 
 36 H       -5.9050     4.7860     2.1700 H     1 <1>   0.0800 
 37 H       -5.0560     6.3050     1.9810 H     1 <1>   0.0800 
 38 H       -6.4730     1.7860    -0.9950 H     1 <1>   0.4000 
 39 H       -5.3140     6.1790    -0.4490 H     1 <1>   0.0800 
 40 H       -6.8690     6.2210     0.3120 H     1 <1>   0.0800 
 41 H       -8.2470     4.6960    -0.6690 H     1 <1>   0.4000 
 42 H       -5.2780     4.5890    -2.3750 H     1 <1>   0.0800 
 43 H       -6.8690     5.2850    -2.3770 H     1 <1>   0.0800 
 44 H       -6.6620     3.5550    -2.5430 H     1 <1>   0.0800 
@<TRIPOS>BOND
  1   1   2  2   
  2   2   3  am  
  3   2   4  1   
  4   3   5  1   
  5   3   6  1   
  6   4   7  2   
  7   4   8  1   
  8   5   9  1   
  9   5  23  1   
 10   5  24  1   
 11   6  10  1   
 12   6  25  1   
 13   6  26  1   
 14   7  11  1   
 15   8  12  2   
 16   8  27  1   
 17   9  13  1   
 18   9  28  1   
 19   9  29  1   
 20  10  13  1   
 21  10  30  1   
 22  10  31  1   
 23  11  12  1   
 24  11  32  1   
 25  12  14  1   
 26  13  15  1   
 27  13  16  1   
 28  14  33  1   
 29  14  34  1   
 30  15  17  1   
 31  16  18  1   
 32  16  19  1   
 33  16  35  1   
 34  17  20  1   
 35  17  36  1   
 36  17  37  1   
 37  18  38  1   
 38  19  20  1   
 39  19  21  1   
 40  19  22  1   
 41  20  39  1   
 42  20  40  1   
 43  21  41  1   
 44  22  42  1   
 45  22  43  1   
 46  22  44  1   
@<TRIPOS>SUBSTRUCTURE
  1 ****   6 GROUP 4 **** **** 0

# MOE 2024.06 (io_trps.svl 2023.06)
