@<TRIPOS>MOLECULE
NONAME
43 44 1 0 0 
SMALL
USER_CHARGES


@<TRIPOS>ATOM
  1 F        0.2170    -0.9750     1.5620 F     1 <1>  -0.3400 
  2 C       -0.3490    -0.0050     0.8600 C.3   1 <1>   1.0200 
  3 F       -0.0680     1.1340     1.4690 F     1 <1>  -0.3400 
  4 F        0.2710     0.0170    -0.3100 F     1 <1>  -0.3400 
  5 C       -1.8390    -0.2250     0.6900 C.3   1 <1>  -0.1600 
  6 C       -2.0650    -1.5590    -0.0090 C.3   1 <1>   0.3430 
  7 N       -3.5140    -1.7890    -0.1500 N.4   1 <1>  -0.9590 
  8 C       -3.9120    -3.2460    -0.1380 C.3   1 <1>   0.3430 
  9 C       -4.2050    -1.0350    -1.2290 C.3   1 <1>   0.3430 
 10 C       -5.4050    -3.4640    -0.5030 C.3   1 <1>   0.2000 
 11 C       -5.7190    -1.0050    -0.9520 C.3   1 <1>  -0.1600 
 12 O       -5.4940    -3.6940    -1.8790 O.3   1 <1>  -0.6800 
 13 C       -6.2430    -2.2230    -0.1200 C.3   1 <1>  -0.1060 
 14 C       -5.9750    -2.0580     1.3840 C.2   1 <1>   0.9060 
 15 C       -7.7590    -2.4480    -0.3550 C.3   1 <1>  -0.0160 
 16 O       -5.2480    -1.1320     1.7770 O.co2 1 <1>  -0.9000 
 17 O       -6.2790    -2.9880     2.1280 O.co2 1 <1>  -0.9000 
 18 C       -8.5920    -1.1880    -0.1440 C.ar  1 <1>  -0.1440 
 19 C       -8.8760    -0.7450     1.1390 C.ar  1 <1>  -0.1500 
 20 C       -9.0770    -0.4720    -1.2290 C.ar  1 <1>  -0.1500 
 21 C       -9.6260     0.4010     1.3360 C.ar  1 <1>  -0.1500 
 22 C       -9.8290     0.6740    -1.0340 C.ar  1 <1>  -0.1500 
 23 C      -10.1030     1.1120     0.2490 C.ar  1 <1>  -0.1500 
 24 H       -2.3010    -0.2330     1.6620 H     1 <1>   0.0800 
 25 H       -2.2400     0.5870     0.1130 H     1 <1>   0.0800 
 26 H       -1.6350    -2.3450     0.5910 H     1 <1>   0.0800 
 27 H       -1.5920    -1.5710    -0.9790 H     1 <1>   0.0800 
 28 H       -3.9720    -1.4130     0.7250 H     1 <1>   0.4500 
 29 H       -3.3020    -3.8140    -0.8190 H     1 <1>   0.0800 
 30 H       -3.7570    -3.6280     0.8590 H     1 <1>   0.0800 
 31 H       -3.8340    -0.0260    -1.2890 H     1 <1>   0.0800 
 32 H       -4.0250    -1.5270    -2.1710 H     1 <1>   0.0800 
 33 H       -5.7690    -4.3470    -0.0010 H     1 <1>   0.0800 
 34 H       -5.9690    -0.0900    -0.4430 H     1 <1>   0.0800 
 35 H       -6.2160    -0.9720    -1.9040 H     1 <1>   0.0800 
 36 H       -6.4070    -3.9540    -2.1120 H     1 <1>   0.4000 
 37 H       -7.9280    -2.8000    -1.3560 H     1 <1>   0.0800 
 38 H       -8.1190    -3.2150     0.3110 H     1 <1>   0.0800 
 39 H       -8.5110    -1.2910     1.9950 H     1 <1>   0.1500 
 40 H       -8.8730    -0.8020    -2.2310 H     1 <1>   0.1500 
 41 H       -9.8320     0.7360     2.3370 H     1 <1>   0.1500 
 42 H      -10.2010     1.2240    -1.8800 H     1 <1>   0.1500 
 43 H      -10.6850     2.0040     0.4040 H     1 <1>   0.1500 
@<TRIPOS>BOND
  1   1   2  1   
  2   2   3  1   
  3   2   4  1   
  4   2   5  1   
  5   5   6  1   
  6   5  24  1   
  7   5  25  1   
  8   6   7  1   
  9   6  26  1   
 10   6  27  1   
 11   7   8  1   
 12   7   9  1   
 13   7  28  1   
 14   8  10  1   
 15   8  29  1   
 16   8  30  1   
 17   9  11  1   
 18   9  31  1   
 19   9  32  1   
 20  10  12  1   
 21  10  13  1   
 22  10  33  1   
 23  11  13  1   
 24  11  34  1   
 25  11  35  1   
 26  12  36  1   
 27  13  14  1   
 28  13  15  1   
 29  14  16  ar  
 30  14  17  ar  
 31  15  18  1   
 32  15  37  1   
 33  15  38  1   
 34  18  19  ar  
 35  18  20  ar  
 36  19  21  ar  
 37  19  39  1   
 38  20  22  ar  
 39  20  40  1   
 40  21  23  ar  
 41  21  41  1   
 42  22  23  ar  
 43  22  42  1   
 44  23  43  1   
@<TRIPOS>SUBSTRUCTURE
  1 ****  11 GROUP 4 **** **** 0

# MOE 2024.06 (io_trps.svl 2023.06)
