@<TRIPOS>MOLECULE
NONAME
53 56 1 0 0 
SMALL
USER_CHARGES


@<TRIPOS>ATOM
  1 O       -0.6110     0.4140    -0.3700 O.2   1 <1>  -0.5700 
  2 C       -1.5400     0.9780     0.1900 C.2   1 <1>   0.7160 
  3 N       -2.6720     0.2190     0.4440 N.am  1 <1>  -0.6600 
  4 C       -1.4060     2.3930     0.5420 C.2   1 <1>   0.2030 
  5 C       -2.6520    -1.2800     0.4300 C.3   1 <1>   0.1400 
  6 C       -4.0390     0.7880     0.6560 C.3   1 <1>   0.1400 
  7 N       -2.1720     3.1090     1.3530 N.2   1 <1>  -0.7070 
  8 C       -0.3750     3.2010     0.0400 C.2   1 <1>  -0.1500 
  9 C       -3.7640    -1.8470    -0.4700 C.3   1 <1>   0.3440 
 10 C       -5.0870     0.0830    -0.2310 C.3   1 <1>   0.2950 
 11 N       -1.6350     4.3370     1.3650 N.pl3 1 <1>   0.3000 
 12 C       -0.5490     4.4240     0.5760 C.2   1 <1>  -0.3320 
 13 O       -5.0040    -1.3060    -0.0970 O.3   1 <1>  -0.5600 
 14 C       -3.8150    -3.3690    -0.3680 C.ar  1 <1>  -0.1430 
 15 C       -6.5120     0.4950     0.1470 C.3   1 <1>  -0.1950 
 16 C        0.2820     5.6840     0.3890 C.3   1 <1>   0.0200 
 17 C       -4.5910    -4.0080     0.5900 C.ar  1 <1>  -0.1500 
 18 C       -3.0590    -4.1380    -1.2420 C.ar  1 <1>  -0.1500 
 19 C       -7.6420     0.3590    -0.8240 C.3   1 <1>  -0.2000 
 20 C       -7.1420     1.7220    -0.4350 C.3   1 <1>  -0.2000 
 21 C       -0.3160     6.6470    -0.6550 C.3   1 <1>  -0.0800 
 22 C       -4.6120    -5.3890     0.6730 C.ar  1 <1>  -0.1500 
 23 C       -3.0780    -5.5200    -1.1610 C.ar  1 <1>  -0.1500 
 24 C        0.6490     7.8130    -0.9060 C.3   1 <1>  -0.2400 
 25 C       -1.6860     7.2010    -0.2380 C.3   1 <1>  -0.2400 
 26 C       -3.8540    -6.1460    -0.2020 C.ar  1 <1>  -0.1500 
 27 H       -1.7030    -1.6500     0.0870 H     1 <1>   0.0800 
 28 H       -2.7980    -1.6420     1.4320 H     1 <1>   0.0800 
 29 H       -4.3100     0.6800     1.6910 H     1 <1>   0.0800 
 30 H       -4.0590     1.8340     0.4140 H     1 <1>   0.0800 
 31 H        0.3910     2.8640    -0.6380 H     1 <1>   0.1500 
 32 H       -3.5760    -1.5690    -1.4930 H     1 <1>   0.0800 
 33 H       -4.9070     0.3280    -1.2640 H     1 <1>   0.0800 
 34 H       -2.0280     5.1070     1.9220 H     1 <1>   0.2700 
 35 H       -6.7300     0.2800     1.1790 H     1 <1>   0.1000 
 36 H        0.4000     6.1860     1.3330 H     1 <1>   0.0800 
 37 H        1.2630     5.3880     0.0600 H     1 <1>   0.0800 
 38 H       -5.1870    -3.4270     1.2730 H     1 <1>   0.1500 
 39 H       -2.4490    -3.6650    -1.9930 H     1 <1>   0.1500 
 40 H       -7.4300    -0.0180    -1.8100 H     1 <1>   0.1000 
 41 H       -8.5950     0.0230    -0.4530 H     1 <1>   0.1000 
 42 H       -7.7610     2.3360     0.1970 H     1 <1>   0.1000 
 43 H       -6.6070     2.2970    -1.1710 H     1 <1>   0.1000 
 44 H       -0.4360     6.1060    -1.5800 H     1 <1>   0.0800 
 45 H       -5.2190    -5.8730     1.4180 H     1 <1>   0.1500 
 46 H       -2.4890    -6.1080    -1.8430 H     1 <1>   0.1500 
 47 H        0.7960     8.3870    -0.0080 H     1 <1>   0.0800 
 48 H        0.2570     8.4650    -1.6680 H     1 <1>   0.0800 
 49 H        1.6030     7.4460    -1.2410 H     1 <1>   0.0800 
 50 H       -1.6280     7.6810     0.7230 H     1 <1>   0.0800 
 51 H       -2.4180     6.4140    -0.1970 H     1 <1>   0.0800 
 52 H       -2.0280     7.9220    -0.9590 H     1 <1>   0.0800 
 53 H       -3.8700    -7.2200    -0.1380 H     1 <1>   0.1500 
@<TRIPOS>BOND
  1   1   2  2   
  2   2   3  am  
  3   2   4  1   
  4   3   5  1   
  5   3   6  1   
  6   4   7  2   
  7   4   8  1   
  8   5   9  1   
  9   5  27  1   
 10   5  28  1   
 11   6  10  1   
 12   6  29  1   
 13   6  30  1   
 14   7  11  1   
 15   8  12  2   
 16   8  31  1   
 17   9  13  1   
 18   9  14  1   
 19   9  32  1   
 20  10  13  1   
 21  10  15  1   
 22  10  33  1   
 23  11  12  1   
 24  11  34  1   
 25  12  16  1   
 26  14  17  ar  
 27  14  18  ar  
 28  15  19  1   
 29  15  20  1   
 30  15  35  1   
 31  16  21  1   
 32  16  36  1   
 33  16  37  1   
 34  17  22  ar  
 35  17  38  1   
 36  18  23  ar  
 37  18  39  1   
 38  19  20  1   
 39  19  40  1   
 40  19  41  1   
 41  20  42  1   
 42  20  43  1   
 43  21  24  1   
 44  21  25  1   
 45  21  44  1   
 46  22  26  ar  
 47  22  45  1   
 48  23  26  ar  
 49  23  46  1   
 50  24  47  1   
 51  24  48  1   
 52  24  49  1   
 53  25  50  1   
 54  25  51  1   
 55  25  52  1   
 56  26  53  1   
@<TRIPOS>SUBSTRUCTURE
  1 ****   3 GROUP 4 **** **** 0

# MOE 2024.06 (io_trps.svl 2023.06)
