@<TRIPOS>MOLECULE
NONAME
46 48 1 0 0 
SMALL
USER_CHARGES


@<TRIPOS>ATOM
  1 O        2.3760    -0.8640     2.3900 O.co2 1 <1>  -0.9000 
  2 C        2.4560    -0.9100     1.1560 C.2   1 <1>   0.9060 
  3 O        2.3990    -1.9930     0.5500 O.co2 1 <1>  -0.9000 
  4 C        2.5630     0.3960     0.3390 C.3   1 <1>  -0.1060 
  5 C        3.6390     0.1320    -0.7490 C.3   1 <1>   0.2000 
  6 C        3.1010     1.5430     1.2440 C.3   1 <1>  -0.1600 
  7 C        1.1130     0.6740    -0.1890 C.3   1 <1>  -0.1600 
  8 O        3.1690    -0.7980    -1.6640 O.3   1 <1>  -0.6800 
  9 C        4.1470     1.3710    -1.4970 C.3   1 <1>   0.2090 
 10 C        3.6300     2.7950     0.5270 C.3   1 <1>   0.2090 
 11 C        0.7560     2.0410    -0.7930 C.3   1 <1>  -0.1600 
 12 N        4.5880     2.4550    -0.5590 N.pl3 1 <1>  -0.8380 
 13 C       -0.6590     2.0220    -1.3800 C.3   1 <1>  -0.2400 
 14 C        5.9370     2.7290    -0.3880 C.ar  1 <1>   0.4100 
 15 N        6.7600     1.7020    -0.3010 N.ar  1 <1>  -0.3100 
 16 C        6.3860     4.0730    -0.2970 C.ar  1 <1>   0.0000 
 17 N        8.0520     1.8920    -0.0650 N.ar  1 <1>  -0.3100 
 18 C        7.7460     4.2660    -0.0170 C.ar  1 <1>   0.0000 
 19 C        5.5700     5.2110    -0.4870 C.ar  1 <1>  -0.1500 
 20 C        8.5250     3.0970     0.0830 C.ar  1 <1>   0.1670 
 21 C        8.2300     5.5880     0.1280 C.ar  1 <1>  -0.1500 
 22 C        6.0630     6.4800    -0.3540 C.ar  1 <1>  -0.1500 
 23 C       10.0140     3.1990     0.3680 C.3   1 <1>  -0.0970 
 24 C        7.4100     6.6700    -0.0350 C.ar  1 <1>  -0.1500 
 25 H        4.4940    -0.3190    -0.2720 H     1 <1>   0.0800 
 26 H        3.9190     1.1540     1.8250 H     1 <1>   0.0800 
 27 H        2.3390     1.8270     1.9470 H     1 <1>   0.0800 
 28 H        0.8650    -0.0920    -0.9030 H     1 <1>   0.0800 
 29 H        0.4440     0.5200     0.6420 H     1 <1>   0.0800 
 30 H        2.8040    -1.5370    -1.0940 H     1 <1>   0.4000 
 31 H        3.3780     1.7500    -2.1400 H     1 <1>   0.0800 
 32 H        4.9750     1.0760    -2.1180 H     1 <1>   0.0800 
 33 H        4.1210     3.4180     1.2550 H     1 <1>   0.0800 
 34 H        2.8280     3.3690     0.1090 H     1 <1>   0.0800 
 35 H        0.7880     2.7920    -0.0250 H     1 <1>   0.0800 
 36 H        1.4440     2.3050    -1.5720 H     1 <1>   0.0800 
 37 H       -1.3770     1.7720    -0.6190 H     1 <1>   0.0800 
 38 H       -0.7240     1.2940    -2.1700 H     1 <1>   0.0800 
 39 H       -0.9050     2.9880    -1.7830 H     1 <1>   0.0800 
 40 H        4.5380     5.0620    -0.7480 H     1 <1>   0.1500 
 41 H        9.2650     5.7480     0.3660 H     1 <1>   0.1500 
 42 H        5.4290     7.3380    -0.4960 H     1 <1>   0.1500 
 43 H       10.1740     3.6790     1.3150 H     1 <1>   0.0800 
 44 H       10.4990     3.7610    -0.4080 H     1 <1>   0.0800 
 45 H       10.4590     2.2200     0.4050 H     1 <1>   0.0800 
 46 H        7.7860     7.6730     0.0740 H     1 <1>   0.1500 
@<TRIPOS>BOND
  1   1   2  ar  
  2   2   3  ar  
  3   2   4  1   
  4   4   5  1   
  5   4   6  1   
  6   4   7  1   
  7   5   8  1   
  8   5   9  1   
  9   5  25  1   
 10   6  10  1   
 11   6  26  1   
 12   6  27  1   
 13   7  11  1   
 14   7  28  1   
 15   7  29  1   
 16   8  30  1   
 17   9  12  1   
 18   9  31  1   
 19   9  32  1   
 20  10  12  1   
 21  10  33  1   
 22  10  34  1   
 23  11  13  1   
 24  11  35  1   
 25  11  36  1   
 26  12  14  1   
 27  13  37  1   
 28  13  38  1   
 29  13  39  1   
 30  14  15  ar  
 31  14  16  ar  
 32  15  17  ar  
 33  16  18  ar  
 34  16  19  ar  
 35  17  20  ar  
 36  18  20  ar  
 37  18  21  ar  
 38  19  22  ar  
 39  19  40  1   
 40  20  23  1   
 41  21  24  ar  
 42  21  41  1   
 43  22  24  ar  
 44  22  42  1   
 45  23  43  1   
 46  23  44  1   
 47  23  45  1   
 48  24  46  1   
@<TRIPOS>SUBSTRUCTURE
  1 ****  12 GROUP 4 **** **** 0

# MOE 2024.06 (io_trps.svl 2023.06)
