@<TRIPOS>MOLECULE
NONAME
55 57 1 0 0 
SMALL
USER_CHARGES


@<TRIPOS>ATOM
  1 O       -0.3920    -0.2430     2.5900 O.2   1 <1>  -0.5700 
  2 C       -0.8880     0.5990     1.8800 C.2   1 <1>   0.5690 
  3 N       -1.7780     0.2360     0.8930 N.am  1 <1>  -0.6600 
  4 C       -0.5040     2.0530     2.1430 C.3   1 <1>   0.0440 
  5 C       -2.0020    -1.1980     0.5610 C.3   1 <1>   0.1400 
  6 C       -2.5710     1.1880     0.0630 C.3   1 <1>   0.1400 
  7 C        0.0760     2.7750     0.9210 C.ar  1 <1>  -0.1440 
  8 C       -3.4980    -1.5490     0.7130 C.3   1 <1>   0.4230 
  9 C       -4.0600     0.8540     0.2200 C.3   1 <1>  -0.1600 
 10 C       -0.2910     4.0750     0.5740 C.ar  1 <1>  -0.1440 
 11 C        1.0040     2.1010     0.1380 C.ar  1 <1>  -0.1500 
 12 N       -3.8000    -3.0350     0.5500 N.4   1 <1>  -0.9590 
 13 C       -4.4120    -0.6190    -0.1380 C.3   1 <1>   0.0000 
 14 C        0.2590     4.6560    -0.5590 C.ar  1 <1>  -0.1500 
 15 C       -1.2720     4.8990     1.3980 C.3   1 <1>  -0.0970 
 16 C        1.5530     2.6860    -0.9890 C.ar  1 <1>  -0.1430 
 17 C       -5.2430    -3.3410     0.2770 C.3   1 <1>   0.3430 
 18 C       -2.9300    -3.7660    -0.4290 C.3   1 <1>   0.2630 
 19 C       -5.9010    -0.8810     0.2380 C.3   1 <1>  -0.1600 
 20 C       -4.1790    -0.8750    -1.6550 C.3   1 <1>   0.1200 
 21 C        1.1720     3.9680    -1.3370 C.ar  1 <1>  -0.1500 
 22 C        2.5620     1.9330    -1.8360 C.3   1 <1>  -0.0970 
 23 C       -6.1520    -2.2650     0.8680 C.3   1 <1>  -0.1600 
 24 O       -4.8320     0.0610    -2.4390 O.3   1 <1>  -0.6800 
 25 H       -1.3760     2.5470     2.5200 H     1 <1>   0.0800 
 26 H        0.2350     2.0740     2.9230 H     1 <1>   0.0800 
 27 H       -1.6620    -1.3650    -0.4440 H     1 <1>   0.0800 
 28 H       -1.4260    -1.8270     1.2170 H     1 <1>   0.0800 
 29 H       -2.4090     2.2040     0.3720 H     1 <1>   0.0800 
 30 H       -2.2660     1.1110    -0.9680 H     1 <1>   0.0800 
 31 H       -3.7320    -1.3080     1.7370 H     1 <1>   0.0800 
 32 H       -4.3260     1.0570     1.2430 H     1 <1>   0.0800 
 33 H       -4.6300     1.5370    -0.3860 H     1 <1>   0.0800 
 34 H        1.3090     1.1050     0.4070 H     1 <1>   0.1500 
 35 H       -3.5980    -3.4370     1.4780 H     1 <1>   0.4500 
 36 H       -0.0150     5.6560    -0.8450 H     1 <1>   0.1500 
 37 H       -1.3170     5.9120     1.0420 H     1 <1>   0.0800 
 38 H       -0.9600     4.9240     2.4260 H     1 <1>   0.0800 
 39 H       -2.2580     4.4760     1.3350 H     1 <1>   0.0800 
 40 H       -5.4120    -3.3820    -0.7870 H     1 <1>   0.0800 
 41 H       -5.4980    -4.3040     0.6900 H     1 <1>   0.0800 
 42 H       -3.0540    -3.3630    -1.4210 H     1 <1>   0.0800 
 43 H       -3.1880    -4.8130    -0.4500 H     1 <1>   0.0800 
 44 H       -1.8920    -3.6820    -0.1490 H     1 <1>   0.0800 
 45 H       -6.2500    -0.1420     0.9410 H     1 <1>   0.0800 
 46 H       -6.5260    -0.7770    -0.6320 H     1 <1>   0.0800 
 47 H       -4.5350    -1.8450    -1.9520 H     1 <1>   0.0800 
 48 H       -3.1370    -0.8040    -1.9090 H     1 <1>   0.0800 
 49 H        1.5860     4.4380    -2.2110 H     1 <1>   0.1500 
 50 H        3.2970     2.6110    -2.2320 H     1 <1>   0.0800 
 51 H        2.0600     1.4480    -2.6540 H     1 <1>   0.0800 
 52 H        3.0700     1.1900    -1.2490 H     1 <1>   0.0800 
 53 H       -7.1800    -2.5430     0.7090 H     1 <1>   0.0800 
 54 H       -6.0000    -2.2220     1.9330 H     1 <1>   0.0800 
 55 H       -5.8040     0.0230    -2.3350 H     1 <1>   0.4000 
@<TRIPOS>BOND
  1   1   2  2   
  2   2   3  am  
  3   2   4  1   
  4   3   5  1   
  5   3   6  1   
  6   4   7  1   
  7   4  25  1   
  8   4  26  1   
  9   5   8  1   
 10   5  27  1   
 11   5  28  1   
 12   6   9  1   
 13   6  29  1   
 14   6  30  1   
 15   7  10  ar  
 16   7  11  ar  
 17   8  12  1   
 18   8  13  1   
 19   8  31  1   
 20   9  13  1   
 21   9  32  1   
 22   9  33  1   
 23  10  14  ar  
 24  10  15  1   
 25  11  16  ar  
 26  11  34  1   
 27  12  17  1   
 28  12  18  1   
 29  12  35  1   
 30  13  19  1   
 31  13  20  1   
 32  14  21  ar  
 33  14  36  1   
 34  15  37  1   
 35  15  38  1   
 36  15  39  1   
 37  16  21  ar  
 38  16  22  1   
 39  17  23  1   
 40  17  40  1   
 41  17  41  1   
 42  18  42  1   
 43  18  43  1   
 44  18  44  1   
 45  19  23  1   
 46  19  45  1   
 47  19  46  1   
 48  20  24  1   
 49  20  47  1   
 50  20  48  1   
 51  21  49  1   
 52  22  50  1   
 53  22  51  1   
 54  22  52  1   
 55  23  53  1   
 56  23  54  1   
 57  24  55  1   
@<TRIPOS>SUBSTRUCTURE
  1 ****   3 GROUP 4 **** **** 0

# MOE 2024.06 (io_trps.svl 2023.06)
