@<TRIPOS>MOLECULE
NONAME
49 50 1 0 0 
SMALL
USER_CHARGES


@<TRIPOS>ATOM
  1 O       -1.9130     1.3410    -2.7200 O.2   1 <1>  -0.5700 
  2 C       -2.2200     1.6370    -1.5800 C.2   1 <1>   0.5440 
  3 N       -3.1370     0.8590    -0.9060 N.am  1 <1>  -0.6600 
  4 C       -1.6070     2.7990    -0.9700 C.ar  1 <1>   0.0860 
  5 C       -3.8230    -0.2840    -1.6060 C.3   1 <1>   0.1400 
  6 C       -3.4880     1.0500     0.5400 C.3   1 <1>   0.1400 
  7 C       -2.3510     3.9390    -0.6770 C.ar  1 <1>  -0.1500 
  8 C       -0.2510     2.8150    -0.6610 C.ar  1 <1>  -0.1500 
  9 C       -4.4340    -1.2670    -0.5970 C.3   1 <1>   0.2000 
 10 C       -4.9940     0.8460     0.7160 C.3   1 <1>  -0.1600 
 11 C       -1.7750     5.0480    -0.0840 C.ar  1 <1>   0.0820 
 12 C        0.3460     3.9140    -0.0700 C.ar  1 <1>   0.0820 
 13 O       -5.0190    -2.3510    -1.2320 O.3   1 <1>  -0.6800 
 14 C       -5.4340    -0.6210     0.4020 C.3   1 <1>  -0.1060 
 15 O       -2.5980     6.0970     0.1650 O.3   1 <1>  -0.3630 
 16 C       -0.4180     5.0390     0.2240 C.ar  1 <1>  -0.1500 
 17 O        1.6740     3.8160     0.1900 O.3   1 <1>  -0.3620 
 18 C       -5.3170    -1.5320     1.6370 C.2   1 <1>   0.9060 
 19 C       -6.9300    -0.6040    -0.0560 C.3   1 <1>  -0.1600 
 20 C       -2.1210     7.2910     0.7450 C.3   1 <1>   0.0400 
 21 C        2.4040     4.8960     0.7280 C.3   1 <1>   0.0400 
 22 O       -4.8900    -1.0900     2.7100 O.co2 1 <1>  -0.9000 
 23 O       -5.6110    -2.7300     1.5030 O.co2 1 <1>  -0.9000 
 24 C       -7.2360     0.0100    -1.4370 C.3   1 <1>  -0.1600 
 25 C       -8.7450     0.0330    -1.6980 C.3   1 <1>  -0.2400 
 26 H       -4.5900     0.1130    -2.2440 H     1 <1>   0.0800 
 27 H       -3.1080    -0.8110    -2.2130 H     1 <1>   0.0800 
 28 H       -2.9530     0.3340     1.1430 H     1 <1>   0.0800 
 29 H       -3.2230     2.0330     0.8800 H     1 <1>   0.0800 
 30 H       -3.3990     3.9570    -0.9160 H     1 <1>   0.1500 
 31 H        0.3460     1.9500    -0.8890 H     1 <1>   0.1500 
 32 H       -3.6060    -1.6740    -0.0400 H     1 <1>   0.0800 
 33 H       -5.2740     1.1070     1.7210 H     1 <1>   0.0800 
 34 H       -5.4850     1.5510     0.0760 H     1 <1>   0.0800 
 35 H       -5.4020    -2.8990    -0.4990 H     1 <1>   0.4000 
 36 H        0.0350     5.8920     0.6840 H     1 <1>   0.1500 
 37 H       -7.2980    -1.6160    -0.0640 H     1 <1>   0.0800 
 38 H       -7.4980    -0.0830     0.6950 H     1 <1>   0.0800 
 39 H       -2.9470     7.9730     0.8330 H     1 <1>   0.0800 
 40 H       -1.3660     7.7130     0.1050 H     1 <1>   0.0800 
 41 H       -1.7240     7.0710     1.7200 H     1 <1>   0.0800 
 42 H        3.4320     4.5910     0.8170 H     1 <1>   0.0800 
 43 H        2.0090     5.1360     1.6990 H     1 <1>   0.0800 
 44 H        2.3300     5.7360     0.0600 H     1 <1>   0.0800 
 45 H       -6.8580     1.0130    -1.5080 H     1 <1>   0.0800 
 46 H       -6.7660    -0.5800    -2.2030 H     1 <1>   0.0800 
 47 H       -9.2440     0.6340    -0.9580 H     1 <1>   0.0800 
 48 H       -9.1430    -0.9650    -1.6620 H     1 <1>   0.0800 
 49 H       -8.9430     0.4480    -2.6700 H     1 <1>   0.0800 
@<TRIPOS>BOND
  1   1   2  2   
  2   2   3  am  
  3   2   4  1   
  4   3   5  1   
  5   3   6  1   
  6   4   7  ar  
  7   4   8  ar  
  8   5   9  1   
  9   5  26  1   
 10   5  27  1   
 11   6  10  1   
 12   6  28  1   
 13   6  29  1   
 14   7  11  ar  
 15   7  30  1   
 16   8  12  ar  
 17   8  31  1   
 18   9  13  1   
 19   9  14  1   
 20   9  32  1   
 21  10  14  1   
 22  10  33  1   
 23  10  34  1   
 24  11  15  1   
 25  11  16  ar  
 26  12  16  ar  
 27  12  17  1   
 28  13  35  1   
 29  14  18  1   
 30  14  19  1   
 31  15  20  1   
 32  16  36  1   
 33  17  21  1   
 34  18  22  ar  
 35  18  23  ar  
 36  19  24  1   
 37  19  37  1   
 38  19  38  1   
 39  20  39  1   
 40  20  40  1   
 41  20  41  1   
 42  21  42  1   
 43  21  43  1   
 44  21  44  1   
 45  24  25  1   
 46  24  45  1   
 47  24  46  1   
 48  25  47  1   
 49  25  48  1   
 50  25  49  1   
@<TRIPOS>SUBSTRUCTURE
  1 ****   6 GROUP 4 **** **** 0

# MOE 2024.06 (io_trps.svl 2023.06)
