@<TRIPOS>MOLECULE
NONAME
41 41 1 0 0 
SMALL
USER_CHARGES


@<TRIPOS>ATOM
  1 O       -0.0600     0.2980    -0.5650 O.3   1 <1>  -0.3630 
  2 C       -1.1710     1.0220    -0.8870 C.ar  1 <1>   0.3920 
  3 C        0.2590    -0.8970    -1.2500 C.3   1 <1>   0.0400 
  4 N       -1.9570     0.5340    -1.8370 N.ar  1 <1>  -0.6200 
  5 C       -1.4110     2.2540    -0.2030 C.ar  1 <1>   0.4100 
  6 C       -2.9850     1.3300    -2.0930 C.ar  1 <1>   0.1600 
  7 N       -2.4490     3.0310    -0.4940 N.ar  1 <1>  -0.6200 
  8 N       -0.5670     2.7430     0.8060 N.pl3 1 <1>  -0.8380 
  9 C       -3.2180     2.5310    -1.4470 C.ar  1 <1>   0.1600 
 10 C       -0.3790     4.2150     1.0490 C.3   1 <1>   0.2090 
 11 C       -0.2840     1.8710     1.9790 C.3   1 <1>   0.1290 
 12 C        0.7700     4.8370     0.2070 C.3   1 <1>   0.0000 
 13 C        0.5190     4.6080    -1.3050 C.3   1 <1>   0.1200 
 14 C        2.1100     4.1510     0.6000 C.3   1 <1>  -0.1600 
 15 C        0.8100     6.3720     0.4640 C.3   1 <1>  -0.1600 
 16 O       -0.7540     5.0220    -1.6770 O.3   1 <1>  -0.6800 
 17 C        3.3780     4.7130    -0.0670 C.3   1 <1>  -0.2400 
 18 C        1.1440     6.8130     1.9000 C.3   1 <1>  -0.2400 
 19 H        1.1730    -1.2870    -0.8420 H     1 <1>   0.0800 
 20 H        0.3860    -0.6750    -2.2960 H     1 <1>   0.0800 
 21 H       -0.5410    -1.6030    -1.1100 H     1 <1>   0.0800 
 22 H       -3.6710     1.0080    -2.8550 H     1 <1>   0.1500 
 23 H       -4.0800     3.1090    -1.7290 H     1 <1>   0.1500 
 24 H       -0.1660     4.3660     2.0910 H     1 <1>   0.0800 
 25 H       -1.2960     4.7420     0.8500 H     1 <1>   0.0800 
 26 H       -0.7230     0.8980     1.8440 H     1 <1>   0.0800 
 27 H       -0.6980     2.3060     2.8720 H     1 <1>   0.0800 
 28 H        0.7790     1.7590     2.0970 H     1 <1>   0.0800 
 29 H        0.6080     3.5640    -1.5520 H     1 <1>   0.0800 
 30 H        1.2230     5.1610    -1.8990 H     1 <1>   0.0800 
 31 H        2.0460     3.1060     0.3470 H     1 <1>   0.0800 
 32 H        2.2370     4.1990     1.6670 H     1 <1>   0.0800 
 33 H       -0.1480     6.7890     0.2030 H     1 <1>   0.0800 
 34 H        1.5230     6.8240    -0.2030 H     1 <1>   0.0800 
 35 H       -1.4130     4.4300    -1.2330 H     1 <1>   0.4000 
 36 H        3.3170     4.6420    -1.1380 H     1 <1>   0.0800 
 37 H        4.2330     4.1470     0.2540 H     1 <1>   0.0800 
 38 H        3.5380     5.7400     0.2070 H     1 <1>   0.0800 
 39 H        0.4120     6.4530     2.6000 H     1 <1>   0.0800 
 40 H        1.1470     7.8880     1.9500 H     1 <1>   0.0800 
 41 H        2.1160     6.4660     2.1970 H     1 <1>   0.0800 
@<TRIPOS>BOND
  1   1   2  1   
  2   1   3  1   
  3   2   4  ar  
  4   2   5  ar  
  5   3  19  1   
  6   3  20  1   
  7   3  21  1   
  8   4   6  ar  
  9   5   7  ar  
 10   5   8  1   
 11   6   9  ar  
 12   6  22  1   
 13   7   9  ar  
 14   8  10  1   
 15   8  11  1   
 16   9  23  1   
 17  10  12  1   
 18  10  24  1   
 19  10  25  1   
 20  11  26  1   
 21  11  27  1   
 22  11  28  1   
 23  12  13  1   
 24  12  14  1   
 25  12  15  1   
 26  13  16  1   
 27  13  29  1   
 28  13  30  1   
 29  14  17  1   
 30  14  31  1   
 31  14  32  1   
 32  15  18  1   
 33  15  33  1   
 34  15  34  1   
 35  16  35  1   
 36  17  36  1   
 37  17  37  1   
 38  17  38  1   
 39  18  39  1   
 40  18  40  1   
 41  18  41  1   
@<TRIPOS>SUBSTRUCTURE
  1 ****   8 GROUP 4 **** **** 0

# MOE 2024.06 (io_trps.svl 2023.06)
