@<TRIPOS>MOLECULE
NONAME
54 57 1 0 0 
SMALL
USER_CHARGES


@<TRIPOS>ATOM
  1 CL      -0.6270     0.6800    -2.5240 Cl    1 <1>  -0.1770 
  2 C       -1.1130     1.3780    -0.9950 C.ar  1 <1>   0.1770 
  3 C       -2.1260     0.7950    -0.2330 C.ar  1 <1>   0.0540 
  4 C       -0.4640     2.5320    -0.5950 C.ar  1 <1>  -0.1500 
  5 C       -2.8050    -0.4190    -0.6250 C.2   1 <1>   0.4620 
  6 C       -2.4740     1.4430     0.9540 C.ar  1 <1>  -0.1500 
  7 C       -0.8240     3.1460     0.5910 C.ar  1 <1>  -0.1500 
  8 N       -2.2510    -1.5240    -0.9780 N.2   1 <1>  -0.4100 
  9 N       -4.1370    -0.5090    -0.6210 N.2   1 <1>  -0.5650 
 10 C       -1.8340     2.6000     1.3630 C.ar  1 <1>  -0.1500 
 11 O       -3.1940    -2.3760    -1.2290 O.3   1 <1>  -0.0190 
 12 C       -4.2940    -1.7100    -0.9950 C.2   1 <1>   0.2980 
 13 C       -5.6280    -2.4060    -1.1890 C.3   1 <1>   0.0200 
 14 C       -5.8570    -3.4920    -0.1270 C.3   1 <1>  -0.1600 
 15 C       -7.2300    -4.1760    -0.2880 C.3   1 <1>  -0.0990 
 16 C       -7.5240    -5.2450     0.7630 C.2   1 <1>   0.5690 
 17 O       -6.6060    -5.6310     1.4480 O.2   1 <1>  -0.5700 
 18 N       -8.7950    -5.7490     0.9190 N.am  1 <1>  -0.6600 
 19 C       -9.9310    -5.4140     0.0050 C.3   1 <1>   0.2200 
 20 C       -9.0680    -6.6880     2.0530 C.3   1 <1>   0.0600 
 21 C      -10.7970    -6.6050    -0.4030 C.3   1 <1>  -0.1600 
 22 C      -10.9110    -4.4330     0.6380 C.3   1 <1>  -0.1600 
 23 C      -12.1020    -5.9670    -0.8970 C.3   1 <1>  -0.0800 
 24 C      -12.2090    -4.6050    -0.1640 C.3   1 <1>  -0.0800 
 25 C      -13.3200    -6.9060    -0.7580 C.3   1 <1>   0.1400 
 26 C      -13.4750    -4.4520     0.7020 C.3   1 <1>  -0.0990 
 27 N      -14.5660    -6.1130    -0.7290 N.am  1 <1>  -0.7300 
 28 C      -14.6900    -4.9570    -0.0460 C.2   1 <1>   0.5690 
 29 O      -15.7270    -4.3470    -0.0200 O.2   1 <1>  -0.5700 
 30 H        0.3140     2.9450    -1.2110 H     1 <1>   0.1500 
 31 H       -3.2600     1.0270     1.5620 H     1 <1>   0.1500 
 32 H       -0.3240     4.0450     0.9100 H     1 <1>   0.1500 
 33 H       -2.1210     3.0760     2.2850 H     1 <1>   0.1500 
 34 H       -6.4090    -1.6700    -1.1280 H     1 <1>   0.0800 
 35 H       -5.6500    -2.8400    -2.1720 H     1 <1>   0.0800 
 36 H       -5.7950    -3.0480     0.8530 H     1 <1>   0.0800 
 37 H       -5.0780    -4.2330    -0.2000 H     1 <1>   0.0800 
 38 H       -7.2800    -4.6400    -1.2550 H     1 <1>   0.0800 
 39 H       -7.9930    -3.4230    -0.2260 H     1 <1>   0.0800 
 40 H       -9.5590    -4.9760    -0.9040 H     1 <1>   0.0800 
 41 H      -10.0410    -6.5060     2.4730 H     1 <1>   0.0800 
 42 H       -8.3400    -6.5610     2.8360 H     1 <1>   0.0800 
 43 H       -9.0150    -7.7030     1.7020 H     1 <1>   0.0800 
 44 H      -10.3240    -7.1910    -1.1710 H     1 <1>   0.0800 
 45 H      -11.0140    -7.2300     0.4440 H     1 <1>   0.0800 
 46 H      -11.0750    -4.6910     1.6680 H     1 <1>   0.0800 
 47 H      -10.5460    -3.4230     0.5820 H     1 <1>   0.0800 
 48 H      -11.9830    -5.7550    -1.9470 H     1 <1>   0.0800 
 49 H      -12.2440    -3.8400    -0.9230 H     1 <1>   0.0800 
 50 H      -13.2580    -7.4660     0.1600 H     1 <1>   0.0800 
 51 H      -13.3450    -7.6000    -1.5800 H     1 <1>   0.0800 
 52 H      -13.6200    -3.4220     0.9690 H     1 <1>   0.0800 
 53 H      -13.3880    -5.0280     1.6040 H     1 <1>   0.0800 
 54 H      -15.3970    -6.4740    -1.2030 H     1 <1>   0.3700 
@<TRIPOS>BOND
  1   1   2  1   
  2   2   3  ar  
  3   2   4  ar  
  4   3   5  1   
  5   3   6  ar  
  6   4   7  ar  
  7   4  30  1   
  8   5   8  2   
  9   5   9  1   
 10   6  10  ar  
 11   6  31  1   
 12   7  10  ar  
 13   7  32  1   
 14   8  11  1   
 15   9  12  2   
 16  10  33  1   
 17  11  12  1   
 18  12  13  1   
 19  13  14  1   
 20  13  34  1   
 21  13  35  1   
 22  14  15  1   
 23  14  36  1   
 24  14  37  1   
 25  15  16  1   
 26  15  38  1   
 27  15  39  1   
 28  16  17  2   
 29  16  18  am  
 30  18  19  1   
 31  18  20  1   
 32  19  21  1   
 33  19  22  1   
 34  19  40  1   
 35  20  41  1   
 36  20  42  1   
 37  20  43  1   
 38  21  23  1   
 39  21  44  1   
 40  21  45  1   
 41  22  24  1   
 42  22  46  1   
 43  22  47  1   
 44  23  24  1   
 45  23  25  1   
 46  23  48  1   
 47  24  26  1   
 48  24  49  1   
 49  25  27  1   
 50  25  50  1   
 51  25  51  1   
 52  26  28  1   
 53  26  52  1   
 54  26  53  1   
 55  27  28  am  
 56  27  54  1   
 57  28  29  2   
@<TRIPOS>SUBSTRUCTURE
  1 ****  14 GROUP 4 **** **** 0

# MOE 2024.06 (io_trps.svl 2023.06)
