@<TRIPOS>MOLECULE
NONAME
51 54 1 0 0 
SMALL
USER_CHARGES


@<TRIPOS>ATOM
  1 O       -0.3700    -1.5190     2.0730 O.2   1 <1>  -0.5700 
  2 C       -0.2220    -1.0050     0.9920 C.2   1 <1>   0.5690 
  3 N       -0.9160    -1.4670    -0.1060 N.am  1 <1>  -0.6600 
  4 C        0.6720     0.2290     0.9170 C.3   1 <1>   0.0440 
  5 C       -0.8390    -0.8950    -1.4890 C.3   1 <1>   0.1400 
  6 C       -2.1200    -2.3420     0.0730 C.3   1 <1>   0.1400 
  7 C       -0.1100     1.4400     0.4100 C.ar  1 <1>  -0.1440 
  8 C       -2.0850    -0.0250    -1.8100 C.3   1 <1>   0.4230 
  9 C       -3.4130    -1.6280    -0.3950 C.3   1 <1>   0.3430 
 10 C       -1.3580     1.7260     0.9430 C.ar  1 <1>  -0.1500 
 11 C        0.3910     2.2400    -0.6060 C.ar  1 <1>  -0.1500 
 12 N       -3.1770    -0.1840    -0.7720 N.4   1 <1>  -0.9590 
 13 C       -2.6190    -0.3200    -3.2300 C.3   1 <1>   0.1200 
 14 C       -2.1310     2.7500     0.4240 C.ar  1 <1>   0.0830 
 15 C       -0.3630     3.2880    -1.1060 C.ar  1 <1>  -0.1500 
 16 C       -4.3930     0.5960    -1.1580 C.3   1 <1>   0.5180 
 17 O       -3.7590     0.4450    -3.5000 O.3   1 <1>  -0.5600 
 18 O       -3.3730     2.9000     0.9370 O.3   1 <1>  -0.3630 
 19 C       -1.6260     3.5410    -0.6010 C.ar  1 <1>  -0.1500 
 20 C       -5.4940     0.3920    -0.0980 C.3   1 <1>  -0.1950 
 21 C       -4.8250     0.2620    -2.6070 C.3   1 <1>   0.1200 
 22 C       -4.0040     4.1640     0.9060 C.3   1 <1>   0.0400 
 23 C       -6.5030    -0.7200    -0.1080 C.3   1 <1>  -0.2000 
 24 C       -6.9390     0.6970    -0.3530 C.3   1 <1>  -0.2000 
 25 H        1.0540     0.4450     1.8990 H     1 <1>   0.0800 
 26 H        1.5100     0.0130     0.2810 H     1 <1>   0.0800 
 27 H        0.0540    -0.3120    -1.6200 H     1 <1>   0.0800 
 28 H       -0.7740    -1.7110    -2.1870 H     1 <1>   0.0800 
 29 H       -1.9860    -3.2520    -0.4850 H     1 <1>   0.0800 
 30 H       -2.2360    -2.6240     1.1060 H     1 <1>   0.0800 
 31 H       -1.7640     1.0040    -1.8060 H     1 <1>   0.0800 
 32 H       -4.1370    -1.6860     0.4010 H     1 <1>   0.0800 
 33 H       -3.8190    -2.1600    -1.2380 H     1 <1>   0.0800 
 34 H       -1.7450     1.1510     1.7680 H     1 <1>   0.1500 
 35 H        1.3710     2.0560    -1.0140 H     1 <1>   0.1500 
 36 H       -2.8040     0.2730     0.0730 H     1 <1>   0.4500 
 37 H       -2.8700    -1.3600    -3.3460 H     1 <1>   0.0800 
 38 H       -1.8770    -0.0630    -3.9660 H     1 <1>   0.0800 
 39 H        0.0360     3.9100    -1.8900 H     1 <1>   0.1500 
 40 H       -4.1380     1.6430    -1.1480 H     1 <1>   0.0800 
 41 H       -2.1980     4.3530    -1.0140 H     1 <1>   0.1500 
 42 H       -5.1420     0.7230     0.8650 H     1 <1>   0.1000 
 43 H       -5.6160     0.9210    -2.9160 H     1 <1>   0.0800 
 44 H       -5.1730    -0.7520    -2.6890 H     1 <1>   0.0800 
 45 H       -4.8810     4.1180     1.5270 H     1 <1>   0.0800 
 46 H       -4.2860     4.3960    -0.1060 H     1 <1>   0.0800 
 47 H       -3.3250     4.9040     1.2920 H     1 <1>   0.0800 
 48 H       -6.5840    -1.4060    -0.9340 H     1 <1>   0.1000 
 49 H       -6.7900    -1.1770     0.8240 H     1 <1>   0.1000 
 50 H       -7.5070     1.1940     0.4170 H     1 <1>   0.1000 
 51 H       -7.2980     0.9490    -1.3360 H     1 <1>   0.1000 
@<TRIPOS>BOND
  1   1   2  2   
  2   2   3  am  
  3   2   4  1   
  4   3   5  1   
  5   3   6  1   
  6   4   7  1   
  7   4  25  1   
  8   4  26  1   
  9   5   8  1   
 10   5  27  1   
 11   5  28  1   
 12   6   9  1   
 13   6  29  1   
 14   6  30  1   
 15   7  10  ar  
 16   7  11  ar  
 17   8  12  1   
 18   8  13  1   
 19   8  31  1   
 20   9  12  1   
 21   9  32  1   
 22   9  33  1   
 23  10  14  ar  
 24  10  34  1   
 25  11  15  ar  
 26  11  35  1   
 27  12  16  1   
 28  12  36  1   
 29  13  17  1   
 30  13  37  1   
 31  13  38  1   
 32  14  18  1   
 33  14  19  ar  
 34  15  19  ar  
 35  15  39  1   
 36  16  20  1   
 37  16  21  1   
 38  16  40  1   
 39  17  21  1   
 40  18  22  1   
 41  19  41  1   
 42  20  23  1   
 43  20  24  1   
 44  20  42  1   
 45  21  43  1   
 46  21  44  1   
 47  22  45  1   
 48  22  46  1   
 49  22  47  1   
 50  23  24  1   
 51  23  48  1   
 52  23  49  1   
 53  24  50  1   
 54  24  51  1   
@<TRIPOS>SUBSTRUCTURE
  1 ****  12 GROUP 4 **** **** 0

# MOE 2024.06 (io_trps.svl 2023.06)
