@<TRIPOS>MOLECULE
NONAME
55 57 1 0 0 
SMALL
USER_CHARGES


@<TRIPOS>ATOM
  1 O        5.0010     1.3360     0.4180 O.co2 1 <1>  -0.9000 
  2 C        4.3940     1.9350    -0.4720 C.2   1 <1>   0.9060 
  3 O        4.7620     1.8590    -1.6520 O.co2 1 <1>  -0.9000 
  4 C        3.2630     2.9190    -0.1330 C.3   1 <1>   0.1140 
  5 N        3.7490     4.2720     0.4000 N.am  1 <1>  -0.6600 
  6 C        2.2430     2.2310     0.7980 C.3   1 <1>  -0.0160 
  7 C        4.7250     5.0320    -0.2060 C.2   1 <1>   0.5690 
  8 C        3.2060     4.6920     1.7270 C.3   1 <1>   0.2840 
  9 C        1.2250     3.2320     1.3140 C.ar  1 <1>  -0.1440 
 10 O        5.2380     5.9540     0.3920 O.2   1 <1>  -0.5700 
 11 C        5.1920     4.7740    -1.6730 C.3   1 <1>   0.4840 
 12 C        1.7040     4.4490     1.7690 C.ar  1 <1>  -0.1440 
 13 C       -0.1340     2.9650     1.3390 C.ar  1 <1>  -0.1500 
 14 N        6.4140     3.9380    -1.8240 N.4   1 <1>  -0.9060 
 15 C        5.4110     6.0710    -2.4580 C.3   1 <1>  -0.2400 
 16 C        0.8190     5.4030     2.2450 C.ar  1 <1>  -0.1500 
 17 C       -1.0160     3.9190     1.8160 C.ar  1 <1>  -0.1500 
 18 C        7.5750     4.2620    -0.9320 C.3   1 <1>   0.3170 
 19 C       -0.5400     5.1380     2.2680 C.ar  1 <1>  -0.1500 
 20 C        8.6350     5.0600    -1.7290 C.2   1 <1>   0.9060 
 21 C        8.1240     2.9360    -0.3910 C.3   1 <1>  -0.1600 
 22 O        9.5460     5.6620    -1.1540 O.co2 1 <1>  -0.9000 
 23 O        8.4870     5.0790    -2.9640 O.co2 1 <1>  -0.9000 
 24 C        8.9670     3.1430     0.8740 C.3   1 <1>  -0.0170 
 25 C        9.4730     1.8140     1.4150 C.ar  1 <1>  -0.1440 
 26 C        8.5780     0.8550     1.8660 C.ar  1 <1>  -0.1500 
 27 C       10.8330     1.5480     1.4650 C.ar  1 <1>  -0.1500 
 28 C        9.0370    -0.3540     2.3600 C.ar  1 <1>  -0.1500 
 29 C       11.2940     0.3410     1.9610 C.ar  1 <1>  -0.1500 
 30 C       10.3950    -0.6120     2.4090 C.ar  1 <1>  -0.1500 
 31 H        2.7470     3.1140    -1.0550 H     1 <1>   0.0800 
 32 H        2.7580     1.7910     1.6350 H     1 <1>   0.0800 
 33 H        1.7580     1.4350     0.2640 H     1 <1>   0.0800 
 34 H        3.4070     5.7330     1.9090 H     1 <1>   0.0800 
 35 H        3.6860     4.1150     2.4990 H     1 <1>   0.0800 
 36 H        4.3880     4.2470    -2.1570 H     1 <1>   0.0800 
 37 H       -0.5070     2.0190     0.9890 H     1 <1>   0.1500 
 38 H        6.8160     4.0770    -2.7690 H     1 <1>   0.4500 
 39 H        6.1180     2.9370    -1.7390 H     1 <1>   0.4500 
 40 H        6.2020     6.6530    -2.0190 H     1 <1>   0.0800 
 41 H        4.5120     6.6590    -2.4400 H     1 <1>   0.0800 
 42 H        5.6610     5.8550    -3.4820 H     1 <1>   0.0800 
 43 H        1.1810     6.3530     2.5980 H     1 <1>   0.1500 
 44 H       -2.0720     3.7130     1.8350 H     1 <1>   0.1500 
 45 H        7.2510     4.8720    -0.1090 H     1 <1>   0.0800 
 46 H       -1.2260     5.8800     2.6370 H     1 <1>   0.1500 
 47 H        8.7220     2.4550    -1.1450 H     1 <1>   0.0800 
 48 H        7.3050     2.2850    -0.1440 H     1 <1>   0.0800 
 49 H        8.3690     3.6210     1.6320 H     1 <1>   0.0800 
 50 H        9.7990     3.7920     0.6570 H     1 <1>   0.0800 
 51 H        7.5150     1.0400     1.8260 H     1 <1>   0.1500 
 52 H       11.5370     2.2830     1.1140 H     1 <1>   0.1500 
 53 H        8.3300    -1.0890     2.7010 H     1 <1>   0.1500 
 54 H       12.3500     0.1430     1.9950 H     1 <1>   0.1500 
 55 H       10.7500    -1.5510     2.7930 H     1 <1>   0.1500 
@<TRIPOS>BOND
  1   1   2  ar  
  2   2   3  ar  
  3   2   4  1   
  4   4   5  1   
  5   4   6  1   
  6   4  31  1   
  7   5   7  am  
  8   5   8  1   
  9   6   9  1   
 10   6  32  1   
 11   6  33  1   
 12   7  10  2   
 13   7  11  1   
 14   8  12  1   
 15   8  34  1   
 16   8  35  1   
 17   9  12  ar  
 18   9  13  ar  
 19  11  14  1   
 20  11  15  1   
 21  11  36  1   
 22  12  16  ar  
 23  13  17  ar  
 24  13  37  1   
 25  14  18  1   
 26  14  38  1   
 27  14  39  1   
 28  15  40  1   
 29  15  41  1   
 30  15  42  1   
 31  16  19  ar  
 32  16  43  1   
 33  17  19  ar  
 34  17  44  1   
 35  18  20  1   
 36  18  21  1   
 37  18  45  1   
 38  19  46  1   
 39  20  22  ar  
 40  20  23  ar  
 41  21  24  1   
 42  21  47  1   
 43  21  48  1   
 44  24  25  1   
 45  24  49  1   
 46  24  50  1   
 47  25  26  ar  
 48  25  27  ar  
 49  26  28  ar  
 50  26  51  1   
 51  27  29  ar  
 52  27  52  1   
 53  28  30  ar  
 54  28  53  1   
 55  29  30  ar  
 56  29  54  1   
 57  30  55  1   
@<TRIPOS>SUBSTRUCTURE
  1 ****   7 GROUP 4 **** **** 0

# MOE 2024.06 (io_trps.svl 2023.06)
