@<TRIPOS>MOLECULE
NONAME
47 49 1 0 0 
SMALL
USER_CHARGES


@<TRIPOS>ATOM
  1 O       -0.4960     0.3500     1.0970 O.2   1 <1>  -0.5700 
  2 C       -1.5260     0.9470     0.8010 C.2   1 <1>   0.5440 
  3 N       -2.7140     0.2590     1.0240 N.am  1 <1>  -0.6600 
  4 C       -1.4540     2.2870     0.2600 C.ar  1 <1>   0.3960 
  5 C       -2.7980    -1.2200     0.8380 C.3   1 <1>   0.1400 
  6 C       -4.0620     0.9000     1.0430 C.3   1 <1>   0.1400 
  7 N       -2.3520     2.7090    -0.6740 N.ar  1 <1>  -0.6200 
  8 C       -0.4360     3.1410     0.7110 C.ar  1 <1>   0.1600 
  9 C       -3.6780    -1.5570    -0.3810 C.3   1 <1>   0.3440 
 10 C       -4.8580     0.4900    -0.2170 C.3   1 <1>   0.2000 
 11 C       -2.1690     3.9480    -1.0430 C.ar  1 <1>   0.1600 
 12 N       -0.2490     4.3860     0.3510 N.ar  1 <1>  -0.6200 
 13 O       -4.9250    -0.9160    -0.2790 O.3   1 <1>  -0.5600 
 14 C       -3.8880    -3.0650    -0.4940 C.ar  1 <1>  -0.1430 
 15 C       -6.2970     1.0830    -0.3030 C.3   1 <1>   0.0000 
 16 C       -1.1550     4.8030    -0.5520 C.ar  1 <1>   0.1390 
 17 C       -3.0190    -3.8230    -1.2660 C.ar  1 <1>  -0.1500 
 18 C       -4.9260    -3.7020     0.1730 C.ar  1 <1>  -0.1500 
 19 C       -6.2520     2.6220    -0.2900 C.3   1 <1>  -0.2400 
 20 C       -7.1920     0.6080     0.8580 C.3   1 <1>  -0.2400 
 21 C       -6.9510     0.6480    -1.6270 C.3   1 <1>  -0.2400 
 22 O       -1.0830     5.9750    -0.9520 O.3   1 <1>  -0.8290 
 23 C       -3.1830    -5.1930    -1.3690 C.ar  1 <1>  -0.1500 
 24 C       -5.0920    -5.0720     0.0710 C.ar  1 <1>  -0.1500 
 25 C       -4.2190    -5.8200    -0.7000 C.ar  1 <1>  -0.1500 
 26 H       -1.8190    -1.6400     0.6910 H     1 <1>   0.0800 
 27 H       -3.2200    -1.6680     1.7190 H     1 <1>   0.0800 
 28 H       -4.5880     0.5730     1.9220 H     1 <1>   0.0800 
 29 H       -3.9680     1.9680     1.1020 H     1 <1>   0.0800 
 30 H        0.2580     2.7440     1.4270 H     1 <1>   0.1500 
 31 H       -3.2000    -1.1990    -1.2770 H     1 <1>   0.0800 
 32 H       -4.3120     0.8280    -1.0830 H     1 <1>   0.0800 
 33 H       -2.8210     4.3870    -1.7730 H     1 <1>   0.1500 
 34 H       -2.2080    -3.3500    -1.7910 H     1 <1>   0.1500 
 35 H       -5.6120    -3.1280     0.7720 H     1 <1>   0.1500 
 36 H       -7.2310     3.0310    -0.4650 H     1 <1>   0.0800 
 37 H       -5.5910     2.9850    -1.0590 H     1 <1>   0.0800 
 38 H       -5.9050     2.9970     0.6560 H     1 <1>   0.0800 
 39 H       -8.1920     0.9840     0.7390 H     1 <1>   0.0800 
 40 H       -6.8170     0.9530     1.8040 H     1 <1>   0.0800 
 41 H       -7.2370    -0.4670     0.8800 H     1 <1>   0.0800 
 42 H       -7.9340     1.0730    -1.7280 H     1 <1>   0.0800 
 43 H       -7.0430    -0.4230    -1.6700 H     1 <1>   0.0800 
 44 H       -6.3550     0.9670    -2.4640 H     1 <1>   0.0800 
 45 H       -2.5040    -5.7720    -1.9700 H     1 <1>   0.1500 
 46 H       -5.9000    -5.5550     0.5910 H     1 <1>   0.1500 
 47 H       -4.3470    -6.8850    -0.7790 H     1 <1>   0.1500 
@<TRIPOS>BOND
  1   1   2  2   
  2   2   3  am  
  3   2   4  1   
  4   3   5  1   
  5   3   6  1   
  6   4   7  ar  
  7   4   8  ar  
  8   5   9  1   
  9   5  26  1   
 10   5  27  1   
 11   6  10  1   
 12   6  28  1   
 13   6  29  1   
 14   7  11  ar  
 15   8  12  ar  
 16   8  30  1   
 17   9  13  1   
 18   9  14  1   
 19   9  31  1   
 20  10  13  1   
 21  10  15  1   
 22  10  32  1   
 23  11  16  ar  
 24  11  33  1   
 25  12  16  ar  
 26  14  17  ar  
 27  14  18  ar  
 28  15  19  1   
 29  15  20  1   
 30  15  21  1   
 31  16  22  1   
 32  17  23  ar  
 33  17  34  1   
 34  18  24  ar  
 35  18  35  1   
 36  19  36  1   
 37  19  37  1   
 38  19  38  1   
 39  20  39  1   
 40  20  40  1   
 41  20  41  1   
 42  21  42  1   
 43  21  43  1   
 44  21  44  1   
 45  23  25  ar  
 46  23  45  1   
 47  24  25  ar  
 48  24  46  1   
 49  25  47  1   
@<TRIPOS>SUBSTRUCTURE
  1 ****   3 GROUP 4 **** **** 0

# MOE 2024.06 (io_trps.svl 2023.06)
