@<TRIPOS>MOLECULE
NONAME
30 32 1 0 0 
SMALL
USER_CHARGES


@<TRIPOS>ATOM
  1 O       -0.5860     0.7020    -1.1930 O.2   1 <1>  -0.5700 
  2 C       -1.7450     0.6060    -0.8770 C.2   1 <1>   0.5690 
  3 N       -2.6800     0.0240    -1.6820 N.am  1 <1>  -0.3680 
  4 C       -2.2250     1.1040     0.4670 C.3   1 <1>  -0.0990 
  5 N       -4.0380    -0.0620    -1.4370 N.2   1 <1>  -0.5120 
  6 C       -3.6910     1.5810     0.3870 C.3   1 <1>  -0.0190 
  7 C       -4.5390     0.6300    -0.4770 C.2   1 <1>   0.3030 
  8 C       -3.7630     3.0260    -0.1450 C.3   1 <1>  -0.1600 
  9 C       -5.9310     0.5810    -0.1250 C.ar  1 <1>   0.0860 
 10 C       -5.1540     3.6690    -0.0080 C.3   1 <1>  -0.1600 
 11 C       -6.7640     1.7000    -0.2440 C.ar  1 <1>  -0.1430 
 12 C       -6.4820    -0.6010     0.3690 C.ar  1 <1>  -0.1500 
 13 C       -6.2410     2.9960    -0.8570 C.3   1 <1>  -0.0170 
 14 C       -8.0860     1.6280     0.1640 C.ar  1 <1>  -0.1500 
 15 C       -7.8020    -0.6690     0.7680 C.ar  1 <1>  -0.1500 
 16 C       -8.6060     0.4510     0.6720 C.ar  1 <1>  -0.1500 
 17 H       -2.3100    -0.4030    -2.5370 H     1 <1>   0.3700 
 18 H       -1.5750     1.8820     0.8230 H     1 <1>   0.0800 
 19 H       -2.1610     0.2790     1.1520 H     1 <1>   0.0800 
 20 H       -4.0840     1.5760     1.3890 H     1 <1>   0.0800 
 21 H       -3.4590     3.0440    -1.1790 H     1 <1>   0.0800 
 22 H       -3.0670     3.6370     0.4040 H     1 <1>   0.0800 
 23 H       -5.0730     4.6950    -0.3240 H     1 <1>   0.0800 
 24 H       -5.4590     3.6770     1.0250 H     1 <1>   0.0800 
 25 H       -5.8570    -1.4740     0.4390 H     1 <1>   0.1500 
 26 H       -5.8650     2.7990    -1.8470 H     1 <1>   0.0800 
 27 H       -7.0590     3.6870    -0.9670 H     1 <1>   0.0800 
 28 H       -8.7290     2.4870     0.0820 H     1 <1>   0.1500 
 29 H       -8.2050    -1.5910     1.1520 H     1 <1>   0.1500 
 30 H       -9.6350     0.4050     0.9850 H     1 <1>   0.1500 
@<TRIPOS>BOND
  1   1   2  2   
  2   2   3  am  
  3   2   4  1   
  4   3   5  1   
  5   3  17  1   
  6   4   6  1   
  7   4  18  1   
  8   4  19  1   
  9   5   7  2   
 10   6   7  1   
 11   6   8  1   
 12   6  20  1   
 13   7   9  1   
 14   8  10  1   
 15   8  21  1   
 16   8  22  1   
 17   9  11  ar  
 18   9  12  ar  
 19  10  13  1   
 20  10  23  1   
 21  10  24  1   
 22  11  13  1   
 23  11  14  ar  
 24  12  15  ar  
 25  12  25  1   
 26  13  26  1   
 27  13  27  1   
 28  14  16  ar  
 29  14  28  1   
 30  15  16  ar  
 31  15  29  1   
 32  16  30  1   
@<TRIPOS>SUBSTRUCTURE
  1 ****   7 GROUP 4 **** **** 0

# MOE 2024.06 (io_trps.svl 2023.06)
