@<TRIPOS>MOLECULE
NONAME
57 60 1 0 0 
SMALL
USER_CHARGES


@<TRIPOS>ATOM
  1 O        1.1260     0.4390     1.3890 O.2   1 <1>  -0.5700 
  2 C        2.0670    -0.2610     1.0690 C.2   1 <1>   0.7150 
  3 N        3.3470     0.2530     1.2210 N.am  1 <1>  -0.6600 
  4 C        1.8060    -1.5660     0.5110 C.2   1 <1>   0.0550 
  5 C        4.5990    -0.5670     1.2070 C.3   1 <1>   0.1400 
  6 C        3.5730     1.7030     1.4630 C.3   1 <1>   0.1400 
  7 O        2.6610    -2.1590    -0.2920 O.3   1 <1>  -0.0190 
  8 C        0.7490    -2.4030     0.6080 C.2   1 <1>  -0.1500 
  9 C        5.3490    -0.4790    -0.1400 C.3   1 <1>   0.3430 
 10 C        3.7230     2.4430     0.1290 C.3   1 <1>  -0.1600 
 11 N        2.2560    -3.3160    -0.7090 N.2   1 <1>  -0.4100 
 12 C        1.0950    -3.4910    -0.1790 C.2   1 <1>   0.2030 
 13 N        5.5560     0.9280    -0.6180 N.4   1 <1>  -0.9590 
 14 C        4.3010     1.6180    -1.0250 C.3   1 <1>   0.3430 
 15 C        0.2310    -4.7190    -0.4000 C.3   1 <1>  -0.0140 
 16 C        6.5950     1.0320    -1.6740 C.3   1 <1>   0.5240 
 17 C       -0.4850    -5.3680     0.7480 C.3   1 <1>  -0.2000 
 18 C        0.6840    -6.0540     0.1110 C.3   1 <1>  -0.2000 
 19 C        7.2080     2.4180    -1.5350 C.2   1 <1>   0.0460 
 20 N        7.3950     2.9470    -0.3040 N.2   1 <1>  -0.5650 
 21 C        7.6140     3.2790    -2.4940 C.2   1 <1>  -0.3020 
 22 C        7.9210     4.1060    -0.5390 C.2   1 <1>   0.0060 
 23 N        8.0790     4.3690    -1.8550 N.pl3 1 <1>   0.0330 
 24 C        8.3300     5.0910     0.5440 C.3   1 <1>   0.0200 
 25 C        9.8570     5.2020     0.6450 C.3   1 <1>  -0.1600 
 26 C       10.2780     6.1800     1.7500 C.3   1 <1>  -0.1600 
 27 C       11.8020     6.2820     1.8420 C.3   1 <1>  -0.2400 
 28 H        4.3690    -1.5970     1.4200 H     1 <1>   0.0800 
 29 H        5.2510    -0.2340     1.9950 H     1 <1>   0.0800 
 30 H        4.4630     1.8360     2.0560 H     1 <1>   0.0800 
 31 H        2.7540     2.1250     2.0250 H     1 <1>   0.0800 
 32 H       -0.1630    -2.2720     1.1610 H     1 <1>   0.1500 
 33 H        4.7960    -1.0330    -0.8810 H     1 <1>   0.0800 
 34 H        6.3040    -0.9630    -0.0210 H     1 <1>   0.0800 
 35 H        4.3230     3.3240     0.2790 H     1 <1>   0.0800 
 36 H        2.7480     2.7850    -0.1700 H     1 <1>   0.0800 
 37 H        5.9800     1.5100     0.1290 H     1 <1>   0.4500 
 38 H        4.4950     2.2830    -1.8510 H     1 <1>   0.0800 
 39 H        3.5740     0.8890    -1.3450 H     1 <1>   0.0800 
 40 H       -0.2630    -4.7020    -1.3550 H     1 <1>   0.1000 
 41 H        6.1770     0.8890    -2.6560 H     1 <1>   0.0800 
 42 H        7.3680     0.3010    -1.5050 H     1 <1>   0.0800 
 43 H       -1.4710    -5.7650     0.5820 H     1 <1>   0.1000 
 44 H       -0.3610    -4.9700     1.7400 H     1 <1>   0.1000 
 45 H        1.6160    -6.1060     0.6470 H     1 <1>   0.1000 
 46 H        0.5120    -6.9210    -0.5020 H     1 <1>   0.1000 
 47 H        7.6090     3.1900    -3.5660 H     1 <1>   0.1500 
 48 H        8.4820     5.2180    -2.2650 H     1 <1>   0.2700 
 49 H        7.9340     4.7570     1.4870 H     1 <1>   0.0800 
 50 H        7.9030     6.0550     0.3300 H     1 <1>   0.0800 
 51 H       10.2590     5.5340    -0.2960 H     1 <1>   0.0800 
 52 H       10.2640     4.2280     0.8560 H     1 <1>   0.0800 
 53 H        9.8900     5.8460     2.6980 H     1 <1>   0.0800 
 54 H        9.8710     7.1570     1.5490 H     1 <1>   0.0800 
 55 H       12.2310     5.3210     2.0660 H     1 <1>   0.0800 
 56 H       12.0790     6.9680     2.6230 H     1 <1>   0.0800 
 57 H       12.2150     6.6380     0.9140 H     1 <1>   0.0800 
@<TRIPOS>BOND
  1   1   2  2   
  2   2   3  am  
  3   2   4  1   
  4   3   5  1   
  5   3   6  1   
  6   4   7  1   
  7   4   8  2   
  8   5   9  1   
  9   5  28  1   
 10   5  29  1   
 11   6  10  1   
 12   6  30  1   
 13   6  31  1   
 14   7  11  1   
 15   8  12  1   
 16   8  32  1   
 17   9  13  1   
 18   9  33  1   
 19   9  34  1   
 20  10  14  1   
 21  10  35  1   
 22  10  36  1   
 23  11  12  2   
 24  12  15  1   
 25  13  14  1   
 26  13  16  1   
 27  13  37  1   
 28  14  38  1   
 29  14  39  1   
 30  15  17  1   
 31  15  18  1   
 32  15  40  1   
 33  16  19  1   
 34  16  41  1   
 35  16  42  1   
 36  17  18  1   
 37  17  43  1   
 38  17  44  1   
 39  18  45  1   
 40  18  46  1   
 41  19  20  1   
 42  19  21  2   
 43  20  22  2   
 44  21  23  1   
 45  21  47  1   
 46  22  23  1   
 47  22  24  1   
 48  23  48  1   
 49  24  25  1   
 50  24  49  1   
 51  24  50  1   
 52  25  26  1   
 53  25  51  1   
 54  25  52  1   
 55  26  27  1   
 56  26  53  1   
 57  26  54  1   
 58  27  55  1   
 59  27  56  1   
 60  27  57  1   
@<TRIPOS>SUBSTRUCTURE
  1 ****  13 GROUP 4 **** **** 0

# MOE 2024.06 (io_trps.svl 2023.06)
