@<TRIPOS>MOLECULE
NONAME
47 49 1 0 0 
SMALL
USER_CHARGES


@<TRIPOS>ATOM
  1 S        0.4630     0.3830    -0.4230 S.o2  1 <1>   1.3330 
  2 O       -0.8330     0.9440    -0.1150 O.2   1 <1>  -0.6500 
  3 O        0.5760    -0.6490    -1.4290 O.2   1 <1>  -0.6500 
  4 N        1.1030    -0.2300     1.0260 N.am  1 <1>  -0.8490 
  5 C        1.5840     1.7120    -0.8670 C.3   1 <1>  -0.0550 
  6 C        0.7700     0.5840     2.2010 C.3   1 <1>   0.1160 
  7 C        0.7020    -1.6200     1.2580 C.3   1 <1>   0.1160 
  8 C        3.0010     1.2460    -1.2680 C.3   1 <1>  -0.0800 
  9 C        3.9000     2.3470    -1.8070 C.3   1 <1>   0.2200 
 10 C        3.8350     0.6570    -0.1240 C.3   1 <1>   0.1200 
 11 N        3.7430     3.5820    -1.0070 N.am  1 <1>  -0.7300 
 12 C        5.2760     1.7530    -1.5380 C.3   1 <1>   0.1200 
 13 O        5.1550     1.0690    -0.3280 O.3   1 <1>  -0.5600 
 14 C        3.3050     4.7860    -1.4560 C.2   1 <1>   0.5690 
 15 O        2.9370     4.9370    -2.5960 O.2   1 <1>  -0.5700 
 16 C        3.2440     5.9710    -0.5160 C.3   1 <1>   0.1570 
 17 N        4.3060     5.8700     0.4950 N.pl3 1 <1>   0.3140 
 18 N        4.1680     5.0790     1.5880 N.2   1 <1>  -0.7070 
 19 C        5.5560     6.4170     0.4210 C.ar  1 <1>  -0.1520 
 20 C        5.3060     5.1470     2.1960 C.2   1 <1>   0.1390 
 21 C        6.2350     5.9630     1.5310 C.ar  1 <1>   0.0000 
 22 C        6.1790     7.2600    -0.5090 C.ar  1 <1>  -0.1500 
 23 C        7.5630     6.3530     1.7470 C.ar  1 <1>  -0.1500 
 24 C        7.4820     7.6370    -0.2910 C.ar  1 <1>  -0.1500 
 25 C        8.1760     7.1840     0.8400 C.ar  1 <1>  -0.1500 
 26 H        1.1630     2.2390    -1.7020 H     1 <1>   0.0800 
 27 H        1.6460     2.4060    -0.0530 H     1 <1>   0.0800 
 28 H        1.2650     0.1940     3.0730 H     1 <1>   0.0800 
 29 H       -0.2950     0.5810     2.3730 H     1 <1>   0.0800 
 30 H        1.0930     1.6010     2.0550 H     1 <1>   0.0800 
 31 H        1.1340    -1.9870     2.1740 H     1 <1>   0.0800 
 32 H        1.0470    -2.2440     0.4510 H     1 <1>   0.0800 
 33 H       -0.3720    -1.6950     1.3170 H     1 <1>   0.0800 
 34 H        2.9120     0.4890    -2.0290 H     1 <1>   0.0800 
 35 H        3.7380     2.5460    -2.8540 H     1 <1>   0.0800 
 36 H        3.7990    -0.4190    -0.1130 H     1 <1>   0.0800 
 37 H        3.5260     1.0400     0.8330 H     1 <1>   0.0800 
 38 H        4.0920     3.5140    -0.0380 H     1 <1>   0.3700 
 39 H        6.0450     2.5000    -1.4580 H     1 <1>   0.0800 
 40 H        5.5360     1.0350    -2.2970 H     1 <1>   0.0800 
 41 H        2.2940     5.9820    -0.0190 H     1 <1>   0.0800 
 42 H        3.3640     6.8820    -1.0690 H     1 <1>   0.0800 
 43 H        5.5280     4.6300     3.1140 H     1 <1>   0.1500 
 44 H        5.6460     7.6050    -1.3780 H     1 <1>   0.1500 
 45 H        8.0820     5.9950     2.6180 H     1 <1>   0.1500 
 46 H        7.9870     8.2840    -0.9880 H     1 <1>   0.1500 
 47 H        9.1960     7.4950     0.9870 H     1 <1>   0.1500 
@<TRIPOS>BOND
  1   1   2  2   
  2   1   3  2   
  3   1   4  am  
  4   1   5  1   
  5   4   6  1   
  6   4   7  1   
  7   5   8  1   
  8   5  26  1   
  9   5  27  1   
 10   6  28  1   
 11   6  29  1   
 12   6  30  1   
 13   7  31  1   
 14   7  32  1   
 15   7  33  1   
 16   8   9  1   
 17   8  10  1   
 18   8  34  1   
 19   9  11  1   
 20   9  12  1   
 21   9  35  1   
 22  10  13  1   
 23  10  36  1   
 24  10  37  1   
 25  11  14  am  
 26  11  38  1   
 27  12  13  1   
 28  12  39  1   
 29  12  40  1   
 30  14  15  2   
 31  14  16  1   
 32  16  17  1   
 33  16  41  1   
 34  16  42  1   
 35  17  18  1   
 36  17  19  1   
 37  18  20  2   
 38  19  21  ar  
 39  19  22  ar  
 40  20  21  1   
 41  20  43  1   
 42  21  23  ar  
 43  22  24  ar  
 44  22  44  1   
 45  23  25  ar  
 46  23  45  1   
 47  24  25  ar  
 48  24  46  1   
 49  25  47  1   
@<TRIPOS>SUBSTRUCTURE
  1 ****  11 GROUP 4 **** **** 0

# MOE 2024.06 (io_trps.svl 2023.06)
