@<TRIPOS>MOLECULE
NONAME
48 50 1 0 0 
SMALL
USER_CHARGES


@<TRIPOS>ATOM
  1 O       -0.3500    -0.0610     0.7680 O.2   1 <1>  -0.5700 
  2 C       -1.3360     0.6380     0.8900 C.2   1 <1>   0.5440 
  3 N       -2.5680     0.0380     1.0340 N.am  1 <1>  -0.6600 
  4 C       -1.2040     2.0780     0.8760 C.ar  1 <1>   0.0860 
  5 C       -2.7240    -1.4450     1.1710 C.3   1 <1>   0.1400 
  6 C       -3.8700     0.7390     0.8080 C.3   1 <1>   0.1400 
  7 C       -0.7740     2.8020    -0.2340 C.ar  1 <1>  -0.1440 
  8 C       -1.5390     2.7970     2.0210 C.ar  1 <1>   0.1600 
  9 C       -3.5840    -2.0140     0.0300 C.3   1 <1>   0.3440 
 10 C       -4.6730     0.0560    -0.3230 C.3   1 <1>   0.2000 
 11 C       -0.7260     4.1750    -0.1100 C.ar  1 <1>  -0.1500 
 12 C       -0.3710     2.1180    -1.5330 C.3   1 <1>  -0.0960 
 13 N       -1.5100     4.1130     2.1510 N.ar  1 <1>  -0.6200 
 14 O       -4.7990    -1.3130    -0.0490 O.3   1 <1>  -0.5600 
 15 C       -3.8620    -3.4980     0.2550 C.ar  1 <1>  -0.1430 
 16 C       -6.0920     0.6440    -0.5040 C.3   1 <1>  -0.0800 
 17 C       -1.0990     4.7730     1.0810 C.ar  1 <1>   0.1600 
 18 C       -4.9620    -3.9280     0.9840 C.ar  1 <1>  -0.1500 
 19 C       -2.9890    -4.4430    -0.2660 C.ar  1 <1>  -0.1500 
 20 C       -6.8680    -0.0880    -1.6130 C.3   1 <1>  -0.2400 
 21 C       -6.0630     2.1460    -0.8350 C.3   1 <1>  -0.2400 
 22 C       -5.1870    -5.2780     1.1900 C.ar  1 <1>  -0.1500 
 23 C       -3.2110    -5.7940    -0.0610 C.ar  1 <1>  -0.1500 
 24 C       -4.3110    -6.2130     0.6670 C.ar  1 <1>  -0.1500 
 25 H       -1.7670    -1.9350     1.1660 H     1 <1>   0.0800 
 26 H       -3.1980    -1.6660     2.1100 H     1 <1>   0.0800 
 27 H       -4.4470     0.7170     1.7150 H     1 <1>   0.0800 
 28 H       -3.7010     1.7670     0.5460 H     1 <1>   0.0800 
 29 H       -1.8580     2.2350     2.8830 H     1 <1>   0.1500 
 30 H       -3.0690    -1.8890    -0.9070 H     1 <1>   0.0800 
 31 H       -4.1360     0.1580    -1.2500 H     1 <1>   0.0800 
 32 H       -0.4000     4.7910    -0.9290 H     1 <1>   0.1500 
 33 H       -0.1450     2.8410    -2.2970 H     1 <1>   0.0800 
 34 H       -1.1680     1.4870    -1.8850 H     1 <1>   0.0800 
 35 H        0.5020     1.5110    -1.3700 H     1 <1>   0.0800 
 36 H       -6.6280     0.5160     0.4220 H     1 <1>   0.0800 
 37 H       -1.0560     5.8470     1.1580 H     1 <1>   0.1500 
 38 H       -5.6510    -3.2080     1.3920 H     1 <1>   0.1500 
 39 H       -2.1290    -4.1330    -0.8330 H     1 <1>   0.1500 
 40 H       -6.3550    -0.0040    -2.5550 H     1 <1>   0.0800 
 41 H       -7.8550     0.3250    -1.7190 H     1 <1>   0.0800 
 42 H       -6.9710    -1.1320    -1.3740 H     1 <1>   0.0800 
 43 H       -5.4770     2.3290    -1.7190 H     1 <1>   0.0800 
 44 H       -5.6550     2.7170    -0.0210 H     1 <1>   0.0800 
 45 H       -7.0620     2.5060    -1.0120 H     1 <1>   0.0800 
 46 H       -6.0440    -5.6000     1.7550 H     1 <1>   0.1500 
 47 H       -2.5300    -6.5200    -0.4690 H     1 <1>   0.1500 
 48 H       -4.4850    -7.2620     0.8260 H     1 <1>   0.1500 
@<TRIPOS>BOND
  1   1   2  2   
  2   2   3  am  
  3   2   4  1   
  4   3   5  1   
  5   3   6  1   
  6   4   7  ar  
  7   4   8  ar  
  8   5   9  1   
  9   5  25  1   
 10   5  26  1   
 11   6  10  1   
 12   6  27  1   
 13   6  28  1   
 14   7  11  ar  
 15   7  12  1   
 16   8  13  ar  
 17   8  29  1   
 18   9  14  1   
 19   9  15  1   
 20   9  30  1   
 21  10  14  1   
 22  10  16  1   
 23  10  31  1   
 24  11  17  ar  
 25  11  32  1   
 26  12  33  1   
 27  12  34  1   
 28  12  35  1   
 29  13  17  ar  
 30  15  18  ar  
 31  15  19  ar  
 32  16  20  1   
 33  16  21  1   
 34  16  36  1   
 35  17  37  1   
 36  18  22  ar  
 37  18  38  1   
 38  19  23  ar  
 39  19  39  1   
 40  20  40  1   
 41  20  41  1   
 42  20  42  1   
 43  21  43  1   
 44  21  44  1   
 45  21  45  1   
 46  22  24  ar  
 47  22  46  1   
 48  23  24  ar  
 49  23  47  1   
 50  24  48  1   
@<TRIPOS>SUBSTRUCTURE
  1 ****   3 GROUP 4 **** **** 0

# MOE 2024.06 (io_trps.svl 2023.06)
