@<TRIPOS>MOLECULE
NONAME
54 57 1 0 0 
SMALL
USER_CHARGES


@<TRIPOS>ATOM
  1 O        3.4310     0.2660     3.0340 O.2   1 <1>  -0.5700 
  2 C        3.1450    -0.6160     2.2560 C.2   1 <1>   0.9370 
  3 N        3.2610    -0.3840     0.8760 N.pl3 1 <1>  -0.5760 
  4 C        2.6940    -1.8770     2.7210 C.2   1 <1>  -0.1360 
  5 C        2.9290    -1.3700     0.0010 C.cat 1 <1>   0.7390 
  6 C        3.6920     0.8290     0.3930 C.2   1 <1>   0.1910 
  7 C        2.3850    -2.8420     1.8380 C.2   1 <1>   0.2030 
  8 N        2.5150    -2.5520     0.5050 N.pl3 1 <1>  -0.6450 
  9 C        3.0150    -1.1490    -1.3900 C.2   1 <1>  -0.1680 
 10 C        3.7870     1.0650    -0.9480 C.2   1 <1>  -0.1500 
 11 C        1.8910    -4.2540     2.1610 C.3   1 <1>   0.2480 
 12 C        3.4430     0.0650    -1.8630 C.2   1 <1>  -0.1500 
 13 C        2.6380    -2.2450    -2.3860 C.3   1 <1>  -0.1020 
 14 N        1.1240    -4.7980     1.0120 N.3   1 <1>  -0.8100 
 15 C        1.1360    -6.2870     1.0700 C.3   1 <1>   0.1100 
 16 C       -0.2580    -4.2670     1.0100 C.3   1 <1>   0.1100 
 17 C        0.4480    -6.9890    -0.1130 C.3   1 <1>   0.2090 
 18 C       -0.8820    -4.3870    -0.3840 C.3   1 <1>  -0.1600 
 19 N       -1.0300    -6.8620    -0.0110 N.pl3 1 <1>  -0.8380 
 20 C       -1.6900    -5.6720    -0.5950 C.3   1 <1>   0.2090 
 21 C       -1.7960    -8.0190     0.1230 C.ar  1 <1>   0.1000 
 22 C       -1.9040    -8.9920    -0.8780 C.ar  1 <1>  -0.1430 
 23 C       -2.4830    -8.2050     1.3160 C.ar  1 <1>  -0.1500 
 24 C       -2.6820   -10.1180    -0.6560 C.ar  1 <1>  -0.1500 
 25 C       -1.1910    -8.8590    -2.2170 C.3   1 <1>  -0.0970 
 26 C       -3.2590    -9.3280     1.5290 C.ar  1 <1>  -0.1500 
 27 C       -3.3590   -10.2890     0.5400 C.ar  1 <1>  -0.1500 
 28 H        2.6230    -2.0010     3.7850 H     1 <1>   0.1500 
 29 H        3.9580     1.6050     1.0970 H     1 <1>   0.1500 
 30 H        2.1840    -3.3070    -0.1160 H     1 <1>   0.4500 
 31 H        4.1260     2.0190    -1.3170 H     1 <1>   0.1500 
 32 H        1.2920    -4.2610     3.0570 H     1 <1>   0.0800 
 33 H        2.7580    -4.8690     2.3340 H     1 <1>   0.0800 
 34 H        3.5240     0.2740    -2.9190 H     1 <1>   0.1500 
 35 H        3.2580    -3.1130    -2.2460 H     1 <1>   0.0800 
 36 H        2.7710    -1.9060    -3.3990 H     1 <1>   0.0800 
 37 H        1.6060    -2.5260    -2.2660 H     1 <1>   0.0800 
 38 H        0.6700    -6.6280     1.9800 H     1 <1>   0.0800 
 39 H        2.1580    -6.6220     1.0810 H     1 <1>   0.0800 
 40 H       -0.2410    -3.2220     1.2700 H     1 <1>   0.0800 
 41 H       -0.8650    -4.7770     1.7420 H     1 <1>   0.0800 
 42 H        0.7050    -8.0340    -0.0790 H     1 <1>   0.0800 
 43 H        0.8000    -6.5910    -1.0470 H     1 <1>   0.0800 
 44 H       -0.1250    -4.3030    -1.1420 H     1 <1>   0.0800 
 45 H       -1.5610    -3.5660    -0.5270 H     1 <1>   0.0800 
 46 H       -1.8560    -5.8310    -1.6460 H     1 <1>   0.0800 
 47 H       -2.6530    -5.5640    -0.1260 H     1 <1>   0.0800 
 48 H       -2.4000    -7.4560     2.0790 H     1 <1>   0.1500 
 49 H       -2.7700   -10.8730    -1.4160 H     1 <1>   0.1500 
 50 H       -1.2460    -7.8490    -2.5750 H     1 <1>   0.0800 
 51 H       -1.6420    -9.4980    -2.9550 H     1 <1>   0.0800 
 52 H       -0.1590    -9.1370    -2.1090 H     1 <1>   0.0800 
 53 H       -3.7830    -9.4550     2.4590 H     1 <1>   0.1500 
 54 H       -3.9600   -11.1670     0.6980 H     1 <1>   0.1500 
@<TRIPOS>BOND
  1   1   2  2   
  2   2   3  1   
  3   2   4  1   
  4   3   5  ar  
  5   3   6  1   
  6   4   7  2   
  7   4  28  1   
  8   5   8  ar  
  9   5   9  1   
 10   6  10  2   
 11   6  29  1   
 12   7   8  1   
 13   7  11  1   
 14   8  30  1   
 15   9  12  2   
 16   9  13  1   
 17  10  12  1   
 18  10  31  1   
 19  11  14  1   
 20  11  32  1   
 21  11  33  1   
 22  12  34  1   
 23  13  35  1   
 24  13  36  1   
 25  13  37  1   
 26  14  15  1   
 27  14  16  1   
 28  15  17  1   
 29  15  38  1   
 30  15  39  1   
 31  16  18  1   
 32  16  40  1   
 33  16  41  1   
 34  17  19  1   
 35  17  42  1   
 36  17  43  1   
 37  18  20  1   
 38  18  44  1   
 39  18  45  1   
 40  19  20  1   
 41  19  21  1   
 42  20  46  1   
 43  20  47  1   
 44  21  22  ar  
 45  21  23  ar  
 46  22  24  ar  
 47  22  25  1   
 48  23  26  ar  
 49  23  48  1   
 50  24  27  ar  
 51  24  49  1   
 52  25  50  1   
 53  25  51  1   
 54  25  52  1   
 55  26  27  ar  
 56  26  53  1   
 57  27  54  1   
@<TRIPOS>SUBSTRUCTURE
  1 ****  14 GROUP 4 **** **** 0

# MOE 2024.06 (io_trps.svl 2023.06)
