@<TRIPOS>MOLECULE
NONAME
39 40 1 0 0 
SMALL
USER_CHARGES


@<TRIPOS>ATOM
  1 S       -0.4860     0.0070     0.5210 S.3   1 <1>  -0.0800 
  2 C       -0.9890    -1.1850    -0.6310 C.2   1 <1>   0.4420 
  3 C       -0.0990     1.0410    -0.8150 C.2   1 <1>   0.1980 
  4 N       -0.8370    -0.7830    -1.8400 N.2   1 <1>  -0.3380 
  5 N       -1.4600    -2.3730    -0.1110 N.am  1 <1>  -0.4940 
  6 N       -0.3310     0.4840    -1.9380 N.2   1 <1>  -0.3380 
  7 C        0.4730     2.4260    -0.5100 C.3   1 <1>   0.3800 
  8 C       -1.9590    -3.4830    -0.7460 C.2   1 <1>   0.5440 
  9 O       -0.2640     3.0120     0.5270 O.3   1 <1>  -0.5600 
 10 C        0.4190     3.3610    -1.7230 C.3   1 <1>  -0.2400 
 11 O       -2.1400    -3.4740    -1.9450 O.2   1 <1>  -0.5700 
 12 C       -2.2960    -4.6540     0.0410 C.ar  1 <1>   0.0860 
 13 C        0.4210     3.9360     1.3150 C.3   1 <1>   0.0400 
 14 C       -3.3950    -5.4410    -0.2940 C.ar  1 <1>  -0.1500 
 15 C       -1.5460    -5.0340     1.1580 C.ar  1 <1>  -0.1500 
 16 C       -3.7580    -6.5560     0.4480 C.ar  1 <1>   0.1000 
 17 C       -1.8960    -6.1400     1.9120 C.ar  1 <1>  -0.1500 
 18 N       -4.8600    -7.3360     0.1090 N.pl3 1 <1>  -0.8380 
 19 C       -2.9980    -6.8930     1.5580 C.ar  1 <1>  -0.1500 
 20 C       -5.0540    -7.7110    -1.3160 C.3   1 <1>   0.1290 
 21 C       -6.1150    -7.0900     0.8640 C.3   1 <1>   0.1290 
 22 H       -1.4790    -2.4120     0.9020 H     1 <1>   0.3700 
 23 H        1.4910     2.3000    -0.1820 H     1 <1>   0.0800 
 24 H       -0.6030     3.5070    -2.0250 H     1 <1>   0.0800 
 25 H        0.9530     2.9190    -2.5450 H     1 <1>   0.0800 
 26 H        0.8700     4.3100    -1.5030 H     1 <1>   0.0800 
 27 H       -0.2530     4.2890     2.0760 H     1 <1>   0.0800 
 28 H        0.7410     4.7660     0.7100 H     1 <1>   0.0800 
 29 H        1.2650     3.4550     1.7790 H     1 <1>   0.0800 
 30 H       -3.9820    -5.1710    -1.1520 H     1 <1>   0.1500 
 31 H       -0.6730    -4.4720     1.4370 H     1 <1>   0.1500 
 32 H       -1.3100    -6.4210     2.7700 H     1 <1>   0.1500 
 33 H       -3.2790    -7.7580     2.1300 H     1 <1>   0.1500 
 34 H       -4.0990    -7.7890    -1.8080 H     1 <1>   0.0800 
 35 H       -5.6480    -6.9680    -1.8190 H     1 <1>   0.0800 
 36 H       -5.5490    -8.6640    -1.3760 H     1 <1>   0.0800 
 37 H       -5.8870    -6.7170     1.8480 H     1 <1>   0.0800 
 38 H       -6.6650    -8.0100     0.9610 H     1 <1>   0.0800 
 39 H       -6.7200    -6.3650     0.3480 H     1 <1>   0.0800 
@<TRIPOS>BOND
  1   1   2  1   
  2   1   3  1   
  3   2   4  2   
  4   2   5  1   
  5   3   6  2   
  6   3   7  1   
  7   4   6  1   
  8   5   8  am  
  9   5  22  1   
 10   7   9  1   
 11   7  10  1   
 12   7  23  1   
 13   8  11  2   
 14   8  12  1   
 15   9  13  1   
 16  10  24  1   
 17  10  25  1   
 18  10  26  1   
 19  12  14  ar  
 20  12  15  ar  
 21  13  27  1   
 22  13  28  1   
 23  13  29  1   
 24  14  16  ar  
 25  14  30  1   
 26  15  17  ar  
 27  15  31  1   
 28  16  18  1   
 29  16  19  ar  
 30  17  19  ar  
 31  17  32  1   
 32  18  20  1   
 33  18  21  1   
 34  19  33  1   
 35  20  34  1   
 36  20  35  1   
 37  20  36  1   
 38  21  37  1   
 39  21  38  1   
 40  21  39  1   
@<TRIPOS>SUBSTRUCTURE
  1 ****   5 GROUP 4 **** **** 0

# MOE 2024.06 (io_trps.svl 2023.06)
