@<TRIPOS>MOLECULE
NONAME
47 50 1 0 0 
SMALL
USER_CHARGES


@<TRIPOS>ATOM
  1 O        0.9130    -1.3790     0.7750 O.3   1 <1>  -0.5600 
  2 C        0.4160    -2.1980    -0.2630 C.3   1 <1>   0.4180 
  3 C        0.9480     0.0050     0.5400 C.3   1 <1>   0.1200 
  4 C       -0.7770    -1.5450    -0.9480 C.2   1 <1>  -0.2880 
  5 C       -0.0180    -3.5080     0.4060 C.3   1 <1>  -0.1600 
  6 C        1.5540    -2.4880    -1.2460 C.3   1 <1>  -0.1600 
  7 C       -0.4670     0.5560     0.3180 C.3   1 <1>  -0.0220 
  8 C       -1.2030    -0.3080    -0.6870 C.2   1 <1>  -0.2760 
  9 C        1.1490    -4.4210     0.7980 C.3   1 <1>   0.3430 
 10 C        2.7670    -3.1360    -0.5670 C.3   1 <1>   0.3430 
 11 C       -2.4180     0.3380    -1.3310 C.3   1 <1>  -0.1020 
 12 N        2.4200    -3.6510     0.8020 N.4   1 <1>  -0.9590 
 13 C        3.5410    -4.3370     1.5320 C.3   1 <1>   0.4230 
 14 C        4.7220    -3.3650     1.7340 C.3   1 <1>  -0.0170 
 15 C        4.1260    -5.5100     0.7140 C.3   1 <1>  -0.0170 
 16 C        5.6270    -3.6750     0.5660 C.ar  1 <1>  -0.1430 
 17 C        5.2940    -4.8790    -0.0050 C.ar  1 <1>  -0.1430 
 18 C        6.6650    -2.9150     0.0620 C.ar  1 <1>  -0.1500 
 19 C        5.9890    -5.3610    -1.0980 C.ar  1 <1>  -0.1500 
 20 C        7.3660    -3.3880    -1.0360 C.ar  1 <1>  -0.1500 
 21 C        7.0300    -4.6050    -1.6130 C.ar  1 <1>  -0.1500 
 22 H        1.5600     0.1950    -0.3240 H     1 <1>   0.0800 
 23 H        1.3990     0.4780     1.3960 H     1 <1>   0.0800 
 24 H       -1.2600    -2.1850    -1.6660 H     1 <1>   0.1500 
 25 H       -0.6520    -4.0600    -0.2640 H     1 <1>   0.0800 
 26 H       -0.6130    -3.2770     1.2720 H     1 <1>   0.0800 
 27 H        1.8550    -1.5880    -1.7500 H     1 <1>   0.0800 
 28 H        1.1930    -3.1550    -2.0070 H     1 <1>   0.0800 
 29 H       -0.3870     1.5650    -0.0450 H     1 <1>   0.0800 
 30 H       -1.0050     0.5760     1.2490 H     1 <1>   0.0800 
 31 H        1.2250    -5.2320     0.0920 H     1 <1>   0.0800 
 32 H        0.9610    -4.8370     1.7740 H     1 <1>   0.0800 
 33 H        3.5500    -2.4000    -0.4770 H     1 <1>   0.0800 
 34 H        3.1420    -3.9350    -1.1860 H     1 <1>   0.0800 
 35 H       -3.1340     0.6130    -0.5780 H     1 <1>   0.0800 
 36 H       -2.8910    -0.3420    -2.0170 H     1 <1>   0.0800 
 37 H       -2.1280     1.2210    -1.8740 H     1 <1>   0.0800 
 38 H        2.1780    -2.7860     1.3240 H     1 <1>   0.4500 
 39 H        3.1850    -4.6850     2.4880 H     1 <1>   0.0800 
 40 H        5.2420    -3.6060     2.6440 H     1 <1>   0.0800 
 41 H        4.4170    -2.3340     1.7590 H     1 <1>   0.0800 
 42 H        3.4190    -5.9530     0.0380 H     1 <1>   0.0800 
 43 H        4.5040    -6.2660     1.3800 H     1 <1>   0.0800 
 44 H        6.9320    -1.9730     0.5100 H     1 <1>   0.1500 
 45 H        5.7350    -6.3070    -1.5450 H     1 <1>   0.1500 
 46 H        8.1790    -2.8110    -1.4420 H     1 <1>   0.1500 
 47 H        7.5850    -4.9640    -2.4630 H     1 <1>   0.1500 
@<TRIPOS>BOND
  1   1   2  1   
  2   1   3  1   
  3   2   4  1   
  4   2   5  1   
  5   2   6  1   
  6   3   7  1   
  7   3  22  1   
  8   3  23  1   
  9   4   8  2   
 10   4  24  1   
 11   5   9  1   
 12   5  25  1   
 13   5  26  1   
 14   6  10  1   
 15   6  27  1   
 16   6  28  1   
 17   7   8  1   
 18   7  29  1   
 19   7  30  1   
 20   8  11  1   
 21   9  12  1   
 22   9  31  1   
 23   9  32  1   
 24  10  12  1   
 25  10  33  1   
 26  10  34  1   
 27  11  35  1   
 28  11  36  1   
 29  11  37  1   
 30  12  13  1   
 31  12  38  1   
 32  13  14  1   
 33  13  15  1   
 34  13  39  1   
 35  14  16  1   
 36  14  40  1   
 37  14  41  1   
 38  15  17  1   
 39  15  42  1   
 40  15  43  1   
 41  16  17  ar  
 42  16  18  ar  
 43  17  19  ar  
 44  18  20  ar  
 45  18  44  1   
 46  19  21  ar  
 47  19  45  1   
 48  20  21  ar  
 49  20  46  1   
 50  21  47  1   
@<TRIPOS>SUBSTRUCTURE
  1 ****  10 GROUP 4 **** **** 0

# MOE 2024.06 (io_trps.svl 2023.06)
