@<TRIPOS>MOLECULE
NONAME
54 57 1 0 0 
SMALL
USER_CHARGES


@<TRIPOS>ATOM
  1 S       -0.6900     0.8460     1.4420 S.o2  1 <1>   1.4470 
  2 O       -0.6130    -0.4480     2.0880 O.2   1 <1>  -0.6500 
  3 O       -1.3240     1.9480     2.1320 O.2   1 <1>  -0.6500 
  4 N       -1.4870     0.6480    -0.0440 N.am  1 <1>  -0.8490 
  5 C        0.9690     1.3650     0.9250 C.ar  1 <1>  -0.0090 
  6 C       -2.9430     0.6130     0.0830 C.3   1 <1>   0.1960 
  7 C       -1.1370    -0.5940    -0.7340 C.3   1 <1>   0.1960 
  8 C        1.1280     2.3930     0.0040 C.ar  1 <1>  -0.1500 
  9 C        2.1140     0.7490     1.4430 C.ar  1 <1>  -0.1500 
 10 C       -3.2980    -0.8460     0.3730 C.3   1 <1>  -0.0800 
 11 C       -2.2340    -1.6230    -0.4220 C.3   1 <1>  -0.0800 
 12 C        2.3990     2.7820    -0.3870 C.ar  1 <1>   0.1170 
 13 C        3.3880     1.1340     1.0570 C.ar  1 <1>  -0.1500 
 14 C       -4.7720    -1.2720     0.1220 C.3   1 <1>   0.2800 
 15 C       -2.7950    -2.2550    -1.7070 C.3   1 <1>  -0.1600 
 16 N        2.8280     3.7590    -1.2760 N.am  1 <1>  -0.4770 
 17 C        3.5210     2.1590     0.1330 C.ar  1 <1>   0.1170 
 18 O       -5.2780    -0.5950    -0.9720 O.3   1 <1>  -0.6800 
 19 C       -4.8220    -2.7760    -0.2050 C.3   1 <1>  -0.1600 
 20 C       -5.7090    -0.9770     1.3160 C.3   1 <1>  -0.1600 
 21 C       -3.9790    -3.1940    -1.4270 C.3   1 <1>  -0.1600 
 22 C        4.1960     3.7250    -1.2900 C.2   1 <1>   0.6900 
 23 C        1.9680     4.6820    -2.0470 C.3   1 <1>   0.0600 
 24 N        4.6400     2.7510    -0.4370 N.am  1 <1>  -0.4770 
 25 C       -5.8290     0.4950     1.7460 C.3   1 <1>  -0.2400 
 26 O        4.9120     4.4530    -1.9620 O.2   1 <1>  -0.5700 
 27 C        6.0520     2.4110    -0.1610 C.3   1 <1>   0.0600 
 28 H       -3.2980     1.2880     0.8400 H     1 <1>   0.0800 
 29 H       -3.3660     0.9150    -0.8600 H     1 <1>   0.0800 
 30 H       -1.1130    -0.3930    -1.7920 H     1 <1>   0.0800 
 31 H       -0.1650    -0.9550    -0.4410 H     1 <1>   0.0800 
 32 H        0.2660     2.8880    -0.4070 H     1 <1>   0.1500 
 33 H        1.9990    -0.0460     2.1620 H     1 <1>   0.1500 
 34 H       -3.0940    -1.0240     1.4140 H     1 <1>   0.0800 
 35 H       -1.8230    -2.4030     0.1970 H     1 <1>   0.0800 
 36 H        4.2610     0.6550     1.4600 H     1 <1>   0.1500 
 37 H       -3.1360    -1.4660    -2.3580 H     1 <1>   0.0800 
 38 H       -2.0230    -2.7930    -2.2290 H     1 <1>   0.0800 
 39 H       -6.1820    -0.9090    -1.1520 H     1 <1>   0.4000 
 40 H       -4.4430    -3.3050     0.6520 H     1 <1>   0.0800 
 41 H       -5.8390    -3.0990    -0.3420 H     1 <1>   0.0800 
 42 H       -6.6930    -1.3400     1.0770 H     1 <1>   0.0800 
 43 H       -5.3710    -1.5440     2.1660 H     1 <1>   0.0800 
 44 H       -3.6140    -4.1950    -1.2670 H     1 <1>   0.0800 
 45 H       -4.6060    -3.2170    -2.3020 H     1 <1>   0.0800 
 46 H        1.3190     4.1170    -2.6920 H     1 <1>   0.0800 
 47 H        2.5780     5.3360    -2.6460 H     1 <1>   0.0800 
 48 H        1.3770     5.2740    -1.3700 H     1 <1>   0.0800 
 49 H       -6.0480     1.1270     0.9030 H     1 <1>   0.0800 
 50 H       -4.9220     0.8310     2.2140 H     1 <1>   0.0800 
 51 H       -6.6250     0.6000     2.4620 H     1 <1>   0.0800 
 52 H        6.2320     1.3820    -0.4180 H     1 <1>   0.0800 
 53 H        6.2630     2.5650     0.8820 H     1 <1>   0.0800 
 54 H        6.7010     3.0380    -0.7480 H     1 <1>   0.0800 
@<TRIPOS>BOND
  1   1   2  2   
  2   1   3  2   
  3   1   4  am  
  4   1   5  1   
  5   4   6  1   
  6   4   7  1   
  7   5   8  ar  
  8   5   9  ar  
  9   6  10  1   
 10   6  28  1   
 11   6  29  1   
 12   7  11  1   
 13   7  30  1   
 14   7  31  1   
 15   8  12  ar  
 16   8  32  1   
 17   9  13  ar  
 18   9  33  1   
 19  10  11  1   
 20  10  14  1   
 21  10  34  1   
 22  11  15  1   
 23  11  35  1   
 24  12  16  1   
 25  12  17  ar  
 26  13  17  ar  
 27  13  36  1   
 28  14  18  1   
 29  14  19  1   
 30  14  20  1   
 31  15  21  1   
 32  15  37  1   
 33  15  38  1   
 34  16  22  am  
 35  16  23  1   
 36  17  24  1   
 37  18  39  1   
 38  19  21  1   
 39  19  40  1   
 40  19  41  1   
 41  20  25  1   
 42  20  42  1   
 43  20  43  1   
 44  21  44  1   
 45  21  45  1   
 46  22  24  am  
 47  22  26  2   
 48  23  46  1   
 49  23  47  1   
 50  23  48  1   
 51  24  27  1   
 52  25  49  1   
 53  25  50  1   
 54  25  51  1   
 55  27  52  1   
 56  27  53  1   
 57  27  54  1   
@<TRIPOS>SUBSTRUCTURE
  1 ****   4 GROUP 4 **** **** 0

# MOE 2024.06 (io_trps.svl 2023.06)
