@<TRIPOS>MOLECULE
NONAME
49 51 1 0 0 
SMALL
USER_CHARGES


@<TRIPOS>ATOM
  1 F        0.2660    -1.1270     0.5990 F     1 <1>  -0.1900 
  2 C       -0.4860    -2.1130     0.1760 C.ar  1 <1>   0.1900 
  3 C       -0.0090    -3.0800    -0.7160 C.ar  1 <1>   0.0820 
  4 C       -1.7810    -2.1470     0.6550 C.ar  1 <1>  -0.1500 
  5 O        1.2420    -3.1530    -1.2560 O.3   1 <1>  -0.3630 
  6 C       -0.8850    -4.0810    -1.1050 C.ar  1 <1>  -0.1500 
  7 C       -2.6270    -3.1590     0.2440 C.ar  1 <1>  -0.1500 
  8 C        2.2760    -2.2540    -0.9240 C.3   1 <1>   0.0400 
  9 C       -2.2020    -4.1520    -0.6420 C.ar  1 <1>   0.0530 
 10 C       -3.0800    -5.2140    -1.0750 C.2   1 <1>   0.0870 
 11 O       -2.8460    -5.8470    -2.2020 O.3   1 <1>  -0.0190 
 12 C       -4.1960    -5.7720    -0.5430 C.2   1 <1>  -0.2330 
 13 N       -3.7290    -6.7780    -2.4560 N.2   1 <1>  -0.4100 
 14 C       -4.5560    -6.7490    -1.4700 C.2   1 <1>   0.3720 
 15 C       -4.8810    -5.4890     0.6720 C.2   1 <1>   1.0330 
 16 N       -5.6510    -7.6140    -1.3960 N.pl3 1 <1>  -0.8210 
 17 O       -5.7080    -4.5610     0.7200 O.co2 1 <1>  -0.9000 
 18 O       -4.6590    -6.1500     1.6990 O.co2 1 <1>  -0.9000 
 19 C       -5.5060    -8.6540    -0.3450 C.3   1 <1>   0.2090 
 20 C       -6.9640    -6.9300    -1.2950 C.3   1 <1>   0.2090 
 21 C       -6.5650    -9.7500    -0.5620 C.3   1 <1>  -0.0800 
 22 C       -8.0710    -7.9570    -1.5450 C.3   1 <1>  -0.1600 
 23 C       -7.9810    -9.1340    -0.5580 C.3   1 <1>  -0.1600 
 24 C       -6.4100   -10.8560     0.4990 C.3   1 <1>  -0.1600 
 25 C       -7.3240   -12.0560     0.2440 C.3   1 <1>   0.1200 
 26 O       -7.0120   -13.0420     1.1720 O.3   1 <1>  -0.5600 
 27 C       -7.7750   -14.1970     1.0470 C.3   1 <1>   0.0400 
 28 H       -2.1250    -1.3940     1.3400 H     1 <1>   0.1500 
 29 H       -0.5300    -4.8310    -1.7870 H     1 <1>   0.1500 
 30 H       -3.6370    -3.1740     0.6180 H     1 <1>   0.1500 
 31 H        3.1610    -2.5490    -1.4590 H     1 <1>   0.0800 
 32 H        2.4560    -2.3040     0.1350 H     1 <1>   0.0800 
 33 H        1.9860    -1.2620    -1.2200 H     1 <1>   0.0800 
 34 H       -5.6280    -8.2110     0.6290 H     1 <1>   0.0800 
 35 H       -4.5170    -9.0770    -0.4010 H     1 <1>   0.0800 
 36 H       -7.0150    -6.1380    -2.0220 H     1 <1>   0.0800 
 37 H       -7.0860    -6.5000    -0.3140 H     1 <1>   0.0800 
 38 H       -6.3760   -10.1810    -1.5310 H     1 <1>   0.0800 
 39 H       -7.9790    -8.3170    -2.5540 H     1 <1>   0.0800 
 40 H       -9.0270    -7.4740    -1.4480 H     1 <1>   0.0800 
 41 H       -8.2070    -8.7740     0.4320 H     1 <1>   0.0800 
 42 H       -8.7160    -9.8700    -0.8260 H     1 <1>   0.0800 
 43 H       -6.6190   -10.4530     1.4750 H     1 <1>   0.0800 
 44 H       -5.3910   -11.2030     0.4910 H     1 <1>   0.0800 
 45 H       -7.1600   -12.4500    -0.7450 H     1 <1>   0.0800 
 46 H       -8.3580   -11.7840     0.3680 H     1 <1>   0.0800 
 47 H       -7.4560   -14.8910     1.8040 H     1 <1>   0.0800 
 48 H       -7.6150   -14.6250     0.0720 H     1 <1>   0.0800 
 49 H       -8.8130   -13.9540     1.1910 H     1 <1>   0.0800 
@<TRIPOS>BOND
  1   1   2  1   
  2   2   3  ar  
  3   2   4  ar  
  4   3   5  1   
  5   3   6  ar  
  6   4   7  ar  
  7   4  28  1   
  8   5   8  1   
  9   6   9  ar  
 10   6  29  1   
 11   7   9  ar  
 12   7  30  1   
 13   8  31  1   
 14   8  32  1   
 15   8  33  1   
 16   9  10  1   
 17  10  11  1   
 18  10  12  2   
 19  11  13  1   
 20  12  14  1   
 21  12  15  1   
 22  13  14  2   
 23  14  16  1   
 24  15  17  ar  
 25  15  18  ar  
 26  16  19  1   
 27  16  20  1   
 28  19  21  1   
 29  19  34  1   
 30  19  35  1   
 31  20  22  1   
 32  20  36  1   
 33  20  37  1   
 34  21  23  1   
 35  21  24  1   
 36  21  38  1   
 37  22  23  1   
 38  22  39  1   
 39  22  40  1   
 40  23  41  1   
 41  23  42  1   
 42  24  25  1   
 43  24  43  1   
 44  24  44  1   
 45  25  26  1   
 46  25  45  1   
 47  25  46  1   
 48  26  27  1   
 49  27  47  1   
 50  27  48  1   
 51  27  49  1   
@<TRIPOS>SUBSTRUCTURE
  1 ****  12 GROUP 4 **** **** 0

# MOE 2024.06 (io_trps.svl 2023.06)
