@<TRIPOS>MOLECULE
NONAME
42 44 1 0 0 
SMALL
USER_CHARGES


@<TRIPOS>ATOM
  1 O        3.4470    -2.1500     0.9050 O.2   1 <1>  -0.5700 
  2 C        2.4060    -2.7260     0.6320 C.2   1 <1>   0.5440 
  3 N        1.4980    -2.0520    -0.1650 N.am  1 <1>  -0.6600 
  4 C        2.1620    -4.0590     1.1830 C.ar  1 <1>   0.3960 
  5 C        0.1090    -2.4830    -0.4580 C.3   1 <1>   0.1400 
  6 C        1.7690    -0.7200    -0.7470 C.3   1 <1>   0.1400 
  7 N        1.4600    -4.9710     0.4920 N.ar  1 <1>  -0.6200 
  8 C        2.6730    -4.3500     2.4540 C.ar  1 <1>   0.1600 
  9 C       -0.5720    -1.2460    -1.0280 C.3   1 <1>  -0.1600 
 10 C        0.5640    -0.4260    -1.6340 C.3   1 <1>  -0.1600 
 11 C        1.2680    -6.0950     1.1400 C.ar  1 <1>   0.4100 
 12 N        2.5090    -5.4920     3.1120 N.ar  1 <1>  -0.6200 
 13 N        0.4870    -6.9750     0.4490 N.pl3 1 <1>  -0.8690 
 14 C        1.7940    -6.3510     2.4150 C.ar  1 <1>   0.1600 
 15 C       -0.9050    -7.1230     0.8930 C.3   1 <1>   0.3890 
 16 C       -1.7200    -6.1280     0.0980 C.2   1 <1>  -0.3320 
 17 N       -2.0420    -6.2410    -1.2080 N.pl3 1 <1>   0.0480 
 18 C       -2.2480    -4.9590     0.5240 C.2   1 <1>   0.0770 
 19 C       -2.7440    -5.1180    -1.4820 C.2   1 <1>   0.0360 
 20 C       -1.7270    -7.3320    -2.1570 C.3   1 <1>   0.0960 
 21 N       -2.8880    -4.3230    -0.4720 N.2   1 <1>  -0.5650 
 22 C       -2.8090    -8.4150    -2.1090 C.3   1 <1>  -0.2400 
 23 H       -0.3900    -2.8300     0.4300 H     1 <1>   0.0800 
 24 H        0.1260    -3.2710    -1.1920 H     1 <1>   0.0800 
 25 H        2.6880    -0.7290    -1.3080 H     1 <1>   0.0800 
 26 H        1.8400     0.0010     0.0500 H     1 <1>   0.0800 
 27 H        3.2460    -3.5850     2.9490 H     1 <1>   0.1500 
 28 H       -1.0310    -0.7000    -0.2230 H     1 <1>   0.0800 
 29 H       -1.3280    -1.5070    -1.7470 H     1 <1>   0.0800 
 30 H        0.7730    -0.7750    -2.6310 H     1 <1>   0.0800 
 31 H        0.3400     0.6250    -1.6690 H     1 <1>   0.0800 
 32 H        0.4580    -6.6380    -0.5150 H     1 <1>   0.4000 
 33 H        1.5990    -7.3130     2.8500 H     1 <1>   0.1500 
 34 H       -0.9880    -6.9140     1.9460 H     1 <1>   0.0800 
 35 H       -1.2460    -8.1280     0.7120 H     1 <1>   0.0800 
 36 H       -2.1940    -4.5300     1.5110 H     1 <1>   0.1500 
 37 H       -3.1430    -4.9210    -2.4620 H     1 <1>   0.1500 
 38 H       -0.7710    -7.7540    -1.9070 H     1 <1>   0.0800 
 39 H       -1.6650    -6.9190    -3.1490 H     1 <1>   0.0800 
 40 H       -2.8700    -8.8430    -1.1250 H     1 <1>   0.0800 
 41 H       -2.5710    -9.1980    -2.8060 H     1 <1>   0.0800 
 42 H       -3.7650    -8.0010    -2.3760 H     1 <1>   0.0800 
@<TRIPOS>BOND
  1   1   2  2   
  2   2   3  am  
  3   2   4  1   
  4   3   5  1   
  5   3   6  1   
  6   4   7  ar  
  7   4   8  ar  
  8   5   9  1   
  9   5  23  1   
 10   5  24  1   
 11   6  10  1   
 12   6  25  1   
 13   6  26  1   
 14   7  11  ar  
 15   8  12  ar  
 16   8  27  1   
 17   9  10  1   
 18   9  28  1   
 19   9  29  1   
 20  10  30  1   
 21  10  31  1   
 22  11  13  1   
 23  11  14  ar  
 24  12  14  ar  
 25  13  15  1   
 26  13  32  1   
 27  14  33  1   
 28  15  16  1   
 29  15  34  1   
 30  15  35  1   
 31  16  17  1   
 32  16  18  2   
 33  17  19  1   
 34  17  20  1   
 35  18  21  1   
 36  18  36  1   
 37  19  21  2   
 38  19  37  1   
 39  20  22  1   
 40  20  38  1   
 41  20  39  1   
 42  22  40  1   
 43  22  41  1   
 44  22  42  1   
@<TRIPOS>SUBSTRUCTURE
  1 ****   7 GROUP 4 **** **** 0

# MOE 2024.06 (io_trps.svl 2023.06)
