@<TRIPOS>MOLECULE
NONAME
53 55 1 0 0 
SMALL
USER_CHARGES


@<TRIPOS>ATOM
  1 O        7.3550     2.7410    -0.2730 O.co2 1 <1>  -0.9000 
  2 C        6.1950     2.7330     0.1390 C.2   1 <1>   0.9060 
  3 O        5.9050     3.3910     1.1370 O.co2 1 <1>  -0.9000 
  4 C        5.1050     2.2380    -0.7810 C.3   1 <1>  -0.1860 
  5 C        5.2290     3.1790    -1.9480 C.3   1 <1>   0.3430 
  6 C        3.6690     2.5150    -0.2900 C.3   1 <1>  -0.1600 
  7 N        4.6130     4.3960    -1.3860 N.4   1 <1>  -0.9590 
  8 C        3.3870     3.9720    -0.6710 C.3   1 <1>   0.3430 
  9 C        4.5520     5.5660    -2.2730 C.3   1 <1>   0.4860 
 10 C        4.2210     6.8030    -1.4620 C.ar  1 <1>  -0.1430 
 11 C        4.9800     7.1970    -0.3560 C.ar  1 <1>   0.0830 
 12 C        3.1310     7.5630    -1.8600 C.ar  1 <1>  -0.1500 
 13 O        6.0320     6.4170     0.0430 O.3   1 <1>  -0.3630 
 14 C        4.6310     8.3720     0.3140 C.ar  1 <1>  -0.1500 
 15 C        2.7910     8.7170    -1.1790 C.ar  1 <1>  -0.1500 
 16 C        6.6750     6.6860     1.2880 C.3   1 <1>   0.1200 
 17 C        3.5440     9.1210    -0.0950 C.ar  1 <1>  -0.1500 
 18 C        7.6480     5.5890     1.7760 C.3   1 <1>   0.3430 
 19 N        8.5650     4.9760     0.7630 N.4   1 <1>  -0.9590 
 20 C        9.6210     4.1850     1.4470 C.3   1 <1>   0.3430 
 21 C        9.0790     5.9020    -0.2790 C.3   1 <1>   0.3430 
 22 C       10.4970     3.4390     0.4370 C.3   1 <1>  -0.1600 
 23 C        9.9030     5.1310    -1.3110 C.3   1 <1>  -0.1600 
 24 C       11.0530     4.3640    -0.6500 C.3   1 <1>  -0.1600 
 25 H        5.2860     1.2140    -1.0460 H     1 <1>   0.0800 
 26 H        4.6640     2.8180    -2.7910 H     1 <1>   0.0800 
 27 H        6.2600     3.3370    -2.2260 H     1 <1>   0.0800 
 28 H        3.5690     2.3630     0.7720 H     1 <1>   0.0800 
 29 H        2.9670     1.8740    -0.7930 H     1 <1>   0.0800 
 30 H        5.2430     4.6850    -0.6080 H     1 <1>   0.4500 
 31 H        3.2360     4.5800     0.2070 H     1 <1>   0.0800 
 32 H        2.5250     4.0330    -1.3140 H     1 <1>   0.0800 
 33 H        3.8090     5.4100    -3.0370 H     1 <1>   0.0800 
 34 H        5.5090     5.7090    -2.7470 H     1 <1>   0.0800 
 35 H        2.5340     7.2730    -2.7080 H     1 <1>   0.1500 
 36 H        5.1840     8.7350     1.1580 H     1 <1>   0.1500 
 37 H        1.9440     9.3030    -1.4940 H     1 <1>   0.1500 
 38 H        5.9120     6.7990     2.0380 H     1 <1>   0.0800 
 39 H        7.2060     7.6160     1.1890 H     1 <1>   0.0800 
 40 H        3.2810    10.0240     0.4310 H     1 <1>   0.1500 
 41 H        7.0710     4.8060     2.2400 H     1 <1>   0.0800 
 42 H        8.2450     6.0210     2.5600 H     1 <1>   0.0800 
 43 H        7.9940     4.2270     0.2890 H     1 <1>   0.4500 
 44 H        9.1570     3.4660     2.1050 H     1 <1>   0.0800 
 45 H       10.2380     4.8420     2.0360 H     1 <1>   0.0800 
 46 H        9.6950     6.6570     0.1800 H     1 <1>   0.0800 
 47 H        8.2560     6.3860    -0.7770 H     1 <1>   0.0800 
 48 H        9.9120     2.6570    -0.0170 H     1 <1>   0.0800 
 49 H       11.3080     2.9640     0.9590 H     1 <1>   0.0800 
 50 H       10.2990     5.8210    -2.0350 H     1 <1>   0.0800 
 51 H        9.2580     4.4430    -1.8300 H     1 <1>   0.0800 
 52 H       11.5760     3.7810    -1.3900 H     1 <1>   0.0800 
 53 H       11.7530     5.0580    -0.2160 H     1 <1>   0.0800 
@<TRIPOS>BOND
  1   1   2  ar  
  2   2   3  ar  
  3   2   4  1   
  4   4   5  1   
  5   4   6  1   
  6   4  25  1   
  7   5   7  1   
  8   5  26  1   
  9   5  27  1   
 10   6   8  1   
 11   6  28  1   
 12   6  29  1   
 13   7   8  1   
 14   7   9  1   
 15   7  30  1   
 16   8  31  1   
 17   8  32  1   
 18   9  10  1   
 19   9  33  1   
 20   9  34  1   
 21  10  11  ar  
 22  10  12  ar  
 23  11  13  1   
 24  11  14  ar  
 25  12  15  ar  
 26  12  35  1   
 27  13  16  1   
 28  14  17  ar  
 29  14  36  1   
 30  15  17  ar  
 31  15  37  1   
 32  16  18  1   
 33  16  38  1   
 34  16  39  1   
 35  17  40  1   
 36  18  19  1   
 37  18  41  1   
 38  18  42  1   
 39  19  20  1   
 40  19  21  1   
 41  19  43  1   
 42  20  22  1   
 43  20  44  1   
 44  20  45  1   
 45  21  23  1   
 46  21  46  1   
 47  21  47  1   
 48  22  24  1   
 49  22  48  1   
 50  22  49  1   
 51  23  24  1   
 52  23  50  1   
 53  23  51  1   
 54  24  52  1   
 55  24  53  1   
@<TRIPOS>SUBSTRUCTURE
  1 ****  13 GROUP 4 **** **** 0

# MOE 2024.06 (io_trps.svl 2023.06)
