@<TRIPOS>MOLECULE
NONAME
57 60 1 0 0 
SMALL
USER_CHARGES


@<TRIPOS>ATOM
  1 O        1.0020     0.3090    -1.0530 O.2   1 <1>  -0.5700 
  2 C        1.7920    -0.3990    -0.4520 C.2   1 <1>   0.7150 
  3 N        2.8830     0.2000     0.1530 N.am  1 <1>  -0.6600 
  4 C        1.5560    -1.8270    -0.4030 C.2   1 <1>   0.0550 
  5 C        3.7360    -0.4650     1.1800 C.3   1 <1>   0.1400 
  6 C        3.3150     1.5800    -0.2010 C.3   1 <1>   0.1400 
  7 O        2.5570    -2.6970    -0.4810 O.3   1 <1>  -0.2800 
  8 C        0.3990    -2.5170    -0.3060 C.2   1 <1>   0.0460 
  9 C        5.1720    -0.6820     0.6830 C.3   1 <1>   0.1100 
 10 C        4.4320     1.4960    -1.2450 C.3   1 <1>  -0.1600 
 11 C        1.9280    -3.8540    -0.4230 C.2   1 <1>   0.2980 
 12 N        0.6510    -3.8200    -0.3130 N.2   1 <1>  -0.5650 
 13 C       -1.0310    -2.0280    -0.2000 C.3   1 <1>  -0.0590 
 14 N        5.9010     0.6020     0.6220 N.3   1 <1>  -0.8100 
 15 C        5.8480     1.2720    -0.6890 C.3   1 <1>   0.1100 
 16 C        2.7870    -5.1080    -0.4930 C.3   1 <1>   0.0200 
 17 C        7.2850     0.4940     1.1720 C.3   1 <1>   0.1710 
 18 C        1.9920    -6.4160    -0.3620 C.3   1 <1>  -0.2400 
 19 C        8.0430     1.8230     1.3640 C.2   1 <1>   0.5690 
 20 O        7.8400     2.4250     2.3930 O.2   1 <1>  -0.5700 
 21 N        8.9340     2.2730     0.4030 N.am  1 <1>  -0.4770 
 22 C        9.5880     3.5120     0.3380 C.ar  1 <1>   0.1170 
 23 C        9.4170     1.4300    -0.7280 C.3   1 <1>   0.1400 
 24 C       10.4790     3.5630    -0.7140 C.ar  1 <1>  -0.1440 
 25 C        9.4430     4.6290     1.1530 C.ar  1 <1>  -0.1500 
 26 C       10.4770     2.2610    -1.4680 C.3   1 <1>  -0.0170 
 27 C       11.2320     4.6910    -0.9770 C.ar  1 <1>  -0.1500 
 28 C       10.1920     5.7670     0.9020 C.ar  1 <1>  -0.1500 
 29 C       11.0840     5.8000    -0.1590 C.ar  1 <1>  -0.1500 
 30 H        3.3110    -1.4100     1.4630 H     1 <1>   0.0800 
 31 H        3.7630     0.1460     2.0660 H     1 <1>   0.0800 
 32 H        3.6540     2.1040     0.6760 H     1 <1>   0.0800 
 33 H        2.4850     2.1300    -0.6110 H     1 <1>   0.0800 
 34 H        5.1670    -1.1720    -0.2750 H     1 <1>   0.0800 
 35 H        5.6560    -1.3380     1.3860 H     1 <1>   0.0800 
 36 H        4.4470     2.4200    -1.7940 H     1 <1>   0.0800 
 37 H        4.1960     0.7250    -1.9560 H     1 <1>   0.0800 
 38 H       -1.0710    -0.9560    -0.1540 H     1 <1>   0.0800 
 39 H       -1.4850    -2.4310     0.6870 H     1 <1>   0.0800 
 40 H       -1.5880    -2.3600    -1.0560 H     1 <1>   0.0800 
 41 H        6.3070     2.2410    -0.5870 H     1 <1>   0.0800 
 42 H        6.4180     0.7100    -1.4080 H     1 <1>   0.0800 
 43 H        3.5180    -5.0610     0.2930 H     1 <1>   0.0800 
 44 H        3.3090    -5.1060    -1.4330 H     1 <1>   0.0800 
 45 H        7.8580    -0.1760     0.5620 H     1 <1>   0.0800 
 46 H        7.2200     0.0490     2.1490 H     1 <1>   0.0800 
 47 H        1.4730    -6.4400     0.5800 H     1 <1>   0.0800 
 48 H        2.6540    -7.2620    -0.4160 H     1 <1>   0.0800 
 49 H        1.2680    -6.4890    -1.1540 H     1 <1>   0.0800 
 50 H        8.6020     1.1990    -1.3890 H     1 <1>   0.0800 
 51 H        9.8540     0.5220    -0.3500 H     1 <1>   0.0800 
 52 H        8.7530     4.6160     1.9760 H     1 <1>   0.1500 
 53 H       10.2010     2.4100    -2.4960 H     1 <1>   0.0800 
 54 H       11.4410     1.7880    -1.4140 H     1 <1>   0.0800 
 55 H       11.9220     4.7110    -1.8020 H     1 <1>   0.1500 
 56 H       10.0780     6.6300     1.5350 H     1 <1>   0.1500 
 57 H       11.6620     6.6880    -0.3470 H     1 <1>   0.1500 
@<TRIPOS>BOND
  1   1   2  2   
  2   2   3  am  
  3   2   4  1   
  4   3   5  1   
  5   3   6  1   
  6   4   7  1   
  7   4   8  2   
  8   5   9  1   
  9   5  30  1   
 10   5  31  1   
 11   6  10  1   
 12   6  32  1   
 13   6  33  1   
 14   7  11  1   
 15   8  12  1   
 16   8  13  1   
 17   9  14  1   
 18   9  34  1   
 19   9  35  1   
 20  10  15  1   
 21  10  36  1   
 22  10  37  1   
 23  11  12  2   
 24  11  16  1   
 25  13  38  1   
 26  13  39  1   
 27  13  40  1   
 28  14  15  1   
 29  14  17  1   
 30  15  41  1   
 31  15  42  1   
 32  16  18  1   
 33  16  43  1   
 34  16  44  1   
 35  17  19  1   
 36  17  45  1   
 37  17  46  1   
 38  18  47  1   
 39  18  48  1   
 40  18  49  1   
 41  19  20  2   
 42  19  21  am  
 43  21  22  1   
 44  21  23  1   
 45  22  24  ar  
 46  22  25  ar  
 47  23  26  1   
 48  23  50  1   
 49  23  51  1   
 50  24  26  1   
 51  24  27  ar  
 52  25  28  ar  
 53  25  52  1   
 54  26  53  1   
 55  26  54  1   
 56  27  29  ar  
 57  27  55  1   
 58  28  29  ar  
 59  28  56  1   
 60  29  57  1   
@<TRIPOS>SUBSTRUCTURE
  1 ****  14 GROUP 4 **** **** 0

# MOE 2024.06 (io_trps.svl 2023.06)
