@<TRIPOS>MOLECULE
NONAME
44 46 1 0 0 
SMALL
USER_CHARGES


@<TRIPOS>ATOM
  1 O        2.4950    -1.4160     1.2290 O.co2 1 <1>  -0.9000 
  2 C        2.3810    -0.2150     1.5190 C.2   1 <1>   0.9060 
  3 O        2.3460     0.1530     2.7000 O.co2 1 <1>  -0.9000 
  4 C        2.2550     0.8330     0.3880 C.3   1 <1>  -0.1060 
  5 C        3.1320     0.4070    -0.8220 C.3   1 <1>   0.2000 
  6 C        2.7930     2.2110     0.8760 C.3   1 <1>  -0.1600 
  7 C        0.7470     0.9450     0.0170 C.3   1 <1>  -0.1600 
  8 O        2.7450    -0.8450    -1.2750 O.3   1 <1>  -0.6800 
  9 C        4.6320     0.3800    -0.4710 C.3   1 <1>   0.2090 
 10 C        4.2790     2.1410     1.2530 C.3   1 <1>   0.2090 
 11 C        0.3900     1.8890    -1.1460 C.3   1 <1>  -0.1600 
 12 N        5.0580     1.7180     0.0570 N.pl3 1 <1>  -0.8380 
 13 C       -1.1220     1.9030    -1.3880 C.3   1 <1>  -0.2400 
 14 C        6.2860     2.2620    -0.2490 C.ar  1 <1>   0.4100 
 15 N        7.2590     1.4470    -0.6090 N.ar  1 <1>  -0.6200 
 16 C        6.5020     3.6240    -0.1900 C.ar  1 <1>  -0.1500 
 17 C        8.4160     2.0160    -0.8780 C.ar  1 <1>   0.4700 
 18 C        7.7490     4.1000    -0.4890 C.ar  1 <1>   0.2780 
 19 N        8.7330     3.2970    -0.8420 N.ar  1 <1>  -0.6200 
 20 C        8.0570     5.5890    -0.4390 C.3   1 <1>  -0.0680 
 21 C        8.9070     6.1370     0.6660 C.3   1 <1>  -0.2000 
 22 C        7.4550     6.4980     0.5930 C.3   1 <1>  -0.2000 
 23 H        3.0040     1.0910    -1.6400 H     1 <1>   0.0800 
 24 H        2.2340     2.5300     1.7380 H     1 <1>   0.0800 
 25 H        2.6820     2.9590     0.1150 H     1 <1>   0.0800 
 26 H        0.3910    -0.0420    -0.2260 H     1 <1>   0.0800 
 27 H        0.2110     1.2560     0.8980 H     1 <1>   0.0800 
 28 H        2.6060    -1.3860    -0.4390 H     1 <1>   0.4000 
 29 H        5.1910     0.1380    -1.3570 H     1 <1>   0.0800 
 30 H        4.8230    -0.3710     0.2770 H     1 <1>   0.0800 
 31 H        4.4310     1.4280     2.0470 H     1 <1>   0.0800 
 32 H        4.6100     3.0990     1.6090 H     1 <1>   0.0800 
 33 H        0.7130     2.8910    -0.9300 H     1 <1>   0.0800 
 34 H        0.8780     1.5600    -2.0460 H     1 <1>   0.0800 
 35 H       -1.6390     2.2440    -0.5080 H     1 <1>   0.0800 
 36 H       -1.4680     0.9140    -1.6310 H     1 <1>   0.0800 
 37 H       -1.3590     2.5610    -2.2050 H     1 <1>   0.0800 
 38 H        5.7020     4.2820     0.0740 H     1 <1>   0.1500 
 39 H        9.2080     1.3450    -1.1660 H     1 <1>   0.1500 
 40 H        8.2280     5.9890    -1.4220 H     1 <1>   0.1000 
 41 H        9.2430     5.4570     1.4310 H     1 <1>   0.1000 
 42 H        9.6480     6.8770     0.4190 H     1 <1>   0.1000 
 43 H        7.1860     7.4990     0.3030 H     1 <1>   0.1000 
 44 H        6.8010     6.0960     1.3470 H     1 <1>   0.1000 
@<TRIPOS>BOND
  1   1   2  ar  
  2   2   3  ar  
  3   2   4  1   
  4   4   5  1   
  5   4   6  1   
  6   4   7  1   
  7   5   8  1   
  8   5   9  1   
  9   5  23  1   
 10   6  10  1   
 11   6  24  1   
 12   6  25  1   
 13   7  11  1   
 14   7  26  1   
 15   7  27  1   
 16   8  28  1   
 17   9  12  1   
 18   9  29  1   
 19   9  30  1   
 20  10  12  1   
 21  10  31  1   
 22  10  32  1   
 23  11  13  1   
 24  11  33  1   
 25  11  34  1   
 26  12  14  1   
 27  13  35  1   
 28  13  36  1   
 29  13  37  1   
 30  14  15  ar  
 31  14  16  ar  
 32  15  17  ar  
 33  16  18  ar  
 34  16  38  1   
 35  17  19  ar  
 36  17  39  1   
 37  18  19  ar  
 38  18  20  1   
 39  20  21  1   
 40  20  22  1   
 41  20  40  1   
 42  21  22  1   
 43  21  41  1   
 44  21  42  1   
 45  22  43  1   
 46  22  44  1   
@<TRIPOS>SUBSTRUCTURE
  1 ****  12 GROUP 4 **** **** 0

# MOE 2024.06 (io_trps.svl 2023.06)
