@<TRIPOS>MOLECULE
NONAME
46 48 1 0 0 
SMALL
USER_CHARGES


@<TRIPOS>ATOM
  1 S        0.2110     0.0920     0.6100 S.o2  1 <1>   1.3330 
  2 O       -0.3590     1.3900     0.8900 O.2   1 <1>  -0.6500 
  3 O        0.5100    -0.8090     1.7010 O.2   1 <1>  -0.6500 
  4 N       -0.8090    -0.7210    -0.4760 N.am  1 <1>  -0.8490 
  5 C        1.6930     0.3510    -0.3650 C.3   1 <1>  -0.0550 
  6 C       -2.2260    -0.4330    -0.2330 C.3   1 <1>   0.1160 
  7 C       -0.5940    -2.1720    -0.5050 C.3   1 <1>   0.1160 
  8 C        2.7430     1.2230     0.3490 C.3   1 <1>  -0.0800 
  9 C        3.9030     1.5630    -0.5770 C.3   1 <1>   0.2200 
 10 C        3.4190     0.4970     1.5250 C.3   1 <1>   0.1200 
 11 N        4.3790     2.9250    -0.2560 N.am  1 <1>  -0.7300 
 12 C        4.9530     0.5440    -0.1610 C.3   1 <1>   0.1200 
 13 O        4.7740     0.3920     1.2080 O.3   1 <1>  -0.5600 
 14 C        4.1100     4.0420    -0.9880 C.2   1 <1>   0.6160 
 15 O        3.4990     3.9190    -2.0300 O.2   1 <1>  -0.5700 
 16 C        4.4950     5.3460    -0.5140 C.2   1 <1>   0.0290 
 17 C        5.7330     5.7040    -0.0340 C.2   1 <1>  -0.1690 
 18 C        3.4620     6.3350    -0.5480 C.2   1 <1>   0.3760 
 19 N        5.8850     7.0000     0.4290 N.pl3 1 <1>   0.6010 
 20 C        6.9680     4.8020     0.0160 C.3   1 <1>  -0.1020 
 21 N        3.5930     7.5470    -0.1230 N.2   1 <1>  -0.5760 
 22 N        6.9790     7.5820     0.9760 N.2   1 <1>  -0.7070 
 23 C        4.8280     7.8800     0.3800 C.2   1 <1>  -0.0260 
 24 C        6.5990     8.7980     1.2510 C.2   1 <1>   0.1390 
 25 C        5.2810     9.0440     0.9060 C.2   1 <1>  -0.1500 
 26 H        2.1230    -0.5960    -0.6270 H     1 <1>   0.0800 
 27 H        1.4060     0.8440    -1.2740 H     1 <1>   0.0800 
 28 H       -2.8410    -0.9500    -0.9480 H     1 <1>   0.0800 
 29 H       -2.4100     0.6240    -0.3350 H     1 <1>   0.0800 
 30 H       -2.5050    -0.7370     0.7630 H     1 <1>   0.0800 
 31 H       -1.2000    -2.6210    -1.2730 H     1 <1>   0.0800 
 32 H       -0.8520    -2.6100     0.4460 H     1 <1>   0.0800 
 33 H        0.4390    -2.3910    -0.7160 H     1 <1>   0.0800 
 34 H        2.2550     2.1200     0.6930 H     1 <1>   0.0800 
 35 H        3.6580     1.4840    -1.6230 H     1 <1>   0.0800 
 36 H        3.0350    -0.4980     1.6740 H     1 <1>   0.0800 
 37 H        3.3290     1.0550     2.4410 H     1 <1>   0.0800 
 38 H        4.8330     3.0010     0.6580 H     1 <1>   0.3700 
 39 H        5.9580     0.8710    -0.3640 H     1 <1>   0.0800 
 40 H        4.7740    -0.4090    -0.6280 H     1 <1>   0.0800 
 41 H        2.5090     6.0380    -0.9510 H     1 <1>   0.0600 
 42 H        7.8060     5.3090    -0.4310 H     1 <1>   0.0800 
 43 H        6.8240     3.8820    -0.5190 H     1 <1>   0.0800 
 44 H        7.2190     4.5780     1.0380 H     1 <1>   0.0800 
 45 H        7.2540     9.5280     1.7000 H     1 <1>   0.1500 
 46 H        4.7350     9.9610     1.0300 H     1 <1>   0.1500 
@<TRIPOS>BOND
  1   1   2  2   
  2   1   3  2   
  3   1   4  am  
  4   1   5  1   
  5   4   6  1   
  6   4   7  1   
  7   5   8  1   
  8   5  26  1   
  9   5  27  1   
 10   6  28  1   
 11   6  29  1   
 12   6  30  1   
 13   7  31  1   
 14   7  32  1   
 15   7  33  1   
 16   8   9  1   
 17   8  10  1   
 18   8  34  1   
 19   9  11  1   
 20   9  12  1   
 21   9  35  1   
 22  10  13  1   
 23  10  36  1   
 24  10  37  1   
 25  11  14  am  
 26  11  38  1   
 27  12  13  1   
 28  12  39  1   
 29  12  40  1   
 30  14  15  2   
 31  14  16  1   
 32  16  17  2   
 33  16  18  1   
 34  17  19  1   
 35  17  20  1   
 36  18  21  2   
 37  18  41  1   
 38  19  22  1   
 39  19  23  1   
 40  20  42  1   
 41  20  43  1   
 42  20  44  1   
 43  21  23  1   
 44  22  24  2   
 45  23  25  2   
 46  24  25  1   
 47  24  45  1   
 48  25  46  1   
@<TRIPOS>SUBSTRUCTURE
  1 ****  11 GROUP 4 **** **** 0

# MOE 2024.06 (io_trps.svl 2023.06)
