@<TRIPOS>MOLECULE
NONAME
47 49 1 0 0 
SMALL
USER_CHARGES


@<TRIPOS>ATOM
  1 O        2.1300    -0.4170    -2.7090 O.2   1 <1>  -0.5700 
  2 C        2.4810    -0.7210    -1.5860 C.2   1 <1>   0.5440 
  3 N        3.1380     0.2250    -0.8210 N.am  1 <1>  -0.6600 
  4 C        2.1900    -2.0430    -1.0780 C.ar  1 <1>   0.0860 
  5 C        3.5010    -0.0280     0.6270 C.3   1 <1>   0.2200 
  6 C        3.4730     1.5400    -1.4550 C.3   1 <1>   0.1400 
  7 C        0.9570    -2.3590    -0.5000 C.ar  1 <1>   0.1660 
  8 C        3.1550    -3.0380    -1.1080 C.ar  1 <1>  -0.1500 
  9 C        2.9420     1.0530     1.5660 C.3   1 <1>   0.1200 
 10 C        5.0210    -0.2100     0.8340 C.3   1 <1>   0.3430 
 11 C        4.4200     2.4520    -0.6590 C.3   1 <1>  -0.0800 
 12 N        0.6630    -3.5200     0.0620 N.ar  1 <1>  -0.6200 
 13 C       -0.1610    -1.3300    -0.4730 C.3   1 <1>  -0.0960 
 14 C        2.8530    -4.2530    -0.5380 C.ar  1 <1>  -0.1500 
 15 O        3.8050     2.1470     1.6570 O.3   1 <1>  -0.5600 
 16 N        5.8470     0.3790    -0.2720 N.4   1 <1>  -0.9590 
 17 C        3.7570     3.0390     0.5960 C.3   1 <1>   0.1200 
 18 C        5.8150     1.8620    -0.3730 C.3   1 <1>   0.3430 
 19 C        1.6080    -4.4440     0.0330 C.ar  1 <1>   0.1670 
 20 C        7.2610    -0.1860    -0.2210 C.3   1 <1>   0.2370 
 21 C        1.2580    -5.7710     0.6710 C.3   1 <1>  -0.0970 
 22 C        7.3350    -1.7130    -0.3540 C.2   1 <1>   0.9060 
 23 O        8.2810    -2.3120     0.1510 O.co2 1 <1>  -0.9000 
 24 O        6.3810    -2.2780    -0.9050 O.co2 1 <1>  -0.9000 
 25 H        3.0380    -0.9430     0.9500 H     1 <1>   0.0800 
 26 H        3.9160     1.3440    -2.4180 H     1 <1>   0.0800 
 27 H        2.5500     2.0640    -1.6410 H     1 <1>   0.0800 
 28 H        4.1170    -2.8650    -1.5600 H     1 <1>   0.1500 
 29 H        2.8630     0.6460     2.5590 H     1 <1>   0.0800 
 30 H        1.9620     1.3770     1.2580 H     1 <1>   0.0800 
 31 H        5.2100    -1.2700     0.8830 H     1 <1>   0.0800 
 32 H        5.3120     0.2130     1.7810 H     1 <1>   0.0800 
 33 H        4.5920     3.3030    -1.2930 H     1 <1>   0.0800 
 34 H       -0.2920    -0.8960    -1.4480 H     1 <1>   0.0800 
 35 H        0.0690    -0.5550     0.2330 H     1 <1>   0.0800 
 36 H       -1.0890    -1.7920    -0.1870 H     1 <1>   0.0800 
 37 H        3.5890    -5.0380    -0.5420 H     1 <1>   0.1500 
 38 H        5.4240    -0.0470    -1.1180 H     1 <1>   0.4500 
 39 H        2.7320     3.3200     0.4130 H     1 <1>   0.0800 
 40 H        4.2920     3.9190     0.9100 H     1 <1>   0.0800 
 41 H        6.1990     2.2920     0.5380 H     1 <1>   0.0800 
 42 H        6.4710     2.1560    -1.1750 H     1 <1>   0.0800 
 43 H        7.8450     0.2230    -1.0240 H     1 <1>   0.0800 
 44 H        7.7320     0.0780     0.7080 H     1 <1>   0.0800 
 45 H        2.0810    -6.4590     0.6120 H     1 <1>   0.0800 
 46 H        0.4100    -6.1980     0.1670 H     1 <1>   0.0800 
 47 H        1.0050    -5.6170     1.7040 H     1 <1>   0.0800 
@<TRIPOS>BOND
  1   1   2  2   
  2   2   3  am  
  3   2   4  1   
  4   3   5  1   
  5   3   6  1   
  6   4   7  ar  
  7   4   8  ar  
  8   5   9  1   
  9   5  10  1   
 10   5  25  1   
 11   6  11  1   
 12   6  26  1   
 13   6  27  1   
 14   7  12  ar  
 15   7  13  1   
 16   8  14  ar  
 17   8  28  1   
 18   9  15  1   
 19   9  29  1   
 20   9  30  1   
 21  10  16  1   
 22  10  31  1   
 23  10  32  1   
 24  11  17  1   
 25  11  18  1   
 26  11  33  1   
 27  12  19  ar  
 28  13  34  1   
 29  13  35  1   
 30  13  36  1   
 31  14  19  ar  
 32  14  37  1   
 33  15  17  1   
 34  16  18  1   
 35  16  20  1   
 36  16  38  1   
 37  17  39  1   
 38  17  40  1   
 39  18  41  1   
 40  18  42  1   
 41  19  21  1   
 42  20  22  1   
 43  20  43  1   
 44  20  44  1   
 45  21  45  1   
 46  21  46  1   
 47  21  47  1   
 48  22  23  ar  
 49  22  24  ar  
@<TRIPOS>SUBSTRUCTURE
  1 ****   5 GROUP 4 **** **** 0

# MOE 2024.06 (io_trps.svl 2023.06)
