@<TRIPOS>MOLECULE
NONAME
45 49 1 0 0 
SMALL
USER_CHARGES


@<TRIPOS>ATOM
  1 S       -0.1400     0.7370     1.9090 S.3   1 <1>  -0.0800 
  2 C       -0.0810     2.0530     0.7560 C.2   1 <1>  -0.1400 
  3 C        1.5510     0.9930     2.3160 C.2   1 <1>  -0.1100 
  4 C        1.1350     2.6120     0.6960 C.2   1 <1>  -0.1810 
  5 C       -1.2770     2.4800    -0.0500 C.3   1 <1>   0.0200 
  6 C        2.0730     2.0070     1.5980 C.2   1 <1>  -0.1500 
  7 C        1.4220     3.7720    -0.2590 C.3   1 <1>   0.4610 
  8 C       -0.9840     3.8920    -0.5840 C.3   1 <1>   0.1200 
  9 O        0.3160     3.9750    -1.1220 O.3   1 <1>  -0.5600 
 10 C        2.6090     3.4340    -1.1680 C.3   1 <1>  -0.1600 
 11 C        1.6980     5.0700     0.5120 C.3   1 <1>  -0.1600 
 12 C        2.9600     4.5990    -2.0940 C.3   1 <1>   0.1400 
 13 C        2.0560     6.2250    -0.4260 C.3   1 <1>   0.1400 
 14 N        3.2060     5.8210    -1.2800 N.am  1 <1>  -0.6600 
 15 C        4.4810     6.3250    -1.1040 C.2   1 <1>   0.7160 
 16 O        5.4260     5.5700    -1.2800 O.2   1 <1>  -0.5700 
 17 C        4.7000     7.6840    -0.7230 C.2   1 <1>  -0.0860 
 18 C        5.6920     8.2430     0.0430 C.2   1 <1>  -0.0680 
 19 C        3.9180     8.7970    -1.0700 C.2   1 <1>   0.1390 
 20 N        5.4500     9.5610     0.1140 N.pl3 1 <1>   0.6010 
 21 N        6.8330     7.9440     0.7580 N.pl3 1 <1>  -0.5530 
 22 N        4.3390     9.9220    -0.5750 N.2   1 <1>  -0.7070 
 23 C        6.4480    10.1310     0.8820 C.2   1 <1>  -0.1810 
 24 C        7.2890     9.1490     1.2700 C.2   1 <1>  -0.0500 
 25 C        7.4920     6.6210     0.8290 C.3   1 <1>   0.1290 
 26 H        1.9810     0.3460     3.0600 H     1 <1>   0.1500 
 27 H       -2.1590     2.4970     0.5640 H     1 <1>   0.0800 
 28 H       -1.4330     1.7970    -0.8660 H     1 <1>   0.0800 
 29 H        3.0890     2.3550     1.6670 H     1 <1>   0.1500 
 30 H       -1.0730     4.6150     0.2060 H     1 <1>   0.0800 
 31 H       -1.6800     4.1450    -1.3640 H     1 <1>   0.0800 
 32 H        2.3720     2.5610    -1.7480 H     1 <1>   0.0800 
 33 H        3.4730     3.2040    -0.5730 H     1 <1>   0.0800 
 34 H        2.5210     4.9100     1.1840 H     1 <1>   0.0800 
 35 H        0.8480     5.3310     1.1140 H     1 <1>   0.0800 
 36 H        2.1470     4.7850    -2.7740 H     1 <1>   0.0800 
 37 H        3.8310     4.3520    -2.6780 H     1 <1>   0.0800 
 38 H        2.2980     7.0920     0.1630 H     1 <1>   0.0800 
 39 H        1.2140     6.4640    -1.0550 H     1 <1>   0.0800 
 40 H        3.0440     8.7280    -1.6960 H     1 <1>   0.1500 
 41 H        6.4500    11.1870     1.0670 H     1 <1>   0.1500 
 42 H        8.1830     9.2130     1.8690 H     1 <1>   0.1500 
 43 H        6.7840     5.8850     1.1660 H     1 <1>   0.0800 
 44 H        8.3220     6.6580     1.5100 H     1 <1>   0.0800 
 45 H        7.8420     6.3450    -0.1500 H     1 <1>   0.0800 
@<TRIPOS>BOND
  1   1   2  1   
  2   1   3  1   
  3   2   4  2   
  4   2   5  1   
  5   3   6  2   
  6   3  26  1   
  7   4   6  1   
  8   4   7  1   
  9   5   8  1   
 10   5  27  1   
 11   5  28  1   
 12   6  29  1   
 13   7   9  1   
 14   7  10  1   
 15   7  11  1   
 16   8   9  1   
 17   8  30  1   
 18   8  31  1   
 19  10  12  1   
 20  10  32  1   
 21  10  33  1   
 22  11  13  1   
 23  11  34  1   
 24  11  35  1   
 25  12  14  1   
 26  12  36  1   
 27  12  37  1   
 28  13  14  1   
 29  13  38  1   
 30  13  39  1   
 31  14  15  am  
 32  15  16  2   
 33  15  17  1   
 34  17  18  2   
 35  17  19  1   
 36  18  20  1   
 37  18  21  1   
 38  19  22  2   
 39  19  40  1   
 40  20  22  1   
 41  20  23  1   
 42  21  24  1   
 43  21  25  1   
 44  23  24  2   
 45  23  41  1   
 46  24  42  1   
 47  25  43  1   
 48  25  44  1   
 49  25  45  1   
@<TRIPOS>SUBSTRUCTURE
  1 ****  14 GROUP 4 **** **** 0

# MOE 2024.06 (io_trps.svl 2023.06)
