@<TRIPOS>MOLECULE
NONAME
39 41 1 0 0 
SMALL
USER_CHARGES


@<TRIPOS>ATOM
  1 O        0.0600     0.3840     1.4390 O.3   1 <1>  -0.5600 
  2 C        0.9170     0.7310     0.3890 C.3   1 <1>   0.1200 
  3 C       -1.2640     0.6940     1.1180 C.3   1 <1>   0.1200 
  4 C        0.1880     1.7950    -0.4230 C.3   1 <1>   0.2890 
  5 C       -1.2510     1.3190    -0.2790 C.3   1 <1>  -0.0800 
  6 N        0.3950     3.1180     0.2180 N.pl3 1 <1>  -0.8690 
  7 C       -2.3450     2.3780    -0.5050 C.3   1 <1>  -0.0170 
  8 C        0.3210     4.3480    -0.4210 C.ar  1 <1>   0.4100 
  9 C       -3.7310     1.7610    -0.3940 C.ar  1 <1>  -0.1440 
 10 N        0.2660     4.3130    -1.7450 N.ar  1 <1>  -0.6200 
 11 C        0.2950     5.5630     0.3200 C.ar  1 <1>   0.3920 
 12 C       -4.2950     1.0510    -1.4340 C.ar  1 <1>  -0.1500 
 13 C       -4.4950     1.8770     0.7500 C.ar  1 <1>  -0.1500 
 14 C        0.2010     5.5240    -2.2790 C.ar  1 <1>   0.1600 
 15 O        0.3390     5.4770     1.6800 O.3   1 <1>  -0.3630 
 16 N        0.2240     6.7670    -0.2280 N.ar  1 <1>  -0.6200 
 17 C       -5.5580     0.5010    -1.2830 C.ar  1 <1>   0.1600 
 18 C       -5.7480     1.2890     0.7980 C.ar  1 <1>   0.1600 
 19 C        0.1810     6.7040    -1.5520 C.ar  1 <1>   0.1600 
 20 C        0.3580     6.6450     2.4780 C.3   1 <1>   0.0400 
 21 N       -6.2980     0.6020    -0.1900 N.ar  1 <1>  -0.6200 
 22 H        1.8530     1.0850     0.7850 H     1 <1>   0.0800 
 23 H        1.0800    -0.1500    -0.2050 H     1 <1>   0.0800 
 24 H       -1.8570    -0.2040     1.1520 H     1 <1>   0.0800 
 25 H       -1.6190     1.3930     1.8550 H     1 <1>   0.0800 
 26 H        0.5210     1.8100    -1.4470 H     1 <1>   0.0800 
 27 H       -1.4030     0.5240    -0.9870 H     1 <1>   0.0800 
 28 H        0.3260     3.1220     1.2410 H     1 <1>   0.4000 
 29 H       -2.2250     2.8120    -1.4820 H     1 <1>   0.0800 
 30 H       -2.2520     3.1730     0.2140 H     1 <1>   0.0800 
 31 H       -3.7650     0.9200    -2.3600 H     1 <1>   0.1500 
 32 H       -4.1290     2.4180     1.6020 H     1 <1>   0.1500 
 33 H        0.1610     5.5800    -3.3520 H     1 <1>   0.1500 
 34 H       -5.9820    -0.0500    -2.1040 H     1 <1>   0.1500 
 35 H       -6.3290     1.3900     1.6990 H     1 <1>   0.1500 
 36 H        0.1270     7.6390    -2.0820 H     1 <1>   0.1500 
 37 H        0.4070     6.3500     3.5100 H     1 <1>   0.0800 
 38 H       -0.5410     7.2070     2.2950 H     1 <1>   0.0800 
 39 H        1.2250     7.2290     2.2190 H     1 <1>   0.0800 
@<TRIPOS>BOND
  1   1   2  1   
  2   1   3  1   
  3   2   4  1   
  4   2  22  1   
  5   2  23  1   
  6   3   5  1   
  7   3  24  1   
  8   3  25  1   
  9   4   5  1   
 10   4   6  1   
 11   4  26  1   
 12   5   7  1   
 13   5  27  1   
 14   6   8  1   
 15   6  28  1   
 16   7   9  1   
 17   7  29  1   
 18   7  30  1   
 19   8  10  ar  
 20   8  11  ar  
 21   9  12  ar  
 22   9  13  ar  
 23  10  14  ar  
 24  11  15  1   
 25  11  16  ar  
 26  12  17  ar  
 27  12  31  1   
 28  13  18  ar  
 29  13  32  1   
 30  14  19  ar  
 31  14  33  1   
 32  15  20  1   
 33  16  19  ar  
 34  17  21  ar  
 35  17  34  1   
 36  18  21  ar  
 37  18  35  1   
 38  19  36  1   
 39  20  37  1   
 40  20  38  1   
 41  20  39  1   
@<TRIPOS>SUBSTRUCTURE
  1 ****   7 GROUP 4 **** **** 0

# MOE 2024.06 (io_trps.svl 2023.06)
