@<TRIPOS>MOLECULE
NONAME
52 54 1 0 0 
SMALL
USER_CHARGES


@<TRIPOS>ATOM
  1 O        0.0120     1.1730    -0.3760 O.2   1 <1>  -0.5700 
  2 C       -0.1230     2.3660    -0.2430 C.2   1 <1>   0.5690 
  3 N       -1.2070     2.9190     0.3820 N.am  1 <1>  -0.6600 
  4 C        0.9500     3.2830    -0.8260 C.3   1 <1>   0.1810 
  5 C       -1.3800     4.4070     0.4810 C.3   1 <1>   0.3640 
  6 C       -2.2710     2.0900     1.0200 C.3   1 <1>   0.0600 
  7 O        1.0080     4.5250    -0.1700 O.3   1 <1>  -0.5600 
  8 C       -2.7490     4.8270    -0.0870 C.ar  1 <1>  -0.1430 
  9 C       -0.2200     5.2420    -0.1350 C.3   1 <1>   0.2610 
 10 C       -3.2240     4.4960    -1.3620 C.ar  1 <1>  -0.1430 
 11 C       -3.5600     5.5890     0.7470 C.ar  1 <1>  -0.1500 
 12 C       -0.0250     6.5500     0.6480 C.2   1 <1>   0.5690 
 13 C       -4.4820     4.9290    -1.7560 C.ar  1 <1>  -0.1500 
 14 C       -2.4400     3.6620    -2.3690 C.3   1 <1>  -0.0960 
 15 C       -4.8110     6.0160     0.3430 C.ar  1 <1>  -0.1500 
 16 O       -0.9700     7.2540     0.9110 O.2   1 <1>  -0.5700 
 17 N        1.2260     6.9020     1.0390 N.am  1 <1>  -0.7300 
 18 C       -5.2740     5.6840    -0.9130 C.ar  1 <1>  -0.1500 
 19 C        1.6000     8.1580     1.7150 C.3   1 <1>   0.3200 
 20 C        2.8280     8.7370     1.0450 C.2   1 <1>  -0.0400 
 21 O        3.9660     8.1000     1.1120 O.3   1 <1>  -0.0190 
 22 C        3.0220     9.8570     0.3330 C.2   1 <1>  -0.1500 
 23 N        4.9130     8.7350     0.4840 N.2   1 <1>  -0.4100 
 24 C        4.3740     9.7990     0.0040 C.2   1 <1>   0.1080 
 25 C        5.1180    10.8420    -0.8090 C.3   1 <1>   0.0210 
 26 C        5.4580    12.0690     0.0480 C.3   1 <1>  -0.1600 
 27 C        6.2130    13.1310    -0.7590 C.3   1 <1>  -0.2400 
 28 H        0.7630     3.4520    -1.8690 H     1 <1>   0.0800 
 29 H        1.9110     2.8140    -0.7180 H     1 <1>   0.0800 
 30 H       -1.3820     4.6300     1.5340 H     1 <1>   0.0800 
 31 H       -2.4160     2.4020     2.0390 H     1 <1>   0.0800 
 32 H       -1.9960     1.0490     1.0150 H     1 <1>   0.0800 
 33 H       -3.1960     2.2030     0.4810 H     1 <1>   0.0800 
 34 H       -0.4680     5.5090    -1.1440 H     1 <1>   0.0800 
 35 H       -3.2200     5.8700     1.7290 H     1 <1>   0.1500 
 36 H       -4.8630     4.6800    -2.7310 H     1 <1>   0.1500 
 37 H       -2.9130     3.6800    -3.3340 H     1 <1>   0.0800 
 38 H       -2.3950     2.6380    -2.0450 H     1 <1>   0.0800 
 39 H       -1.4450     4.0400    -2.4920 H     1 <1>   0.0800 
 40 H       -5.4180     6.6070     1.0050 H     1 <1>   0.1500 
 41 H        2.0020     6.2820     0.7850 H     1 <1>   0.3700 
 42 H       -6.2470     6.0130    -1.2340 H     1 <1>   0.1500 
 43 H        0.7880     8.8630     1.6600 H     1 <1>   0.0800 
 44 H        1.8120     7.9580     2.7510 H     1 <1>   0.0800 
 45 H        2.3290    10.6320     0.0620 H     1 <1>   0.1500 
 46 H        6.0230    10.4040    -1.1910 H     1 <1>   0.0800 
 47 H        4.5090    11.1340    -1.6460 H     1 <1>   0.0800 
 48 H        4.5500    12.4970     0.4380 H     1 <1>   0.0800 
 49 H        6.0630    11.7570     0.8830 H     1 <1>   0.0800 
 50 H        5.6180    13.4720    -1.5880 H     1 <1>   0.0800 
 51 H        7.1370    12.7290    -1.1370 H     1 <1>   0.0800 
 52 H        6.4410    13.9750    -0.1320 H     1 <1>   0.0800 
@<TRIPOS>BOND
  1   1   2  2   
  2   2   3  am  
  3   2   4  1   
  4   3   5  1   
  5   3   6  1   
  6   4   7  1   
  7   4  28  1   
  8   4  29  1   
  9   5   8  1   
 10   5   9  1   
 11   5  30  1   
 12   6  31  1   
 13   6  32  1   
 14   6  33  1   
 15   7   9  1   
 16   8  10  ar  
 17   8  11  ar  
 18   9  12  1   
 19   9  34  1   
 20  10  13  ar  
 21  10  14  1   
 22  11  15  ar  
 23  11  35  1   
 24  12  16  2   
 25  12  17  am  
 26  13  18  ar  
 27  13  36  1   
 28  14  37  1   
 29  14  38  1   
 30  14  39  1   
 31  15  18  ar  
 32  15  40  1   
 33  17  19  1   
 34  17  41  1   
 35  18  42  1   
 36  19  20  1   
 37  19  43  1   
 38  19  44  1   
 39  20  21  1   
 40  20  22  2   
 41  21  23  1   
 42  22  24  1   
 43  22  45  1   
 44  23  24  2   
 45  24  25  1   
 46  25  26  1   
 47  25  46  1   
 48  25  47  1   
 49  26  27  1   
 50  26  48  1   
 51  26  49  1   
 52  27  50  1   
 53  27  51  1   
 54  27  52  1   
@<TRIPOS>SUBSTRUCTURE
  1 ****  12 GROUP 4 **** **** 0

# MOE 2024.06 (io_trps.svl 2023.06)
