@<TRIPOS>MOLECULE
NONAME
50 53 1 0 0 
SMALL
USER_CHARGES


@<TRIPOS>ATOM
  1 O       -1.7920     0.0110     2.5750 O.2   1 <1>  -0.5700 
  2 C       -2.5040     0.1920     1.6120 C.2   1 <1>   0.5440 
  3 N       -2.1530     1.2100     0.7930 N.am  1 <1>  -0.8000 
  4 C       -3.6550    -0.6530     1.3490 C.ar  1 <1>   0.0860 
  5 C       -4.6920    -0.2920     0.5070 C.ar  1 <1>  -0.1500 
  6 C       -3.7970    -1.9030     1.9380 C.ar  1 <1>  -0.1500 
  7 C       -5.7610    -1.1450     0.2830 C.ar  1 <1>   0.4100 
  8 C       -4.8970    -2.6870     1.6560 C.ar  1 <1>   0.1600 
  9 N       -5.8770    -2.3410     0.8420 N.ar  1 <1>  -0.6200 
 10 N       -6.7760    -0.7390    -0.5520 N.pl3 1 <1>  -0.8380 
 11 C       -7.9560    -0.1390     0.1400 C.3   1 <1>   0.2090 
 12 C       -7.1940    -1.7020    -1.6050 C.3   1 <1>   0.2090 
 13 C       -8.8190     0.6640    -0.8530 C.3   1 <1>   0.1440 
 14 C       -8.0380    -0.9770    -2.6610 C.3   1 <1>  -0.1600 
 15 C      -10.0490     1.2190    -0.1610 C.ar  1 <1>   0.1670 
 16 C       -9.2400    -0.2410    -2.0340 C.3   1 <1>  -0.1600 
 17 C       -8.1020     1.9530    -1.3410 C.3   1 <1>  -0.1600 
 18 N      -10.8570     0.5350     0.6090 N.ar  1 <1>  -0.6200 
 19 C      -10.2270     2.5410    -0.4350 C.ar  1 <1>  -0.1430 
 20 C       -9.1530     3.0770    -1.3480 C.3   1 <1>  -0.0170 
 21 C      -11.8830     1.2240     1.1150 C.ar  1 <1>   0.7200 
 22 C      -11.3080     3.1680     0.1290 C.ar  1 <1>   0.1600 
 23 N      -12.1430     2.5190     0.9060 N.ar  1 <1>  -0.6200 
 24 N      -12.7550     0.5330     1.9340 N.pl3 1 <1>  -0.8380 
 25 C      -14.0800     1.0880     2.3250 C.3   1 <1>   0.1290 
 26 C      -12.4270    -0.8130     2.4810 C.3   1 <1>   0.1290 
 27 H       -1.3120     1.7450     1.0150 H     1 <1>   0.3700 
 28 H       -2.5910     1.3950    -0.1070 H     1 <1>   0.3700 
 29 H       -4.6980     0.6570     0.0100 H     1 <1>   0.1500 
 30 H       -3.0410    -2.2580     2.6160 H     1 <1>   0.1500 
 31 H       -4.9770    -3.6520     2.1260 H     1 <1>   0.1500 
 32 H       -7.6280     0.5000     0.9410 H     1 <1>   0.0800 
 33 H       -8.5480    -0.9280     0.5720 H     1 <1>   0.0800 
 34 H       -7.7670    -2.4960    -1.1560 H     1 <1>   0.0800 
 35 H       -6.3210    -2.1350    -2.0640 H     1 <1>   0.0800 
 36 H       -8.3940    -1.6960    -3.3770 H     1 <1>   0.0800 
 37 H       -7.4070    -0.2840    -3.1860 H     1 <1>   0.0800 
 38 H       -9.7500     0.3390    -2.7820 H     1 <1>   0.0800 
 39 H       -9.9350    -0.9760    -1.6650 H     1 <1>   0.0800 
 40 H       -7.6430     1.8350    -2.3050 H     1 <1>   0.0800 
 41 H       -7.3310     2.2150    -0.6370 H     1 <1>   0.0800 
 42 H       -9.5550     3.2150    -2.3360 H     1 <1>   0.0800 
 43 H       -8.7440     4.0030    -0.9830 H     1 <1>   0.0800 
 44 H      -11.4910     4.2120    -0.0580 H     1 <1>   0.1500 
 45 H      -14.4540     1.7470     1.5600 H     1 <1>   0.0800 
 46 H      -13.9810     1.6400     3.2430 H     1 <1>   0.0800 
 47 H      -14.7900     0.2920     2.4610 H     1 <1>   0.0800 
 48 H      -11.3640    -0.9190     2.6100 H     1 <1>   0.0800 
 49 H      -12.7740    -1.5710     1.8010 H     1 <1>   0.0800 
 50 H      -12.8980    -0.9490     3.4380 H     1 <1>   0.0800 
@<TRIPOS>BOND
  1   1   2  2   
  2   2   3  am  
  3   2   4  1   
  4   3  27  1   
  5   3  28  1   
  6   4   5  ar  
  7   4   6  ar  
  8   5   7  ar  
  9   5  29  1   
 10   6   8  ar  
 11   6  30  1   
 12   7   9  ar  
 13   7  10  1   
 14   8   9  ar  
 15   8  31  1   
 16  10  11  1   
 17  10  12  1   
 18  11  13  1   
 19  11  32  1   
 20  11  33  1   
 21  12  14  1   
 22  12  34  1   
 23  12  35  1   
 24  13  15  1   
 25  13  16  1   
 26  13  17  1   
 27  14  16  1   
 28  14  36  1   
 29  14  37  1   
 30  15  18  ar  
 31  15  19  ar  
 32  16  38  1   
 33  16  39  1   
 34  17  20  1   
 35  17  40  1   
 36  17  41  1   
 37  18  21  ar  
 38  19  20  1   
 39  19  22  ar  
 40  20  42  1   
 41  20  43  1   
 42  21  23  ar  
 43  21  24  1   
 44  22  23  ar  
 45  22  44  1   
 46  24  25  1   
 47  24  26  1   
 48  25  45  1   
 49  25  46  1   
 50  25  47  1   
 51  26  48  1   
 52  26  49  1   
 53  26  50  1   
@<TRIPOS>SUBSTRUCTURE
  1 ****  11 GROUP 4 **** **** 0

# MOE 2024.06 (io_trps.svl 2023.06)
