@<TRIPOS>MOLECULE
NONAME
43 45 1 0 0 
SMALL
USER_CHARGES


@<TRIPOS>ATOM
  1 O       -0.6540     0.1490    -0.4380 O.2   1 <1>  -0.5700 
  2 C       -1.5610     0.7970     0.0550 C.2   1 <1>   0.5440 
  3 N       -2.6180     0.1430     0.6330 N.am  1 <1>  -0.6600 
  4 C       -1.4990     2.2480     0.0150 C.ar  1 <1>   0.0860 
  5 C       -3.9280     0.7700     0.9740 C.3   1 <1>   0.2350 
  6 C       -2.7300    -1.3410     0.7210 C.3   1 <1>   0.2350 
  7 C       -1.1910     2.9150    -1.1700 C.ar  1 <1>  -0.1500 
  8 C       -1.7330     3.0300     1.1460 C.ar  1 <1>  -0.1500 
  9 C       -4.9620    -0.3290     0.8260 C.3   1 <1>  -0.2420 
 10 C       -4.2200    -1.6380     0.6830 C.3   1 <1>  -0.2420 
 11 C       -1.1360     4.2960    -1.2290 C.ar  1 <1>  -0.1500 
 12 C       -1.6820     4.4110     1.0930 C.ar  1 <1>  -0.1500 
 13 C       -6.2520     0.0480     1.5620 C.2   1 <1>   0.9470 
 14 C       -5.0640    -1.1210    -0.4530 C.3   1 <1>  -0.2000 
 15 C       -4.5130    -3.0230     1.2630 C.2   1 <1>   0.9470 
 16 C       -1.3830     5.0550    -0.0960 C.ar  1 <1>  -0.1430 
 17 O       -7.3330     0.0330     0.9580 O.co2 1 <1>  -0.9000 
 18 O       -6.1680     0.5340     2.7000 O.co2 1 <1>  -0.9000 
 19 O       -5.0220    -3.8910     0.5400 O.co2 1 <1>  -0.9000 
 20 O       -4.0950    -3.3000     2.3960 O.co2 1 <1>  -0.9000 
 21 C       -1.3310     6.5770    -0.1530 C.3   1 <1>  -0.0170 
 22 C       -0.0510     7.1470     0.4880 C.3   1 <1>  -0.0800 
 23 C       -0.0990     8.6800     0.5000 C.3   1 <1>  -0.2400 
 24 C        1.2130     6.6760    -0.2460 C.3   1 <1>  -0.2400 
 25 H       -3.8990     1.1110     1.9950 H     1 <1>   0.0800 
 26 H       -4.1580     1.5910     0.3190 H     1 <1>   0.0800 
 27 H       -2.2240    -1.8230    -0.0970 H     1 <1>   0.0800 
 28 H       -2.3070    -1.6730     1.6540 H     1 <1>   0.0800 
 29 H       -0.9940     2.3300    -2.0510 H     1 <1>   0.1500 
 30 H       -1.9600     2.5400     2.0770 H     1 <1>   0.1500 
 31 H       -0.8960     4.7770    -2.1610 H     1 <1>   0.1500 
 32 H       -1.8750     4.9830     1.9830 H     1 <1>   0.1500 
 33 H       -4.5860    -0.7590    -1.3430 H     1 <1>   0.1000 
 34 H       -5.9900    -1.6330    -0.6590 H     1 <1>   0.1000 
 35 H       -1.3990     6.9050    -1.1750 H     1 <1>   0.0800 
 36 H       -2.1910     6.9650     0.3640 H     1 <1>   0.0800 
 37 H        0.0020     6.8040     1.5070 H     1 <1>   0.0800 
 38 H       -0.1470     9.0670    -0.5030 H     1 <1>   0.0800 
 39 H        0.7790     9.0770     0.9780 H     1 <1>   0.0800 
 40 H       -0.9620     9.0240     1.0430 H     1 <1>   0.0800 
 41 H        1.1860     6.9730    -1.2800 H     1 <1>   0.0800 
 42 H        1.3000     5.6050    -0.1980 H     1 <1>   0.0800 
 43 H        2.0900     7.1000     0.2110 H     1 <1>   0.0800 
@<TRIPOS>BOND
  1   1   2  2   
  2   2   3  am  
  3   2   4  1   
  4   3   5  1   
  5   3   6  1   
  6   4   7  ar  
  7   4   8  ar  
  8   5   9  1   
  9   5  25  1   
 10   5  26  1   
 11   6  10  1   
 12   6  27  1   
 13   6  28  1   
 14   7  11  ar  
 15   7  29  1   
 16   8  12  ar  
 17   8  30  1   
 18   9  10  1   
 19   9  13  1   
 20   9  14  1   
 21  10  14  1   
 22  10  15  1   
 23  11  16  ar  
 24  11  31  1   
 25  12  16  ar  
 26  12  32  1   
 27  13  17  ar  
 28  13  18  ar  
 29  14  33  1   
 30  14  34  1   
 31  15  19  ar  
 32  15  20  ar  
 33  16  21  1   
 34  21  22  1   
 35  21  35  1   
 36  21  36  1   
 37  22  23  1   
 38  22  24  1   
 39  22  37  1   
 40  23  38  1   
 41  23  39  1   
 42  23  40  1   
 43  24  41  1   
 44  24  42  1   
 45  24  43  1   
@<TRIPOS>SUBSTRUCTURE
  1 ****   5 GROUP 4 **** **** 0

# MOE 2024.06 (io_trps.svl 2023.06)
