@<TRIPOS>MOLECULE
NONAME
49 50 1 0 0 
SMALL
USER_CHARGES


@<TRIPOS>ATOM
  1 O        3.4120    -0.9440     0.9400 O.2   1 <1>  -0.5700 
  2 C        2.5340    -1.0610     0.1110 C.2   1 <1>   0.5690 
  3 N        1.7540    -0.0100    -0.2960 N.am  1 <1>  -0.4940 
  4 C        2.2770    -2.4510    -0.5130 C.3   1 <1>   0.3950 
  5 C        1.7120     1.3390     0.1300 C.2   1 <1>  -0.0880 
  6 N        2.8250    -2.6170    -1.9030 N.3   1 <1>  -0.8100 
  7 C        0.7670    -2.7330    -0.4830 C.ar  1 <1>  -0.1440 
  8 N        2.7590     2.1540     0.4500 N.pl3 1 <1>   0.3140 
  9 C        0.5920     2.0810     0.2880 C.2   1 <1>  -0.1500 
 10 C        2.7170    -4.0140    -2.3560 C.3   1 <1>   0.0300 
 11 C        4.2270    -2.1820    -1.9970 C.3   1 <1>   0.0300 
 12 C        0.2060    -3.3020     0.6510 C.ar  1 <1>  -0.1500 
 13 C       -0.0600    -2.4100    -1.5520 C.ar  1 <1>  -0.1500 
 14 N        2.3180     3.3850     0.8190 N.2   1 <1>  -0.7070 
 15 C        4.2070     1.8330     0.3720 C.3   1 <1>   0.0960 
 16 C        1.0310     3.3250     0.7170 C.2   1 <1>   0.1080 
 17 C       -1.1560    -3.5470     0.7260 C.ar  1 <1>  -0.1430 
 18 C       -1.4200    -2.6540    -1.4850 C.ar  1 <1>  -0.1500 
 19 C        5.0640     3.0280    -0.0810 C.3   1 <1>  -0.1600 
 20 C        0.1420     4.5020     1.0400 C.3   1 <1>  -0.0590 
 21 C       -1.9670    -3.2210    -0.3480 C.ar  1 <1>  -0.1500 
 22 C       -1.7490    -4.1700     1.9760 C.3   1 <1>  -0.0970 
 23 C        6.5360     2.6290    -0.2400 C.3   1 <1>  -0.2400 
 24 H        0.9820    -0.2980    -0.9030 H     1 <1>   0.3700 
 25 H        2.7660    -3.1680     0.1230 H     1 <1>   0.0800 
 26 H       -0.4290     1.7880     0.1290 H     1 <1>   0.1500 
 27 H        1.6910    -4.3380    -2.3490 H     1 <1>   0.0800 
 28 H        3.2910    -4.6640    -1.7180 H     1 <1>   0.0800 
 29 H        3.0850    -4.1000    -3.3640 H     1 <1>   0.0800 
 30 H        4.3080    -1.1260    -1.8030 H     1 <1>   0.0800 
 31 H        4.6010    -2.3620    -2.9910 H     1 <1>   0.0800 
 32 H        4.8390    -2.7170    -1.2910 H     1 <1>   0.0800 
 33 H        0.8310    -3.5540     1.4900 H     1 <1>   0.1500 
 34 H        0.3540    -1.9750    -2.4470 H     1 <1>   0.1500 
 35 H        4.3340     1.0300    -0.3280 H     1 <1>   0.0800 
 36 H        4.5230     1.4960     1.3420 H     1 <1>   0.0800 
 37 H       -2.0530    -2.4050    -2.3190 H     1 <1>   0.1500 
 38 H        4.9890     3.8170     0.6480 H     1 <1>   0.0800 
 39 H        4.6900     3.3970    -1.0210 H     1 <1>   0.0800 
 40 H       -0.8900     4.2460     0.8940 H     1 <1>   0.0800 
 41 H        0.3970     5.3270     0.4020 H     1 <1>   0.0800 
 42 H        0.2940     4.7920     2.0640 H     1 <1>   0.0800 
 43 H       -3.0250    -3.4080    -0.3050 H     1 <1>   0.1500 
 44 H       -1.2520    -3.7950     2.8520 H     1 <1>   0.0800 
 45 H       -1.6340    -5.2380     1.9400 H     1 <1>   0.0800 
 46 H       -2.7960    -3.9370     2.0560 H     1 <1>   0.0800 
 47 H        6.9310     2.2720     0.6950 H     1 <1>   0.0800 
 48 H        7.1140     3.4810    -0.5520 H     1 <1>   0.0800 
 49 H        6.6400     1.8550    -0.9810 H     1 <1>   0.0800 
@<TRIPOS>BOND
  1   1   2  2   
  2   2   3  am  
  3   2   4  1   
  4   3   5  1   
  5   3  24  1   
  6   4   6  1   
  7   4   7  1   
  8   4  25  1   
  9   5   8  1   
 10   5   9  2   
 11   6  10  1   
 12   6  11  1   
 13   7  12  ar  
 14   7  13  ar  
 15   8  14  1   
 16   8  15  1   
 17   9  16  1   
 18   9  26  1   
 19  10  27  1   
 20  10  28  1   
 21  10  29  1   
 22  11  30  1   
 23  11  31  1   
 24  11  32  1   
 25  12  17  ar  
 26  12  33  1   
 27  13  18  ar  
 28  13  34  1   
 29  14  16  2   
 30  15  19  1   
 31  15  35  1   
 32  15  36  1   
 33  16  20  1   
 34  17  21  ar  
 35  17  22  1   
 36  18  21  ar  
 37  18  37  1   
 38  19  23  1   
 39  19  38  1   
 40  19  39  1   
 41  20  40  1   
 42  20  41  1   
 43  20  42  1   
 44  21  43  1   
 45  22  44  1   
 46  22  45  1   
 47  22  46  1   
 48  23  47  1   
 49  23  48  1   
 50  23  49  1   
@<TRIPOS>SUBSTRUCTURE
  1 ****   3 GROUP 4 **** **** 0

# MOE 2024.06 (io_trps.svl 2023.06)
