@<TRIPOS>MOLECULE
NONAME
22 22 1 0 0 
SMALL
USER_CHARGES


@<TRIPOS>ATOM
  1 O       -0.2490    -0.5050     1.2800 O.2   1 <1>  -0.5700 
  2 C       -0.0520    -1.4700     0.5870 C.2   1 <1>   0.6590 
  3 O       -0.9270    -1.8830    -0.3230 O.3   1 <1>  -0.4300 
  4 C        1.1990    -2.2970     0.7410 C.3   1 <1>  -0.0990 
  5 C       -2.1290    -1.1830    -0.5630 C.3   1 <1>   0.0400 
  6 C        2.4250    -1.4950     0.3220 C.3   1 <1>   0.2950 
  7 O        2.3420    -1.2510    -1.0330 O.3   1 <1>  -0.6800 
  8 C        3.7310    -2.2550     0.6190 C.3   1 <1>  -0.1950 
  9 C        5.0220    -2.0010    -0.1010 C.3   1 <1>  -0.2000 
 10 C        4.2920    -3.3020    -0.2940 C.3   1 <1>  -0.2000 
 11 H        1.1270    -3.1960     0.1580 H     1 <1>   0.0800 
 12 H        1.2870    -2.5700     1.7750 H     1 <1>   0.0800 
 13 H       -2.6720    -1.6940    -1.3370 H     1 <1>   0.0800 
 14 H       -1.8890    -0.1820    -0.8760 H     1 <1>   0.0800 
 15 H       -2.7060    -1.1600     0.3450 H     1 <1>   0.0800 
 16 H        2.4380    -0.5430     0.8280 H     1 <1>   0.0800 
 17 H        3.2180    -0.9690    -1.3530 H     1 <1>   0.4000 
 18 H        3.8220    -2.4470     1.6750 H     1 <1>   0.1000 
 19 H        5.9370    -2.0060     0.4670 H     1 <1>   0.1000 
 20 H        5.0660    -1.3180    -0.9310 H     1 <1>   0.1000 
 21 H        3.8100    -3.4900    -1.2380 H     1 <1>   0.1000 
 22 H        4.7040    -4.1970     0.1390 H     1 <1>   0.1000 
@<TRIPOS>BOND
  1   1   2  2   
  2   2   3  1   
  3   2   4  1   
  4   3   5  1   
  5   4   6  1   
  6   4  11  1   
  7   4  12  1   
  8   5  13  1   
  9   5  14  1   
 10   5  15  1   
 11   6   7  1   
 12   6   8  1   
 13   6  16  1   
 14   7  17  1   
 15   8   9  1   
 16   8  10  1   
 17   8  18  1   
 18   9  10  1   
 19   9  19  1   
 20   9  20  1   
 21  10  21  1   
 22  10  22  1   
@<TRIPOS>SUBSTRUCTURE
  1 ****   4 GROUP 4 **** **** 0

# MOE 2024.06 (io_trps.svl 2023.06)
