@<TRIPOS>MOLECULE
NONAME
46 47 1 0 0 
SMALL
USER_CHARGES


@<TRIPOS>ATOM
  1 S       -0.8710     0.5160    -1.3910 S.o2  1 <1>   1.4470 
  2 O       -0.8220    -0.7770    -2.0380 O.2   1 <1>  -0.6500 
  3 O       -1.3180     1.6510    -2.1720 O.2   1 <1>  -0.6500 
  4 N       -1.9320     0.4100    -0.0680 N.am  1 <1>  -0.8490 
  5 C        0.7440     0.9090    -0.6580 C.ar  1 <1>  -0.0090 
  6 C       -1.5260    -0.4900     1.0270 C.3   1 <1>   0.1960 
  7 C       -3.3450     0.2640    -0.4630 C.3   1 <1>   0.1960 
  8 C        1.1260     2.2240    -0.4260 C.ar  1 <1>  -0.1500 
  9 C        1.6270    -0.0940    -0.2830 C.ar  1 <1>  -0.1500 
 10 C       -1.7260    -1.9700     0.6910 C.3   1 <1>  -0.1860 
 11 C       -3.9950    -1.0400     0.0210 C.3   1 <1>  -0.1600 
 12 C        2.3440     2.5550     0.1550 C.ar  1 <1>  -0.1440 
 13 C        2.8430     0.2050     0.3010 C.ar  1 <1>  -0.1500 
 14 C       -1.5990    -2.6960     2.0090 C.2   1 <1>   0.9060 
 15 C       -3.0210    -2.2070    -0.1170 C.3   1 <1>   0.2000 
 16 C        3.2130     1.5280     0.5250 C.ar  1 <1>   0.0820 
 17 C        2.6930     4.0320     0.3780 C.3   1 <1>   0.0630 
 18 O       -0.4630    -2.8610     2.4610 O.co2 1 <1>  -0.9000 
 19 O       -2.6160    -3.0430     2.6250 O.co2 1 <1>  -0.9000 
 20 O       -3.6730    -3.3470     0.2960 O.3   1 <1>  -0.6800 
 21 O        4.4000     1.8560     1.1010 O.3   1 <1>  -0.3630 
 22 C        1.6980     4.6860     1.3430 C.3   1 <1>  -0.2400 
 23 C        2.7380     4.7930    -0.9520 C.3   1 <1>  -0.2400 
 24 C        5.2670     0.8800     1.6340 C.3   1 <1>   0.0400 
 25 H       -0.5040    -0.3160     1.3160 H     1 <1>   0.0800 
 26 H       -2.1270    -0.2530     1.8900 H     1 <1>   0.0800 
 27 H       -3.8990     1.0990    -0.0690 H     1 <1>   0.0800 
 28 H       -3.4280     0.3070    -1.5370 H     1 <1>   0.0800 
 29 H        0.4410     3.0050    -0.7100 H     1 <1>   0.1500 
 30 H        1.3550    -1.1250    -0.4420 H     1 <1>   0.1500 
 31 H       -0.9020    -2.3010     0.0900 H     1 <1>   0.0800 
 32 H       -4.8780    -1.2320    -0.5600 H     1 <1>   0.0800 
 33 H       -4.2860    -0.9350     1.0520 H     1 <1>   0.0800 
 34 H        3.4830    -0.6120     0.5760 H     1 <1>   0.1500 
 35 H       -2.7770    -2.3390    -1.1580 H     1 <1>   0.0800 
 36 H        3.6680     4.1160     0.8230 H     1 <1>   0.0800 
 37 H       -3.4950    -3.4280     1.2820 H     1 <1>   0.4000 
 38 H        0.7060     4.6980     0.9280 H     1 <1>   0.0800 
 39 H        1.9950     5.6970     1.5540 H     1 <1>   0.0800 
 40 H        1.6760     4.1360     2.2670 H     1 <1>   0.0800 
 41 H        1.7710     4.8160    -1.4200 H     1 <1>   0.0800 
 42 H        3.4310     4.3130    -1.6200 H     1 <1>   0.0800 
 43 H        3.0650     5.8040    -0.7900 H     1 <1>   0.0800 
 44 H        6.1010     1.3860     2.0850 H     1 <1>   0.0800 
 45 H        5.6110     0.2450     0.8370 H     1 <1>   0.0800 
 46 H        4.7370     0.3120     2.3790 H     1 <1>   0.0800 
@<TRIPOS>BOND
  1   1   2  2   
  2   1   3  2   
  3   1   4  am  
  4   1   5  1   
  5   4   6  1   
  6   4   7  1   
  7   5   8  ar  
  8   5   9  ar  
  9   6  10  1   
 10   6  25  1   
 11   6  26  1   
 12   7  11  1   
 13   7  27  1   
 14   7  28  1   
 15   8  12  ar  
 16   8  29  1   
 17   9  13  ar  
 18   9  30  1   
 19  10  14  1   
 20  10  15  1   
 21  10  31  1   
 22  11  15  1   
 23  11  32  1   
 24  11  33  1   
 25  12  16  ar  
 26  12  17  1   
 27  13  16  ar  
 28  13  34  1   
 29  14  18  ar  
 30  14  19  ar  
 31  15  20  1   
 32  15  35  1   
 33  16  21  1   
 34  17  22  1   
 35  17  23  1   
 36  17  36  1   
 37  20  37  1   
 38  21  24  1   
 39  22  38  1   
 40  22  39  1   
 41  22  40  1   
 42  23  41  1   
 43  23  42  1   
 44  23  43  1   
 45  24  44  1   
 46  24  45  1   
 47  24  46  1   
@<TRIPOS>SUBSTRUCTURE
  1 ****   5 GROUP 4 **** **** 0

# MOE 2024.06 (io_trps.svl 2023.06)
