@<TRIPOS>MOLECULE
NONAME
47 48 1 0 0 
SMALL
USER_CHARGES


@<TRIPOS>ATOM
  1 CL       1.9410    -1.8610     1.6590 Cl    1 <1>  -0.1770 
  2 C        0.8330    -3.1960     1.4620 C.ar  1 <1>   0.1770 
  3 C        0.2920    -3.7990     2.5820 C.ar  1 <1>  -0.1500 
  4 C        0.5150    -3.6290     0.1880 C.ar  1 <1>  -0.1500 
  5 C       -0.5860    -4.8570     2.4190 C.ar  1 <1>  -0.1500 
  6 C       -0.3640    -4.6890     0.0280 C.ar  1 <1>  -0.1500 
  7 C       -0.9190    -5.3070     1.1490 C.ar  1 <1>   0.0830 
  8 O       -1.7870    -6.3470     1.0830 O.3   1 <1>  -0.3630 
  9 C       -2.2130    -6.8730    -0.1490 C.3   1 <1>   0.1200 
 10 C       -3.1930    -8.0060     0.1540 C.3   1 <1>  -0.1600 
 11 C       -3.7570    -8.5940    -1.1370 C.3   1 <1>   0.3430 
 12 N       -4.6160    -9.7720    -0.8340 N.4   1 <1>  -0.9590 
 13 C       -4.9000   -10.5920    -2.0600 C.3   1 <1>   0.3430 
 14 C       -5.8920    -9.4030    -0.1420 C.3   1 <1>   0.2630 
 15 C       -4.5330   -12.0710    -1.8550 C.3   1 <1>   0.1400 
 16 N       -5.1700   -12.6360    -0.6290 N.am  1 <1>  -0.4200 
 17 C       -4.5040   -12.6160     0.5740 C.2   1 <1>   0.6900 
 18 C       -6.4280   -13.2000    -0.7080 C.2   1 <1>   0.6160 
 19 O       -3.5380   -11.8950     0.7310 O.2   1 <1>  -0.5700 
 20 N       -4.9940   -13.3480     1.6180 N.am  1 <1>  -0.5390 
 21 O       -7.1030   -13.0020    -1.7000 O.2   1 <1>  -0.5700 
 22 C       -6.9090   -13.9510     0.4040 C.2   1 <1>  -0.1360 
 23 C       -6.1930   -14.0280     1.5480 C.2   1 <1>  -0.0290 
 24 C       -6.6170   -14.8080     2.7760 C.3   1 <1>  -0.1020 
 25 H        0.5560    -3.4440     3.5610 H     1 <1>   0.1500 
 26 H        0.9520    -3.1400    -0.6640 H     1 <1>   0.1500 
 27 H       -1.0170    -5.3400     3.2780 H     1 <1>   0.1500 
 28 H       -0.5980    -5.0110    -0.9680 H     1 <1>   0.1500 
 29 H       -1.3480    -7.2350    -0.6780 H     1 <1>   0.0800 
 30 H       -2.6900    -6.0820    -0.7030 H     1 <1>   0.0800 
 31 H       -3.9870    -7.6070     0.7590 H     1 <1>   0.0800 
 32 H       -2.6710    -8.7700     0.7040 H     1 <1>   0.0800 
 33 H       -2.9350    -8.9030    -1.7620 H     1 <1>   0.0800 
 34 H       -4.3250    -7.8470    -1.6670 H     1 <1>   0.0800 
 35 H       -4.0740   -10.3840    -0.1840 H     1 <1>   0.4500 
 36 H       -4.3370   -10.2130    -2.8960 H     1 <1>   0.0800 
 37 H       -5.9460   -10.5270    -2.3160 H     1 <1>   0.0800 
 38 H       -6.4710    -8.7300    -0.7540 H     1 <1>   0.0800 
 39 H       -5.6840    -8.9230     0.8000 H     1 <1>   0.0800 
 40 H       -6.4790   -10.2860     0.0500 H     1 <1>   0.0800 
 41 H       -3.4630   -12.1720    -1.7860 H     1 <1>   0.0800 
 42 H       -4.8480   -12.6360    -2.7160 H     1 <1>   0.0800 
 43 H       -4.4220   -13.3530     2.4660 H     1 <1>   0.3700 
 44 H       -7.8570   -14.4400     0.2730 H     1 <1>   0.1500 
 45 H       -5.8850   -15.5610     3.0080 H     1 <1>   0.0800 
 46 H       -7.5620   -15.2950     2.6090 H     1 <1>   0.0800 
 47 H       -6.7180   -14.1490     3.6190 H     1 <1>   0.0800 
@<TRIPOS>BOND
  1   1   2  1   
  2   2   3  ar  
  3   2   4  ar  
  4   3   5  ar  
  5   3  25  1   
  6   4   6  ar  
  7   4  26  1   
  8   5   7  ar  
  9   5  27  1   
 10   6   7  ar  
 11   6  28  1   
 12   7   8  1   
 13   8   9  1   
 14   9  10  1   
 15   9  29  1   
 16   9  30  1   
 17  10  11  1   
 18  10  31  1   
 19  10  32  1   
 20  11  12  1   
 21  11  33  1   
 22  11  34  1   
 23  12  13  1   
 24  12  14  1   
 25  12  35  1   
 26  13  15  1   
 27  13  36  1   
 28  13  37  1   
 29  14  38  1   
 30  14  39  1   
 31  14  40  1   
 32  15  16  1   
 33  15  41  1   
 34  15  42  1   
 35  16  17  am  
 36  16  18  am  
 37  17  19  2   
 38  17  20  am  
 39  18  21  2   
 40  18  22  1   
 41  20  23  1   
 42  20  43  1   
 43  22  23  2   
 44  22  44  1   
 45  23  24  1   
 46  24  45  1   
 47  24  46  1   
 48  24  47  1   
@<TRIPOS>SUBSTRUCTURE
  1 ****  10 GROUP 4 **** **** 0

# MOE 2024.06 (io_trps.svl 2023.06)
