@<TRIPOS>MOLECULE
NONAME
51 54 1 0 0 
SMALL
USER_CHARGES


@<TRIPOS>ATOM
  1 O       -2.0800     0.4930    -2.3730 O.2   1 <1>  -0.5700 
  2 C       -1.9660     0.9270    -1.2420 C.2   1 <1>   0.5440 
  3 N       -2.2010     0.0370    -0.2130 N.am  1 <1>  -0.6600 
  4 C       -1.7140     2.3420    -1.0300 C.ar  1 <1>   0.0860 
  5 C       -2.9120     0.4330     1.0340 C.3   1 <1>   0.1400 
  6 C       -2.1790    -1.4330    -0.4500 C.3   1 <1>   0.1400 
  7 C       -0.8430     2.8330    -0.0460 C.ar  1 <1>   0.0830 
  8 C       -2.3650     3.2740    -1.8390 C.ar  1 <1>  -0.1500 
  9 C       -4.3610    -0.1080     1.0240 C.3   1 <1>   0.4230 
 10 C       -3.6200    -1.9630    -0.5080 C.3   1 <1>   0.3430 
 11 O       -0.1760     1.9400     0.7280 O.3   1 <1>  -0.3630 
 12 C       -0.6730     4.2060     0.1200 C.ar  1 <1>  -0.1500 
 13 C       -2.1890     4.6330    -1.6720 C.ar  1 <1>  -0.1500 
 14 N       -4.4170    -1.6010     0.7300 N.4   1 <1>  -0.9590 
 15 C       -5.2250     0.6850     0.0140 C.3   1 <1>   0.1200 
 16 C        0.9680     2.2980     1.4750 C.3   1 <1>   0.0400 
 17 C       -1.3440     5.1080    -0.6850 C.ar  1 <1>  -0.1430 
 18 C       -5.8500    -2.0420     0.6460 C.3   1 <1>   0.5180 
 19 O       -6.5360     0.1960     0.0100 O.3   1 <1>  -0.5600 
 20 C       -1.1580     6.6040    -0.5070 C.3   1 <1>  -0.0970 
 21 C       -5.9050    -3.5530     0.3390 C.3   1 <1>  -0.1950 
 22 C       -6.6550    -1.1560    -0.3380 C.3   1 <1>   0.1200 
 23 C       -5.9040    -4.1490    -1.0400 C.3   1 <1>  -0.2000 
 24 C       -7.1350    -4.2330    -0.1830 C.3   1 <1>  -0.2000 
 25 H       -2.3790     0.0400     1.8820 H     1 <1>   0.0800 
 26 H       -2.9300     1.5040     1.1370 H     1 <1>   0.0800 
 27 H       -1.6750    -1.6560    -1.3760 H     1 <1>   0.0800 
 28 H       -1.6330    -1.9170     0.3400 H     1 <1>   0.0800 
 29 H       -3.0190     2.9220    -2.6200 H     1 <1>   0.1500 
 30 H       -4.7810     0.0730     1.9990 H     1 <1>   0.0800 
 31 H       -3.5890    -3.0330    -0.6280 H     1 <1>   0.0800 
 32 H       -4.0920    -1.5470    -1.3830 H     1 <1>   0.0800 
 33 H       -0.0170     4.5910     0.8780 H     1 <1>   0.1500 
 34 H       -2.7080     5.3240    -2.3150 H     1 <1>   0.1500 
 35 H       -3.9920    -2.0930     1.5210 H     1 <1>   0.4500 
 36 H       -4.8270     0.6210    -0.9840 H     1 <1>   0.0800 
 37 H       -5.2670     1.7230     0.2960 H     1 <1>   0.0800 
 38 H        1.4050     1.3980     1.8700 H     1 <1>   0.0800 
 39 H        0.6750     2.9450     2.2810 H     1 <1>   0.0800 
 40 H        1.6710     2.7880     0.8240 H     1 <1>   0.0800 
 41 H       -6.3040    -1.9040     1.6140 H     1 <1>   0.0800 
 42 H       -2.1100     7.1030    -0.5420 H     1 <1>   0.0800 
 43 H       -0.5350     6.9900    -1.2940 H     1 <1>   0.0800 
 44 H       -0.6940     6.8250     0.4380 H     1 <1>   0.0800 
 45 H       -5.3960    -4.1080     1.1090 H     1 <1>   0.1000 
 46 H       -7.7000    -1.4050    -0.2900 H     1 <1>   0.0800 
 47 H       -6.3200    -1.2810    -1.3520 H     1 <1>   0.0800 
 48 H       -5.9630    -3.5360    -1.9230 H     1 <1>   0.1000 
 49 H       -5.3580    -5.0610    -1.2210 H     1 <1>   0.1000 
 50 H       -7.4080    -5.1960     0.2180 H     1 <1>   0.1000 
 51 H       -8.0010    -3.6760    -0.4980 H     1 <1>   0.1000 
@<TRIPOS>BOND
  1   1   2  2   
  2   2   3  am  
  3   2   4  1   
  4   3   5  1   
  5   3   6  1   
  6   4   7  ar  
  7   4   8  ar  
  8   5   9  1   
  9   5  25  1   
 10   5  26  1   
 11   6  10  1   
 12   6  27  1   
 13   6  28  1   
 14   7  11  1   
 15   7  12  ar  
 16   8  13  ar  
 17   8  29  1   
 18   9  14  1   
 19   9  15  1   
 20   9  30  1   
 21  10  14  1   
 22  10  31  1   
 23  10  32  1   
 24  11  16  1   
 25  12  17  ar  
 26  12  33  1   
 27  13  17  ar  
 28  13  34  1   
 29  14  18  1   
 30  14  35  1   
 31  15  19  1   
 32  15  36  1   
 33  15  37  1   
 34  16  38  1   
 35  16  39  1   
 36  16  40  1   
 37  17  20  1   
 38  18  21  1   
 39  18  22  1   
 40  18  41  1   
 41  19  22  1   
 42  20  42  1   
 43  20  43  1   
 44  20  44  1   
 45  21  23  1   
 46  21  24  1   
 47  21  45  1   
 48  22  46  1   
 49  22  47  1   
 50  23  24  1   
 51  23  48  1   
 52  23  49  1   
 53  24  50  1   
 54  24  51  1   
@<TRIPOS>SUBSTRUCTURE
  1 ****   3 GROUP 4 **** **** 0

# MOE 2024.06 (io_trps.svl 2023.06)
