@<TRIPOS>MOLECULE
NONAME
43 46 1 0 0 
SMALL
USER_CHARGES


@<TRIPOS>ATOM
  1 S       -0.5210     0.6520    -1.9860 S.3   1 <1>  -0.0800 
  2 C       -0.2960     1.9670    -0.8520 C.2   1 <1>  -0.1400 
  3 C        1.0970     0.9010    -2.6240 C.2   1 <1>  -0.1100 
  4 C        0.9180     2.5210    -0.9620 C.2   1 <1>  -0.1810 
  5 C       -1.3660     2.3980     0.1140 C.3   1 <1>   0.0200 
  6 C        1.7190     1.9120    -1.9870 C.2   1 <1>  -0.1500 
  7 C        1.3410     3.6800    -0.0560 C.3   1 <1>   0.4610 
  8 C       -0.9940     3.8060     0.6060 C.3   1 <1>   0.1200 
  9 O        0.3690     3.8810     0.9550 O.3   1 <1>  -0.5600 
 10 C        1.5050     4.9780    -0.8580 C.3   1 <1>  -0.1600 
 11 C        2.6450     3.3410     0.6730 C.3   1 <1>  -0.1600 
 12 C        1.9930     6.1320     0.0200 C.3   1 <1>   0.1400 
 13 C        3.1230     4.5050     1.5420 C.3   1 <1>   0.1400 
 14 N        3.2520     5.7300     0.7030 N.am  1 <1>  -0.6600 
 15 C        4.4640     6.3780     0.5370 C.2   1 <1>   0.7150 
 16 O        5.4830     5.7630     0.8030 O.2   1 <1>  -0.5700 
 17 C        4.5650     7.7390     0.0510 C.2   1 <1>   0.0550 
 18 O        3.6530     8.6510     0.3690 O.3   1 <1>  -0.2800 
 19 C        5.5060     8.3270    -0.7190 C.2   1 <1>   0.0460 
 20 C        4.1140     9.7240    -0.2390 C.2   1 <1>   0.2980 
 21 N        5.2000     9.6050    -0.9050 N.2   1 <1>  -0.5650 
 22 C        6.7620     7.7580    -1.3480 C.3   1 <1>  -0.0590 
 23 C        3.3260    11.0040    -0.1020 C.3   1 <1>  -0.0600 
 24 H        1.4160     0.2530    -3.4210 H     1 <1>   0.1500 
 25 H       -1.4120     1.7130     0.9410 H     1 <1>   0.0800 
 26 H       -2.3240     2.4230    -0.3720 H     1 <1>   0.0800 
 27 H        2.7160     2.2560    -2.1970 H     1 <1>   0.1500 
 28 H       -1.5710     4.0590     1.4780 H     1 <1>   0.0800 
 29 H       -1.1910     4.5340    -0.1600 H     1 <1>   0.0800 
 30 H        0.5790     5.2400    -1.3330 H     1 <1>   0.0800 
 31 H        2.2240     4.8180    -1.6400 H     1 <1>   0.0800 
 32 H        3.4160     3.1130    -0.0390 H     1 <1>   0.0800 
 33 H        2.4940     2.4680     1.2800 H     1 <1>   0.0800 
 34 H        1.2510     6.3740     0.7630 H     1 <1>   0.0800 
 35 H        2.1460     6.9970    -0.6000 H     1 <1>   0.0800 
 36 H        4.0620     4.2530     2.0030 H     1 <1>   0.0800 
 37 H        2.4100     4.6920     2.3270 H     1 <1>   0.0800 
 38 H        6.8480     6.7040    -1.1610 H     1 <1>   0.0800 
 39 H        7.6230     8.2540    -0.9380 H     1 <1>   0.0800 
 40 H        6.7400     7.9220    -2.4090 H     1 <1>   0.0800 
 41 H        2.3370    10.8640    -0.4960 H     1 <1>   0.0800 
 42 H        3.8130    11.7930    -0.6440 H     1 <1>   0.0800 
 43 H        3.2610    11.2770     0.9350 H     1 <1>   0.0800 
@<TRIPOS>BOND
  1   1   2  1   
  2   1   3  1   
  3   2   4  2   
  4   2   5  1   
  5   3   6  2   
  6   3  24  1   
  7   4   6  1   
  8   4   7  1   
  9   5   8  1   
 10   5  25  1   
 11   5  26  1   
 12   6  27  1   
 13   7   9  1   
 14   7  10  1   
 15   7  11  1   
 16   8   9  1   
 17   8  28  1   
 18   8  29  1   
 19  10  12  1   
 20  10  30  1   
 21  10  31  1   
 22  11  13  1   
 23  11  32  1   
 24  11  33  1   
 25  12  14  1   
 26  12  34  1   
 27  12  35  1   
 28  13  14  1   
 29  13  36  1   
 30  13  37  1   
 31  14  15  am  
 32  15  16  2   
 33  15  17  1   
 34  17  18  1   
 35  17  19  2   
 36  18  20  1   
 37  19  21  1   
 38  19  22  1   
 39  20  21  2   
 40  20  23  1   
 41  22  38  1   
 42  22  39  1   
 43  22  40  1   
 44  23  41  1   
 45  23  42  1   
 46  23  43  1   
@<TRIPOS>SUBSTRUCTURE
  1 ****  12 GROUP 4 **** **** 0

# MOE 2024.06 (io_trps.svl 2023.06)
