@<TRIPOS>MOLECULE
NONAME
56 59 1 0 0 
SMALL
USER_CHARGES


@<TRIPOS>ATOM
  1 O        1.5820    -0.5320     1.1500 O.3   1 <1>  -0.5600 
  2 C        2.3300    -1.2630     0.2070 C.3   1 <1>   0.4240 
  3 C        0.1930    -0.5830     1.0510 C.3   1 <1>   0.1200 
  4 C        1.6790    -2.6290    -0.0990 C.ar  1 <1>  -0.1440 
  5 C        2.4630    -0.4130    -1.0690 C.3   1 <1>  -0.1600 
  6 C        3.7080    -1.4610     0.8550 C.3   1 <1>  -0.1600 
  7 C       -0.2700    -2.0050     1.3510 C.3   1 <1>  -0.0160 
  8 C        0.4510    -2.9820     0.4440 C.ar  1 <1>  -0.1440 
  9 C        2.3120    -3.5380    -0.9370 C.ar  1 <1>  -0.1500 
 10 C        3.2020     0.8960    -0.8000 C.3   1 <1>   0.2090 
 11 C        4.4190    -0.1280     1.0840 C.3   1 <1>   0.2090 
 12 C       -0.1190    -4.2130     0.1590 C.ar  1 <1>  -0.1500 
 13 C        1.7620    -4.7750    -1.2280 C.ar  1 <1>   0.0820 
 14 N        4.5320     0.5810    -0.2140 N.pl3 1 <1>  -0.8380 
 15 C        0.5160    -5.1230    -0.6820 C.ar  1 <1>   0.0820 
 16 O        2.5200    -5.5520    -2.0540 O.3   1 <1>  -0.3630 
 17 C        5.5290     1.5440    -0.3040 C.ar  1 <1>   0.4100 
 18 O       -0.0570    -6.3240    -0.9910 O.3   1 <1>  -0.3630 
 19 C        2.4890    -6.9590    -1.9750 C.3   1 <1>   0.0400 
 20 N        5.1480     2.8120    -0.2350 N.ar  1 <1>  -0.6200 
 21 C        6.8700     1.1580    -0.4500 C.ar  1 <1>   0.1600 
 22 C       -1.3680    -6.6580    -0.5940 C.3   1 <1>   0.0400 
 23 C        6.1660     3.6570    -0.3070 C.ar  1 <1>   0.4100 
 24 N        7.9030     1.9820    -0.5220 N.ar  1 <1>  -0.6200 
 25 N        5.8560     5.0110    -0.2570 N.pl3 1 <1>  -0.8380 
 26 C        7.4980     3.2390    -0.4430 C.ar  1 <1>   0.1600 
 27 C        4.8360     5.4360     0.7390 C.3   1 <1>   0.1290 
 28 C        5.7140     5.6870    -1.5710 C.3   1 <1>   0.1290 
 29 H       -0.1050    -0.2780     0.0630 H     1 <1>   0.0800 
 30 H       -0.2140     0.1060     1.7700 H     1 <1>   0.0800 
 31 H        1.4950    -0.2120    -1.4860 H     1 <1>   0.0800 
 32 H        3.0180    -0.9590    -1.8090 H     1 <1>   0.0800 
 33 H        4.3330    -2.0660     0.2270 H     1 <1>   0.0800 
 34 H        3.5870    -1.9780     1.7890 H     1 <1>   0.0800 
 35 H       -1.3320    -2.0690     1.2010 H     1 <1>   0.0800 
 36 H       -0.0580    -2.2410     2.3790 H     1 <1>   0.0800 
 37 H        3.2590    -3.2990    -1.3840 H     1 <1>   0.1500 
 38 H        2.6440     1.5110    -0.1140 H     1 <1>   0.0800 
 39 H        3.3320     1.4410    -1.7190 H     1 <1>   0.0800 
 40 H        5.3970    -0.3010     1.4990 H     1 <1>   0.0800 
 41 H        3.8610     0.4800     1.7770 H     1 <1>   0.0800 
 42 H       -1.0660    -4.4440     0.6040 H     1 <1>   0.1500 
 43 H        3.3770    -7.3410    -2.4440 H     1 <1>   0.0800 
 44 H        1.6200    -7.3160    -2.4990 H     1 <1>   0.0800 
 45 H        2.4600    -7.2530    -0.9410 H     1 <1>   0.0800 
 46 H        7.0700     0.1060    -0.5080 H     1 <1>   0.1500 
 47 H       -1.6080    -7.6190    -1.0110 H     1 <1>   0.0800 
 48 H       -2.0480    -5.9160    -0.9740 H     1 <1>   0.0800 
 49 H       -1.4070    -6.7070     0.4800 H     1 <1>   0.0800 
 50 H        8.2460     4.0070    -0.4860 H     1 <1>   0.1500 
 51 H        4.9600     4.8740     1.6500 H     1 <1>   0.0800 
 52 H        3.8470     5.2530     0.3540 H     1 <1>   0.0800 
 53 H        4.9490     6.4830     0.9580 H     1 <1>   0.0800 
 54 H        6.4440     5.3060    -2.2650 H     1 <1>   0.0800 
 55 H        5.8650     6.7460    -1.4560 H     1 <1>   0.0800 
 56 H        4.7310     5.5070    -1.9700 H     1 <1>   0.0800 
@<TRIPOS>BOND
  1   1   2  1   
  2   1   3  1   
  3   2   4  1   
  4   2   5  1   
  5   2   6  1   
  6   3   7  1   
  7   3  29  1   
  8   3  30  1   
  9   4   8  ar  
 10   4   9  ar  
 11   5  10  1   
 12   5  31  1   
 13   5  32  1   
 14   6  11  1   
 15   6  33  1   
 16   6  34  1   
 17   7   8  1   
 18   7  35  1   
 19   7  36  1   
 20   8  12  ar  
 21   9  13  ar  
 22   9  37  1   
 23  10  14  1   
 24  10  38  1   
 25  10  39  1   
 26  11  14  1   
 27  11  40  1   
 28  11  41  1   
 29  12  15  ar  
 30  12  42  1   
 31  13  15  ar  
 32  13  16  1   
 33  14  17  1   
 34  15  18  1   
 35  16  19  1   
 36  17  20  ar  
 37  17  21  ar  
 38  18  22  1   
 39  19  43  1   
 40  19  44  1   
 41  19  45  1   
 42  20  23  ar  
 43  21  24  ar  
 44  21  46  1   
 45  22  47  1   
 46  22  48  1   
 47  22  49  1   
 48  23  25  1   
 49  23  26  ar  
 50  24  26  ar  
 51  25  27  1   
 52  25  28  1   
 53  26  50  1   
 54  27  51  1   
 55  27  52  1   
 56  27  53  1   
 57  28  54  1   
 58  28  55  1   
 59  28  56  1   
@<TRIPOS>SUBSTRUCTURE
  1 ****   2 GROUP 4 **** **** 0

# MOE 2024.06 (io_trps.svl 2023.06)
