@<TRIPOS>MOLECULE
NONAME
51 53 1 0 0 
SMALL
USER_CHARGES


@<TRIPOS>ATOM
  1 O        1.4900     0.3550    -1.1380 O.3   1 <1>  -0.6800 
  2 C        1.6000     0.1030     0.2160 C.3   1 <1>   0.2800 
  3 C        3.0970     0.1780     0.6150 C.3   1 <1>  -0.0800 
  4 C        1.0630    -1.3160     0.4730 C.3   1 <1>  -0.1600 
  5 C        0.7170     1.1380     0.9490 C.3   1 <1>  -0.1600 
  6 C        3.9100    -1.1190     0.4110 C.3   1 <1>  -0.0800 
  7 C        3.8820     1.2330    -0.1530 C.3   1 <1>   0.3430 
  8 C        1.8280    -2.4350    -0.2640 C.3   1 <1>  -0.1600 
  9 C        1.0770     2.6200     0.7380 C.3   1 <1>  -0.2400 
 10 C        3.2760    -2.0650    -0.6230 C.3   1 <1>  -0.1600 
 11 C        5.3020    -0.6740    -0.0510 C.3   1 <1>   0.3430 
 12 N        5.2980     0.8100    -0.0280 N.4   1 <1>  -0.9590 
 13 C        6.1730     1.4370    -1.0510 C.3   1 <1>   0.4860 
 14 C        6.2520     2.9220    -0.7530 C.ar  1 <1>  -0.1440 
 15 C        7.1600     3.4380     0.1700 C.ar  1 <1>  -0.1440 
 16 C        5.3880     3.7790    -1.4230 C.ar  1 <1>  -0.1500 
 17 C        7.1700     4.8040     0.4130 C.ar  1 <1>  -0.1500 
 18 C        8.1690     2.5750     0.9230 C.3   1 <1>  -0.0170 
 19 C        5.4080     5.1370    -1.1700 C.ar  1 <1>  -0.1500 
 20 C        6.3000     5.6500    -0.2480 C.ar  1 <1>  -0.1500 
 21 C        9.4390     2.3800     0.0910 C.3   1 <1>  -0.2400 
 22 H        0.5610     0.2270    -1.4130 H     1 <1>   0.4000 
 23 H        3.1490     0.4260     1.6610 H     1 <1>   0.0800 
 24 H        1.1380    -1.5070     1.5300 H     1 <1>   0.0800 
 25 H        0.0180    -1.3740     0.2260 H     1 <1>   0.0800 
 26 H       -0.3050     0.9950     0.6420 H     1 <1>   0.0800 
 27 H        0.7470     0.9340     2.0050 H     1 <1>   0.0800 
 28 H        3.9930    -1.6450     1.3470 H     1 <1>   0.0800 
 29 H        3.7270     2.2230     0.2410 H     1 <1>   0.0800 
 30 H        3.5900     1.2150    -1.1910 H     1 <1>   0.0800 
 31 H        1.8220    -3.3180     0.3520 H     1 <1>   0.0800 
 32 H        1.3070    -2.6810    -1.1740 H     1 <1>   0.0800 
 33 H        1.1350     2.8580    -0.3100 H     1 <1>   0.0800 
 34 H        2.0090     2.8660     1.2120 H     1 <1>   0.0800 
 35 H        0.3150     3.2390     1.1770 H     1 <1>   0.0800 
 36 H        3.2730    -1.5840    -1.5870 H     1 <1>   0.0800 
 37 H        3.8590    -2.9670    -0.7160 H     1 <1>   0.0800 
 38 H        5.4710    -1.0260    -1.0560 H     1 <1>   0.0800 
 39 H        6.0700    -1.0700     0.5940 H     1 <1>   0.0800 
 40 H        5.6230     1.1440     0.8870 H     1 <1>   0.4500 
 41 H        7.1610     1.0100    -1.0100 H     1 <1>   0.0800 
 42 H        5.7700     1.2770    -2.0380 H     1 <1>   0.0800 
 43 H        4.6890     3.4030    -2.1510 H     1 <1>   0.1500 
 44 H        7.8660     5.2250     1.1190 H     1 <1>   0.1500 
 45 H        8.4330     3.0560     1.8500 H     1 <1>   0.0800 
 46 H        7.7510     1.6190     1.1790 H     1 <1>   0.0800 
 47 H        4.7350     5.7980    -1.6900 H     1 <1>   0.1500 
 48 H        6.3210     6.7080    -0.0490 H     1 <1>   0.1500 
 49 H        9.8850     3.3350    -0.1260 H     1 <1>   0.0800 
 50 H        9.2200     1.8890    -0.8390 H     1 <1>   0.0800 
 51 H       10.1530     1.7880     0.6360 H     1 <1>   0.0800 
@<TRIPOS>BOND
  1   1   2  1   
  2   1  22  1   
  3   2   3  1   
  4   2   4  1   
  5   2   5  1   
  6   3   6  1   
  7   3   7  1   
  8   3  23  1   
  9   4   8  1   
 10   4  24  1   
 11   4  25  1   
 12   5   9  1   
 13   5  26  1   
 14   5  27  1   
 15   6  10  1   
 16   6  11  1   
 17   6  28  1   
 18   7  12  1   
 19   7  29  1   
 20   7  30  1   
 21   8  10  1   
 22   8  31  1   
 23   8  32  1   
 24   9  33  1   
 25   9  34  1   
 26   9  35  1   
 27  10  36  1   
 28  10  37  1   
 29  11  12  1   
 30  11  38  1   
 31  11  39  1   
 32  12  13  1   
 33  12  40  1   
 34  13  14  1   
 35  13  41  1   
 36  13  42  1   
 37  14  15  ar  
 38  14  16  ar  
 39  15  17  ar  
 40  15  18  1   
 41  16  19  ar  
 42  16  43  1   
 43  17  20  ar  
 44  17  44  1   
 45  18  21  1   
 46  18  45  1   
 47  18  46  1   
 48  19  20  ar  
 49  19  47  1   
 50  20  48  1   
 51  21  49  1   
 52  21  50  1   
 53  21  51  1   
@<TRIPOS>SUBSTRUCTURE
  1 ****   7 GROUP 4 **** **** 0

# MOE 2024.06 (io_trps.svl 2023.06)
