@<TRIPOS>MOLECULE
NONAME
54 57 1 0 0 
SMALL
USER_CHARGES


@<TRIPOS>ATOM
  1 O       -0.2530     0.1840     0.6120 O.2   1 <1>  -0.5700 
  2 C       -1.0190     0.8840    -0.0220 C.2   1 <1>   0.5440 
  3 N       -2.3520     0.5270    -0.0730 N.am  1 <1>  -0.6600 
  4 C       -0.5040     2.0610    -0.6960 C.ar  1 <1>   0.0860 
  5 C       -2.8230    -0.7140     0.6310 C.3   1 <1>   0.1400 
  6 C       -3.3980     1.3680    -0.7420 C.3   1 <1>   0.1400 
  7 C        0.1150     3.0770     0.0290 C.ar  1 <1>  -0.1500 
  8 C       -0.6010     2.2190    -2.0780 C.ar  1 <1>  -0.1500 
  9 C       -4.1010    -1.2290    -0.0560 C.3   1 <1>   0.4230 
 10 C       -4.7600     1.2330    -0.0440 C.3   1 <1>  -0.1600 
 11 C        0.6040     4.2180    -0.5880 C.ar  1 <1>  -0.1440 
 12 C       -0.1180     3.3520    -2.7060 C.ar  1 <1>  -0.1500 
 13 N       -4.5370    -2.6270     0.2700 N.4   1 <1>  -0.9590 
 14 C       -5.2530    -0.2330     0.1790 C.3   1 <1>  -0.1060 
 15 C        0.4800     4.3530    -1.9610 C.ar  1 <1>  -0.1500 
 16 C        1.2720     5.3200     0.2270 C.3   1 <1>   0.2390 
 17 C       -5.6400    -3.0700    -0.6260 C.3   1 <1>   0.3430 
 18 C       -3.4470    -3.6310     0.3930 C.3   1 <1>   0.2630 
 19 C       -5.7910    -0.3520     1.6180 C.2   1 <1>   0.9060 
 20 C       -6.3680    -0.6080    -0.8250 C.3   1 <1>  -0.1600 
 21 N        0.3790     6.4870     0.3850 N.pl3 1 <1>   0.3140 
 22 C       -6.8070    -2.0720    -0.6210 C.3   1 <1>  -0.1600 
 23 O       -6.6670     0.4270     1.9870 O.co2 1 <1>  -0.9000 
 24 O       -5.3840    -1.2690     2.3500 O.co2 1 <1>  -0.9000 
 25 N        0.8030     7.7460     0.1520 N.2   1 <1>  -0.7070 
 26 C       -0.9110     6.4780     0.7840 C.2   1 <1>  -0.3020 
 27 C       -0.2240     8.4980     0.4030 C.2   1 <1>   0.1390 
 28 C       -1.3300     7.7610     0.8050 C.2   1 <1>  -0.1500 
 29 H       -2.0470    -1.4540     0.5780 H     1 <1>   0.0800 
 30 H       -3.0150    -0.4860     1.6660 H     1 <1>   0.0800 
 31 H       -3.1040     2.4040    -0.7270 H     1 <1>   0.0800 
 32 H       -3.4900     1.0610    -1.7700 H     1 <1>   0.0800 
 33 H        0.2060     2.9530     1.0950 H     1 <1>   0.1500 
 34 H       -1.0550     1.4390    -2.6640 H     1 <1>   0.1500 
 35 H       -3.8760    -1.2170    -1.1080 H     1 <1>   0.0800 
 36 H       -4.6620     1.7220     0.9120 H     1 <1>   0.0800 
 37 H       -5.5000     1.7960    -0.5840 H     1 <1>   0.0800 
 38 H       -0.2040     3.4590    -3.7740 H     1 <1>   0.1500 
 39 H       -4.9540    -2.4790     1.2310 H     1 <1>   0.4500 
 40 H        0.8480     5.2380    -2.4550 H     1 <1>   0.1500 
 41 H        2.1690     5.6460    -0.2660 H     1 <1>   0.0800 
 42 H        1.5360     4.9630     1.2050 H     1 <1>   0.0800 
 43 H       -5.2620    -3.1640    -1.6310 H     1 <1>   0.0800 
 44 H       -6.0010    -4.0350    -0.3080 H     1 <1>   0.0800 
 45 H       -2.9150    -3.7220    -0.5390 H     1 <1>   0.0800 
 46 H       -3.8580    -4.5900     0.6600 H     1 <1>   0.0800 
 47 H       -2.7560    -3.3330     1.1650 H     1 <1>   0.0800 
 48 H       -7.2190     0.0370    -0.6730 H     1 <1>   0.0800 
 49 H       -6.0210    -0.4680    -1.8340 H     1 <1>   0.0800 
 50 H       -7.5060    -2.3450    -1.3900 H     1 <1>   0.0800 
 51 H       -7.3280    -2.1610     0.3180 H     1 <1>   0.0800 
 52 H       -1.4460     5.5770     1.0230 H     1 <1>   0.1500 
 53 H       -0.2090     9.5720     0.3090 H     1 <1>   0.1500 
 54 H       -2.2960     8.1540     1.0680 H     1 <1>   0.1500 
@<TRIPOS>BOND
  1   1   2  2   
  2   2   3  am  
  3   2   4  1   
  4   3   5  1   
  5   3   6  1   
  6   4   7  ar  
  7   4   8  ar  
  8   5   9  1   
  9   5  29  1   
 10   5  30  1   
 11   6  10  1   
 12   6  31  1   
 13   6  32  1   
 14   7  11  ar  
 15   7  33  1   
 16   8  12  ar  
 17   8  34  1   
 18   9  13  1   
 19   9  14  1   
 20   9  35  1   
 21  10  14  1   
 22  10  36  1   
 23  10  37  1   
 24  11  15  ar  
 25  11  16  1   
 26  12  15  ar  
 27  12  38  1   
 28  13  17  1   
 29  13  18  1   
 30  13  39  1   
 31  14  19  1   
 32  14  20  1   
 33  15  40  1   
 34  16  21  1   
 35  16  41  1   
 36  16  42  1   
 37  17  22  1   
 38  17  43  1   
 39  17  44  1   
 40  18  45  1   
 41  18  46  1   
 42  18  47  1   
 43  19  23  ar  
 44  19  24  ar  
 45  20  22  1   
 46  20  48  1   
 47  20  49  1   
 48  21  25  1   
 49  21  26  1   
 50  22  50  1   
 51  22  51  1   
 52  25  27  2   
 53  26  28  2   
 54  26  52  1   
 55  27  28  1   
 56  27  53  1   
 57  28  54  1   
@<TRIPOS>SUBSTRUCTURE
  1 ****   6 GROUP 4 **** **** 0

# MOE 2024.06 (io_trps.svl 2023.06)
