@<TRIPOS>MOLECULE
NONAME
60 62 1 0 0 
SMALL
USER_CHARGES


@<TRIPOS>ATOM
  1 O        0.1730     1.5330     1.5070 O.2   1 <1>  -0.5700 
  2 C       -0.0020     2.6170     1.0040 C.2   1 <1>   0.5690 
  3 N       -1.1340     3.3560     1.2130 N.am  1 <1>  -0.6600 
  4 C        1.0930     3.1640     0.0850 C.3   1 <1>   0.1810 
  5 C       -1.2990     4.7160     0.6050 C.3   1 <1>   0.3640 
  6 C       -2.2040     2.9280     2.1610 C.3   1 <1>   0.0600 
  7 O        1.0950     4.5730     0.0090 O.3   1 <1>  -0.5600 
  8 C       -2.6600     4.8730    -0.0920 C.ar  1 <1>  -0.1430 
  9 C       -0.1640     5.1120    -0.3780 C.3   1 <1>   0.2610 
 10 C       -3.1970     3.9700    -1.0170 C.ar  1 <1>  -0.1430 
 11 C       -3.3860     6.0160     0.2260 C.ar  1 <1>  -0.1500 
 12 C       -0.0480     6.6380    -0.5360 C.2   1 <1>   0.5690 
 13 C       -4.4320     4.2380    -1.5900 C.ar  1 <1>  -0.1500 
 14 C       -2.5120     2.6750    -1.4420 C.3   1 <1>  -0.0960 
 15 C       -4.6140     6.2710    -0.3520 C.ar  1 <1>  -0.1500 
 16 O       -0.4010     7.3480     0.3790 O.2   1 <1>  -0.5700 
 17 N        0.5580     7.1950    -1.6420 N.am  1 <1>  -0.6600 
 18 C       -5.1390     5.3790    -1.2640 C.ar  1 <1>  -0.1500 
 19 C        0.6770     8.6790    -1.8080 C.3   1 <1>   0.1400 
 20 C        1.4560     6.4400    -2.5550 C.3   1 <1>   0.1400 
 21 C        2.1570     9.0910    -1.9570 C.3   1 <1>  -0.1600 
 22 C        2.9130     6.6930    -2.1320 C.3   1 <1>  -0.1600 
 23 C        3.1020     8.0280    -1.3730 C.3   1 <1>   0.2800 
 24 O        4.4110     8.4400    -1.5890 O.3   1 <1>  -0.6800 
 25 C        2.8960     7.9040     0.1680 C.3   1 <1>   0.3430 
 26 N        4.0820     7.2940     0.8540 N.4   1 <1>  -0.9590 
 27 C        3.8150     5.8790     1.2550 C.3   1 <1>   0.2630 
 28 C        4.5120     8.1210     2.0170 C.3   1 <1>   0.2630 
 29 H        0.9620     2.7640    -0.9030 H     1 <1>   0.0800 
 30 H        2.0500     2.8520     0.4590 H     1 <1>   0.0800 
 31 H       -1.2700     5.4020     1.4330 H     1 <1>   0.0800 
 32 H       -3.1410     2.8280     1.6410 H     1 <1>   0.0800 
 33 H       -2.3150     3.6600     2.9420 H     1 <1>   0.0800 
 34 H       -1.9610     1.9800     2.6100 H     1 <1>   0.0800 
 35 H       -0.4050     4.7120    -1.3430 H     1 <1>   0.0800 
 36 H       -2.9970     6.7310     0.9320 H     1 <1>   0.1500 
 37 H       -4.8620     3.5530    -2.3000 H     1 <1>   0.1500 
 38 H       -2.9800     2.2610    -2.3170 H     1 <1>   0.0800 
 39 H       -2.5850     1.9460    -0.6540 H     1 <1>   0.0800 
 40 H       -1.4780     2.8340    -1.6740 H     1 <1>   0.0800 
 41 H       -5.1600     7.1620    -0.0930 H     1 <1>   0.1500 
 42 H       -6.0950     5.5720    -1.7190 H     1 <1>   0.1500 
 43 H        0.1200     8.9860    -2.6770 H     1 <1>   0.0800 
 44 H        0.2480     9.1860    -0.9590 H     1 <1>   0.0800 
 45 H        1.2440     5.3860    -2.5560 H     1 <1>   0.0800 
 46 H        1.3000     6.8000    -3.5600 H     1 <1>   0.0800 
 47 H        2.3060    10.0420    -1.4760 H     1 <1>   0.0800 
 48 H        2.3620     9.2200    -3.0050 H     1 <1>   0.0800 
 49 H        3.5100     6.6830    -3.0270 H     1 <1>   0.0800 
 50 H        3.2410     5.8700    -1.5270 H     1 <1>   0.0800 
 51 H        4.5400     8.6810    -2.5290 H     1 <1>   0.4000 
 52 H        2.0130     7.3310     0.3820 H     1 <1>   0.0800 
 53 H        2.7300     8.8940     0.5550 H     1 <1>   0.0800 
 54 H        4.8260     7.3410     0.1300 H     1 <1>   0.4500 
 55 H        3.0150     5.8410     1.9760 H     1 <1>   0.0800 
 56 H        4.6980     5.4410     1.6920 H     1 <1>   0.0800 
 57 H        3.5260     5.2900     0.4010 H     1 <1>   0.0800 
 58 H        3.7350     8.1510     2.7630 H     1 <1>   0.0800 
 59 H        4.7260     9.1280     1.6970 H     1 <1>   0.0800 
 60 H        5.4030     7.7060     2.4610 H     1 <1>   0.0800 
@<TRIPOS>BOND
  1   1   2  2   
  2   2   3  am  
  3   2   4  1   
  4   3   5  1   
  5   3   6  1   
  6   4   7  1   
  7   4  29  1   
  8   4  30  1   
  9   5   8  1   
 10   5   9  1   
 11   5  31  1   
 12   6  32  1   
 13   6  33  1   
 14   6  34  1   
 15   7   9  1   
 16   8  10  ar  
 17   8  11  ar  
 18   9  12  1   
 19   9  35  1   
 20  10  13  ar  
 21  10  14  1   
 22  11  15  ar  
 23  11  36  1   
 24  12  16  2   
 25  12  17  am  
 26  13  18  ar  
 27  13  37  1   
 28  14  38  1   
 29  14  39  1   
 30  14  40  1   
 31  15  18  ar  
 32  15  41  1   
 33  17  19  1   
 34  17  20  1   
 35  18  42  1   
 36  19  21  1   
 37  19  43  1   
 38  19  44  1   
 39  20  22  1   
 40  20  45  1   
 41  20  46  1   
 42  21  23  1   
 43  21  47  1   
 44  21  48  1   
 45  22  23  1   
 46  22  49  1   
 47  22  50  1   
 48  23  24  1   
 49  23  25  1   
 50  24  51  1   
 51  25  26  1   
 52  25  52  1   
 53  25  53  1   
 54  26  27  1   
 55  26  28  1   
 56  26  54  1   
 57  27  55  1   
 58  27  56  1   
 59  27  57  1   
 60  28  58  1   
 61  28  59  1   
 62  28  60  1   
@<TRIPOS>SUBSTRUCTURE
  1 ****   9 GROUP 4 **** **** 0

# MOE 2024.06 (io_trps.svl 2023.06)
