@<TRIPOS>MOLECULE
NONAME
36 36 1 0 0 
SMALL
USER_CHARGES


@<TRIPOS>ATOM
  1 S        0.3130     0.1380    -0.0690 S.3   1 <1>  -0.4600 
  2 C        0.2170     1.9470    -0.0360 C.3   1 <1>   0.0700 
  3 C       -1.4210    -0.3590    -0.2060 C.3   1 <1>   0.0700 
  4 C        1.6430     2.4870     0.0720 C.3   1 <1>  -0.0990 
  5 C       -1.4600    -1.8840    -0.2400 C.3   1 <1>  -0.2400 
  6 C        1.6960     4.0050     0.1220 C.2   1 <1>   0.5690 
  7 O        0.6770     4.6240    -0.0740 O.2   1 <1>  -0.5700 
  8 N        2.8820     4.6460     0.3800 N.am  1 <1>  -0.6600 
  9 C        2.9170     6.1300     0.5260 C.3   1 <1>   0.1400 
 10 C        4.1980     3.9710     0.5750 C.3   1 <1>   0.0600 
 11 C        3.0750     6.7980    -0.8400 C.3   1 <1>   0.0210 
 12 C        3.2640     8.2900    -0.6770 C.2   1 <1>   0.3350 
 13 N        2.4480     9.1820    -1.0730 N.2   1 <1>  -0.4100 
 14 N        4.3430     8.7830    -0.0840 N.2   1 <1>  -0.5650 
 15 O        2.9580    10.3330    -0.7560 O.3   1 <1>  -0.0190 
 16 C        4.0880    10.0250    -0.1700 C.2   1 <1>   0.2980 
 17 C        4.9690    11.1410     0.3420 C.3   1 <1>  -0.0600 
 18 H       -0.3790     2.2300     0.8140 H     1 <1>   0.0800 
 19 H       -0.2600     2.2670    -0.9460 H     1 <1>   0.0800 
 20 H       -1.8120     0.0700    -1.1120 H     1 <1>   0.0800 
 21 H       -1.9410     0.0330     0.6510 H     1 <1>   0.0800 
 22 H        2.2060     2.1530    -0.7800 H     1 <1>   0.0800 
 23 H        2.0920     2.0950     0.9650 H     1 <1>   0.0800 
 24 H       -0.9040    -2.2490    -1.0860 H     1 <1>   0.0800 
 25 H       -2.4770    -2.2240    -0.3220 H     1 <1>   0.0800 
 26 H       -1.0310    -2.2850     0.6610 H     1 <1>   0.0800 
 27 H        3.7330     6.4120     1.1700 H     1 <1>   0.0800 
 28 H        2.0040     6.4730     0.9840 H     1 <1>   0.0800 
 29 H        4.1890     2.9710     0.1820 H     1 <1>   0.0800 
 30 H        4.4300     3.9330     1.6250 H     1 <1>   0.0800 
 31 H        4.9700     4.5230     0.0680 H     1 <1>   0.0800 
 32 H        2.1980     6.6130    -1.4340 H     1 <1>   0.0800 
 33 H        3.9320     6.3990    -1.3490 H     1 <1>   0.0800 
 34 H        5.8540    10.7310     0.7940 H     1 <1>   0.0800 
 35 H        4.4350    11.7170     1.0740 H     1 <1>   0.0800 
 36 H        5.2540    11.7790    -0.4740 H     1 <1>   0.0800 
@<TRIPOS>BOND
  1   1   2  1   
  2   1   3  1   
  3   2   4  1   
  4   2  18  1   
  5   2  19  1   
  6   3   5  1   
  7   3  20  1   
  8   3  21  1   
  9   4   6  1   
 10   4  22  1   
 11   4  23  1   
 12   5  24  1   
 13   5  25  1   
 14   5  26  1   
 15   6   7  2   
 16   6   8  am  
 17   8   9  1   
 18   8  10  1   
 19   9  11  1   
 20   9  27  1   
 21   9  28  1   
 22  10  29  1   
 23  10  30  1   
 24  10  31  1   
 25  11  12  1   
 26  11  32  1   
 27  11  33  1   
 28  12  13  2   
 29  12  14  1   
 30  13  15  1   
 31  14  16  2   
 32  15  16  1   
 33  16  17  1   
 34  17  34  1   
 35  17  35  1   
 36  17  36  1   
@<TRIPOS>SUBSTRUCTURE
  1 ****   8 GROUP 4 **** **** 0

# MOE 2024.06 (io_trps.svl 2023.06)
