@<TRIPOS>MOLECULE
NONAME
54 57 1 0 0 
SMALL
USER_CHARGES


@<TRIPOS>ATOM
  1 S       -0.7810     0.1330     1.3320 S.o2  1 <1>   1.4470 
  2 O       -0.7520    -1.2360     1.7900 O.2   1 <1>  -0.6500 
  3 O       -1.6230     1.0810     2.0190 O.2   1 <1>  -0.6500 
  4 N       -1.4020     0.1580    -0.2310 N.am  1 <1>  -0.9140 
  5 C        0.8960     0.8000     1.1560 C.ar  1 <1>  -0.0090 
  6 C       -1.2870    -0.9910    -1.1430 C.3   1 <1>   0.2760 
  7 C        1.1220     2.0190     0.5300 C.ar  1 <1>  -0.1500 
  8 C        2.0010     0.1200     1.6540 C.ar  1 <1>  -0.1500 
  9 C       -2.2550    -2.1540    -0.8980 C.3   1 <1>  -0.0800 
 10 C        0.0960    -1.6630    -1.2020 C.3   1 <1>   0.1200 
 11 C        2.3960     2.5420     0.3810 C.ar  1 <1>  -0.1430 
 12 C        3.2780     0.6280     1.5100 C.ar  1 <1>  -0.1500 
 13 C       -1.3280    -3.3010    -0.5070 C.3   1 <1>   0.1200 
 14 C       -3.4430    -1.9370     0.0590 C.3   1 <1>  -0.0170 
 15 O       -0.1330    -3.0370    -1.1680 O.3   1 <1>  -0.5600 
 16 C        3.5040     1.8300     0.8470 C.ar  1 <1>   0.1170 
 17 C        2.5440     3.9220    -0.2570 C.3   1 <1>  -0.0170 
 18 C       -4.2950    -3.1920     0.1600 C.ar  1 <1>  -0.1430 
 19 N        4.8070     2.3400     0.6680 N.am  1 <1>  -0.4770 
 20 C        4.0060     4.3460    -0.4550 C.3   1 <1>  -0.1600 
 21 C       -4.1690    -4.0700     1.2180 C.ar  1 <1>  -0.1500 
 22 C       -5.2330    -3.5210    -0.7970 C.ar  1 <1>  -0.1500 
 23 C        5.9330     1.6280     0.3010 C.2   1 <1>   0.5690 
 24 C        4.8910     3.8240     0.6780 C.3   1 <1>   0.1400 
 25 C       -4.9620    -5.2040     1.2640 C.ar  1 <1>   0.1600 
 26 C       -5.9770    -4.6810    -0.6550 C.ar  1 <1>   0.1600 
 27 O        7.0430     2.1000     0.3480 O.2   1 <1>  -0.5700 
 28 C        5.8240     0.2130    -0.2280 C.3   1 <1>  -0.1790 
 29 N       -5.8630    -5.5310     0.3520 N.ar  1 <1>  -0.6200 
 30 H       -2.3850     0.3870    -0.1010 H     1 <1>   0.4200 
 31 H       -1.4930    -0.6130    -2.1310 H     1 <1>   0.0800 
 32 H        0.2740     2.5720     0.1620 H     1 <1>   0.1500 
 33 H        1.8590    -0.8190     2.1650 H     1 <1>   0.1500 
 34 H       -2.6630    -2.4270    -1.8560 H     1 <1>   0.0800 
 35 H        0.7220    -1.4230    -0.3650 H     1 <1>   0.0800 
 36 H        0.6100    -1.4310    -2.1180 H     1 <1>   0.0800 
 37 H        4.1070     0.0880     1.9280 H     1 <1>   0.1500 
 38 H       -1.7030    -4.2590    -0.8240 H     1 <1>   0.0800 
 39 H       -1.1310    -3.3200     0.5500 H     1 <1>   0.0800 
 40 H       -4.0550    -1.1290    -0.3000 H     1 <1>   0.0800 
 41 H       -3.1040    -1.6760     1.0440 H     1 <1>   0.0800 
 42 H        2.0330     3.9450    -1.2040 H     1 <1>   0.0800 
 43 H        2.0660     4.6360     0.3910 H     1 <1>   0.0800 
 44 H        4.0710     5.4180    -0.5050 H     1 <1>   0.0800 
 45 H        4.3750     3.9510    -1.3860 H     1 <1>   0.0800 
 46 H       -3.4610    -3.8840     2.0050 H     1 <1>   0.1500 
 47 H       -5.3940    -2.8890    -1.6510 H     1 <1>   0.1500 
 48 H        4.5440     4.1910     1.6280 H     1 <1>   0.0800 
 49 H        5.9040     4.1600     0.5350 H     1 <1>   0.0800 
 50 H       -4.8500    -5.8780     2.0970 H     1 <1>   0.1500 
 51 H       -6.7050    -4.9230    -1.4110 H     1 <1>   0.1500 
 52 H        4.8920     0.0680    -0.7400 H     1 <1>   0.0800 
 53 H        5.9110    -0.4850     0.5820 H     1 <1>   0.0800 
 54 H        6.6240     0.0320    -0.9220 H     1 <1>   0.0800 
@<TRIPOS>BOND
  1   1   2  2   
  2   1   3  2   
  3   1   4  am  
  4   1   5  1   
  5   4   6  1   
  6   4  30  1   
  7   5   7  ar  
  8   5   8  ar  
  9   6   9  1   
 10   6  10  1   
 11   6  31  1   
 12   7  11  ar  
 13   7  32  1   
 14   8  12  ar  
 15   8  33  1   
 16   9  13  1   
 17   9  14  1   
 18   9  34  1   
 19  10  15  1   
 20  10  35  1   
 21  10  36  1   
 22  11  16  ar  
 23  11  17  1   
 24  12  16  ar  
 25  12  37  1   
 26  13  15  1   
 27  13  38  1   
 28  13  39  1   
 29  14  18  1   
 30  14  40  1   
 31  14  41  1   
 32  16  19  1   
 33  17  20  1   
 34  17  42  1   
 35  17  43  1   
 36  18  21  ar  
 37  18  22  ar  
 38  19  23  am  
 39  19  24  1   
 40  20  24  1   
 41  20  44  1   
 42  20  45  1   
 43  21  25  ar  
 44  21  46  1   
 45  22  26  ar  
 46  22  47  1   
 47  23  27  2   
 48  23  28  1   
 49  24  48  1   
 50  24  49  1   
 51  25  29  ar  
 52  25  50  1   
 53  26  29  ar  
 54  26  51  1   
 55  28  52  1   
 56  28  53  1   
 57  28  54  1   
@<TRIPOS>SUBSTRUCTURE
  1 ****   1 GROUP 4 **** **** 0

# MOE 2024.06 (io_trps.svl 2023.06)
