@<TRIPOS>MOLECULE
NONAME
47 49 1 0 0 
SMALL
USER_CHARGES


@<TRIPOS>ATOM
  1 O       -0.6130     0.2630    -0.3850 O.2   1 <1>  -0.5700 
  2 C       -1.5730     0.8930     0.0260 C.2   1 <1>   0.5440 
  3 N       -2.7240     0.1740     0.3080 N.am  1 <1>  -0.6600 
  4 C       -1.4540     2.3470     0.1650 C.ar  1 <1>   0.3960 
  5 C       -2.7230    -1.3170     0.4570 C.3   1 <1>   0.1400 
  6 C       -4.0980     0.7590     0.3880 C.3   1 <1>   0.1400 
  7 N       -2.1500     3.0230     1.0960 N.ar  1 <1>  -0.6200 
  8 C       -0.5800     3.0180    -0.7000 C.ar  1 <1>   0.1600 
  9 C       -3.7670    -1.9680    -0.4670 C.3   1 <1>   0.3440 
 10 C       -5.0850    -0.0100    -0.5220 C.3   1 <1>   0.2000 
 11 C       -1.9150     4.3220     1.0870 C.ar  1 <1>   0.1600 
 12 N       -0.3540     4.3220    -0.7160 N.ar  1 <1>  -0.6200 
 13 O       -5.0260    -1.3850    -0.2550 O.3   1 <1>  -0.5600 
 14 C       -3.8490    -3.4710    -0.2120 C.ar  1 <1>  -0.1430 
 15 C       -6.5580     0.4400    -0.3850 C.3   1 <1>  -0.0800 
 16 C       -1.0450     4.9600     0.2080 C.ar  1 <1>   0.1670 
 17 C       -4.6970    -3.9970     0.7530 C.ar  1 <1>  -0.1500 
 18 C       -3.0500    -4.3340    -0.9480 C.ar  1 <1>  -0.1500 
 19 C       -6.7520     1.9080    -0.7970 C.3   1 <1>  -0.2400 
 20 C       -7.1440     0.2160     1.0200 C.3   1 <1>  -0.2400 
 21 C       -0.8410     6.4600     0.2700 C.3   1 <1>  -0.0970 
 22 C       -4.7460    -5.3620     0.9790 C.ar  1 <1>  -0.1500 
 23 C       -3.0970    -5.7000    -0.7250 C.ar  1 <1>  -0.1500 
 24 C       -3.9450    -6.2150     0.2400 C.ar  1 <1>  -0.1500 
 25 H       -1.7550    -1.7270     0.2340 H     1 <1>   0.0800 
 26 H       -2.9550    -1.5690     1.4760 H     1 <1>   0.0800 
 27 H       -4.4310     0.7210     1.4090 H     1 <1>   0.0800 
 28 H       -4.0850     1.7870     0.0800 H     1 <1>   0.0800 
 29 H       -0.0390     2.4290    -1.4210 H     1 <1>   0.1500 
 30 H       -3.4920    -1.7990    -1.4930 H     1 <1>   0.0800 
 31 H       -4.7870     0.1310    -1.5470 H     1 <1>   0.0800 
 32 H       -2.4400     4.9160     1.8150 H     1 <1>   0.1500 
 33 H       -7.1260    -0.1610    -1.0750 H     1 <1>   0.0800 
 34 H       -5.3260    -3.3420     1.3310 H     1 <1>   0.1500 
 35 H       -2.3840    -3.9480    -1.7010 H     1 <1>   0.1500 
 36 H       -6.2680     2.5740    -0.1050 H     1 <1>   0.0800 
 37 H       -7.8010     2.1480    -0.8160 H     1 <1>   0.0800 
 38 H       -6.3530     2.0780    -1.7810 H     1 <1>   0.0800 
 39 H       -6.6640     0.8440     1.7490 H     1 <1>   0.0800 
 40 H       -7.0220    -0.8110     1.3160 H     1 <1>   0.0800 
 41 H       -8.1960     0.4390     1.0210 H     1 <1>   0.0800 
 42 H       -1.4390     6.9050     1.0440 H     1 <1>   0.0800 
 43 H       -1.1100     6.8990    -0.6730 H     1 <1>   0.0800 
 44 H        0.1950     6.6730     0.4650 H     1 <1>   0.0800 
 45 H       -5.4080    -5.7590     1.7280 H     1 <1>   0.1500 
 46 H       -2.4750    -6.3620    -1.3010 H     1 <1>   0.1500 
 47 H       -3.9830    -7.2760     0.4140 H     1 <1>   0.1500 
@<TRIPOS>BOND
  1   1   2  2   
  2   2   3  am  
  3   2   4  1   
  4   3   5  1   
  5   3   6  1   
  6   4   7  ar  
  7   4   8  ar  
  8   5   9  1   
  9   5  25  1   
 10   5  26  1   
 11   6  10  1   
 12   6  27  1   
 13   6  28  1   
 14   7  11  ar  
 15   8  12  ar  
 16   8  29  1   
 17   9  13  1   
 18   9  14  1   
 19   9  30  1   
 20  10  13  1   
 21  10  15  1   
 22  10  31  1   
 23  11  16  ar  
 24  11  32  1   
 25  12  16  ar  
 26  14  17  ar  
 27  14  18  ar  
 28  15  19  1   
 29  15  20  1   
 30  15  33  1   
 31  16  21  1   
 32  17  22  ar  
 33  17  34  1   
 34  18  23  ar  
 35  18  35  1   
 36  19  36  1   
 37  19  37  1   
 38  19  38  1   
 39  20  39  1   
 40  20  40  1   
 41  20  41  1   
 42  21  42  1   
 43  21  43  1   
 44  21  44  1   
 45  22  24  ar  
 46  22  45  1   
 47  23  24  ar  
 48  23  46  1   
 49  24  47  1   
@<TRIPOS>SUBSTRUCTURE
  1 ****   3 GROUP 4 **** **** 0

# MOE 2024.06 (io_trps.svl 2023.06)
