@<TRIPOS>MOLECULE
NONAME
48 50 1 0 0 
SMALL
USER_CHARGES


@<TRIPOS>ATOM
  1 O       -1.0050     0.9340     2.4880 O.3   1 <1>  -0.5600 
  2 C        0.0940     0.8640     1.6310 C.3   1 <1>   0.1200 
  3 C       -2.1190     1.4620     1.8270 C.3   1 <1>   0.1200 
  4 C       -0.1590     1.9040     0.5450 C.3   1 <1>   0.2890 
  5 C       -1.6710     1.8320     0.4060 C.3   1 <1>  -0.0800 
  6 N        0.2180     3.2460     1.0630 N.pl3 1 <1>  -0.8690 
  7 C       -2.0960     0.7740    -0.6320 C.3   1 <1>  -0.0170 
  8 C        0.9600     4.1790     0.4590 C.ar  1 <1>   0.4100 
  9 C       -3.6100     0.6820    -0.7550 C.ar  1 <1>  -0.1430 
 10 N        1.4100     3.9350    -0.7760 N.ar  1 <1>  -0.6200 
 11 C        1.2610     5.3800     1.1070 C.ar  1 <1>  -0.1500 
 12 C       -4.3220    -0.3820    -0.2400 C.ar  1 <1>  -0.1500 
 13 C       -4.3500     1.6570    -1.3920 C.ar  1 <1>  -0.1500 
 14 C        2.1380     4.8440    -1.3520 C.ar  1 <1>   0.5280 
 15 C        2.0260     6.3130     0.4730 C.ar  1 <1>   0.2180 
 16 C       -5.7000    -0.4160    -0.3770 C.ar  1 <1>   0.1600 
 17 C       -5.7270     1.5280    -1.4750 C.ar  1 <1>   0.1600 
 18 N        2.4590     6.0200    -0.7710 N.ar  1 <1>  -0.1790 
 19 C        2.6520     4.5710    -2.7510 C.3   1 <1>  -0.0970 
 20 C        2.4020     7.6480     1.1040 C.3   1 <1>  -0.0170 
 21 N       -6.4200     0.5150    -0.9810 N.ar  1 <1>  -0.6200 
 22 C        1.7340     8.8300     0.3850 C.3   1 <1>  -0.1600 
 23 C        2.1010    10.1600     1.0500 C.3   1 <1>  -0.2400 
 24 H        0.9980     1.0520     2.1830 H     1 <1>   0.0800 
 25 H        0.1220    -0.1270     1.2130 H     1 <1>   0.0800 
 26 H       -2.9090     0.7330     1.8460 H     1 <1>   0.0800 
 27 H       -2.4320     2.3370     2.3690 H     1 <1>   0.0800 
 28 H        0.3660     1.6740    -0.3660 H     1 <1>   0.0800 
 29 H       -2.0780     2.7840     0.1130 H     1 <1>   0.0800 
 30 H       -0.1270     3.3770     2.0200 H     1 <1>   0.4000 
 31 H       -1.7010    -0.1900    -0.3640 H     1 <1>   0.0800 
 32 H       -1.6890     1.0340    -1.5940 H     1 <1>   0.0800 
 33 H        0.8780     5.5380     2.0990 H     1 <1>   0.1500 
 34 H       -3.8230    -1.1870     0.2690 H     1 <1>   0.1500 
 35 H       -3.8720     2.5160    -1.8250 H     1 <1>   0.1500 
 36 H       -6.2390    -1.2540     0.0320 H     1 <1>   0.1500 
 37 H       -6.2880     2.2990    -1.9750 H     1 <1>   0.1500 
 38 H        3.0330     6.6870    -1.2850 H     1 <1>   0.4570 
 39 H        2.3230     3.6010    -3.0820 H     1 <1>   0.0800 
 40 H        3.7270     4.5820    -2.7650 H     1 <1>   0.0800 
 41 H        2.2750     5.3060    -3.4400 H     1 <1>   0.0800 
 42 H        2.0950     7.6510     2.1370 H     1 <1>   0.0800 
 43 H        3.4720     7.7660     1.0900 H     1 <1>   0.0800 
 44 H        2.0360     8.8670    -0.6470 H     1 <1>   0.0800 
 45 H        0.6620     8.7120     0.4150 H     1 <1>   0.0800 
 46 H        3.1650    10.3250     1.0200 H     1 <1>   0.0800 
 47 H        1.7790    10.1760     2.0770 H     1 <1>   0.0800 
 48 H        1.6200    10.9740     0.5360 H     1 <1>   0.0800 
@<TRIPOS>BOND
  1   1   2  1   
  2   1   3  1   
  3   2   4  1   
  4   2  24  1   
  5   2  25  1   
  6   3   5  1   
  7   3  26  1   
  8   3  27  1   
  9   4   5  1   
 10   4   6  1   
 11   4  28  1   
 12   5   7  1   
 13   5  29  1   
 14   6   8  1   
 15   6  30  1   
 16   7   9  1   
 17   7  31  1   
 18   7  32  1   
 19   8  10  ar  
 20   8  11  ar  
 21   9  12  ar  
 22   9  13  ar  
 23  10  14  ar  
 24  11  15  ar  
 25  11  33  1   
 26  12  16  ar  
 27  12  34  1   
 28  13  17  ar  
 29  13  35  1   
 30  14  18  ar  
 31  14  19  1   
 32  15  18  ar  
 33  15  20  1   
 34  16  21  ar  
 35  16  36  1   
 36  17  21  ar  
 37  17  37  1   
 38  18  38  1   
 39  19  39  1   
 40  19  40  1   
 41  19  41  1   
 42  20  22  1   
 43  20  42  1   
 44  20  43  1   
 45  22  23  1   
 46  22  44  1   
 47  22  45  1   
 48  23  46  1   
 49  23  47  1   
 50  23  48  1   
@<TRIPOS>SUBSTRUCTURE
  1 ****   6 GROUP 4 **** **** 0

# MOE 2024.06 (io_trps.svl 2023.06)
