@<TRIPOS>MOLECULE
NONAME
54 56 1 0 0 
SMALL
USER_CHARGES


@<TRIPOS>ATOM
  1 O        1.2370    -1.7200    -2.0230 O.3   1 <1>  -0.6800 
  2 C        0.5450    -2.1450    -0.8970 C.3   1 <1>   0.1200 
  3 C        1.4270    -2.0750     0.3830 C.3   1 <1>   0.0000 
  4 C        2.8380    -2.7120     0.2120 C.3   1 <1>   0.4230 
  5 C        1.5940    -0.5920     0.8110 C.3   1 <1>  -0.1600 
  6 C        0.6850    -2.8280     1.5250 C.3   1 <1>  -0.1600 
  7 N        2.7920    -4.1920    -0.1730 N.4   1 <1>  -0.9590 
  8 C        3.7960    -1.8220    -0.6450 C.3   1 <1>   0.3430 
  9 C        2.4800     0.2340    -0.1260 C.3   1 <1>   0.3430 
 10 C        1.1540    -4.2850     1.7190 C.3   1 <1>  -0.1600 
 11 C        1.6270    -4.9370     0.4190 C.3   1 <1>   0.3430 
 12 C        2.8370    -4.4670    -1.6510 C.3   1 <1>   0.2630 
 13 N        3.8420    -0.3800    -0.2070 N.4   1 <1>  -0.9590 
 14 C        4.7130     0.4370    -1.1030 C.3   1 <1>   0.4860 
 15 C        4.9310     1.7790    -0.4390 C.ar  1 <1>  -0.1430 
 16 C        4.2630     2.9030    -0.9000 C.ar  1 <1>  -0.1500 
 17 C        5.7890     1.8940     0.6440 C.ar  1 <1>  -0.1500 
 18 C        4.4290     4.1310    -0.2800 C.ar  1 <1>  -0.1430 
 19 C        5.9560     3.1170     1.2650 C.ar  1 <1>  -0.1500 
 20 C        5.2800     4.2380     0.8140 C.ar  1 <1>  -0.1430 
 21 C        3.6770     5.3420    -0.8170 C.3   1 <1>  -0.0970 
 22 C        5.4950     5.5660     1.5280 C.3   1 <1>  -0.0970 
 23 H        0.6170    -1.6110    -2.7810 H     1 <1>   0.4000 
 24 H       -0.3250    -1.5170    -0.7870 H     1 <1>   0.0800 
 25 H        0.2020    -3.1470    -1.0870 H     1 <1>   0.0800 
 26 H        3.2630    -2.6880     1.2010 H     1 <1>   0.0800 
 27 H        2.0160    -0.5270     1.8000 H     1 <1>   0.0800 
 28 H        0.6270    -0.1200     0.8610 H     1 <1>   0.0800 
 29 H        0.8170    -2.3250     2.4690 H     1 <1>   0.0800 
 30 H       -0.3770    -2.8200     1.3360 H     1 <1>   0.0800 
 31 H        3.6280    -4.6350     0.2390 H     1 <1>   0.4500 
 32 H        3.4720    -1.8560    -1.6710 H     1 <1>   0.0800 
 33 H        4.7890    -2.2360    -0.5960 H     1 <1>   0.0800 
 34 H        2.5530     1.2430     0.2510 H     1 <1>   0.0800 
 35 H        2.0350     0.2780    -1.1070 H     1 <1>   0.0800 
 36 H        0.3420    -4.8630     2.1270 H     1 <1>   0.0800 
 37 H        1.9530    -4.3250     2.4400 H     1 <1>   0.0800 
 38 H        0.8040    -4.9430    -0.2770 H     1 <1>   0.0800 
 39 H        1.9030    -5.9640     0.6060 H     1 <1>   0.0800 
 40 H        1.9860    -4.0280    -2.1450 H     1 <1>   0.0800 
 41 H        2.8220    -5.5310    -1.8330 H     1 <1>   0.0800 
 42 H        3.7360    -4.0660    -2.0890 H     1 <1>   0.0800 
 43 H        4.2650    -0.2820     0.7270 H     1 <1>   0.4500 
 44 H        5.6680    -0.0440    -1.2440 H     1 <1>   0.0800 
 45 H        4.2490     0.5710    -2.0670 H     1 <1>   0.0800 
 46 H        3.6070     2.8350    -1.7510 H     1 <1>   0.1500 
 47 H        6.3410     1.0490     1.0170 H     1 <1>   0.1500 
 48 H        6.6250     3.1940     2.1050 H     1 <1>   0.1500 
 49 H        3.0650     5.0810    -1.6610 H     1 <1>   0.0800 
 50 H        4.3750     6.0980    -1.1310 H     1 <1>   0.0800 
 51 H        3.0410     5.7520    -0.0530 H     1 <1>   0.0800 
 52 H        6.1800     5.4590     2.3500 H     1 <1>   0.0800 
 53 H        4.5630     5.9350     1.9150 H     1 <1>   0.0800 
 54 H        5.9030     6.2900     0.8450 H     1 <1>   0.0800 
@<TRIPOS>BOND
  1   1   2  1   
  2   1  23  1   
  3   2   3  1   
  4   2  24  1   
  5   2  25  1   
  6   3   4  1   
  7   3   5  1   
  8   3   6  1   
  9   4   7  1   
 10   4   8  1   
 11   4  26  1   
 12   5   9  1   
 13   5  27  1   
 14   5  28  1   
 15   6  10  1   
 16   6  29  1   
 17   6  30  1   
 18   7  11  1   
 19   7  12  1   
 20   7  31  1   
 21   8  13  1   
 22   8  32  1   
 23   8  33  1   
 24   9  13  1   
 25   9  34  1   
 26   9  35  1   
 27  10  11  1   
 28  10  36  1   
 29  10  37  1   
 30  11  38  1   
 31  11  39  1   
 32  12  40  1   
 33  12  41  1   
 34  12  42  1   
 35  13  14  1   
 36  13  43  1   
 37  14  15  1   
 38  14  44  1   
 39  14  45  1   
 40  15  16  ar  
 41  15  17  ar  
 42  16  18  ar  
 43  16  46  1   
 44  17  19  ar  
 45  17  47  1   
 46  18  20  ar  
 47  18  21  1   
 48  19  20  ar  
 49  19  48  1   
 50  20  22  1   
 51  21  49  1   
 52  21  50  1   
 53  21  51  1   
 54  22  52  1   
 55  22  53  1   
 56  22  54  1   
@<TRIPOS>SUBSTRUCTURE
  1 ****  13 GROUP 4 **** **** 0

# MOE 2024.06 (io_trps.svl 2023.06)
