@<TRIPOS>MOLECULE
NONAME
47 49 1 0 0 
SMALL
USER_CHARGES


@<TRIPOS>ATOM
  1 O        2.7090     1.2010    -0.8500 O.3   1 <1>  -0.0190 
  2 N        2.9260     1.1510     0.4320 N.2   1 <1>  -0.4100 
  3 C        1.8810     2.1580    -1.1650 C.2   1 <1>  -0.0400 
  4 C        2.1950     2.0590     0.9650 C.2   1 <1>   0.1080 
  5 C        1.5370     2.7840    -0.0280 C.2   1 <1>  -0.1810 
  6 C        1.5290     2.3820    -2.6230 C.3   1 <1>  -0.0600 
  7 C        2.1070     2.2970     2.4600 C.3   1 <1>  -0.0590 
  8 C        0.7290     4.0420     0.1770 C.3   1 <1>   0.3900 
  9 N        1.6020     5.2520     0.3890 N.pl3 1 <1>  -0.8380 
 10 C        2.9500     5.4320     0.1810 C.ar  1 <1>   0.7710 
 11 C        0.7660     6.4380     0.7920 C.3   1 <1>   0.1290 
 12 N        3.4300     6.6660     0.2760 N.ar  1 <1>  -0.6200 
 13 N        3.7760     4.4030    -0.1080 N.ar  1 <1>  -0.1790 
 14 C        4.7210     6.8800     0.0990 C.ar  1 <1>   0.4100 
 15 C        5.1010     4.5700    -0.3170 C.ar  1 <1>   0.2110 
 16 N        5.1750     8.1550     0.2340 N.pl3 1 <1>  -0.8380 
 17 C        5.5950     5.8240    -0.2200 C.ar  1 <1>  -0.1500 
 18 C        6.5490     8.5240     0.7110 C.3   1 <1>   0.2090 
 19 C        4.3050     9.3480    -0.0030 C.3   1 <1>   0.2090 
 20 C        7.2400     9.4410    -0.3110 C.3   1 <1>   0.2000 
 21 C        4.9700    10.2700    -1.0340 C.3   1 <1>  -0.1600 
 22 O        8.4620     9.8590     0.1880 O.3   1 <1>  -0.6800 
 23 C        6.3950    10.6810    -0.6220 C.3   1 <1>  -0.1600 
 24 H        1.0450     1.5050    -3.0150 H     1 <1>   0.0800 
 25 H        2.4190     2.5650    -3.1970 H     1 <1>   0.0800 
 26 H        0.8640     3.2190    -2.7360 H     1 <1>   0.0800 
 27 H        2.8400     1.6990     2.9730 H     1 <1>   0.0800 
 28 H        1.1330     2.0150     2.8160 H     1 <1>   0.0800 
 29 H        2.2810     3.3320     2.6930 H     1 <1>   0.0800 
 30 H        0.0880     3.9030     1.0320 H     1 <1>   0.0800 
 31 H        0.0990     4.2100    -0.6800 H     1 <1>   0.0800 
 32 H       -0.1810     6.1300     1.2010 H     1 <1>   0.0800 
 33 H        0.5870     7.0650    -0.0650 H     1 <1>   0.0800 
 34 H        1.2730     7.0210     1.5440 H     1 <1>   0.0800 
 35 H        3.3520     3.4720    -0.1470 H     1 <1>   0.4570 
 36 H        5.7080     3.7100    -0.5530 H     1 <1>   0.1500 
 37 H        6.6340     6.0290    -0.3940 H     1 <1>   0.1500 
 38 H        7.1520     7.6520     0.8810 H     1 <1>   0.0800 
 39 H        6.4520     9.0470     1.6470 H     1 <1>   0.0800 
 40 H        4.1640     9.8740     0.9260 H     1 <1>   0.0800 
 41 H        3.3370     9.0540    -0.3700 H     1 <1>   0.0800 
 42 H        7.4330     8.8840    -1.2120 H     1 <1>   0.0800 
 43 H        4.3660    11.1500    -1.1620 H     1 <1>   0.0800 
 44 H        5.0010     9.7580    -1.9810 H     1 <1>   0.0800 
 45 H        8.3360    10.5500     0.8650 H     1 <1>   0.4000 
 46 H        6.8520    11.2390    -1.4200 H     1 <1>   0.0800 
 47 H        6.3330    11.3080     0.2500 H     1 <1>   0.0800 
@<TRIPOS>BOND
  1   1   2  1   
  2   1   3  1   
  3   2   4  2   
  4   3   5  2   
  5   3   6  1   
  6   4   5  1   
  7   4   7  1   
  8   5   8  1   
  9   6  24  1   
 10   6  25  1   
 11   6  26  1   
 12   7  27  1   
 13   7  28  1   
 14   7  29  1   
 15   8   9  1   
 16   8  30  1   
 17   8  31  1   
 18   9  10  1   
 19   9  11  1   
 20  10  12  ar  
 21  10  13  ar  
 22  11  32  1   
 23  11  33  1   
 24  11  34  1   
 25  12  14  ar  
 26  13  15  ar  
 27  13  35  1   
 28  14  16  1   
 29  14  17  ar  
 30  15  17  ar  
 31  15  36  1   
 32  16  18  1   
 33  16  19  1   
 34  17  37  1   
 35  18  20  1   
 36  18  38  1   
 37  18  39  1   
 38  19  21  1   
 39  19  40  1   
 40  19  41  1   
 41  20  22  1   
 42  20  23  1   
 43  20  42  1   
 44  21  23  1   
 45  21  43  1   
 46  21  44  1   
 47  22  45  1   
 48  23  46  1   
 49  23  47  1   
@<TRIPOS>SUBSTRUCTURE
  1 ****  10 GROUP 4 **** **** 0

# MOE 2024.06 (io_trps.svl 2023.06)
