@<TRIPOS>MOLECULE
NONAME
60 64 1 0 0 
SMALL
USER_CHARGES


@<TRIPOS>ATOM
  1 O       -0.9090    -0.9690     1.5730 O.2   1 <1>  -0.5700 
  2 C       -1.4170    -1.1280     0.4810 C.2   1 <1>   0.5440 
  3 N       -0.8790    -2.0550    -0.3660 N.am  1 <1>  -0.7300 
  4 C       -2.5740    -0.3700     0.0740 C.ar  1 <1>   0.0860 
  5 C        0.3640    -2.8180    -0.1000 C.3   1 <1>   0.1400 
  6 C       -2.5780     1.0330     0.0020 C.ar  1 <1>   0.0000 
  7 C       -3.7590    -0.9770    -0.2920 C.ar  1 <1>  -0.1500 
  8 C        0.0540    -4.0650     0.7400 C.3   1 <1>  -0.0800 
  9 C       -3.7240     1.6720    -0.4220 C.ar  1 <1>   0.1050 
 10 C       -1.6730     2.0860     0.2400 C.2   1 <1>   0.1080 
 11 C       -4.8660    -0.2260    -0.7030 C.ar  1 <1>   0.1660 
 12 C       -0.7530    -5.0980    -0.0620 C.3   1 <1>   0.2000 
 13 C        1.2820    -4.9190     1.1320 C.3   1 <1>  -0.0800 
 14 N       -4.8770     1.0800    -0.7810 N.ar  1 <1>  -0.5670 
 15 N       -3.4420     3.0050    -0.4080 N.pl3 1 <1>   0.3140 
 16 N       -2.1760     3.2500    -0.0050 N.2   1 <1>  -0.7070 
 17 C       -0.2490     1.9300     0.7300 C.3   1 <1>  -0.0590 
 18 C       -6.1490    -0.9320    -1.0900 C.3   1 <1>  -0.0970 
 19 O        0.2620    -5.8110    -0.6610 O.3   1 <1>  -0.5600 
 20 C       -1.3640    -6.1660     0.8560 C.3   1 <1>  -0.1600 
 21 C        0.9540    -6.2470     0.4550 C.3   1 <1>   0.2800 
 22 C        2.6730    -4.5610     0.5870 C.3   1 <1>   0.1400 
 23 C       -4.3670     4.0820    -0.7770 C.3   1 <1>   0.0160 
 24 C       -0.1360    -7.0150     1.2030 C.3   1 <1>  -0.1600 
 25 C        2.2840    -6.9230     0.1220 C.3   1 <1>   0.1400 
 26 N        3.3100    -5.8580     0.2620 N.am  1 <1>  -0.6600 
 27 C        4.6350    -6.0600    -0.0250 C.2   1 <1>   0.5690 
 28 O        5.0420    -7.1610    -0.3230 O.2   1 <1>  -0.5700 
 29 C        5.6670    -4.9290     0.0690 C.3   1 <1>   0.1810 
 30 O        5.2540    -3.7310    -0.5480 O.3   1 <1>  -0.5600 
 31 C        6.2290    -2.7380    -0.5590 C.3   1 <1>   0.0400 
 32 H       -1.2510    -2.1360    -1.3140 H     1 <1>   0.3700 
 33 H        0.8080    -3.0990    -1.0400 H     1 <1>   0.0800 
 34 H        1.0550    -2.1870     0.4330 H     1 <1>   0.0800 
 35 H       -3.8350    -2.0480    -0.2540 H     1 <1>   0.1500 
 36 H       -0.4830    -3.7610     1.6210 H     1 <1>   0.0800 
 37 H       -1.4320    -4.6910    -0.7910 H     1 <1>   0.0800 
 38 H        1.3480    -5.0470     2.1980 H     1 <1>   0.0800 
 39 H        0.2730     1.2090     0.1300 H     1 <1>   0.0800 
 40 H       -0.2520     1.6050     1.7540 H     1 <1>   0.0800 
 41 H        0.2660     2.8710     0.6680 H     1 <1>   0.0800 
 42 H       -6.0610    -1.9960    -0.9780 H     1 <1>   0.0800 
 43 H       -6.3860    -0.7080    -2.1150 H     1 <1>   0.0800 
 44 H       -6.9520    -0.5830    -0.4670 H     1 <1>   0.0800 
 45 H       -1.8290    -5.7300     1.7230 H     1 <1>   0.0800 
 46 H       -2.0910    -6.7450     0.3140 H     1 <1>   0.0800 
 47 H        3.2510    -4.0170     1.3130 H     1 <1>   0.0800 
 48 H        2.6190    -3.9940    -0.3240 H     1 <1>   0.0800 
 49 H       -4.6730     3.9460    -1.7970 H     1 <1>   0.0800 
 50 H       -3.8710     5.0280    -0.6680 H     1 <1>   0.0800 
 51 H       -5.2240     4.0430    -0.1320 H     1 <1>   0.0800 
 52 H       -0.2280    -8.0100     0.8030 H     1 <1>   0.0800 
 53 H        0.0570    -7.0640     2.2590 H     1 <1>   0.0800 
 54 H        2.2770    -7.3240    -0.8770 H     1 <1>   0.0800 
 55 H        2.4980    -7.7060     0.8270 H     1 <1>   0.0800 
 56 H        6.5740    -5.2570    -0.4070 H     1 <1>   0.0800 
 57 H        5.8650    -4.7260     1.1050 H     1 <1>   0.0800 
 58 H        5.8160    -1.8690    -1.0410 H     1 <1>   0.0800 
 59 H        7.0840    -3.0860    -1.1130 H     1 <1>   0.0800 
 60 H        6.5040    -2.4960     0.4530 H     1 <1>   0.0800 
@<TRIPOS>BOND
  1   1   2  2   
  2   2   3  am  
  3   2   4  1   
  4   3   5  1   
  5   3  32  1   
  6   4   6  ar  
  7   4   7  ar  
  8   5   8  1   
  9   5  33  1   
 10   5  34  1   
 11   6   9  ar  
 12   6  10  1   
 13   7  11  ar  
 14   7  35  1   
 15   8  12  1   
 16   8  13  1   
 17   8  36  1   
 18   9  14  ar  
 19   9  15  1   
 20  10  16  2   
 21  10  17  1   
 22  11  14  ar  
 23  11  18  1   
 24  12  19  1   
 25  12  20  1   
 26  12  37  1   
 27  13  21  1   
 28  13  22  1   
 29  13  38  1   
 30  15  16  1   
 31  15  23  1   
 32  17  39  1   
 33  17  40  1   
 34  17  41  1   
 35  18  42  1   
 36  18  43  1   
 37  18  44  1   
 38  19  21  1   
 39  20  24  1   
 40  20  45  1   
 41  20  46  1   
 42  21  24  1   
 43  21  25  1   
 44  22  26  1   
 45  22  47  1   
 46  22  48  1   
 47  23  49  1   
 48  23  50  1   
 49  23  51  1   
 50  24  52  1   
 51  24  53  1   
 52  25  26  1   
 53  25  54  1   
 54  25  55  1   
 55  26  27  am  
 56  27  28  2   
 57  27  29  1   
 58  29  30  1   
 59  29  56  1   
 60  29  57  1   
 61  30  31  1   
 62  31  58  1   
 63  31  59  1   
 64  31  60  1   
@<TRIPOS>SUBSTRUCTURE
  1 ****   5 GROUP 4 **** **** 0

# MOE 2024.06 (io_trps.svl 2023.06)
