@<TRIPOS>MOLECULE
NONAME
51 55 1 0 0 
SMALL
USER_CHARGES


@<TRIPOS>ATOM
  1 O       -0.7450     0.9850     1.0820 O.2   1 <1>  -0.5700 
  2 C       -1.8200     1.2740     0.6110 C.2   1 <1>   0.5690 
  3 N       -2.9610     0.5890     0.9430 N.am  1 <1>  -0.6600 
  4 C       -1.8770     2.4130    -0.3910 C.3   1 <1>  -0.0990 
  5 C       -4.3140     0.8210     0.3620 C.3   1 <1>   0.1400 
  6 C       -2.9370    -0.5290     1.9280 C.3   1 <1>   0.1400 
  7 C       -0.5300     3.1340    -0.5450 C.3   1 <1>   0.0960 
  8 C       -4.7570    -0.4460    -0.3710 C.3   1 <1>  -0.1600 
  9 C       -3.3660    -1.8180     1.2260 C.3   1 <1>  -0.1600 
 10 N       -0.5990     4.1450    -1.6180 N.pl3 1 <1>   0.3140 
 11 C       -4.7370    -1.6690     0.5580 C.3   1 <1>   0.4600 
 12 N       -1.5260     5.1230    -1.6310 N.2   1 <1>  -0.7070 
 13 C        0.2090     4.2270    -2.6940 C.2   1 <1>  -0.3020 
 14 O       -5.6660    -1.4690     1.6020 O.3   1 <1>  -0.5600 
 15 C       -5.0950    -2.9400    -0.2020 C.2   1 <1>  -0.3320 
 16 C       -1.2820     5.8010    -2.7100 C.2   1 <1>   0.1390 
 17 C       -0.2050     5.2870    -3.4210 C.2   1 <1>  -0.1500 
 18 C       -7.0230    -1.7510     1.3490 C.3   1 <1>   0.1200 
 19 N       -4.3540    -3.5350    -1.1860 N.pl3 1 <1>   0.0330 
 20 C       -6.2150    -3.6600     0.0080 C.2   1 <1>  -0.1810 
 21 C       -7.2340    -3.2420     1.0370 C.3   1 <1>   0.0210 
 22 C       -5.0260    -4.6600    -1.6010 C.ar  1 <1>  -0.1520 
 23 C       -6.2030    -4.7680    -0.8650 C.ar  1 <1>   0.0000 
 24 C       -4.6990    -5.6090    -2.5720 C.ar  1 <1>  -0.1500 
 25 C       -7.0700    -5.8400    -1.0980 C.ar  1 <1>  -0.1500 
 26 C       -5.5620    -6.6590    -2.7930 C.ar  1 <1>  -0.1500 
 27 C       -6.7470    -6.7740    -2.0550 C.ar  1 <1>  -0.1500 
 28 H       -2.6100     3.1250    -0.0600 H     1 <1>   0.0800 
 29 H       -2.1740     2.0130    -1.3420 H     1 <1>   0.0800 
 30 H       -4.3170     1.6510    -0.3210 H     1 <1>   0.0800 
 31 H       -5.0050     1.0430     1.1580 H     1 <1>   0.0800 
 32 H       -3.6140    -0.3050     2.7350 H     1 <1>   0.0800 
 33 H       -1.9530    -0.6540     2.3460 H     1 <1>   0.0800 
 34 H        0.2430     2.4290    -0.7890 H     1 <1>   0.0800 
 35 H       -0.2690     3.6280     0.3730 H     1 <1>   0.0800 
 36 H       -4.0880    -0.6160    -1.1940 H     1 <1>   0.0800 
 37 H       -5.7380    -0.3130    -0.7830 H     1 <1>   0.0800 
 38 H       -3.4070    -2.6250     1.9350 H     1 <1>   0.0800 
 39 H       -2.6240    -2.0660     0.4910 H     1 <1>   0.0800 
 40 H        1.0160     3.5440    -2.8800 H     1 <1>   0.1500 
 41 H       -1.8550     6.6620    -3.0110 H     1 <1>   0.1500 
 42 H        0.1880     5.6720    -4.3450 H     1 <1>   0.1500 
 43 H       -7.3500    -1.1480     0.5220 H     1 <1>   0.0800 
 44 H       -7.5840    -1.4720     2.2230 H     1 <1>   0.0800 
 45 H       -3.4500    -3.2210    -1.5490 H     1 <1>   0.2700 
 46 H       -8.2280    -3.3970     0.6600 H     1 <1>   0.0800 
 47 H       -7.1080    -3.8260     1.9310 H     1 <1>   0.0800 
 48 H       -3.7870    -5.5140    -3.1330 H     1 <1>   0.1500 
 49 H       -7.9740    -5.9160    -0.5240 H     1 <1>   0.1500 
 50 H       -5.3330    -7.4030    -3.5350 H     1 <1>   0.1500 
 51 H       -7.4040    -7.6040    -2.2470 H     1 <1>   0.1500 
@<TRIPOS>BOND
  1   1   2  2   
  2   2   3  am  
  3   2   4  1   
  4   3   5  1   
  5   3   6  1   
  6   4   7  1   
  7   4  28  1   
  8   4  29  1   
  9   5   8  1   
 10   5  30  1   
 11   5  31  1   
 12   6   9  1   
 13   6  32  1   
 14   6  33  1   
 15   7  10  1   
 16   7  34  1   
 17   7  35  1   
 18   8  11  1   
 19   8  36  1   
 20   8  37  1   
 21   9  11  1   
 22   9  38  1   
 23   9  39  1   
 24  10  12  1   
 25  10  13  1   
 26  11  14  1   
 27  11  15  1   
 28  12  16  2   
 29  13  17  2   
 30  13  40  1   
 31  14  18  1   
 32  15  19  1   
 33  15  20  2   
 34  16  17  1   
 35  16  41  1   
 36  17  42  1   
 37  18  21  1   
 38  18  43  1   
 39  18  44  1   
 40  19  22  1   
 41  19  45  1   
 42  20  21  1   
 43  20  23  1   
 44  21  46  1   
 45  21  47  1   
 46  22  23  ar  
 47  22  24  ar  
 48  23  25  ar  
 49  24  26  ar  
 50  24  48  1   
 51  25  27  ar  
 52  25  49  1   
 53  26  27  ar  
 54  26  50  1   
 55  27  51  1   
@<TRIPOS>SUBSTRUCTURE
  1 ****   8 GROUP 4 **** **** 0

# MOE 2024.06 (io_trps.svl 2023.06)
