@<TRIPOS>MOLECULE
NONAME
36 38 1 0 0 
SMALL
USER_CHARGES


@<TRIPOS>ATOM
  1 O        0.2050     0.6510    -1.3750 O.3   1 <1>  -0.6800 
  2 C        0.2620     1.8500    -0.6720 C.3   1 <1>   0.2000 
  3 C       -1.1660     2.2720    -0.2630 C.3   1 <1>  -0.0800 
  4 C        0.9500     2.9020    -1.5570 C.3   1 <1>   0.2090 
  5 C       -1.1470     3.6970     0.3370 C.3   1 <1>  -0.1600 
  6 C       -1.7700     1.2490     0.7140 C.3   1 <1>   0.1200 
  7 N        0.8960     4.2510    -0.9130 N.pl3 1 <1>  -0.8380 
  8 C       -0.4750     4.7130    -0.5920 C.3   1 <1>   0.2090 
  9 O       -3.0490     1.6340     1.0800 O.3   1 <1>  -0.6800 
 10 C        1.9620     4.7180    -0.1800 C.ar  1 <1>   0.4100 
 11 N        2.5600     3.8640     0.6000 N.ar  1 <1>  -0.6200 
 12 C        2.3630     6.0770    -0.2540 C.ar  1 <1>   0.0000 
 13 C        3.5430     4.3460     1.3660 C.ar  1 <1>   0.4700 
 14 C        3.3890     6.4610     0.6150 C.ar  1 <1>   0.3100 
 15 C        1.8260     7.0440    -1.1290 C.ar  1 <1>  -0.1500 
 16 N        3.9770     5.5640     1.4330 N.ar  1 <1>  -0.6200 
 17 C        3.8180     7.7950     0.6240 C.ar  1 <1>  -0.1500 
 18 C        2.2650     8.3430    -1.1100 C.ar  1 <1>  -0.1500 
 19 C        3.2690     8.7260    -0.2180 C.ar  1 <1>  -0.1500 
 20 H       -0.0890    -0.0750    -0.7930 H     1 <1>   0.4000 
 21 H        0.8720     1.6910     0.2010 H     1 <1>   0.0800 
 22 H       -1.7680     2.2900    -1.1560 H     1 <1>   0.0800 
 23 H        0.4550     2.9520    -2.5100 H     1 <1>   0.0800 
 24 H        1.9760     2.6200    -1.7160 H     1 <1>   0.0800 
 25 H       -0.6180     3.6930     1.2740 H     1 <1>   0.0800 
 26 H       -2.1510     4.0330     0.5220 H     1 <1>   0.0800 
 27 H       -1.1750     1.1680     1.6080 H     1 <1>   0.0800 
 28 H       -1.8500     0.2800     0.2530 H     1 <1>   0.0800 
 29 H       -0.4360     5.6730    -0.1060 H     1 <1>   0.0800 
 30 H       -1.0380     4.8150    -1.5040 H     1 <1>   0.0800 
 31 H       -3.0250     2.4830     1.5600 H     1 <1>   0.4000 
 32 H        4.0190     3.6220     2.0050 H     1 <1>   0.1500 
 33 H        1.0630     6.7420    -1.8240 H     1 <1>   0.1500 
 34 H        4.5980     8.0640     1.3130 H     1 <1>   0.1500 
 35 H        1.8460     9.0760    -1.7780 H     1 <1>   0.1500 
 36 H        3.6050     9.7490    -0.2060 H     1 <1>   0.1500 
@<TRIPOS>BOND
  1   1   2  1   
  2   1  20  1   
  3   2   3  1   
  4   2   4  1   
  5   2  21  1   
  6   3   5  1   
  7   3   6  1   
  8   3  22  1   
  9   4   7  1   
 10   4  23  1   
 11   4  24  1   
 12   5   8  1   
 13   5  25  1   
 14   5  26  1   
 15   6   9  1   
 16   6  27  1   
 17   6  28  1   
 18   7   8  1   
 19   7  10  1   
 20   8  29  1   
 21   8  30  1   
 22   9  31  1   
 23  10  11  ar  
 24  10  12  ar  
 25  11  13  ar  
 26  12  14  ar  
 27  12  15  ar  
 28  13  16  ar  
 29  13  32  1   
 30  14  16  ar  
 31  14  17  ar  
 32  15  18  ar  
 33  15  33  1   
 34  17  19  ar  
 35  17  34  1   
 36  18  19  ar  
 37  18  35  1   
 38  19  36  1   
@<TRIPOS>SUBSTRUCTURE
  1 ****  10 GROUP 4 **** **** 0

# MOE 2024.06 (io_trps.svl 2023.06)
