@<TRIPOS>MOLECULE
NONAME
51 53 1 0 0 
SMALL
USER_CHARGES


@<TRIPOS>ATOM
  1 O        0.1150     3.6590    -3.9990 O.3   1 <1>  -0.5600 
  2 C        0.8260     4.8370    -3.7420 C.3   1 <1>   0.1200 
  3 C       -0.2470     2.9540    -2.8510 C.3   1 <1>   0.1200 
  4 C       -0.0200     5.8050    -2.8970 C.3   1 <1>   0.2090 
  5 C       -1.1630     3.8130    -1.9580 C.3   1 <1>   0.2090 
  6 N       -0.5240     5.1380    -1.6360 N.pl3 1 <1>  -0.8380 
  7 C       -0.3570     5.7090    -0.4110 C.ar  1 <1>   0.7710 
  8 N        0.3280     6.8370    -0.3120 N.ar  1 <1>  -0.6200 
  9 N       -0.8950     5.1190     0.6730 N.ar  1 <1>  -0.1790 
 10 C        0.5060     7.3730     0.8800 C.ar  1 <1>   0.4100 
 11 C       -0.7450     5.6290     1.9170 C.ar  1 <1>   0.2180 
 12 N        1.2310     8.5170     0.9500 N.pl3 1 <1>  -0.8380 
 13 C       -0.0320     6.7740     2.0350 C.ar  1 <1>  -0.1500 
 14 C       -1.3680     4.9000     3.0950 C.3   1 <1>  -0.0970 
 15 C        2.3570     8.7700    -0.0360 C.3   1 <1>   0.4330 
 16 C        1.1340     9.5040     2.0680 C.3   1 <1>   0.1290 
 17 C        3.6550     9.2270     0.6740 C.ar  1 <1>   0.1670 
 18 C        1.8210     9.6930    -1.1470 C.3   1 <1>   0.1200 
 19 N        4.2300     8.3220     1.4660 N.ar  1 <1>  -0.6200 
 20 C        4.1770    10.5070     0.5000 C.ar  1 <1>  -0.1500 
 21 O        2.7620     9.8530    -2.1710 O.3   1 <1>  -0.5600 
 22 C        5.3370     8.6950     2.0850 C.ar  1 <1>   0.1600 
 23 C        5.3300    10.8840     1.1550 C.ar  1 <1>  -0.1500 
 24 C        2.3320    10.6690    -3.2120 C.3   1 <1>   0.0400 
 25 C        5.9200     9.9440     1.9690 C.ar  1 <1>  -0.1500 
 26 H        1.0680     5.2870    -4.6890 H     1 <1>   0.0800 
 27 H        1.7420     4.5890    -3.2350 H     1 <1>   0.0800 
 28 H        0.6480     2.6680    -2.3260 H     1 <1>   0.0800 
 29 H       -0.7610     2.0640    -3.1670 H     1 <1>   0.0800 
 30 H       -0.8610     6.1310    -3.4850 H     1 <1>   0.0800 
 31 H        0.5780     6.6740    -2.6870 H     1 <1>   0.0800 
 32 H       -1.3880     3.2530    -1.0700 H     1 <1>   0.0800 
 33 H       -2.0870     3.9840    -2.4850 H     1 <1>   0.0800 
 34 H       -1.4240     4.2770     0.4990 H     1 <1>   0.4570 
 35 H        0.1470     7.2310     2.9890 H     1 <1>   0.1500 
 36 H       -0.9640     3.9060     3.1790 H     1 <1>   0.0800 
 37 H       -2.4360     4.8380     2.9800 H     1 <1>   0.0800 
 38 H       -1.1600     5.4230     4.0130 H     1 <1>   0.0800 
 39 H        2.6040     7.8380    -0.5120 H     1 <1>   0.0800 
 40 H        0.1580     9.4710     2.5200 H     1 <1>   0.0800 
 41 H        1.2990    10.5020     1.6990 H     1 <1>   0.0800 
 42 H        1.8790     9.2840     2.8150 H     1 <1>   0.0800 
 43 H        1.5810    10.6600    -0.7430 H     1 <1>   0.0800 
 44 H        0.9380     9.2520    -1.5730 H     1 <1>   0.0800 
 45 H        3.7020    11.2190    -0.1480 H     1 <1>   0.1500 
 46 H        5.8080     7.9650     2.7210 H     1 <1>   0.1500 
 47 H        5.7520    11.8660     1.0320 H     1 <1>   0.1500 
 48 H        3.1220    10.7240    -3.9410 H     1 <1>   0.0800 
 49 H        2.1220    11.6530    -2.8310 H     1 <1>   0.0800 
 50 H        1.4540    10.2400    -3.6620 H     1 <1>   0.0800 
 51 H        6.8220    10.1720     2.5050 H     1 <1>   0.1500 
@<TRIPOS>BOND
  1   1   2  1   
  2   1   3  1   
  3   2   4  1   
  4   2  26  1   
  5   2  27  1   
  6   3   5  1   
  7   3  28  1   
  8   3  29  1   
  9   4   6  1   
 10   4  30  1   
 11   4  31  1   
 12   5   6  1   
 13   5  32  1   
 14   5  33  1   
 15   6   7  1   
 16   7   8  ar  
 17   7   9  ar  
 18   8  10  ar  
 19   9  11  ar  
 20   9  34  1   
 21  10  12  1   
 22  10  13  ar  
 23  11  13  ar  
 24  11  14  1   
 25  12  15  1   
 26  12  16  1   
 27  13  35  1   
 28  14  36  1   
 29  14  37  1   
 30  14  38  1   
 31  15  17  1   
 32  15  18  1   
 33  15  39  1   
 34  16  40  1   
 35  16  41  1   
 36  16  42  1   
 37  17  19  ar  
 38  17  20  ar  
 39  18  21  1   
 40  18  43  1   
 41  18  44  1   
 42  19  22  ar  
 43  20  23  ar  
 44  20  45  1   
 45  21  24  1   
 46  22  25  ar  
 47  22  46  1   
 48  23  25  ar  
 49  23  47  1   
 50  24  48  1   
 51  24  49  1   
 52  24  50  1   
 53  25  51  1   
@<TRIPOS>SUBSTRUCTURE
  1 ****   8 GROUP 4 **** **** 0

# MOE 2024.06 (io_trps.svl 2023.06)
