@<TRIPOS>MOLECULE
NONAME
53 55 1 0 0 
SMALL
USER_CHARGES


@<TRIPOS>ATOM
  1 O       -0.6710     0.1950    -1.1520 O.2   1 <1>  -0.5700 
  2 C       -1.6460     0.7790    -0.7150 C.2   1 <1>   0.6900 
  3 N       -2.9060     0.4650    -1.1500 N.am  1 <1>  -0.6600 
  4 N       -1.4940     1.7570     0.2110 N.am  1 <1>  -0.7300 
  5 C       -4.1280     0.6090    -0.3170 C.3   1 <1>   0.1400 
  6 C       -3.1090    -0.3810    -2.3550 C.3   1 <1>   0.1400 
  7 C       -0.2050     2.2470     0.7390 C.3   1 <1>   0.1400 
  8 C       -4.5570    -0.7790     0.1640 C.3   1 <1>  -0.1600 
  9 C       -3.5290    -1.7840    -1.9130 C.3   1 <1>  -0.1600 
 10 C       -0.0380     3.7180     0.3580 C.3   1 <1>  -0.1600 
 11 C       -4.7710    -1.7540    -1.0090 C.3   1 <1>   0.4240 
 12 C        1.2840     4.2840     0.8880 C.3   1 <1>  -0.2400 
 13 O       -5.8040    -1.2390    -1.8160 O.3   1 <1>  -0.5600 
 14 C       -5.0930    -3.1760    -0.4970 C.ar  1 <1>  -0.1440 
 15 C       -7.1180    -1.5230    -1.4460 C.3   1 <1>   0.1200 
 16 C       -6.3160    -3.7750    -0.7660 C.ar  1 <1>  -0.1440 
 17 C       -4.1580    -3.8830     0.2510 C.ar  1 <1>  -0.1500 
 18 C       -7.3550    -3.0250    -1.5740 C.3   1 <1>  -0.0170 
 19 C       -6.5900    -5.0480    -0.2960 C.ar  1 <1>  -0.1500 
 20 C       -4.4150    -5.1680     0.7220 C.ar  1 <1>   0.0820 
 21 C       -5.6630    -5.7520     0.4530 C.ar  1 <1>   0.0820 
 22 O       -3.4680    -5.8610     1.4200 O.3   1 <1>  -0.3620 
 23 O       -6.0770    -6.9860     0.8610 O.3   1 <1>  -0.3620 
 24 C       -2.1020    -5.5110     1.3610 C.3   1 <1>   0.0400 
 25 C       -5.6040    -7.5610     2.0580 C.3   1 <1>   0.0400 
 26 H       -2.3040     2.3430     0.3900 H     1 <1>   0.3700 
 27 H       -4.9090     1.0540    -0.9100 H     1 <1>   0.0800 
 28 H       -3.9460     1.2410     0.5330 H     1 <1>   0.0800 
 29 H       -2.2040    -0.4340    -2.9370 H     1 <1>   0.0800 
 30 H       -3.8750     0.0580    -2.9720 H     1 <1>   0.0800 
 31 H        0.6070     1.6680     0.3310 H     1 <1>   0.0800 
 32 H       -0.1970     2.1350     1.8090 H     1 <1>   0.0800 
 33 H       -5.4510    -0.7070     0.7520 H     1 <1>   0.0800 
 34 H       -3.7860    -1.1580     0.8090 H     1 <1>   0.0800 
 35 H       -2.6980    -2.2250    -1.3970 H     1 <1>   0.0800 
 36 H       -3.7340    -2.3930    -2.7740 H     1 <1>   0.0800 
 37 H       -0.8530     4.2920     0.7640 H     1 <1>   0.0800 
 38 H       -0.0530     3.8070    -0.7150 H     1 <1>   0.0800 
 39 H        1.3210     4.2190     1.9610 H     1 <1>   0.0800 
 40 H        1.3820     5.3170     0.6040 H     1 <1>   0.0800 
 41 H        2.1160     3.7370     0.4790 H     1 <1>   0.0800 
 42 H       -7.7720    -0.9820    -2.1080 H     1 <1>   0.0800 
 43 H       -7.2830    -1.1910    -0.4370 H     1 <1>   0.0800 
 44 H       -3.2190    -3.4150     0.4660 H     1 <1>   0.1500 
 45 H       -7.2860    -3.3120    -2.6080 H     1 <1>   0.0800 
 46 H       -8.3420    -3.2600    -1.2210 H     1 <1>   0.0800 
 47 H       -7.5360    -5.5120    -0.5060 H     1 <1>   0.1500 
 48 H       -1.5360    -6.2940     1.8330 H     1 <1>   0.0800 
 49 H       -1.9530    -4.5870     1.8900 H     1 <1>   0.0800 
 50 H       -1.8080    -5.4190     0.3300 H     1 <1>   0.0800 
 51 H       -6.2890    -8.3360     2.3510 H     1 <1>   0.0800 
 52 H       -5.5570    -6.8020     2.8190 H     1 <1>   0.0800 
 53 H       -4.6320    -7.9840     1.8790 H     1 <1>   0.0800 
@<TRIPOS>BOND
  1   1   2  2   
  2   2   3  am  
  3   2   4  am  
  4   3   5  1   
  5   3   6  1   
  6   4   7  1   
  7   4  26  1   
  8   5   8  1   
  9   5  27  1   
 10   5  28  1   
 11   6   9  1   
 12   6  29  1   
 13   6  30  1   
 14   7  10  1   
 15   7  31  1   
 16   7  32  1   
 17   8  11  1   
 18   8  33  1   
 19   8  34  1   
 20   9  11  1   
 21   9  35  1   
 22   9  36  1   
 23  10  12  1   
 24  10  37  1   
 25  10  38  1   
 26  11  13  1   
 27  11  14  1   
 28  12  39  1   
 29  12  40  1   
 30  12  41  1   
 31  13  15  1   
 32  14  16  ar  
 33  14  17  ar  
 34  15  18  1   
 35  15  42  1   
 36  15  43  1   
 37  16  18  1   
 38  16  19  ar  
 39  17  20  ar  
 40  17  44  1   
 41  18  45  1   
 42  18  46  1   
 43  19  21  ar  
 44  19  47  1   
 45  20  21  ar  
 46  20  22  1   
 47  21  23  1   
 48  22  24  1   
 49  23  25  1   
 50  24  48  1   
 51  24  49  1   
 52  24  50  1   
 53  25  51  1   
 54  25  52  1   
 55  25  53  1   
@<TRIPOS>SUBSTRUCTURE
  1 ****  11 GROUP 4 **** **** 0

# MOE 2024.06 (io_trps.svl 2023.06)
