@<TRIPOS>MOLECULE
NONAME
57 59 1 0 0 
SMALL
USER_CHARGES


@<TRIPOS>ATOM
  1 O       -0.6800    -0.0510     0.4760 O.2   1 <1>  -0.5700 
  2 C       -1.6950     0.6180     0.5360 C.2   1 <1>   0.5440 
  3 N       -1.5760     1.9850     0.6910 N.am  1 <1>  -0.6600 
  4 C       -2.9770    -0.0370     0.4280 C.ar  1 <1>   0.0860 
  5 C       -2.5800     2.9670     0.1790 C.3   1 <1>   0.1400 
  6 C       -0.2900     2.6250     1.1020 C.3   1 <1>   0.1400 
  7 C       -3.1680    -1.0660    -0.4910 C.ar  1 <1>   0.1600 
  8 C       -4.0690     0.3000     1.2230 C.ar  1 <1>  -0.1500 
  9 C       -1.9380     3.9110    -0.8540 C.3   1 <1>   0.1200 
 10 C        0.2160     3.5770     0.0080 C.3   1 <1>   0.1200 
 11 N       -4.2940    -1.7280    -0.6970 N.ar  1 <1>  -0.6200 
 12 C       -5.2450    -0.3830     1.0290 C.ar  1 <1>  -0.1500 
 13 O       -0.7790     4.5000    -0.3380 O.3   1 <1>  -0.5600 
 14 C       -5.3290    -1.3830     0.0620 C.ar  1 <1>   0.4100 
 15 N       -6.5180    -2.0520    -0.1370 N.pl3 1 <1>  -0.8380 
 16 C       -6.5050    -3.4740    -0.5770 C.3   1 <1>   0.2090 
 17 C       -7.7460    -1.2770    -0.4670 C.3   1 <1>   0.1290 
 18 C       -7.5320    -4.2820     0.2170 C.3   1 <1>  -0.1600 
 19 C       -7.4400    -5.7630    -0.1420 C.3   1 <1>   0.1200 
 20 O       -8.4380    -6.4530     0.5730 O.3   1 <1>  -0.3630 
 21 C       -8.5990    -7.7940     0.4400 C.ar  1 <1>   0.0820 
 22 C       -9.6230    -8.3750     1.1700 C.ar  1 <1>  -0.1500 
 23 C       -7.8050    -8.5940    -0.3770 C.ar  1 <1>  -0.1500 
 24 C       -9.8570    -9.7370     1.0910 C.ar  1 <1>  -0.1500 
 25 C       -8.0420    -9.9560    -0.4540 C.ar  1 <1>  -0.1500 
 26 C       -9.0670   -10.5360     0.2790 C.ar  1 <1>  -0.1430 
 27 C       -9.3230   -12.0320     0.1910 C.3   1 <1>  -0.0170 
 28 C      -10.3140   -12.3430    -0.9330 C.3   1 <1>  -0.2400 
 29 H       -2.9570     3.5490     1.0020 H     1 <1>   0.0800 
 30 H       -3.4080     2.4610    -0.2840 H     1 <1>   0.0800 
 31 H        0.4610     1.8800     1.3030 H     1 <1>   0.0800 
 32 H       -0.4470     3.1820     2.0090 H     1 <1>   0.0800 
 33 H       -2.3230    -1.3520    -1.0940 H     1 <1>   0.1500 
 34 H       -3.9820     1.0680     1.9720 H     1 <1>   0.1500 
 35 H       -2.6210     4.7010    -1.1100 H     1 <1>   0.0800 
 36 H       -1.6810     3.3720    -1.7500 H     1 <1>   0.0800 
 37 H        0.4990     3.0240    -0.8710 H     1 <1>   0.0800 
 38 H        1.0700     4.1290     0.3600 H     1 <1>   0.0800 
 39 H       -6.1120    -0.1670     1.6220 H     1 <1>   0.1500 
 40 H       -5.5280    -3.8950    -0.4080 H     1 <1>   0.0800 
 41 H       -6.7140    -3.5250    -1.6320 H     1 <1>   0.0800 
 42 H       -7.5320    -0.2230    -0.4880 H     1 <1>   0.0800 
 43 H       -8.5030    -1.4660     0.2730 H     1 <1>   0.0800 
 44 H       -8.1150    -1.5680    -1.4350 H     1 <1>   0.0800 
 45 H       -8.5220    -3.9300    -0.0070 H     1 <1>   0.0800 
 46 H       -7.3350    -4.1610     1.2670 H     1 <1>   0.0800 
 47 H       -6.4810    -6.1650     0.1400 H     1 <1>   0.0800 
 48 H       -7.6140    -5.9130    -1.1930 H     1 <1>   0.0800 
 49 H      -10.2340    -7.7550     1.7990 H     1 <1>   0.1500 
 50 H       -7.0030    -8.1810    -0.9570 H     1 <1>   0.1500 
 51 H      -10.6570   -10.1720     1.6630 H     1 <1>   0.1500 
 52 H       -7.4250   -10.5660    -1.0890 H     1 <1>   0.1500 
 53 H       -9.7160   -12.3870     1.1280 H     1 <1>   0.0800 
 54 H       -8.3970   -12.5490     0.0100 H     1 <1>   0.0800 
 55 H      -11.2480   -11.8420    -0.7510 H     1 <1>   0.0800 
 56 H      -10.4920   -13.4010    -0.9880 H     1 <1>   0.0800 
 57 H       -9.9210   -12.0060    -1.8760 H     1 <1>   0.0800 
@<TRIPOS>BOND
  1   1   2  2   
  2   2   3  am  
  3   2   4  1   
  4   3   5  1   
  5   3   6  1   
  6   4   7  ar  
  7   4   8  ar  
  8   5   9  1   
  9   5  29  1   
 10   5  30  1   
 11   6  10  1   
 12   6  31  1   
 13   6  32  1   
 14   7  11  ar  
 15   7  33  1   
 16   8  12  ar  
 17   8  34  1   
 18   9  13  1   
 19   9  35  1   
 20   9  36  1   
 21  10  13  1   
 22  10  37  1   
 23  10  38  1   
 24  11  14  ar  
 25  12  14  ar  
 26  12  39  1   
 27  14  15  1   
 28  15  16  1   
 29  15  17  1   
 30  16  18  1   
 31  16  40  1   
 32  16  41  1   
 33  17  42  1   
 34  17  43  1   
 35  17  44  1   
 36  18  19  1   
 37  18  45  1   
 38  18  46  1   
 39  19  20  1   
 40  19  47  1   
 41  19  48  1   
 42  20  21  1   
 43  21  22  ar  
 44  21  23  ar  
 45  22  24  ar  
 46  22  49  1   
 47  23  25  ar  
 48  23  50  1   
 49  24  26  ar  
 50  24  51  1   
 51  25  26  ar  
 52  25  52  1   
 53  26  27  1   
 54  27  28  1   
 55  27  53  1   
 56  27  54  1   
 57  28  55  1   
 58  28  56  1   
 59  28  57  1   
@<TRIPOS>SUBSTRUCTURE
  1 ****  16 GROUP 4 **** **** 0

# MOE 2024.06 (io_trps.svl 2023.06)
