@<TRIPOS>MOLECULE
NONAME
47 49 1 0 0 
SMALL
USER_CHARGES


@<TRIPOS>ATOM
  1 S        0.2470     0.0470    -0.6370 S.o2  1 <1>   1.3330 
  2 O        1.6850     0.0350    -0.7810 O.2   1 <1>  -0.6500 
  3 O       -0.5880     0.1070    -1.8150 O.2   1 <1>  -0.6500 
  4 N       -0.2000    -1.3190     0.2660 N.am  1 <1>  -0.8490 
  5 C       -0.2250     1.4080     0.4250 C.3   1 <1>  -0.0550 
  6 C       -0.5050    -2.4710    -0.5880 C.3   1 <1>   0.1160 
  7 C        0.7930    -1.6980     1.2780 C.3   1 <1>   0.1160 
  8 C       -0.0010     2.7880    -0.2250 C.3   1 <1>  -0.0800 
  9 C       -0.5390     3.9650     0.5910 C.3   1 <1>   0.2000 
 10 C        1.4740     3.1380    -0.4700 C.3   1 <1>   0.1400 
 11 O       -0.1730     3.8000     1.9190 O.3   1 <1>  -0.6800 
 12 C        0.2200     5.1650     0.0320 C.3   1 <1>   0.1400 
 13 N        1.5510     4.6170    -0.3380 N.am  1 <1>  -0.6600 
 14 C        2.7470     5.3060    -0.3300 C.2   1 <1>   0.7150 
 15 O        3.7740     4.6530    -0.2770 O.2   1 <1>  -0.5700 
 16 C        2.8390     6.7480    -0.3660 C.2   1 <1>   0.0550 
 17 O        1.7960     7.4980    -0.6850 O.3   1 <1>  -0.0190 
 18 C        3.9010     7.5400    -0.1220 C.2   1 <1>  -0.1500 
 19 N        2.1760     8.7500    -0.6310 N.2   1 <1>  -0.4100 
 20 C        3.4280     8.8230    -0.3050 C.2   1 <1>   0.2350 
 21 C        4.1870    10.0520    -0.1570 C.ar  1 <1>   0.0540 
 22 C        5.5820    10.0640    -0.1870 C.ar  1 <1>  -0.1500 
 23 C        3.5410    11.2760     0.0220 C.ar  1 <1>  -0.1500 
 24 C        6.2970    11.2390    -0.0380 C.ar  1 <1>  -0.1500 
 25 C        4.2490    12.4540     0.1710 C.ar  1 <1>  -0.1500 
 26 C        5.6320    12.4380     0.1420 C.ar  1 <1>  -0.1500 
 27 H       -1.2660     1.3100     0.6650 H     1 <1>   0.0800 
 28 H        0.3250     1.3490     1.3440 H     1 <1>   0.0800 
 29 H       -0.8010    -3.3130     0.0140 H     1 <1>   0.0800 
 30 H        0.3570    -2.7400    -1.1760 H     1 <1>   0.0800 
 31 H       -1.3170    -2.2320    -1.2530 H     1 <1>   0.0800 
 32 H        0.4200    -2.5140     1.8730 H     1 <1>   0.0800 
 33 H        0.9940    -0.8670     1.9310 H     1 <1>   0.0800 
 34 H        1.7150    -2.0000     0.8080 H     1 <1>   0.0800 
 35 H       -0.4990     2.7990    -1.1800 H     1 <1>   0.0800 
 36 H       -1.6090     4.0740     0.5390 H     1 <1>   0.0800 
 37 H        1.7970     2.8270    -1.4500 H     1 <1>   0.0800 
 38 H        2.1110     2.6810     0.2700 H     1 <1>   0.0800 
 39 H        0.7990     3.8910     1.9940 H     1 <1>   0.4000 
 40 H        0.2900     5.9590     0.7570 H     1 <1>   0.0800 
 41 H       -0.2680     5.5290    -0.8560 H     1 <1>   0.0800 
 42 H        4.8940     7.2450     0.1580 H     1 <1>   0.1500 
 43 H        6.1220     9.1470    -0.3340 H     1 <1>   0.1500 
 44 H        2.4650    11.3020     0.0450 H     1 <1>   0.1500 
 45 H        7.3730    11.2230    -0.0640 H     1 <1>   0.1500 
 46 H        3.7250    13.3840     0.3080 H     1 <1>   0.1500 
 47 H        6.1860    13.3540     0.2580 H     1 <1>   0.1500 
@<TRIPOS>BOND
  1   1   2  2   
  2   1   3  2   
  3   1   4  am  
  4   1   5  1   
  5   4   6  1   
  6   4   7  1   
  7   5   8  1   
  8   5  27  1   
  9   5  28  1   
 10   6  29  1   
 11   6  30  1   
 12   6  31  1   
 13   7  32  1   
 14   7  33  1   
 15   7  34  1   
 16   8   9  1   
 17   8  10  1   
 18   8  35  1   
 19   9  11  1   
 20   9  12  1   
 21   9  36  1   
 22  10  13  1   
 23  10  37  1   
 24  10  38  1   
 25  11  39  1   
 26  12  13  1   
 27  12  40  1   
 28  12  41  1   
 29  13  14  am  
 30  14  15  2   
 31  14  16  1   
 32  16  17  1   
 33  16  18  2   
 34  17  19  1   
 35  18  20  1   
 36  18  42  1   
 37  19  20  2   
 38  20  21  1   
 39  21  22  ar  
 40  21  23  ar  
 41  22  24  ar  
 42  22  43  1   
 43  23  25  ar  
 44  23  44  1   
 45  24  26  ar  
 46  24  45  1   
 47  25  26  ar  
 48  25  46  1   
 49  26  47  1   
@<TRIPOS>SUBSTRUCTURE
  1 ****  14 GROUP 4 **** **** 0

# MOE 2024.06 (io_trps.svl 2023.06)
