@<TRIPOS>MOLECULE
NONAME
48 50 1 0 0 
SMALL
USER_CHARGES


@<TRIPOS>ATOM
  1 O       -0.5290     0.4810     0.8580 O.2   1 <1>  -0.5700 
  2 C       -1.5380     1.0140     0.4330 C.2   1 <1>   0.7160 
  3 N       -2.6800     0.2510     0.3230 N.am  1 <1>  -0.6600 
  4 C       -1.5240     2.4040     0.0420 C.2   1 <1>  -0.0860 
  5 C       -3.8250     0.5870    -0.5620 C.3   1 <1>   0.1400 
  6 C       -2.7110    -1.1930     0.6740 C.3   1 <1>   0.1400 
  7 C       -0.5010     3.0660    -0.6490 C.2   1 <1>   0.1080 
  8 C       -2.4450     3.3910     0.2350 C.2   1 <1>  -0.3020 
  9 C       -4.7760    -0.6020    -0.4330 C.3   1 <1>   0.2000 
 10 C       -3.8420    -1.7880    -0.1730 C.3   1 <1>  -0.0800 
 11 N       -0.7670     4.3120    -0.8720 N.2   1 <1>  -0.7070 
 12 C        0.7960     2.4350    -1.1090 C.3   1 <1>  -0.0590 
 13 N       -1.9700     4.5170    -0.3170 N.pl3 1 <1>   0.3140 
 14 O       -5.5770    -0.3900     0.6790 O.3   1 <1>  -0.6800 
 15 C       -4.5150    -3.0200     0.4610 C.3   1 <1>   0.0200 
 16 C       -2.6200     5.8410    -0.3370 C.3   1 <1>   0.0960 
 17 C       -3.5860    -4.2170     0.5730 C.2   1 <1>  -0.0400 
 18 C       -2.3520     6.6010     0.9700 C.3   1 <1>  -0.1600 
 19 O       -3.9990    -5.2700     1.2250 O.3   1 <1>  -0.0190 
 20 C       -2.3460    -4.4760     0.1250 C.2   1 <1>  -0.1500 
 21 C       -3.0230     7.9790     0.9630 C.3   1 <1>  -0.2400 
 22 N       -3.1050    -6.2160     1.2430 N.2   1 <1>  -0.4100 
 23 C       -2.0970    -5.7650     0.5870 C.2   1 <1>   0.1080 
 24 C       -0.8190    -6.5390     0.3550 C.3   1 <1>  -0.0590 
 25 H       -4.3070     1.5040    -0.2730 H     1 <1>   0.0800 
 26 H       -3.4720     0.6700    -1.5760 H     1 <1>   0.0800 
 27 H       -1.7670    -1.6640     0.4600 H     1 <1>   0.0800 
 28 H       -2.9240    -1.2910     1.7250 H     1 <1>   0.0800 
 29 H       -3.3900     3.3420     0.7410 H     1 <1>   0.1500 
 30 H       -5.4100    -0.7330    -1.2920 H     1 <1>   0.0800 
 31 H       -3.4220    -2.0800    -1.1200 H     1 <1>   0.0800 
 32 H        0.5960     1.5220    -1.6380 H     1 <1>   0.0800 
 33 H        1.4130     2.2210    -0.2560 H     1 <1>   0.0800 
 34 H        1.3220     3.1090    -1.7590 H     1 <1>   0.0800 
 35 H       -5.0130    -0.1180     1.4310 H     1 <1>   0.4000 
 36 H       -5.3670    -3.3060    -0.1310 H     1 <1>   0.0800 
 37 H       -4.8730    -2.7770     1.4460 H     1 <1>   0.0800 
 38 H       -2.2290     6.3930    -1.1720 H     1 <1>   0.0800 
 39 H       -3.6760     5.7020    -0.4790 H     1 <1>   0.0800 
 40 H       -2.7240     6.0300     1.8030 H     1 <1>   0.0800 
 41 H       -1.2880     6.7260     1.0910 H     1 <1>   0.0800 
 42 H       -1.6700    -3.8740    -0.4520 H     1 <1>   0.1500 
 43 H       -4.0890     7.8820     0.8610 H     1 <1>   0.0800 
 44 H       -2.6480     8.5770     0.1500 H     1 <1>   0.0800 
 45 H       -2.8140     8.4930     1.8850 H     1 <1>   0.0800 
 46 H        0.0110    -6.0100     0.7860 H     1 <1>   0.0800 
 47 H       -0.6530    -6.6640    -0.6990 H     1 <1>   0.0800 
 48 H       -0.8890    -7.5090     0.8140 H     1 <1>   0.0800 
@<TRIPOS>BOND
  1   1   2  2   
  2   2   3  am  
  3   2   4  1   
  4   3   5  1   
  5   3   6  1   
  6   4   7  1   
  7   4   8  2   
  8   5   9  1   
  9   5  25  1   
 10   5  26  1   
 11   6  10  1   
 12   6  27  1   
 13   6  28  1   
 14   7  11  2   
 15   7  12  1   
 16   8  13  1   
 17   8  29  1   
 18   9  10  1   
 19   9  14  1   
 20   9  30  1   
 21  10  15  1   
 22  10  31  1   
 23  11  13  1   
 24  12  32  1   
 25  12  33  1   
 26  12  34  1   
 27  13  16  1   
 28  14  35  1   
 29  15  17  1   
 30  15  36  1   
 31  15  37  1   
 32  16  18  1   
 33  16  38  1   
 34  16  39  1   
 35  17  19  1   
 36  17  20  2   
 37  18  21  1   
 38  18  40  1   
 39  18  41  1   
 40  19  22  1   
 41  20  23  1   
 42  20  42  1   
 43  21  43  1   
 44  21  44  1   
 45  21  45  1   
 46  22  23  2   
 47  23  24  1   
 48  24  46  1   
 49  24  47  1   
 50  24  48  1   
@<TRIPOS>SUBSTRUCTURE
  1 ****   3 GROUP 4 **** **** 0

# MOE 2024.06 (io_trps.svl 2023.06)
