@<TRIPOS>MOLECULE
NONAME
44 46 1 0 0 
SMALL
USER_CHARGES


@<TRIPOS>ATOM
  1 CL      -3.6970     0.0880    -2.2440 Cl    1 <1>  -0.1770 
  2 C       -2.7770     0.5070    -0.8200 C.ar  1 <1>   0.1770 
  3 C       -2.3730    -0.4700     0.0750 C.ar  1 <1>   0.0860 
  4 C       -2.4570     1.8350    -0.6000 C.ar  1 <1>   0.1600 
  5 C       -2.6880    -1.8670    -0.0920 C.2   1 <1>   0.5440 
  6 C       -1.6360    -0.0060     1.1550 C.ar  1 <1>  -0.1500 
  7 N       -1.7620     2.2780     0.4380 N.ar  1 <1>  -0.6200 
  8 O       -1.8130    -2.6140    -0.4840 O.2   1 <1>  -0.5700 
  9 N       -3.9340    -2.3660     0.2140 N.am  1 <1>  -0.6600 
 10 C       -1.3640     1.3440     1.2880 C.ar  1 <1>   0.1600 
 11 C       -4.3040    -3.8000    -0.0150 C.3   1 <1>   0.1400 
 12 C       -5.0430    -1.5600     0.8010 C.3   1 <1>   0.1400 
 13 C       -5.5360    -3.8760    -0.9290 C.3   1 <1>   0.2000 
 14 C       -6.2810    -1.6380    -0.1030 C.3   1 <1>  -0.1600 
 15 O       -5.8700    -5.2040    -1.1380 O.3   1 <1>  -0.6800 
 16 C       -6.7490    -3.1030    -0.3480 C.3   1 <1>  -0.1060 
 17 C       -7.2000    -3.7830     0.9610 C.2   1 <1>   0.9060 
 18 C       -7.9120    -3.1390    -1.3770 C.3   1 <1>  -0.0170 
 19 O       -7.3390    -5.0160     0.9720 O.co2 1 <1>  -0.9000 
 20 O       -7.4070    -3.1170     1.9830 O.co2 1 <1>  -0.9000 
 21 C       -8.9880    -2.0730    -1.1850 C.ar  1 <1>  -0.1430 
 22 C       -9.8360    -2.1140    -0.0880 C.ar  1 <1>  -0.1500 
 23 C       -9.1310    -1.0480    -2.1090 C.ar  1 <1>  -0.1500 
 24 C      -10.8090    -1.1460     0.0840 C.ar  1 <1>  -0.1500 
 25 C      -10.1060    -0.0790    -1.9400 C.ar  1 <1>  -0.1500 
 26 C      -10.9460    -0.1270    -0.8420 C.ar  1 <1>  -0.1500 
 27 H       -2.7920     2.5650    -1.3170 H     1 <1>   0.1500 
 28 H       -1.2770    -0.7080     1.8860 H     1 <1>   0.1500 
 29 H       -0.7890     1.6750     2.1380 H     1 <1>   0.1500 
 30 H       -3.4910    -4.3310    -0.4780 H     1 <1>   0.0800 
 31 H       -4.5210    -4.2620     0.9330 H     1 <1>   0.0800 
 32 H       -5.2750    -1.9480     1.7790 H     1 <1>   0.0800 
 33 H       -4.7590    -0.5310     0.9230 H     1 <1>   0.0800 
 34 H       -5.2620    -3.4710    -1.8870 H     1 <1>   0.0800 
 35 H       -7.0710    -1.0830     0.3720 H     1 <1>   0.0800 
 36 H       -6.0650    -1.1590    -1.0400 H     1 <1>   0.0800 
 37 H       -6.4460    -5.4620    -0.3530 H     1 <1>   0.4000 
 38 H       -7.5030    -3.0320    -2.3650 H     1 <1>   0.0800 
 39 H       -8.3810    -4.1080    -1.3460 H     1 <1>   0.0800 
 40 H       -9.7330    -2.9000     0.6430 H     1 <1>   0.1500 
 41 H       -8.4810    -1.0000    -2.9640 H     1 <1>   0.1500 
 42 H      -11.4530    -1.1910     0.9450 H     1 <1>   0.1500 
 43 H      -10.2100     0.7110    -2.6620 H     1 <1>   0.1500 
 44 H      -11.7020     0.6240    -0.7060 H     1 <1>   0.1500 
@<TRIPOS>BOND
  1   1   2  1   
  2   2   3  ar  
  3   2   4  ar  
  4   3   5  1   
  5   3   6  ar  
  6   4   7  ar  
  7   4  27  1   
  8   5   8  2   
  9   5   9  am  
 10   6  10  ar  
 11   6  28  1   
 12   7  10  ar  
 13   9  11  1   
 14   9  12  1   
 15  10  29  1   
 16  11  13  1   
 17  11  30  1   
 18  11  31  1   
 19  12  14  1   
 20  12  32  1   
 21  12  33  1   
 22  13  15  1   
 23  13  16  1   
 24  13  34  1   
 25  14  16  1   
 26  14  35  1   
 27  14  36  1   
 28  15  37  1   
 29  16  17  1   
 30  16  18  1   
 31  17  19  ar  
 32  17  20  ar  
 33  18  21  1   
 34  18  38  1   
 35  18  39  1   
 36  21  22  ar  
 37  21  23  ar  
 38  22  24  ar  
 39  22  40  1   
 40  23  25  ar  
 41  23  41  1   
 42  24  26  ar  
 43  24  42  1   
 44  25  26  ar  
 45  25  43  1   
 46  26  44  1   
@<TRIPOS>SUBSTRUCTURE
  1 ****  14 GROUP 4 **** **** 0

# MOE 2024.06 (io_trps.svl 2023.06)
