@<TRIPOS>MOLECULE
NONAME
56 57 1 0 0 
SMALL
USER_CHARGES


@<TRIPOS>ATOM
  1 O       -0.8820     0.0360    -2.1150 O.2   1 <1>  -0.5700 
  2 C       -1.2810     0.8410    -1.2990 C.2   1 <1>   0.5690 
  3 N       -2.3950     0.5280    -0.5310 N.am  1 <1>  -0.6600 
  4 C       -0.5070     2.1990    -1.2030 C.3   1 <1>   0.3410 
  5 C       -2.9950    -0.8480    -0.6020 C.3   1 <1>   0.1400 
  6 C       -3.0370     1.4280     0.4740 C.3   1 <1>   0.1400 
  7 O       -0.3450     2.5440     0.1780 O.3   1 <1>  -0.3630 
  8 C        0.9060     2.0960    -1.8190 C.3   1 <1>  -0.2400 
  9 C       -1.2880     3.2990    -1.9500 C.3   1 <1>  -0.2400 
 10 C       -4.5230    -0.7910    -0.7730 C.3   1 <1>   0.2000 
 11 C       -4.5530     1.4840     0.2490 C.3   1 <1>  -0.1600 
 12 C        0.2220     3.7060     0.5780 C.ar  1 <1>   0.0820 
 13 O       -5.0300    -2.0880    -0.7660 O.3   1 <1>  -0.6800 
 14 C       -5.2300     0.0900     0.2960 C.3   1 <1>   0.0000 
 15 C       -0.5490     4.8500     0.7210 C.ar  1 <1>  -0.1500 
 16 C        1.5710     3.7340     0.8970 C.ar  1 <1>  -0.1500 
 17 C       -5.0560    -0.5510     1.7030 C.3   1 <1>   0.1200 
 18 C       -6.7550     0.2240     0.0100 C.3   1 <1>  -0.1600 
 19 C        0.0300     6.0340     1.1480 C.ar  1 <1>  -0.1430 
 20 C        2.1520     4.9140     1.3260 C.ar  1 <1>  -0.1500 
 21 O       -5.5830     0.2510     2.7060 O.3   1 <1>  -0.6800 
 22 C       -7.1620     0.7310    -1.3870 C.3   1 <1>  -0.1600 
 23 C        1.3830     6.0600     1.4470 C.ar  1 <1>  -0.1500 
 24 C       -0.8060     7.2920     1.2960 C.3   1 <1>  -0.0970 
 25 C       -8.6850     0.8420    -1.4990 C.3   1 <1>  -0.2400 
 26 H       -2.5900    -1.3950    -1.4350 H     1 <1>   0.0800 
 27 H       -2.7370    -1.3780     0.2960 H     1 <1>   0.0800 
 28 H       -2.8080     1.0720     1.4630 H     1 <1>   0.0800 
 29 H       -2.6630     2.4300     0.4000 H     1 <1>   0.0800 
 30 H        0.8370     1.7990    -2.8500 H     1 <1>   0.0800 
 31 H        1.4800     1.3530    -1.2960 H     1 <1>   0.0800 
 32 H        1.4180     3.0400    -1.7850 H     1 <1>   0.0800 
 33 H       -1.4400     2.9920    -2.9690 H     1 <1>   0.0800 
 34 H       -0.7400     4.2230    -1.9650 H     1 <1>   0.0800 
 35 H       -2.2530     3.4580    -1.5090 H     1 <1>   0.0800 
 36 H       -4.7120    -0.3940    -1.7540 H     1 <1>   0.0800 
 37 H       -4.9950     2.1400     0.9760 H     1 <1>   0.0800 
 38 H       -4.7100     1.9360    -0.7130 H     1 <1>   0.0800 
 39 H       -4.9030    -2.5130     0.1020 H     1 <1>   0.4000 
 40 H       -1.5990     4.8090     0.5000 H     1 <1>   0.1500 
 41 H        2.1560     2.8370     0.8100 H     1 <1>   0.1500 
 42 H       -4.0220    -0.7240     1.9410 H     1 <1>   0.0800 
 43 H       -5.5760    -1.4930     1.7520 H     1 <1>   0.0800 
 44 H       -7.2140    -0.7400     0.1540 H     1 <1>   0.0800 
 45 H       -7.1890     0.8820     0.7440 H     1 <1>   0.0800 
 46 H        3.2000     4.9400     1.5680 H     1 <1>   0.1500 
 47 H       -5.1630     1.1310     2.7050 H     1 <1>   0.4000 
 48 H       -6.7360     1.6990    -1.5810 H     1 <1>   0.0800 
 49 H       -6.8170     0.0490    -2.1450 H     1 <1>   0.0800 
 50 H        1.8440     6.9730     1.7820 H     1 <1>   0.1500 
 51 H       -0.2360     8.1550     1.0000 H     1 <1>   0.0800 
 52 H       -1.1070     7.4090     2.3210 H     1 <1>   0.0800 
 53 H       -1.6850     7.2400     0.6790 H     1 <1>   0.0800 
 54 H       -9.0680     1.5350    -0.7710 H     1 <1>   0.0800 
 55 H       -9.1440    -0.1180    -1.3390 H     1 <1>   0.0800 
 56 H       -8.9570     1.1900    -2.4800 H     1 <1>   0.0800 
@<TRIPOS>BOND
  1   1   2  2   
  2   2   3  am  
  3   2   4  1   
  4   3   5  1   
  5   3   6  1   
  6   4   7  1   
  7   4   8  1   
  8   4   9  1   
  9   5  10  1   
 10   5  26  1   
 11   5  27  1   
 12   6  11  1   
 13   6  28  1   
 14   6  29  1   
 15   7  12  1   
 16   8  30  1   
 17   8  31  1   
 18   8  32  1   
 19   9  33  1   
 20   9  34  1   
 21   9  35  1   
 22  10  13  1   
 23  10  14  1   
 24  10  36  1   
 25  11  14  1   
 26  11  37  1   
 27  11  38  1   
 28  12  15  ar  
 29  12  16  ar  
 30  13  39  1   
 31  14  17  1   
 32  14  18  1   
 33  15  19  ar  
 34  15  40  1   
 35  16  20  ar  
 36  16  41  1   
 37  17  21  1   
 38  17  42  1   
 39  17  43  1   
 40  18  22  1   
 41  18  44  1   
 42  18  45  1   
 43  19  23  ar  
 44  19  24  1   
 45  20  23  ar  
 46  20  46  1   
 47  21  47  1   
 48  22  25  1   
 49  22  48  1   
 50  22  49  1   
 51  23  50  1   
 52  24  51  1   
 53  24  52  1   
 54  24  53  1   
 55  25  54  1   
 56  25  55  1   
 57  25  56  1   
@<TRIPOS>SUBSTRUCTURE
  1 ****   6 GROUP 4 **** **** 0

# MOE 2024.06 (io_trps.svl 2023.06)
