@<TRIPOS>MOLECULE
NONAME
47 49 1 0 0 
SMALL
USER_CHARGES


@<TRIPOS>ATOM
  1 O        0.4150    -0.1790    -0.1530 O.3   1 <1>  -0.5600 
  2 C        1.6260     0.3500    -0.5630 C.3   1 <1>   0.2000 
  3 C        0.1780    -1.5170    -0.4810 C.3   1 <1>   0.2640 
  4 C        2.6580     0.1090     0.5420 C.3   1 <1>  -0.1600 
  5 C        1.3870     1.8440    -0.7790 C.3   1 <1>  -0.1600 
  6 C       -1.1520    -1.9410     0.1180 C.ar  1 <1>  -0.1440 
  7 C        3.9360     0.9080     0.2960 C.3   1 <1>   0.3430 
  8 C        2.6950     2.5940    -1.0010 C.3   1 <1>   0.3430 
  9 C       -1.2490    -3.1070     0.8640 C.ar  1 <1>   0.1600 
 10 C       -2.2910    -1.1830    -0.0740 C.ar  1 <1>  -0.1500 
 11 N        3.6100     2.3560     0.1550 N.4   1 <1>  -0.9590 
 12 N       -2.3600    -3.5690     1.4160 N.ar  1 <1>  -0.6200 
 13 C       -3.4580    -1.6460     0.4960 C.ar  1 <1>  -0.1500 
 14 C        4.8800     3.1460     0.0430 C.3   1 <1>   0.3430 
 15 C       -3.4370    -2.8260     1.2190 C.ar  1 <1>   0.1600 
 16 C        4.6770     4.6530     0.2480 C.3   1 <1>   0.0200 
 17 C        6.0190     5.3510     0.1380 C.2   1 <1>   0.0060 
 18 N        7.1050     4.7210    -0.1800 N.2   1 <1>  -0.5650 
 19 N        6.2030     6.6770     0.3580 N.pl3 1 <1>   0.0480 
 20 C        8.0490     5.6800    -0.1690 C.2   1 <1>   0.0770 
 21 C        7.5170     6.8760     0.1580 C.2   1 <1>  -0.3020 
 22 C        5.2220     7.7120     0.7370 C.3   1 <1>   0.0160 
 23 H        1.9290    -0.1110    -1.4910 H     1 <1>   0.0800 
 24 H        0.9770    -2.1210    -0.0900 H     1 <1>   0.0800 
 25 H        0.1410    -1.6080    -1.5530 H     1 <1>   0.0800 
 26 H        2.9090    -0.9350     0.5830 H     1 <1>   0.0800 
 27 H        2.2440     0.3900     1.4950 H     1 <1>   0.0800 
 28 H        0.8790     2.2610     0.0730 H     1 <1>   0.0800 
 29 H        0.7550     1.9780    -1.6400 H     1 <1>   0.0800 
 30 H        4.4180     0.5540    -0.6020 H     1 <1>   0.0800 
 31 H        4.6130     0.7610     1.1220 H     1 <1>   0.0800 
 32 H        2.4860     3.6470    -1.1020 H     1 <1>   0.0800 
 33 H        3.1610     2.2530    -1.9120 H     1 <1>   0.0800 
 34 H       -0.3650    -3.7010     1.0180 H     1 <1>   0.1500 
 35 H       -2.2690    -0.2680    -0.6400 H     1 <1>   0.1500 
 36 H        3.1210     2.6400     1.0150 H     1 <1>   0.4500 
 37 H       -4.3760    -1.0990     0.3830 H     1 <1>   0.1500 
 38 H        5.3320     2.9840    -0.9230 H     1 <1>   0.0800 
 39 H        5.5850     2.8070     0.7850 H     1 <1>   0.0800 
 40 H       -4.3550    -3.1770     1.6590 H     1 <1>   0.1500 
 41 H        4.2670     4.8370     1.2250 H     1 <1>   0.0800 
 42 H        4.0240     5.0540    -0.5040 H     1 <1>   0.0800 
 43 H        9.0790     5.4580    -0.3990 H     1 <1>   0.1500 
 44 H        7.9970     7.8320     0.2540 H     1 <1>   0.1500 
 45 H        4.3980     7.6960     0.0470 H     1 <1>   0.0800 
 46 H        5.6900     8.6790     0.7050 H     1 <1>   0.0800 
 47 H        4.8690     7.5220     1.7340 H     1 <1>   0.0800 
@<TRIPOS>BOND
  1   1   2  1   
  2   1   3  1   
  3   2   4  1   
  4   2   5  1   
  5   2  23  1   
  6   3   6  1   
  7   3  24  1   
  8   3  25  1   
  9   4   7  1   
 10   4  26  1   
 11   4  27  1   
 12   5   8  1   
 13   5  28  1   
 14   5  29  1   
 15   6   9  ar  
 16   6  10  ar  
 17   7  11  1   
 18   7  30  1   
 19   7  31  1   
 20   8  11  1   
 21   8  32  1   
 22   8  33  1   
 23   9  12  ar  
 24   9  34  1   
 25  10  13  ar  
 26  10  35  1   
 27  11  14  1   
 28  11  36  1   
 29  12  15  ar  
 30  13  15  ar  
 31  13  37  1   
 32  14  16  1   
 33  14  38  1   
 34  14  39  1   
 35  15  40  1   
 36  16  17  1   
 37  16  41  1   
 38  16  42  1   
 39  17  18  2   
 40  17  19  1   
 41  18  20  1   
 42  19  21  1   
 43  19  22  1   
 44  20  21  2   
 45  20  43  1   
 46  21  44  1   
 47  22  45  1   
 48  22  46  1   
 49  22  47  1   
@<TRIPOS>SUBSTRUCTURE
  1 ****   5 GROUP 4 **** **** 0

# MOE 2024.06 (io_trps.svl 2023.06)
