@<TRIPOS>MOLECULE
NONAME
48 49 1 0 0 
SMALL
USER_CHARGES


@<TRIPOS>ATOM
  1 O        0.9820    -1.5500     0.3050 O.co2 1 <1>  -0.9000 
  2 C        1.2000    -0.9190    -0.7490 C.2   1 <1>   0.9060 
  3 O        0.2820    -0.3310    -1.3330 O.co2 1 <1>  -0.9000 
  4 C        2.6290    -0.9590    -1.3550 C.3   1 <1>   0.2580 
  5 N        3.2940    -2.2630    -1.0400 N.am  1 <1>  -0.7300 
  6 C        3.5640     0.1530    -0.8720 C.ar  1 <1>  -0.1430 
  7 C        3.1630    -3.3320    -1.8540 C.2   1 <1>   0.5690 
  8 C        3.3790     0.7960     0.3450 C.ar  1 <1>  -0.1500 
  9 C        4.6380     0.5210    -1.6680 C.ar  1 <1>  -0.1500 
 10 O        3.2570    -3.2500    -3.0540 O.2   1 <1>  -0.5700 
 11 C        2.7940    -4.6560    -1.2280 C.3   1 <1>  -0.0990 
 12 C        4.2440     1.7970     0.7590 C.ar  1 <1>  -0.1430 
 13 C        5.5070     1.5170    -1.2610 C.ar  1 <1>  -0.1500 
 14 C        1.5340    -4.4640    -0.3720 C.3   1 <1>   0.0960 
 15 C        5.3100     2.1550    -0.0500 C.ar  1 <1>  -0.1500 
 16 C        4.0140     2.4880     2.0900 C.3   1 <1>  -0.0970 
 17 N        0.9080    -5.7200     0.0940 N.pl3 1 <1>   0.3140 
 18 N        1.5210    -6.9140     0.0420 N.2   1 <1>  -0.7070 
 19 C       -0.3140    -5.8200     0.6490 C.2   1 <1>  -0.3320 
 20 C        0.6750    -7.7470     0.5500 C.2   1 <1>   0.1080 
 21 C       -0.5270    -7.1400     0.9500 C.2   1 <1>  -0.0860 
 22 C       -1.1910    -4.5880     0.8750 C.3   1 <1>  -0.0600 
 23 C        1.0070    -9.2200     0.6650 C.3   1 <1>  -0.0590 
 24 C       -1.6560    -7.8320     1.5190 C.2   1 <1>   0.5950 
 25 O       -1.5770    -8.8800     2.1080 O.2   1 <1>  -0.5700 
 26 C       -3.0490    -7.2610     1.3630 C.3   1 <1>  -0.1790 
 27 H        2.5110    -0.8720    -2.4200 H     1 <1>   0.0800 
 28 H        3.1950    -2.4160    -0.0340 H     1 <1>   0.3700 
 29 H        2.5530     0.5170     0.9790 H     1 <1>   0.1500 
 30 H        4.7950     0.0190    -2.6080 H     1 <1>   0.1500 
 31 H        3.6080    -5.0120    -0.6250 H     1 <1>   0.0800 
 32 H        2.5980    -5.3650    -2.0120 H     1 <1>   0.0800 
 33 H        6.3360     1.7930    -1.8880 H     1 <1>   0.1500 
 34 H        0.8000    -3.9230    -0.9420 H     1 <1>   0.0800 
 35 H        1.7710    -3.8830     0.4990 H     1 <1>   0.0800 
 36 H        5.9890     2.9280     0.2600 H     1 <1>   0.1500 
 37 H        2.9600     2.6100     2.2650 H     1 <1>   0.0800 
 38 H        4.4750     3.4590     2.0980 H     1 <1>   0.0800 
 39 H        4.4330     1.8950     2.8820 H     1 <1>   0.0800 
 40 H       -0.6040    -3.7720     1.2640 H     1 <1>   0.0800 
 41 H       -1.9720    -4.7820     1.5830 H     1 <1>   0.0800 
 42 H       -1.6300    -4.2680    -0.0530 H     1 <1>   0.0800 
 43 H        1.9480    -9.4250     0.1890 H     1 <1>   0.0800 
 44 H        0.2420    -9.8070     0.1930 H     1 <1>   0.0800 
 45 H        1.0740    -9.4950     1.7020 H     1 <1>   0.0800 
 46 H       -3.1150    -6.6770     0.4650 H     1 <1>   0.0800 
 47 H       -3.2850    -6.6530     2.2150 H     1 <1>   0.0800 
 48 H       -3.7610    -8.0640     1.3030 H     1 <1>   0.0800 
@<TRIPOS>BOND
  1   1   2  ar  
  2   2   3  ar  
  3   2   4  1   
  4   4   5  1   
  5   4   6  1   
  6   4  27  1   
  7   5   7  am  
  8   5  28  1   
  9   6   8  ar  
 10   6   9  ar  
 11   7  10  2   
 12   7  11  1   
 13   8  12  ar  
 14   8  29  1   
 15   9  13  ar  
 16   9  30  1   
 17  11  14  1   
 18  11  31  1   
 19  11  32  1   
 20  12  15  ar  
 21  12  16  1   
 22  13  15  ar  
 23  13  33  1   
 24  14  17  1   
 25  14  34  1   
 26  14  35  1   
 27  15  36  1   
 28  16  37  1   
 29  16  38  1   
 30  16  39  1   
 31  17  18  1   
 32  17  19  1   
 33  18  20  2   
 34  19  21  2   
 35  19  22  1   
 36  20  21  1   
 37  20  23  1   
 38  21  24  1   
 39  22  40  1   
 40  22  41  1   
 41  22  42  1   
 42  23  43  1   
 43  23  44  1   
 44  23  45  1   
 45  24  25  2   
 46  24  26  1   
 47  26  46  1   
 48  26  47  1   
 49  26  48  1   
@<TRIPOS>SUBSTRUCTURE
  1 ****  14 GROUP 4 **** **** 0

# MOE 2024.06 (io_trps.svl 2023.06)
