@<TRIPOS>MOLECULE
NONAME
40 41 1 0 0 
SMALL
USER_CHARGES


@<TRIPOS>ATOM
  1 O       -0.1560     0.3170    -0.7330 O.2   1 <1>  -0.5700 
  2 C       -0.2530     1.4860    -0.3410 C.2   1 <1>   0.3890 
  3 C       -1.4670     2.0040     0.1360 C.3   1 <1>  -0.7150 
  4 C        0.9180     2.3250    -0.4310 C.ar  1 <1>   0.0860 
  5 C       -1.5620     3.3900     0.3520 C.2   1 <1>   0.5350 
  6 C       -2.5530     1.1530     0.4040 C.2   1 <1>   0.5350 
  7 C        0.8190     3.6830    -0.0910 C.ar  1 <1>   0.1170 
  8 C        2.1530     1.8230    -0.8530 C.ar  1 <1>  -0.1500 
  9 O       -2.6470     3.9480     0.5410 O.2   1 <1>  -0.5700 
 10 N       -0.4200     4.1880     0.3450 N.am  1 <1>  -0.4770 
 11 O       -2.4600     0.1330     1.0800 O.2   1 <1>  -0.5700 
 12 N       -3.7840     1.5190    -0.0420 N.am  1 <1>  -0.7300 
 13 C        1.9610     4.4850    -0.2100 C.ar  1 <1>  -0.1500 
 14 C        3.2680     2.6270    -0.9530 C.ar  1 <1>  -0.1500 
 15 C       -0.5330     5.5610     0.9170 C.3   1 <1>   0.1400 
 16 C       -5.0120     0.9440     0.5120 C.3   1 <1>   0.1400 
 17 C        3.1690     3.9690    -0.6320 C.ar  1 <1>  -0.1500 
 18 C       -0.8100     6.5790    -0.1960 C.3   1 <1>  -0.1600 
 19 C       -6.2100     1.6180    -0.1470 C.3   1 <1>  -0.2400 
 20 C       -0.8640     8.0090     0.3570 C.3   1 <1>  -0.1600 
 21 C       -1.1410     9.0190    -0.7600 C.3   1 <1>  -0.2400 
 22 H        2.2220     0.7790    -1.1040 H     1 <1>   0.1500 
 23 H       -3.7900     2.5380    -0.1620 H     1 <1>   0.3700 
 24 H        1.9180     5.5300     0.0200 H     1 <1>   0.1500 
 25 H        4.2060     2.2150    -1.2810 H     1 <1>   0.1500 
 26 H        0.3660     5.8080     1.4490 H     1 <1>   0.0800 
 27 H       -1.3330     5.5880     1.6380 H     1 <1>   0.0800 
 28 H       -5.0240     1.1020     1.5770 H     1 <1>   0.0800 
 29 H       -5.0180    -0.1160     0.3200 H     1 <1>   0.0800 
 30 H        4.0330     4.6050    -0.7130 H     1 <1>   0.1500 
 31 H       -1.7540     6.3340    -0.6520 H     1 <1>   0.0800 
 32 H       -0.0450     6.5100    -0.9470 H     1 <1>   0.0800 
 33 H       -6.1970     2.6730     0.0600 H     1 <1>   0.0800 
 34 H       -7.1190     1.1990     0.2410 H     1 <1>   0.0800 
 35 H       -6.1790     1.4590    -1.2100 H     1 <1>   0.0800 
 36 H        0.0720     8.2500     0.8310 H     1 <1>   0.0800 
 37 H       -1.6430     8.0770     1.0970 H     1 <1>   0.0800 
 38 H       -0.3630     8.9810    -1.5030 H     1 <1>   0.0800 
 39 H       -1.1810    10.0150    -0.3550 H     1 <1>   0.0800 
 40 H       -2.0830     8.8040    -1.2340 H     1 <1>   0.0800 
@<TRIPOS>BOND
  1   1   2  2   
  2   2   3  1   
  3   2   4  1   
  4   3   5  1   
  5   3   6  1   
  6   4   7  ar  
  7   4   8  ar  
  8   5   9  2   
  9   5  10  am  
 10   6  11  2   
 11   6  12  am  
 12   7  10  1   
 13   7  13  ar  
 14   8  14  ar  
 15   8  22  1   
 16  10  15  1   
 17  12  16  1   
 18  12  23  1   
 19  13  17  ar  
 20  13  24  1   
 21  14  17  ar  
 22  14  25  1   
 23  15  18  1   
 24  15  26  1   
 25  15  27  1   
 26  16  19  1   
 27  16  28  1   
 28  16  29  1   
 29  17  30  1   
 30  18  20  1   
 31  18  31  1   
 32  18  32  1   
 33  19  33  1   
 34  19  34  1   
 35  19  35  1   
 36  20  21  1   
 37  20  36  1   
 38  20  37  1   
 39  21  38  1   
 40  21  39  1   
 41  21  40  1   
@<TRIPOS>SUBSTRUCTURE
  1 ****   5 GROUP 4 **** **** 0

# MOE 2024.06 (io_trps.svl 2023.06)
