@<TRIPOS>MOLECULE
NONAME
47 48 1 0 0 
SMALL
USER_CHARGES


@<TRIPOS>ATOM
  1 O       -0.8330     1.0880     0.9290 O.3   1 <1>  -0.3630 
  2 C       -1.7720     0.2090     0.4990 C.ar  1 <1>   0.0830 
  3 C       -0.7100     2.3630     0.3540 C.3   1 <1>   0.1200 
  4 C       -1.8120    -1.0210     1.1340 C.ar  1 <1>  -0.1500 
  5 C       -2.6760     0.4750    -0.5260 C.ar  1 <1>  -0.1500 
  6 C        0.4490     3.0640     1.0680 C.3   1 <1>   0.3430 
  7 C       -2.7380    -1.9760     0.7560 C.ar  1 <1>  -0.1500 
  8 C       -3.6000    -0.4840    -0.9000 C.ar  1 <1>  -0.1500 
  9 N        0.7780     4.4010     0.4720 N.4   1 <1>  -0.9590 
 10 C       -3.6420    -1.7170    -0.2650 C.ar  1 <1>  -0.1430 
 11 C        2.0620     4.9130     1.0110 C.3   1 <1>   0.5230 
 12 C       -0.3180     5.4050     0.6730 C.3   1 <1>   0.2630 
 13 C       -4.6710    -2.7620    -0.6940 C.3   1 <1>   0.0630 
 14 C        2.5290     5.9950     0.0740 C.2   1 <1>  -0.3320 
 15 C       -5.6190    -3.1020     0.4610 C.3   1 <1>  -0.2400 
 16 C       -3.9820    -4.0240    -1.2220 C.3   1 <1>  -0.2400 
 17 N        3.2410     5.7770    -1.0570 N.pl3 1 <1>   0.3140 
 18 C        2.3540     7.3330     0.1740 C.2   1 <1>  -0.1500 
 19 N        3.4910     6.9260    -1.6930 N.2   1 <1>  -0.7070 
 20 C        3.7610     4.5110    -1.6010 C.3   1 <1>   0.0160 
 21 C        2.9710     7.8550    -0.9540 C.2   1 <1>   0.1390 
 22 H       -1.6380     2.8850     0.5030 H     1 <1>   0.0800 
 23 H       -0.4990     2.2350    -0.6930 H     1 <1>   0.0800 
 24 H       -1.1170    -1.2320     1.9260 H     1 <1>   0.1500 
 25 H       -2.6830     1.4120    -1.0460 H     1 <1>   0.1500 
 26 H        1.3130     2.4210     1.0000 H     1 <1>   0.0800 
 27 H        0.1960     3.1810     2.1090 H     1 <1>   0.0800 
 28 H       -2.7510    -2.9240     1.2630 H     1 <1>   0.1500 
 29 H       -4.2940    -0.2670    -1.6930 H     1 <1>   0.1500 
 30 H        0.9240     4.3030    -0.5410 H     1 <1>   0.4500 
 31 H        2.8000     4.1280     1.0580 H     1 <1>   0.0800 
 32 H        1.9190     5.3130     2.0020 H     1 <1>   0.0800 
 33 H       -0.4820     5.5780     1.7250 H     1 <1>   0.0800 
 34 H       -1.2380     5.0550     0.2330 H     1 <1>   0.0800 
 35 H       -0.0570     6.3410     0.2060 H     1 <1>   0.0800 
 36 H       -5.2650    -2.3540    -1.4950 H     1 <1>   0.0800 
 37 H       -5.0850    -3.5620     1.2730 H     1 <1>   0.0800 
 38 H       -6.3850    -3.7780     0.1260 H     1 <1>   0.0800 
 39 H       -6.0890    -2.2050     0.8240 H     1 <1>   0.0800 
 40 H       -3.4130    -4.5040    -0.4470 H     1 <1>   0.0800 
 41 H       -3.3160    -3.7660    -2.0270 H     1 <1>   0.0800 
 42 H       -4.7130    -4.7200    -1.5930 H     1 <1>   0.0800 
 43 H        1.8610     7.9190     0.9310 H     1 <1>   0.1500 
 44 H        4.2980     3.9820    -0.8360 H     1 <1>   0.0800 
 45 H        4.4340     4.7310    -2.4100 H     1 <1>   0.0800 
 46 H        2.9490     3.9160    -1.9730 H     1 <1>   0.0800 
 47 H        3.0210     8.9040    -1.2010 H     1 <1>   0.1500 
@<TRIPOS>BOND
  1   1   2  1   
  2   1   3  1   
  3   2   4  ar  
  4   2   5  ar  
  5   3   6  1   
  6   3  22  1   
  7   3  23  1   
  8   4   7  ar  
  9   4  24  1   
 10   5   8  ar  
 11   5  25  1   
 12   6   9  1   
 13   6  26  1   
 14   6  27  1   
 15   7  10  ar  
 16   7  28  1   
 17   8  10  ar  
 18   8  29  1   
 19   9  11  1   
 20   9  12  1   
 21   9  30  1   
 22  10  13  1   
 23  11  14  1   
 24  11  31  1   
 25  11  32  1   
 26  12  33  1   
 27  12  34  1   
 28  12  35  1   
 29  13  15  1   
 30  13  16  1   
 31  13  36  1   
 32  14  17  1   
 33  14  18  2   
 34  15  37  1   
 35  15  38  1   
 36  15  39  1   
 37  16  40  1   
 38  16  41  1   
 39  16  42  1   
 40  17  19  1   
 41  17  20  1   
 42  18  21  1   
 43  18  43  1   
 44  19  21  2   
 45  20  44  1   
 46  20  45  1   
 47  20  46  1   
 48  21  47  1   
@<TRIPOS>SUBSTRUCTURE
  1 ****   3 GROUP 4 **** **** 0

# MOE 2024.06 (io_trps.svl 2023.06)
