@<TRIPOS>MOLECULE
NONAME
49 52 1 0 0 
SMALL
USER_CHARGES


@<TRIPOS>ATOM
  1 S       -0.6840     0.6030     0.9710 S.3   1 <1>  -0.0800 
  2 C        0.6110     1.3890     0.0590 C.ar  1 <1>   0.0400 
  3 C        0.1570    -0.9510     0.9380 C.2   1 <1>  -0.1400 
  4 C        1.6120     0.4730    -0.2260 C.ar  1 <1>   0.0000 
  5 C        0.6590     2.7130    -0.3330 C.ar  1 <1>  -0.1500 
  6 C        1.3300    -0.8410     0.2870 C.2   1 <1>  -0.1500 
  7 C       -0.5190    -2.1250     1.6110 C.3   1 <1>   0.5230 
  8 C        2.7180     0.9180    -0.9440 C.ar  1 <1>  -0.1500 
  9 C        1.7660     3.1360    -1.0470 C.ar  1 <1>  -0.1500 
 10 N       -1.6310    -2.5730     0.7300 N.4   1 <1>  -0.9590 
 11 C        2.7880     2.2400    -1.3490 C.ar  1 <1>  -0.1500 
 12 C       -1.7900    -4.0690     0.7460 C.3   1 <1>   0.3430 
 13 C       -2.9070    -1.8780     1.0790 C.3   1 <1>   0.3430 
 14 C       -2.6630    -4.6360    -0.4010 C.3   1 <1>   0.1400 
 15 C       -3.6600    -1.4620    -0.1840 C.3   1 <1>  -0.1600 
 16 N       -3.9570    -3.9030    -0.5630 N.am  1 <1>  -0.6600 
 17 C       -3.8400    -2.5720    -1.2230 C.3   1 <1>   0.1400 
 18 C       -5.2010    -4.3560    -0.1740 C.2   1 <1>   0.5690 
 19 O       -6.1110    -3.5690    -0.0470 O.2   1 <1>  -0.5700 
 20 C       -5.4700    -5.8500     0.1370 C.3   1 <1>   0.2810 
 21 N       -6.8160    -6.1390     0.6760 N.am  1 <1>  -0.7300 
 22 C       -5.4070    -6.7630    -1.1060 C.3   1 <1>  -0.1600 
 23 C       -7.4360    -7.1610     0.0740 C.2   1 <1>   0.5690 
 24 C       -6.5240    -7.8090    -0.9280 C.3   1 <1>  -0.0990 
 25 O       -8.5750    -7.4940     0.2690 O.2   1 <1>  -0.5700 
 26 H       -0.1410     3.3890    -0.0870 H     1 <1>   0.1500 
 27 H        2.0470    -1.6270     0.1250 H     1 <1>   0.1500 
 28 H       -0.8820    -1.8460     2.5880 H     1 <1>   0.0800 
 29 H        0.2040    -2.9160     1.7250 H     1 <1>   0.0800 
 30 H        3.5140     0.2350    -1.1810 H     1 <1>   0.1500 
 31 H        1.8400     4.1600    -1.3700 H     1 <1>   0.1500 
 32 H       -1.3670    -2.2620    -0.2140 H     1 <1>   0.4500 
 33 H        3.6440     2.5850    -1.9040 H     1 <1>   0.1500 
 34 H       -0.8190    -4.5320     0.6810 H     1 <1>   0.0800 
 35 H       -2.2240    -4.3680     1.6860 H     1 <1>   0.0800 
 36 H       -3.5330    -2.5330     1.6640 H     1 <1>   0.0800 
 37 H       -2.7100    -0.9960     1.6670 H     1 <1>   0.0800 
 38 H       -2.8430    -5.6780    -0.2070 H     1 <1>   0.0800 
 39 H       -2.1120    -4.5850    -1.3240 H     1 <1>   0.0800 
 40 H       -4.6390    -1.1280     0.1160 H     1 <1>   0.0800 
 41 H       -3.1780    -0.6170    -0.6420 H     1 <1>   0.0800 
 42 H       -3.0070    -2.5790    -1.9060 H     1 <1>   0.0800 
 43 H       -4.7260    -2.3740    -1.8060 H     1 <1>   0.0800 
 44 H       -4.7590    -6.1850     0.8700 H     1 <1>   0.0800 
 45 H       -7.3590    -5.3940     1.1230 H     1 <1>   0.3700 
 46 H       -5.6160    -6.1750    -1.9840 H     1 <1>   0.0800 
 47 H       -4.4420    -7.2230    -1.2220 H     1 <1>   0.0800 
 48 H       -6.1470    -8.7260    -0.5130 H     1 <1>   0.0800 
 49 H       -7.0460    -8.0060    -1.8470 H     1 <1>   0.0800 
@<TRIPOS>BOND
  1   1   2  1   
  2   1   3  1   
  3   2   4  ar  
  4   2   5  ar  
  5   3   6  2   
  6   3   7  1   
  7   4   6  1   
  8   4   8  ar  
  9   5   9  ar  
 10   5  26  1   
 11   6  27  1   
 12   7  10  1   
 13   7  28  1   
 14   7  29  1   
 15   8  11  ar  
 16   8  30  1   
 17   9  11  ar  
 18   9  31  1   
 19  10  12  1   
 20  10  13  1   
 21  10  32  1   
 22  11  33  1   
 23  12  14  1   
 24  12  34  1   
 25  12  35  1   
 26  13  15  1   
 27  13  36  1   
 28  13  37  1   
 29  14  16  1   
 30  14  38  1   
 31  14  39  1   
 32  15  17  1   
 33  15  40  1   
 34  15  41  1   
 35  16  17  1   
 36  16  18  am  
 37  17  42  1   
 38  17  43  1   
 39  18  19  2   
 40  18  20  1   
 41  20  21  1   
 42  20  22  1   
 43  20  44  1   
 44  21  23  am  
 45  21  45  1   
 46  22  24  1   
 47  22  46  1   
 48  22  47  1   
 49  23  24  1   
 50  23  25  2   
 51  24  48  1   
 52  24  49  1   
@<TRIPOS>SUBSTRUCTURE
  1 ****  10 GROUP 4 **** **** 0

# MOE 2024.06 (io_trps.svl 2023.06)
