@<TRIPOS>MOLECULE
NONAME
51 53 1 0 0 
SMALL
USER_CHARGES


@<TRIPOS>ATOM
  1 F       -0.0150     1.3370     0.3690 F     1 <1>  -0.1900 
  2 C       -1.3110     1.3400     0.1930 C.ar  1 <1>   0.1900 
  3 C       -2.0910     2.4770     0.4350 C.ar  1 <1>   0.0830 
  4 C       -1.8730     0.1580    -0.2510 C.ar  1 <1>  -0.1500 
  5 O       -1.6560     3.6940     0.8700 O.3   1 <1>  -0.3630 
  6 C       -3.4550     2.3780     0.2160 C.ar  1 <1>  -0.1500 
  7 C       -3.2390     0.0950    -0.4610 C.ar  1 <1>  -0.1500 
  8 C       -0.3060     3.9630     1.1800 C.3   1 <1>   0.0400 
  9 C       -4.0590     1.2000    -0.2260 C.ar  1 <1>   0.0530 
 10 C       -5.4820     1.1500    -0.4450 C.2   1 <1>   0.0870 
 11 O       -6.0560     2.1150    -1.1170 O.3   1 <1>  -0.0190 
 12 C       -6.4630     0.2760    -0.0870 C.2   1 <1>  -0.0860 
 13 N       -7.3440     1.9510    -1.2490 N.2   1 <1>  -0.4100 
 14 C       -7.6170     0.8510    -0.6410 C.2   1 <1>   0.3720 
 15 C       -6.4150    -0.9350     0.6790 C.2   1 <1>   0.7160 
 16 N       -8.9170     0.3190    -0.5690 N.pl3 1 <1>  -0.8210 
 17 O       -5.3720    -1.4990     0.9450 O.2   1 <1>  -0.5700 
 18 N       -7.5720    -1.5110     1.0930 N.am  1 <1>  -0.7300 
 19 C       -9.2340    -0.6480    -1.6580 C.3   1 <1>   0.1290 
 20 C       -9.9990     1.3330    -0.4120 C.3   1 <1>   0.1290 
 21 C       -7.7580    -2.9100     1.5290 C.3   1 <1>   0.2200 
 22 C       -7.4080    -3.8760     0.3780 C.3   1 <1>   0.1400 
 23 C       -9.2590    -3.1220     1.7530 C.3   1 <1>  -0.0990 
 24 N       -8.6880    -4.0300    -0.3420 N.am  1 <1>  -0.6600 
 25 C       -9.7260    -3.5750     0.3970 C.2   1 <1>   0.5690 
 26 C       -8.7610    -4.5780    -1.7120 C.3   1 <1>   0.1400 
 27 O      -10.8740    -3.5020     0.0350 O.2   1 <1>  -0.5700 
 28 C       -8.4110    -6.0630    -1.6890 C.3   1 <1>  -0.2400 
 29 H       -1.2490    -0.6990    -0.4290 H     1 <1>   0.1500 
 30 H       -4.0670     3.2440     0.3960 H     1 <1>   0.1500 
 31 H       -3.6760    -0.8230    -0.8100 H     1 <1>   0.1500 
 32 H       -0.2370     4.9810     1.5170 H     1 <1>   0.0800 
 33 H        0.2900     3.8310     0.2940 H     1 <1>   0.0800 
 34 H        0.0120     3.2980     1.9630 H     1 <1>   0.0800 
 35 H       -8.4150    -1.0420     0.7240 H     1 <1>   0.3700 
 36 H       -8.4350    -1.3620    -1.7630 H     1 <1>   0.0800 
 37 H       -9.3590    -0.1260    -2.5910 H     1 <1>   0.0800 
 38 H      -10.1410    -1.1820    -1.4250 H     1 <1>   0.0800 
 39 H       -9.7270     2.0400     0.3540 H     1 <1>   0.0800 
 40 H      -10.9170     0.8500    -0.1270 H     1 <1>   0.0800 
 41 H      -10.1480     1.8650    -1.3360 H     1 <1>   0.0800 
 42 H       -7.1680    -3.0960     2.4110 H     1 <1>   0.0800 
 43 H       -7.1070    -4.8310     0.7710 H     1 <1>   0.0800 
 44 H       -6.6360    -3.4860    -0.2620 H     1 <1>   0.0800 
 45 H       -9.7670    -2.2340     2.0780 H     1 <1>   0.0800 
 46 H       -9.4280    -3.9180     2.4530 H     1 <1>   0.0800 
 47 H       -8.0810    -4.0420    -2.3510 H     1 <1>   0.0800 
 48 H       -9.7610    -4.4490    -2.0950 H     1 <1>   0.0800 
 49 H       -7.3990    -6.2100    -1.3590 H     1 <1>   0.0800 
 50 H       -8.5080    -6.4710    -2.6790 H     1 <1>   0.0800 
 51 H       -9.0850    -6.5900    -1.0370 H     1 <1>   0.0800 
@<TRIPOS>BOND
  1   1   2  1   
  2   2   3  ar  
  3   2   4  ar  
  4   3   5  1   
  5   3   6  ar  
  6   4   7  ar  
  7   4  29  1   
  8   5   8  1   
  9   6   9  ar  
 10   6  30  1   
 11   7   9  ar  
 12   7  31  1   
 13   8  32  1   
 14   8  33  1   
 15   8  34  1   
 16   9  10  1   
 17  10  11  1   
 18  10  12  2   
 19  11  13  1   
 20  12  14  1   
 21  12  15  1   
 22  13  14  2   
 23  14  16  1   
 24  15  17  2   
 25  15  18  am  
 26  16  19  1   
 27  16  20  1   
 28  18  21  1   
 29  18  35  1   
 30  19  36  1   
 31  19  37  1   
 32  19  38  1   
 33  20  39  1   
 34  20  40  1   
 35  20  41  1   
 36  21  22  1   
 37  21  23  1   
 38  21  42  1   
 39  22  24  1   
 40  22  43  1   
 41  22  44  1   
 42  23  25  1   
 43  23  45  1   
 44  23  46  1   
 45  24  25  am  
 46  24  26  1   
 47  25  27  2   
 48  26  28  1   
 49  26  47  1   
 50  26  48  1   
 51  28  49  1   
 52  28  50  1   
 53  28  51  1   
@<TRIPOS>SUBSTRUCTURE
  1 ****  12 GROUP 4 **** **** 0

# MOE 2024.06 (io_trps.svl 2023.06)
