@<TRIPOS>MOLECULE
NONAME
42 45 1 0 0 
SMALL
USER_CHARGES


@<TRIPOS>ATOM
  1 S       -0.4520    -4.0150     1.9010 S.3   1 <1>  -0.4600 
  2 C       -0.7630    -2.2780     1.4410 C.3   1 <1>   0.2510 
  3 C       -1.8940    -4.7820     1.1000 C.3   1 <1>   0.2510 
  4 C       -2.0360    -2.3580     0.6320 C.2   1 <1>   0.1080 
  5 C       -2.5950    -3.6050     0.4650 C.2   1 <1>  -0.1810 
  6 N       -2.7100    -1.4190     0.0490 N.2   1 <1>  -0.7070 
  7 C       -3.7080    -3.4110    -0.2770 C.2   1 <1>  -0.0880 
  8 N       -3.7590    -2.0670    -0.5230 N.pl3 1 <1>   0.3140 
  9 N       -4.5850    -4.4390    -0.6910 N.am  1 <1>  -0.4940 
 10 C       -4.7110    -1.3150    -1.3500 C.3   1 <1>   0.0160 
 11 C       -5.9160    -4.4520    -0.9930 C.2   1 <1>   0.5690 
 12 O       -6.6200    -3.4730    -1.0120 O.2   1 <1>  -0.5700 
 13 C       -6.5470    -5.7940    -1.2850 C.3   1 <1>  -0.0990 
 14 C       -6.6440    -6.6320    -0.0020 C.3   1 <1>   0.1400 
 15 N       -6.0040    -7.9630    -0.1840 N.am  1 <1>  -0.4200 
 16 C       -4.6330    -8.1060    -0.1620 C.2   1 <1>   0.5440 
 17 C       -6.7940    -9.0760    -0.3470 C.2   1 <1>   0.4500 
 18 O       -3.9240    -7.1140    -0.0540 O.2   1 <1>  -0.5700 
 19 C       -4.0840    -9.4270    -0.2870 C.ar  1 <1>   0.0860 
 20 N       -6.3520   -10.2680    -0.4750 N.2   1 <1>  -0.6290 
 21 C       -4.9880   -10.4850    -0.4450 C.ar  1 <1>   0.1790 
 22 C       -2.7150    -9.7080    -0.2620 C.ar  1 <1>  -0.1500 
 23 C       -4.5070   -11.7830    -0.5740 C.ar  1 <1>  -0.1500 
 24 C       -2.2520   -11.0010    -0.3910 C.ar  1 <1>  -0.1500 
 25 C       -3.1530   -12.0440    -0.5480 C.ar  1 <1>  -0.1500 
 26 H        0.0660    -1.9250     0.8550 H     1 <1>   0.0800 
 27 H       -0.8910    -1.7030     2.3390 H     1 <1>   0.0800 
 28 H       -2.4910    -5.2560     1.8570 H     1 <1>   0.0800 
 29 H       -1.5410    -5.4910     0.3720 H     1 <1>   0.0800 
 30 H       -4.1760    -5.3810    -0.5980 H     1 <1>   0.3700 
 31 H       -4.2670    -0.3820    -1.6400 H     1 <1>   0.0800 
 32 H       -5.6000    -1.1290    -0.7780 H     1 <1>   0.0800 
 33 H       -4.9510    -1.8880    -2.2260 H     1 <1>   0.0800 
 34 H       -5.9650    -6.2910    -2.0390 H     1 <1>   0.0800 
 35 H       -7.5330    -5.6300    -1.6800 H     1 <1>   0.0800 
 36 H       -7.6790    -6.7570     0.2670 H     1 <1>   0.0800 
 37 H       -6.1620    -6.1270     0.8190 H     1 <1>   0.0800 
 38 H       -7.8570    -8.9090    -0.3660 H     1 <1>   0.0600 
 39 H       -2.0150    -8.8980    -0.1400 H     1 <1>   0.1500 
 40 H       -5.2150   -12.5840    -0.6950 H     1 <1>   0.1500 
 41 H       -1.1950   -11.2070    -0.3700 H     1 <1>   0.1500 
 42 H       -2.7940   -13.0550    -0.6490 H     1 <1>   0.1500 
@<TRIPOS>BOND
  1   1   2  1   
  2   1   3  1   
  3   2   4  1   
  4   2  26  1   
  5   2  27  1   
  6   3   5  1   
  7   3  28  1   
  8   3  29  1   
  9   4   5  1   
 10   4   6  2   
 11   5   7  2   
 12   6   8  1   
 13   7   8  1   
 14   7   9  1   
 15   8  10  1   
 16   9  11  am  
 17   9  30  1   
 18  10  31  1   
 19  10  32  1   
 20  10  33  1   
 21  11  12  2   
 22  11  13  1   
 23  13  14  1   
 24  13  34  1   
 25  13  35  1   
 26  14  15  1   
 27  14  36  1   
 28  14  37  1   
 29  15  16  am  
 30  15  17  1   
 31  16  18  2   
 32  16  19  1   
 33  17  20  2   
 34  17  38  1   
 35  19  21  ar  
 36  19  22  ar  
 37  20  21  1   
 38  21  23  ar  
 39  22  24  ar  
 40  22  39  1   
 41  23  25  ar  
 42  23  40  1   
 43  24  25  ar  
 44  24  41  1   
 45  25  42  1   
@<TRIPOS>SUBSTRUCTURE
  1 ****  18 GROUP 4 **** **** 0

# MOE 2024.06 (io_trps.svl 2023.06)
