@<TRIPOS>MOLECULE
NONAME
48 50 1 0 0 
SMALL
USER_CHARGES


@<TRIPOS>ATOM
  1 O        2.1540    -1.1810    -2.2710 O.2   1 <1>  -0.5700 
  2 C        2.7080    -1.5010    -1.2310 C.2   1 <1>   0.7160 
  3 N        4.0420    -1.1510    -1.0850 N.am  1 <1>  -0.6600 
  4 C        1.9320    -2.2090    -0.2180 C.2   1 <1>   0.2030 
  5 C        4.9470    -1.6560    -0.0030 C.3   1 <1>   0.1400 
  6 C        4.6840    -0.1590    -1.9870 C.3   1 <1>   0.1400 
  7 N        2.1780    -2.3250     1.0560 N.2   1 <1>  -0.4100 
  8 C        0.7420    -2.8730    -0.4810 C.2   1 <1>  -0.1500 
  9 C        5.0980    -0.6470     1.1470 C.3   1 <1>   0.1400 
 10 C        4.4120     1.2740    -1.5100 C.3   1 <1>  -0.1600 
 11 O        1.2390    -3.0250     1.6450 O.3   1 <1>  -0.0190 
 12 C        0.3740    -3.3500     0.7100 C.2   1 <1>  -0.0400 
 13 N        5.5340     0.7050     0.6590 N.am  1 <1>  -0.6600 
 14 C        4.4380     1.4810     0.0130 C.3   1 <1>   0.1400 
 15 C       -0.8410    -4.1660     1.0970 C.3   1 <1>  -0.0600 
 16 C        6.8170     1.1510     0.8860 C.2   1 <1>   0.5690 
 17 O        7.6120     0.4600     1.4790 O.2   1 <1>  -0.5700 
 18 C        7.2730     2.5360     0.4230 C.3   1 <1>   0.0820 
 19 C        8.6930     2.5840    -0.1360 C.2   1 <1>  -0.1810 
 20 C        9.1790     1.8510    -1.2190 C.2   1 <1>   0.1080 
 21 C        9.7470     3.3290     0.2710 C.2   1 <1>  -0.3320 
 22 N       10.4180     2.1170    -1.4790 N.2   1 <1>  -0.7070 
 23 C        8.4010     0.8450    -2.0340 C.3   1 <1>  -0.0590 
 24 N       10.7710     3.0220    -0.5520 N.pl3 1 <1>   0.3000 
 25 C        9.8870     4.3280     1.4080 C.3   1 <1>  -0.0600 
 26 H        5.9220    -1.8530    -0.4140 H     1 <1>   0.0800 
 27 H        4.5840    -2.5900     0.3850 H     1 <1>   0.0800 
 28 H        4.3220    -0.2830    -2.9940 H     1 <1>   0.0800 
 29 H        5.7450    -0.3360    -2.0050 H     1 <1>   0.0800 
 30 H        0.2680    -2.9510    -1.4420 H     1 <1>   0.1500 
 31 H        5.8090    -1.0380     1.8530 H     1 <1>   0.0800 
 32 H        4.1610    -0.5560     1.6690 H     1 <1>   0.0800 
 33 H        3.4430     1.5720    -1.8710 H     1 <1>   0.0800 
 34 H        5.1250     1.9300    -1.9740 H     1 <1>   0.0800 
 35 H        3.4950     1.1540     0.4190 H     1 <1>   0.0800 
 36 H        4.5280     2.5270     0.2450 H     1 <1>   0.0800 
 37 H       -1.4540    -4.3530     0.2350 H     1 <1>   0.0800 
 38 H       -1.4200    -3.6330     1.8290 H     1 <1>   0.0800 
 39 H       -0.5300    -5.1060     1.5160 H     1 <1>   0.0800 
 40 H        7.1930     3.1950     1.2630 H     1 <1>   0.0800 
 41 H        6.6260     2.9090    -0.3430 H     1 <1>   0.0800 
 42 H        7.5200     1.3050    -2.4370 H     1 <1>   0.0800 
 43 H        8.1290     0.0120    -1.4120 H     1 <1>   0.0800 
 44 H        9.0080     0.4860    -2.8440 H     1 <1>   0.0800 
 45 H       11.7200     3.4090    -0.5060 H     1 <1>   0.2700 
 46 H        8.9680     4.4230     1.9550 H     1 <1>   0.0800 
 47 H       10.1530     5.2950     1.0190 H     1 <1>   0.0800 
 48 H       10.6520     4.0030     2.0900 H     1 <1>   0.0800 
@<TRIPOS>BOND
  1   1   2  2   
  2   2   3  am  
  3   2   4  1   
  4   3   5  1   
  5   3   6  1   
  6   4   7  2   
  7   4   8  1   
  8   5   9  1   
  9   5  26  1   
 10   5  27  1   
 11   6  10  1   
 12   6  28  1   
 13   6  29  1   
 14   7  11  1   
 15   8  12  2   
 16   8  30  1   
 17   9  13  1   
 18   9  31  1   
 19   9  32  1   
 20  10  14  1   
 21  10  33  1   
 22  10  34  1   
 23  11  12  1   
 24  12  15  1   
 25  13  14  1   
 26  13  16  am  
 27  14  35  1   
 28  14  36  1   
 29  15  37  1   
 30  15  38  1   
 31  15  39  1   
 32  16  17  2   
 33  16  18  1   
 34  18  19  1   
 35  18  40  1   
 36  18  41  1   
 37  19  20  1   
 38  19  21  2   
 39  20  22  2   
 40  20  23  1   
 41  21  24  1   
 42  21  25  1   
 43  22  24  1   
 44  23  42  1   
 45  23  43  1   
 46  23  44  1   
 47  24  45  1   
 48  25  46  1   
 49  25  47  1   
 50  25  48  1   
@<TRIPOS>SUBSTRUCTURE
  1 ****  13 GROUP 4 **** **** 0

# MOE 2024.06 (io_trps.svl 2023.06)
