@<TRIPOS>MOLECULE
NONAME
56 58 1 0 0 
SMALL
USER_CHARGES


@<TRIPOS>ATOM
  1 O        0.1160     3.0030     3.1940 O.2   1 <1>  -0.5700 
  2 C        0.0570     3.9170     2.4130 C.2   1 <1>   0.5690 
  3 N       -1.1260     4.4990     2.1190 N.am  1 <1>  -0.7300 
  4 C        1.3300     4.4110     1.7160 C.3   1 <1>   0.1810 
  5 C       -1.2660     5.6480     1.1950 C.3   1 <1>   0.3640 
  6 O        1.1860     5.6870     1.1190 O.3   1 <1>  -0.5600 
  7 C       -2.4740     5.4290     0.2920 C.ar  1 <1>  -0.1440 
  8 C        0.0100     5.8390     0.3370 C.3   1 <1>   0.2610 
  9 C       -2.7150     4.1990    -0.3090 C.ar  1 <1>  -0.1500 
 10 C       -3.3460     6.4800     0.0460 C.ar  1 <1>  -0.1500 
 11 C        0.0240     7.2150    -0.3490 C.2   1 <1>   0.5690 
 12 C       -3.8060     4.0270    -1.1430 C.ar  1 <1>  -0.1500 
 13 C       -4.4370     6.3090    -0.7880 C.ar  1 <1>  -0.1500 
 14 O       -0.4830     8.1540     0.2310 O.2   1 <1>  -0.5700 
 15 N        0.6840     7.4370    -1.5420 N.am  1 <1>  -0.6600 
 16 C       -4.6680     5.0820    -1.3830 C.ar  1 <1>  -0.1500 
 17 C        0.7490     8.8200    -2.1250 C.3   1 <1>   0.1400 
 18 C        1.2660     6.3630    -2.3980 C.3   1 <1>   0.1400 
 19 C        1.8670     9.6920    -1.5100 C.3   1 <1>   0.3430 
 20 C        2.7360     6.1570    -2.0440 C.3   1 <1>  -0.2400 
 21 N        1.8160     9.7130    -0.0160 N.4   1 <1>  -0.9590 
 22 C        1.9230    11.0830     0.5520 C.3   1 <1>   0.3430 
 23 C        2.7880     8.7600     0.5930 C.3   1 <1>   0.3430 
 24 C        1.6660    11.0340     2.0590 C.3   1 <1>  -0.1600 
 25 C        2.5500     8.6770     2.1020 C.3   1 <1>  -0.1600 
 26 C        2.6140    10.0570     2.7670 C.3   1 <1>  -0.1600 
 27 H       -1.9730     4.1630     2.5810 H     1 <1>   0.3700 
 28 H        1.6090     3.7090     0.9520 H     1 <1>   0.0800 
 29 H        2.1250     4.4720     2.4360 H     1 <1>   0.0800 
 30 H       -1.4280     6.5270     1.7950 H     1 <1>   0.0800 
 31 H        0.0170     5.0680    -0.4070 H     1 <1>   0.0800 
 32 H       -2.0590     3.3640    -0.1320 H     1 <1>   0.1500 
 33 H       -3.1820     7.4440     0.4990 H     1 <1>   0.1500 
 34 H       -3.9880     3.0710    -1.6040 H     1 <1>   0.1500 
 35 H       -5.1090     7.1290    -0.9720 H     1 <1>   0.1500 
 36 H       -5.5170     4.9480    -2.0310 H     1 <1>   0.1500 
 37 H        0.8950     8.7640    -3.1900 H     1 <1>   0.0800 
 38 H       -0.1970     9.3120    -1.9710 H     1 <1>   0.0800 
 39 H        0.7260     5.4410    -2.2760 H     1 <1>   0.0800 
 40 H        1.1790     6.6330    -3.4370 H     1 <1>   0.0800 
 41 H        1.7560    10.6940    -1.8900 H     1 <1>   0.0800 
 42 H        2.8250     9.3250    -1.8390 H     1 <1>   0.0800 
 43 H        2.8430     5.8540    -1.0180 H     1 <1>   0.0800 
 44 H        3.3020     7.0520    -2.2210 H     1 <1>   0.0800 
 45 H        3.1450     5.3780    -2.6640 H     1 <1>   0.0800 
 46 H        0.8770     9.3420     0.2420 H     1 <1>   0.4500 
 47 H        2.9090    11.4790     0.3670 H     1 <1>   0.0800 
 48 H        1.1990    11.7330     0.0880 H     1 <1>   0.0800 
 49 H        2.6600     7.7790     0.1630 H     1 <1>   0.0800 
 50 H        3.7950     9.0910     0.4030 H     1 <1>   0.0800 
 51 H        1.7950    12.0200     2.4720 H     1 <1>   0.0800 
 52 H        0.6440    10.7420     2.2330 H     1 <1>   0.0800 
 53 H        1.5880     8.2280     2.2820 H     1 <1>   0.0800 
 54 H        3.2900     8.0310     2.5400 H     1 <1>   0.0800 
 55 H        2.3430     9.9740     3.8070 H     1 <1>   0.0800 
 56 H        3.6220    10.4340     2.7200 H     1 <1>   0.0800 
@<TRIPOS>BOND
  1   1   2  2   
  2   2   3  am  
  3   2   4  1   
  4   3   5  1   
  5   3  27  1   
  6   4   6  1   
  7   4  28  1   
  8   4  29  1   
  9   5   7  1   
 10   5   8  1   
 11   5  30  1   
 12   6   8  1   
 13   7   9  ar  
 14   7  10  ar  
 15   8  11  1   
 16   8  31  1   
 17   9  12  ar  
 18   9  32  1   
 19  10  13  ar  
 20  10  33  1   
 21  11  14  2   
 22  11  15  am  
 23  12  16  ar  
 24  12  34  1   
 25  13  16  ar  
 26  13  35  1   
 27  15  17  1   
 28  15  18  1   
 29  16  36  1   
 30  17  19  1   
 31  17  37  1   
 32  17  38  1   
 33  18  20  1   
 34  18  39  1   
 35  18  40  1   
 36  19  21  1   
 37  19  41  1   
 38  19  42  1   
 39  20  43  1   
 40  20  44  1   
 41  20  45  1   
 42  21  22  1   
 43  21  23  1   
 44  21  46  1   
 45  22  24  1   
 46  22  47  1   
 47  22  48  1   
 48  23  25  1   
 49  23  49  1   
 50  23  50  1   
 51  24  26  1   
 52  24  51  1   
 53  24  52  1   
 54  25  26  1   
 55  25  53  1   
 56  25  54  1   
 57  26  55  1   
 58  26  56  1   
@<TRIPOS>SUBSTRUCTURE
  1 ****  11 GROUP 4 **** **** 0

# MOE 2024.06 (io_trps.svl 2023.06)
