@<TRIPOS>MOLECULE
NONAME
47 49 1 0 0 
SMALL
USER_CHARGES


@<TRIPOS>ATOM
  1 O        0.5750    -1.5440    -0.4880 O.3   1 <1>  -0.5600 
  2 C        0.0510    -2.2670     0.6020 C.3   1 <1>   0.4180 
  3 C        0.3790    -0.1540    -0.4950 C.3   1 <1>   0.1200 
  4 C       -1.3240    -1.7410     0.9910 C.2   1 <1>  -0.2880 
  5 C        1.0420    -2.1960     1.7690 C.3   1 <1>  -0.1600 
  6 C       -0.0560    -3.7210     0.1260 C.3   1 <1>  -0.1600 
  7 C       -1.1170     0.1810    -0.5550 C.3   1 <1>  -0.0220 
  8 C       -1.8770    -0.6440     0.4680 C.2   1 <1>  -0.2760 
  9 C        2.4360    -2.7140     1.3970 C.3   1 <1>   0.3430 
 10 C        1.2950    -4.4390     0.0160 C.3   1 <1>   0.3430 
 11 C       -3.2630    -0.1300     0.8150 C.3   1 <1>  -0.1020 
 12 N        2.4090    -3.4620     0.1040 N.4   1 <1>  -0.9590 
 13 C        3.7520    -4.0120    -0.2870 C.3   1 <1>   0.5240 
 14 C        4.8110    -2.9190    -0.4440 C.2   1 <1>   0.3350 
 15 N        4.5830    -1.7320    -0.8480 N.2   1 <1>  -0.4100 
 16 N        6.0790    -3.1400    -0.1400 N.2   1 <1>  -0.5650 
 17 O        5.7190    -1.1030    -0.8380 O.3   1 <1>  -0.0190 
 18 C        6.5790    -1.9950    -0.4070 C.2   1 <1>   0.2980 
 19 C        8.0430    -1.5720    -0.2710 C.3   1 <1>   0.1000 
 20 C        8.9910    -2.7710    -0.1050 C.3   1 <1>  -0.2400 
 21 C        8.2190    -0.6050     0.9080 C.3   1 <1>  -0.2400 
 22 H        0.8850     0.2510    -1.3540 H     1 <1>   0.0800 
 23 H        0.8190     0.2630     0.3940 H     1 <1>   0.0800 
 24 H       -1.8210    -2.3450     1.7290 H     1 <1>   0.1500 
 25 H        0.6620    -2.7890     2.5810 H     1 <1>   0.0800 
 26 H        1.1120    -1.1890     2.1380 H     1 <1>   0.0800 
 27 H       -0.5600    -3.7400    -0.8230 H     1 <1>   0.0800 
 28 H       -0.6690    -4.2780     0.8110 H     1 <1>   0.0800 
 29 H       -1.4980    -0.0170    -1.5410 H     1 <1>   0.0800 
 30 H       -1.2410     1.2300    -0.3530 H     1 <1>   0.0800 
 31 H        2.8100    -3.3440     2.1880 H     1 <1>   0.0800 
 32 H        3.1020    -1.8700     1.3000 H     1 <1>   0.0800 
 33 H        1.3370    -4.9670    -0.9230 H     1 <1>   0.0800 
 34 H        1.3850    -5.1590     0.8130 H     1 <1>   0.0800 
 35 H       -3.8760    -0.0920    -0.0680 H     1 <1>   0.0800 
 36 H       -3.2000     0.8570     1.2360 H     1 <1>   0.0800 
 37 H       -3.7390    -0.7760     1.5310 H     1 <1>   0.0800 
 38 H        2.1750    -2.7220    -0.5910 H     1 <1>   0.4500 
 39 H        3.6730    -4.5360    -1.2240 H     1 <1>   0.0800 
 40 H        4.0910    -4.7090     0.4600 H     1 <1>   0.0800 
 41 H        8.3170    -1.0580    -1.1770 H     1 <1>   0.0800 
 42 H        8.7660    -3.3080     0.7990 H     1 <1>   0.0800 
 43 H       10.0130    -2.4390    -0.0640 H     1 <1>   0.0800 
 44 H        8.8840    -3.4440    -0.9380 H     1 <1>   0.0800 
 45 H        7.9460    -1.0850     1.8310 H     1 <1>   0.0800 
 46 H        7.5980     0.2640     0.7750 H     1 <1>   0.0800 
 47 H        9.2430    -0.2810     0.9770 H     1 <1>   0.0800 
@<TRIPOS>BOND
  1   1   2  1   
  2   1   3  1   
  3   2   4  1   
  4   2   5  1   
  5   2   6  1   
  6   3   7  1   
  7   3  22  1   
  8   3  23  1   
  9   4   8  2   
 10   4  24  1   
 11   5   9  1   
 12   5  25  1   
 13   5  26  1   
 14   6  10  1   
 15   6  27  1   
 16   6  28  1   
 17   7   8  1   
 18   7  29  1   
 19   7  30  1   
 20   8  11  1   
 21   9  12  1   
 22   9  31  1   
 23   9  32  1   
 24  10  12  1   
 25  10  33  1   
 26  10  34  1   
 27  11  35  1   
 28  11  36  1   
 29  11  37  1   
 30  12  13  1   
 31  12  38  1   
 32  13  14  1   
 33  13  39  1   
 34  13  40  1   
 35  14  15  2   
 36  14  16  1   
 37  15  17  1   
 38  16  18  2   
 39  17  18  1   
 40  18  19  1   
 41  19  20  1   
 42  19  21  1   
 43  19  41  1   
 44  20  42  1   
 45  20  43  1   
 46  20  44  1   
 47  21  45  1   
 48  21  46  1   
 49  21  47  1   
@<TRIPOS>SUBSTRUCTURE
  1 ****  12 GROUP 4 **** **** 0

# MOE 2024.06 (io_trps.svl 2023.06)
