@<TRIPOS>MOLECULE
NONAME
56 59 1 0 0 
SMALL
USER_CHARGES


@<TRIPOS>ATOM
  1 O        0.4020     0.6190    -0.5780 O.2   1 <1>  -0.5700 
  2 C       -0.2300     1.5360    -0.0890 C.2   1 <1>   0.5440 
  3 N       -1.5900     1.3940     0.1030 N.am  1 <1>  -0.6600 
  4 C        0.4490     2.7670     0.2270 C.ar  1 <1>   0.0860 
  5 C       -2.5040     2.5370     0.4250 C.3   1 <1>   0.1400 
  6 C       -2.3150     0.1350    -0.2330 C.3   1 <1>   0.1400 
  7 C        1.0670     3.5010    -0.7800 C.ar  1 <1>   0.1600 
  8 C        0.4940     3.2970     1.5110 C.ar  1 <1>  -0.1500 
  9 C       -3.4370     2.8430    -0.7590 C.3   1 <1>   0.1440 
 10 C       -3.2750     0.3830    -1.4050 C.3   1 <1>  -0.1600 
 11 N        1.6510     4.6770    -0.6370 N.ar  1 <1>  -0.6200 
 12 C        1.1060     4.5140     1.6820 C.ar  1 <1>  -0.1500 
 13 C       -4.3260     4.0020    -0.3510 C.ar  1 <1>   0.1670 
 14 C       -4.2220     1.5690    -1.1390 C.3   1 <1>  -0.1600 
 15 C       -2.6640     3.4370    -1.9690 C.3   1 <1>  -0.1600 
 16 C        1.6700     5.1810     0.5950 C.ar  1 <1>   0.4100 
 17 N       -5.3340     3.9290     0.4800 N.ar  1 <1>  -0.6200 
 18 C       -3.9250     5.1660    -0.9340 C.ar  1 <1>  -0.1430 
 19 C       -2.7240     4.9670    -1.8250 C.3   1 <1>  -0.0170 
 20 N        2.2770     6.4090     0.7690 N.pl3 1 <1>  -0.8380 
 21 C       -5.9610     5.0840     0.7150 C.ar  1 <1>   0.7200 
 22 C       -4.6310     6.3030    -0.6350 C.ar  1 <1>   0.1600 
 23 C        2.3920     7.3560    -0.3730 C.3   1 <1>   0.1290 
 24 C        3.2960     6.5980     1.8360 C.3   1 <1>   0.1290 
 25 N       -5.6520     6.2730     0.1880 N.ar  1 <1>  -0.6200 
 26 N       -7.0290     5.0450     1.5910 N.pl3 1 <1>  -0.8380 
 27 C       -7.6280     6.2830     2.1610 C.3   1 <1>   0.1290 
 28 C       -7.7010     3.7710     1.9660 C.3   1 <1>   0.1290 
 29 H       -1.9550     3.4260     0.6750 H     1 <1>   0.0800 
 30 H       -3.0990     2.2740     1.2830 H     1 <1>   0.0800 
 31 H       -2.8700    -0.1860     0.6320 H     1 <1>   0.0800 
 32 H       -1.6220    -0.6480    -0.4890 H     1 <1>   0.0800 
 33 H        1.0650     3.0790    -1.7700 H     1 <1>   0.1500 
 34 H        0.0500     2.7650     2.3350 H     1 <1>   0.1500 
 35 H       -3.8550    -0.5070    -1.5780 H     1 <1>   0.0800 
 36 H       -2.6940     0.5660    -2.2920 H     1 <1>   0.0800 
 37 H        1.1500     4.9740     2.6500 H     1 <1>   0.1500 
 38 H       -4.8390     1.7560    -2.0000 H     1 <1>   0.0800 
 39 H       -4.8780     1.3120    -0.3250 H     1 <1>   0.0800 
 40 H       -3.1750     3.1720    -2.8780 H     1 <1>   0.0800 
 41 H       -1.6530     3.0800    -2.0400 H     1 <1>   0.0800 
 42 H       -2.8440     5.4510    -2.7780 H     1 <1>   0.0800 
 43 H       -1.8400     5.3380    -1.3330 H     1 <1>   0.0800 
 44 H       -4.3540     7.2470    -1.0720 H     1 <1>   0.1500 
 45 H        1.5270     7.2740    -1.0090 H     1 <1>   0.0800 
 46 H        3.2700     7.1240    -0.9510 H     1 <1>   0.0800 
 47 H        2.4570     8.3670    -0.0100 H     1 <1>   0.0800 
 48 H        3.4120     5.7000     2.4160 H     1 <1>   0.0800 
 49 H        2.9950     7.4010     2.4860 H     1 <1>   0.0800 
 50 H        4.2480     6.8400     1.3940 H     1 <1>   0.0800 
 51 H       -6.8830     7.0550     2.2530 H     1 <1>   0.0800 
 52 H       -8.0300     6.0840     3.1380 H     1 <1>   0.0800 
 53 H       -8.4140     6.6330     1.5150 H     1 <1>   0.0800 
 54 H       -7.5750     3.0330     1.1920 H     1 <1>   0.0800 
 55 H       -8.7550     3.9350     2.1060 H     1 <1>   0.0800 
 56 H       -7.2750     3.3960     2.8800 H     1 <1>   0.0800 
@<TRIPOS>BOND
  1   1   2  2   
  2   2   3  am  
  3   2   4  1   
  4   3   5  1   
  5   3   6  1   
  6   4   7  ar  
  7   4   8  ar  
  8   5   9  1   
  9   5  29  1   
 10   5  30  1   
 11   6  10  1   
 12   6  31  1   
 13   6  32  1   
 14   7  11  ar  
 15   7  33  1   
 16   8  12  ar  
 17   8  34  1   
 18   9  13  1   
 19   9  14  1   
 20   9  15  1   
 21  10  14  1   
 22  10  35  1   
 23  10  36  1   
 24  11  16  ar  
 25  12  16  ar  
 26  12  37  1   
 27  13  17  ar  
 28  13  18  ar  
 29  14  38  1   
 30  14  39  1   
 31  15  19  1   
 32  15  40  1   
 33  15  41  1   
 34  16  20  1   
 35  17  21  ar  
 36  18  19  1   
 37  18  22  ar  
 38  19  42  1   
 39  19  43  1   
 40  20  23  1   
 41  20  24  1   
 42  21  25  ar  
 43  21  26  1   
 44  22  25  ar  
 45  22  44  1   
 46  23  45  1   
 47  23  46  1   
 48  23  47  1   
 49  24  48  1   
 50  24  49  1   
 51  24  50  1   
 52  26  27  1   
 53  26  28  1   
 54  27  51  1   
 55  27  52  1   
 56  27  53  1   
 57  28  54  1   
 58  28  55  1   
 59  28  56  1   
@<TRIPOS>SUBSTRUCTURE
  1 ****   5 GROUP 4 **** **** 0

# MOE 2024.06 (io_trps.svl 2023.06)
