@<TRIPOS>MOLECULE
NONAME
49 51 1 0 0 
SMALL
USER_CHARGES


@<TRIPOS>ATOM
  1 CL      -0.8840    -0.1320     0.1270 Cl    1 <1>  -0.1770 
  2 C       -2.4900    -0.7960    -0.0530 C.ar  1 <1>   0.1770 
  3 C       -2.7760    -2.0720     0.4060 C.ar  1 <1>  -0.1440 
  4 C       -3.4550    -0.0140    -0.6600 C.ar  1 <1>  -0.1500 
  5 C       -4.0640    -2.5540     0.2440 C.ar  1 <1>  -0.1500 
  6 C       -1.7100    -2.9290     1.0730 C.3   1 <1>  -0.0960 
  7 C       -4.7490    -0.4890    -0.8250 C.ar  1 <1>  -0.0090 
  8 C       -5.0330    -1.7710    -0.3630 C.ar  1 <1>  -0.1500 
  9 S       -6.0210     0.5450    -1.6010 S.o2  1 <1>   1.4470 
 10 O       -7.3120    -0.1140    -1.5540 O.2   1 <1>  -0.6500 
 11 O       -5.5290     1.0350    -2.8680 O.2   1 <1>  -0.6500 
 12 N       -6.1220     1.8760    -0.5520 N.am  1 <1>  -0.8490 
 13 C       -6.5390     1.5240     0.8190 C.3   1 <1>   0.1960 
 14 C       -6.8170     3.0310    -1.1350 C.3   1 <1>   0.1960 
 15 C       -7.6050     2.4660     1.3900 C.3   1 <1>  -0.1600 
 16 C       -8.3310     2.8500    -1.0250 C.3   1 <1>  -0.1600 
 17 C       -8.8030     2.6600     0.4360 C.3   1 <1>   0.2800 
 18 O       -9.3560     3.9020     0.8140 O.3   1 <1>  -0.5600 
 19 C       -9.8490     1.5110     0.6070 C.3   1 <1>   0.2000 
 20 C      -10.7400     4.0260     1.0210 C.3   1 <1>   0.1200 
 21 O       -9.3530     0.2340     0.2950 O.3   1 <1>  -0.6800 
 22 C      -11.2110     1.8050    -0.0890 C.3   1 <1>   0.2800 
 23 C      -11.5100     3.3120    -0.0920 C.3   1 <1>  -0.1600 
 24 O      -12.1820     1.1990     0.6800 O.3   1 <1>  -0.6800 
 25 C      -11.3970     1.2160    -1.4960 C.3   1 <1>  -0.2400 
 26 H       -3.1960     0.9720    -1.0050 H     1 <1>   0.1500 
 27 H       -4.3220    -3.5420     0.5870 H     1 <1>   0.1500 
 28 H       -2.1070    -3.8850     1.3640 H     1 <1>   0.0800 
 29 H       -1.3350    -2.4330     1.9510 H     1 <1>   0.0800 
 30 H       -0.8920    -3.0920     0.3930 H     1 <1>   0.0800 
 31 H       -6.0300    -2.1650    -0.4790 H     1 <1>   0.1500 
 32 H       -6.9170     0.5160     0.8520 H     1 <1>   0.0800 
 33 H       -5.6710     1.5510     1.4570 H     1 <1>   0.0800 
 34 H       -6.5240     3.9240    -0.6080 H     1 <1>   0.0800 
 35 H       -6.5320     3.1650    -2.1650 H     1 <1>   0.0800 
 36 H       -7.1390     3.4160     1.5850 H     1 <1>   0.0800 
 37 H       -7.9440     2.0800     2.3330 H     1 <1>   0.0800 
 38 H       -8.6040     2.0100    -1.6290 H     1 <1>   0.0800 
 39 H       -8.8110     3.7080    -1.4600 H     1 <1>   0.0800 
 40 H      -10.0520     1.4700     1.6640 H     1 <1>   0.0800 
 41 H      -10.9820     3.6100     1.9850 H     1 <1>   0.0800 
 42 H      -10.9750     5.0760     1.0310 H     1 <1>   0.0800 
 43 H       -8.8370     0.2300    -0.5490 H     1 <1>   0.4000 
 44 H      -11.2140     3.7520    -1.0270 H     1 <1>   0.0800 
 45 H      -12.5660     3.4820     0.0190 H     1 <1>   0.0800 
 46 H      -11.9630     0.2480     0.7470 H     1 <1>   0.4000 
 47 H      -10.7190     1.6640    -2.1950 H     1 <1>   0.0800 
 48 H      -12.3970     1.4080    -1.8430 H     1 <1>   0.0800 
 49 H      -11.2300     0.1540    -1.4970 H     1 <1>   0.0800 
@<TRIPOS>BOND
  1   1   2  1   
  2   2   3  ar  
  3   2   4  ar  
  4   3   5  ar  
  5   3   6  1   
  6   4   7  ar  
  7   4  26  1   
  8   5   8  ar  
  9   5  27  1   
 10   6  28  1   
 11   6  29  1   
 12   6  30  1   
 13   7   8  ar  
 14   7   9  1   
 15   8  31  1   
 16   9  10  2   
 17   9  11  2   
 18   9  12  am  
 19  12  13  1   
 20  12  14  1   
 21  13  15  1   
 22  13  32  1   
 23  13  33  1   
 24  14  16  1   
 25  14  34  1   
 26  14  35  1   
 27  15  17  1   
 28  15  36  1   
 29  15  37  1   
 30  16  17  1   
 31  16  38  1   
 32  16  39  1   
 33  17  18  1   
 34  17  19  1   
 35  18  20  1   
 36  19  21  1   
 37  19  22  1   
 38  19  40  1   
 39  20  23  1   
 40  20  41  1   
 41  20  42  1   
 42  21  43  1   
 43  22  23  1   
 44  22  24  1   
 45  22  25  1   
 46  23  44  1   
 47  23  45  1   
 48  24  46  1   
 49  25  47  1   
 50  25  48  1   
 51  25  49  1   
@<TRIPOS>SUBSTRUCTURE
  1 ****  13 GROUP 4 **** **** 0

# MOE 2024.06 (io_trps.svl 2023.06)
