@<TRIPOS>MOLECULE
NONAME
56 60 1 0 0 
SMALL
USER_CHARGES


@<TRIPOS>ATOM
  1 S        0.0640    -0.7130     0.2370 S.3   1 <1>  -0.0800 
  2 C       -1.5610    -0.6200    -0.4610 C.2   1 <1>   0.4620 
  3 C       -0.0040     0.9910     0.6140 C.ar  1 <1>   0.0400 
  4 N       -2.0820     0.5520    -0.4110 N.2   1 <1>  -0.5650 
  5 N       -2.1520    -1.7480    -0.9910 N.pl3 1 <1>  -0.8220 
  6 C       -1.2280     1.4680     0.1850 C.ar  1 <1>   0.2270 
  7 C        0.9540     1.7760     1.2270 C.ar  1 <1>  -0.1500 
  8 C       -3.4310    -1.5990    -1.7360 C.3   1 <1>   0.2090 
  9 C       -1.6400    -3.1330    -0.7900 C.3   1 <1>   0.2090 
 10 C       -1.5060     2.8140     0.3820 C.ar  1 <1>  -0.1500 
 11 C        0.6580     3.1160     1.4160 C.ar  1 <1>  -0.1500 
 12 C       -4.6310    -1.5690    -0.7680 C.3   1 <1>   0.2090 
 13 C       -2.7380    -4.0990    -0.3270 C.3   1 <1>  -0.1600 
 14 C       -0.5670     3.6300     0.9950 C.ar  1 <1>  -0.1500 
 15 N       -4.9220    -2.9100    -0.1320 N.pl3 1 <1>  -0.8380 
 16 C       -3.7540    -3.4690     0.6330 C.3   1 <1>   0.2090 
 17 C       -6.0850    -3.6110    -0.2170 C.ar  1 <1>   0.7710 
 18 N       -6.0940    -4.8990     0.0930 N.ar  1 <1>  -0.6200 
 19 N       -7.2040    -2.9770    -0.6100 N.ar  1 <1>  -0.1790 
 20 C       -7.2260    -5.5720     0.0100 C.ar  1 <1>   0.4100 
 21 C       -8.3850    -3.6280    -0.7330 C.ar  1 <1>   0.2110 
 22 N       -7.2120    -6.8850     0.3610 N.pl3 1 <1>  -0.8380 
 23 C       -8.4090    -4.9460    -0.4280 C.ar  1 <1>  -0.1500 
 24 C       -8.3640    -7.6040     0.9820 C.3   1 <1>   0.2090 
 25 C       -5.9720    -7.7190     0.2930 C.3   1 <1>   0.2090 
 26 C       -8.6890    -8.8460     0.1530 C.3   1 <1>  -0.1600 
 27 C       -6.2540    -8.9790    -0.5270 C.3   1 <1>  -0.1600 
 28 C       -7.4520    -9.7370     0.0450 C.3   1 <1>   0.2000 
 29 O       -7.7440   -10.7920    -0.7890 O.3   1 <1>  -0.6800 
 30 H        1.8910     1.3540     1.5430 H     1 <1>   0.1500 
 31 H       -3.5450    -2.3940    -2.4510 H     1 <1>   0.0800 
 32 H       -3.4040    -0.6730    -2.2840 H     1 <1>   0.0800 
 33 H       -0.8660    -3.1330    -0.0440 H     1 <1>   0.0800 
 34 H       -1.2040    -3.4880    -1.7090 H     1 <1>   0.0800 
 35 H       -2.4510     3.2050     0.0540 H     1 <1>   0.1500 
 36 H        1.3750     3.7640     1.8890 H     1 <1>   0.1500 
 37 H       -5.4770    -1.2210    -1.3280 H     1 <1>   0.0800 
 38 H       -4.4310    -0.8430     0.0030 H     1 <1>   0.0800 
 39 H       -2.2530    -4.9140     0.1790 H     1 <1>   0.0800 
 40 H       -3.2460    -4.5220    -1.1740 H     1 <1>   0.0800 
 41 H       -0.7850     4.6730     1.1470 H     1 <1>   0.1500 
 42 H       -3.2870    -2.6910     1.2170 H     1 <1>   0.0800 
 43 H       -4.0890    -4.2180     1.3310 H     1 <1>   0.0800 
 44 H       -7.1080    -1.9820    -0.7680 H     1 <1>   0.4570 
 45 H       -9.2560    -3.0870    -1.0670 H     1 <1>   0.1500 
 46 H       -9.3070    -5.5260    -0.5250 H     1 <1>   0.1500 
 47 H       -9.2300    -6.9720     1.0600 H     1 <1>   0.0800 
 48 H       -8.0900    -7.9010     1.9820 H     1 <1>   0.0800 
 49 H       -5.6680    -7.9860     1.2910 H     1 <1>   0.0800 
 50 H       -5.1640    -7.1750    -0.1680 H     1 <1>   0.0800 
 51 H       -9.0170    -8.5370    -0.8230 H     1 <1>   0.0800 
 52 H       -9.4820    -9.3920     0.6300 H     1 <1>   0.0800 
 53 H       -5.3860    -9.6130    -0.5080 H     1 <1>   0.0800 
 54 H       -6.4460    -8.6880    -1.5440 H     1 <1>   0.0800 
 55 H       -7.2050   -10.1450     1.0110 H     1 <1>   0.0800 
 56 H       -7.9310   -10.4660    -1.6900 H     1 <1>   0.4000 
@<TRIPOS>BOND
  1   1   2  1   
  2   1   3  1   
  3   2   4  2   
  4   2   5  1   
  5   3   6  ar  
  6   3   7  ar  
  7   4   6  1   
  8   5   8  1   
  9   5   9  1   
 10   6  10  ar  
 11   7  11  ar  
 12   7  30  1   
 13   8  12  1   
 14   8  31  1   
 15   8  32  1   
 16   9  13  1   
 17   9  33  1   
 18   9  34  1   
 19  10  14  ar  
 20  10  35  1   
 21  11  14  ar  
 22  11  36  1   
 23  12  15  1   
 24  12  37  1   
 25  12  38  1   
 26  13  16  1   
 27  13  39  1   
 28  13  40  1   
 29  14  41  1   
 30  15  16  1   
 31  15  17  1   
 32  16  42  1   
 33  16  43  1   
 34  17  18  ar  
 35  17  19  ar  
 36  18  20  ar  
 37  19  21  ar  
 38  19  44  1   
 39  20  22  1   
 40  20  23  ar  
 41  21  23  ar  
 42  21  45  1   
 43  22  24  1   
 44  22  25  1   
 45  23  46  1   
 46  24  26  1   
 47  24  47  1   
 48  24  48  1   
 49  25  27  1   
 50  25  49  1   
 51  25  50  1   
 52  26  28  1   
 53  26  51  1   
 54  26  52  1   
 55  27  28  1   
 56  27  53  1   
 57  27  54  1   
 58  28  29  1   
 59  28  55  1   
 60  29  56  1   
@<TRIPOS>SUBSTRUCTURE
  1 ****  15 GROUP 4 **** **** 0

# MOE 2024.06 (io_trps.svl 2023.06)
