@<TRIPOS>MOLECULE
NONAME
35 36 1 0 0 
SMALL
USER_CHARGES


@<TRIPOS>ATOM
  1 O        1.2740    -1.0980     1.8470 O.co2 1 <1>  -0.9000 
  2 C        2.1270    -1.0170     0.9670 C.2   1 <1>   0.9060 
  3 O        2.5360    -1.9810     0.3080 O.co2 1 <1>  -0.9000 
  4 C        2.7360     0.3370     0.6830 C.3   1 <1>  -0.1860 
  5 C        4.2620     0.2440     0.7850 C.3   1 <1>   0.2000 
  6 C        2.2720     0.9180    -0.6790 C.3   1 <1>  -0.1600 
  7 O        4.7150    -0.6290    -0.1910 O.3   1 <1>  -0.6800 
  8 C        4.9060     1.6210     0.5380 C.3   1 <1>   0.3430 
  9 C        3.3840     1.6410    -1.4440 C.3   1 <1>   0.3430 
 10 N        4.1890     2.4670    -0.4990 N.4   1 <1>  -0.9590 
 11 C        5.1370     3.3510    -1.2180 C.3   1 <1>   0.4860 
 12 C        5.7940     4.2800    -0.2150 C.ar  1 <1>  -0.1440 
 13 C        7.1060     4.0640     0.1840 C.ar  1 <1>  -0.1500 
 14 C        5.0830     5.3480     0.3190 C.ar  1 <1>  -0.1500 
 15 C        7.6880     4.9030     1.1200 C.ar  1 <1>   0.0820 
 16 C        5.6720     6.1840     1.2520 C.ar  1 <1>  -0.1500 
 17 O        8.9520     4.7070     1.5200 O.3   1 <1>  -0.5330 
 18 C        6.9750     5.9590     1.6570 C.ar  1 <1>  -0.1500 
 19 H        2.3970     0.9920     1.4640 H     1 <1>   0.0800 
 20 H        4.5600    -0.1560     1.7400 H     1 <1>   0.0800 
 21 H        1.4360     1.5760    -0.5220 H     1 <1>   0.0800 
 22 H        1.9210     0.1150    -1.3050 H     1 <1>   0.0800 
 23 H        4.0750    -1.4100    -0.1710 H     1 <1>   0.4000 
 24 H        5.9270     1.4510     0.2400 H     1 <1>   0.0800 
 25 H        4.9250     2.1620     1.4690 H     1 <1>   0.0800 
 26 H        2.9510     2.2520    -2.2190 H     1 <1>   0.0800 
 27 H        4.0230     0.9040    -1.9080 H     1 <1>   0.0800 
 28 H        3.5300     3.0580     0.0180 H     1 <1>   0.4500 
 29 H        5.8850     2.7580    -1.7180 H     1 <1>   0.0800 
 30 H        4.6120     3.9350    -1.9560 H     1 <1>   0.0800 
 31 H        7.6800     3.2500    -0.2230 H     1 <1>   0.1500 
 32 H        4.0690     5.5460     0.0160 H     1 <1>   0.1500 
 33 H        5.1220     7.0130     1.6660 H     1 <1>   0.1500 
 34 H        9.4290     4.0090     1.0370 H     1 <1>   0.4500 
 35 H        7.4440     6.6000     2.3820 H     1 <1>   0.1500 
@<TRIPOS>BOND
  1   1   2  ar  
  2   2   3  ar  
  3   2   4  1   
  4   4   5  1   
  5   4   6  1   
  6   4  19  1   
  7   5   7  1   
  8   5   8  1   
  9   5  20  1   
 10   6   9  1   
 11   6  21  1   
 12   6  22  1   
 13   7  23  1   
 14   8  10  1   
 15   8  24  1   
 16   8  25  1   
 17   9  10  1   
 18   9  26  1   
 19   9  27  1   
 20  10  11  1   
 21  10  28  1   
 22  11  12  1   
 23  11  29  1   
 24  11  30  1   
 25  12  13  ar  
 26  12  14  ar  
 27  13  15  ar  
 28  13  31  1   
 29  14  16  ar  
 30  14  32  1   
 31  15  17  1   
 32  15  18  ar  
 33  16  18  ar  
 34  16  33  1   
 35  17  34  1   
 36  18  35  1   
@<TRIPOS>SUBSTRUCTURE
  1 ****   8 GROUP 4 **** **** 0

# MOE 2024.06 (io_trps.svl 2023.06)
