@<TRIPOS>MOLECULE
NONAME
51 54 1 0 0 
SMALL
USER_CHARGES


@<TRIPOS>ATOM
  1 O       -2.3930     0.6200    -2.1840 O.2   1 <1>  -0.5700 
  2 C       -2.1170     1.0940    -1.0990 C.2   1 <1>   0.5440 
  3 N       -2.3390     0.2960    -0.0010 N.am  1 <1>  -0.6600 
  4 C       -1.6520     2.4600    -0.9760 C.ar  1 <1>   0.0860 
  5 C       -3.3060     0.7260     1.0530 C.3   1 <1>   0.1400 
  6 C       -2.2480    -1.1860    -0.1520 C.3   1 <1>   0.1400 
  7 C       -1.9510     3.3940    -1.9920 C.ar  1 <1>   0.1600 
  8 C       -0.9260     2.9160     0.0970 C.ar  1 <1>  -0.1500 
  9 C       -4.7100     0.1090     0.8200 C.3   1 <1>   0.4230 
 10 C       -3.6390    -1.7720    -0.4480 C.3   1 <1>   0.3430 
 11 N       -1.6270     4.6510    -1.9780 N.ar  1 <1>  -0.6200 
 12 C       -0.5440     4.2650     0.1540 C.ar  1 <1>   0.0000 
 13 N       -4.6520    -1.3980     0.6140 N.4   1 <1>  -0.9590 
 14 C       -5.4300     0.8000    -0.3630 C.3   1 <1>   0.1200 
 15 C       -0.9230     5.1080    -0.9130 C.ar  1 <1>   0.3100 
 16 C        0.1950     4.8090     1.2250 C.ar  1 <1>  -0.1500 
 17 C       -6.0380    -1.9140     0.3230 C.3   1 <1>   0.4230 
 18 O       -6.7020     0.2470    -0.5400 O.3   1 <1>  -0.5600 
 19 C       -0.5540     6.4610    -0.8640 C.ar  1 <1>  -0.1500 
 20 C        0.5390     6.1340     1.2420 C.ar  1 <1>  -0.1500 
 21 C       -6.7100    -1.1230    -0.8260 C.3   1 <1>   0.1200 
 22 C       -6.0120    -3.4300     0.0700 C.3   1 <1>  -0.1600 
 23 C        0.1600     6.9710     0.1880 C.ar  1 <1>  -0.1500 
 24 C       -7.4110    -4.0620     0.1520 C.3   1 <1>  -0.1600 
 25 C       -7.3330    -5.5810    -0.0230 C.3   1 <1>  -0.2400 
 26 H       -2.9360     0.4210     2.0160 H     1 <1>   0.0800 
 27 H       -3.3870     1.8000     1.0660 H     1 <1>   0.0800 
 28 H       -1.5800    -1.4280    -0.9640 H     1 <1>   0.0800 
 29 H       -1.8410    -1.6200     0.7440 H     1 <1>   0.0800 
 30 H       -2.4980     3.0330    -2.8470 H     1 <1>   0.1500 
 31 H       -0.6380     2.2590     0.8960 H     1 <1>   0.1500 
 32 H       -5.3000     0.3160     1.6970 H     1 <1>   0.0800 
 33 H       -3.5560    -2.8430    -0.5200 H     1 <1>   0.0800 
 34 H       -3.9600    -1.4000    -1.4090 H     1 <1>   0.0800 
 35 H       -4.3480    -1.8220     1.4980 H     1 <1>   0.4500 
 36 H       -4.8800     0.6980    -1.2820 H     1 <1>   0.0800 
 37 H       -5.5600     1.8490    -0.1600 H     1 <1>   0.0800 
 38 H        0.4890     4.1650     2.0340 H     1 <1>   0.1500 
 39 H       -6.6440    -1.7510     1.2000 H     1 <1>   0.0800 
 40 H       -0.8530     7.0870    -1.6850 H     1 <1>   0.1500 
 41 H        1.1030     6.5490     2.0610 H     1 <1>   0.1500 
 42 H       -7.7380    -1.4170    -0.9340 H     1 <1>   0.0800 
 43 H       -6.2100    -1.2850    -1.7650 H     1 <1>   0.0800 
 44 H       -5.6000    -3.6400    -0.9020 H     1 <1>   0.0800 
 45 H       -5.3940    -3.9010     0.8150 H     1 <1>   0.0800 
 46 H        0.4370     8.0110     0.2140 H     1 <1>   0.1500 
 47 H       -7.8600    -3.8450     1.1070 H     1 <1>   0.0800 
 48 H       -8.0530    -3.6640    -0.6160 H     1 <1>   0.0800 
 49 H       -6.7290    -6.0250     0.7490 H     1 <1>   0.0800 
 50 H       -6.9140    -5.8350    -0.9810 H     1 <1>   0.0800 
 51 H       -8.3200    -6.0080     0.0360 H     1 <1>   0.0800 
@<TRIPOS>BOND
  1   1   2  2   
  2   2   3  am  
  3   2   4  1   
  4   3   5  1   
  5   3   6  1   
  6   4   7  ar  
  7   4   8  ar  
  8   5   9  1   
  9   5  26  1   
 10   5  27  1   
 11   6  10  1   
 12   6  28  1   
 13   6  29  1   
 14   7  11  ar  
 15   7  30  1   
 16   8  12  ar  
 17   8  31  1   
 18   9  13  1   
 19   9  14  1   
 20   9  32  1   
 21  10  13  1   
 22  10  33  1   
 23  10  34  1   
 24  11  15  ar  
 25  12  15  ar  
 26  12  16  ar  
 27  13  17  1   
 28  13  35  1   
 29  14  18  1   
 30  14  36  1   
 31  14  37  1   
 32  15  19  ar  
 33  16  20  ar  
 34  16  38  1   
 35  17  21  1   
 36  17  22  1   
 37  17  39  1   
 38  18  21  1   
 39  19  23  ar  
 40  19  40  1   
 41  20  23  ar  
 42  20  41  1   
 43  21  42  1   
 44  21  43  1   
 45  22  24  1   
 46  22  44  1   
 47  22  45  1   
 48  23  46  1   
 49  24  25  1   
 50  24  47  1   
 51  24  48  1   
 52  25  49  1   
 53  25  50  1   
 54  25  51  1   
@<TRIPOS>SUBSTRUCTURE
  1 ****   3 GROUP 4 **** **** 0

# MOE 2024.06 (io_trps.svl 2023.06)
