@<TRIPOS>MOLECULE
NONAME
52 55 1 0 0 
SMALL
USER_CHARGES


@<TRIPOS>ATOM
  1 CL      -0.5430     0.7470     0.0410 Cl    1 <1>  -0.1770 
  2 C       -1.9360    -0.2940     0.0470 C.ar  1 <1>   0.1770 
  3 C       -3.1910     0.2530    -0.0090 C.ar  1 <1>  -0.1500 
  4 C       -1.7500    -1.6700     0.1080 C.ar  1 <1>  -0.1500 
  5 C       -4.3110    -0.5820    -0.0040 C.ar  1 <1>   0.3610 
  6 C       -2.8450    -2.5000     0.1130 C.ar  1 <1>  -0.1500 
  7 N       -5.5900    -0.0560    -0.0630 N.ar  1 <1>  -0.1790 
  8 C       -4.1530    -1.9810     0.0570 C.ar  1 <1>   0.0000 
  9 C       -6.7130    -0.7770    -0.0690 C.ar  1 <1>   0.4610 
 10 C       -5.3340    -2.7840     0.0600 C.ar  1 <1>  -0.1430 
 11 N       -7.9100    -0.1520    -0.1480 N.pl3 1 <1>  -0.8380 
 12 C       -6.5570    -2.1860     0.0010 C.ar  1 <1>  -0.1500 
 13 C       -5.2290    -4.3030     0.1350 C.3   1 <1>  -0.0970 
 14 C       -8.1150     1.3240     0.0790 C.3   1 <1>   0.2090 
 15 C       -9.1710    -0.9020    -0.4950 C.3   1 <1>   0.2090 
 16 C       -9.5080     1.5830     0.6470 C.3   1 <1>  -0.1600 
 17 C      -10.1600     0.0030    -1.2290 C.3   1 <1>  -0.1600 
 18 C      -10.5950     1.2280    -0.3900 C.3   1 <1>   0.2800 
 19 O      -10.6150     2.2750    -1.3170 O.3   1 <1>  -0.5600 
 20 C      -11.9820     0.9810     0.2760 C.3   1 <1>  -0.1600 
 21 C      -11.2940     3.4910    -1.0930 C.3   1 <1>   0.1200 
 22 C      -13.0820     1.9830    -0.1020 C.3   1 <1>   0.2800 
 23 C      -12.4850     3.4060    -0.1240 C.3   1 <1>   0.2000 
 24 O      -13.5440     1.6680    -1.3660 O.3   1 <1>  -0.6800 
 25 C      -14.2990     1.8620     0.8210 C.3   1 <1>  -0.2400 
 26 O      -12.0480     3.7740     1.1530 O.3   1 <1>  -0.6800 
 27 H       -3.2920     1.3220    -0.0560 H     1 <1>   0.1500 
 28 H       -0.7480    -2.0630     0.1510 H     1 <1>   0.1500 
 29 H       -2.6880    -3.5640     0.1610 H     1 <1>   0.1500 
 30 H       -5.6990     0.9470    -0.1570 H     1 <1>   0.4570 
 31 H       -7.4440    -2.7900     0.0190 H     1 <1>   0.1500 
 32 H       -6.2020    -4.7620     0.1320 H     1 <1>   0.0800 
 33 H       -4.7260    -4.5990     1.0400 H     1 <1>   0.0800 
 34 H       -4.6800    -4.6820    -0.7090 H     1 <1>   0.0800 
 35 H       -7.3900     1.7010     0.7800 H     1 <1>   0.0800 
 36 H       -8.0080     1.8560    -0.8540 H     1 <1>   0.0800 
 37 H       -8.9430    -1.7350    -1.1390 H     1 <1>   0.0800 
 38 H       -9.6240    -1.2820     0.4050 H     1 <1>   0.0800 
 39 H       -9.5900     2.6130     0.9360 H     1 <1>   0.0800 
 40 H       -9.6180     0.9880     1.5360 H     1 <1>   0.0800 
 41 H      -11.0130    -0.5730    -1.5350 H     1 <1>   0.0800 
 42 H       -9.6800     0.3310    -2.1360 H     1 <1>   0.0800 
 43 H      -12.3370    -0.0150     0.0920 H     1 <1>   0.0800 
 44 H      -11.8570     1.0290     1.3420 H     1 <1>   0.0800 
 45 H      -10.5840     4.2270    -0.7600 H     1 <1>   0.0800 
 46 H      -11.6650     3.7990    -2.0540 H     1 <1>   0.0800 
 47 H      -13.2390     4.1200    -0.4070 H     1 <1>   0.0800 
 48 H      -13.9930     0.8040    -1.3510 H     1 <1>   0.4000 
 49 H      -14.0250     2.1010     1.8330 H     1 <1>   0.0800 
 50 H      -14.6950     0.8630     0.8090 H     1 <1>   0.0800 
 51 H      -15.0640     2.5530     0.5160 H     1 <1>   0.0800 
 52 H      -11.3720     3.1450     1.4620 H     1 <1>   0.4000 
@<TRIPOS>BOND
  1   1   2  1   
  2   2   3  ar  
  3   2   4  ar  
  4   3   5  ar  
  5   3  27  1   
  6   4   6  ar  
  7   4  28  1   
  8   5   7  ar  
  9   5   8  ar  
 10   6   8  ar  
 11   6  29  1   
 12   7   9  ar  
 13   7  30  1   
 14   8  10  ar  
 15   9  11  1   
 16   9  12  ar  
 17  10  12  ar  
 18  10  13  1   
 19  11  14  1   
 20  11  15  1   
 21  12  31  1   
 22  13  32  1   
 23  13  33  1   
 24  13  34  1   
 25  14  16  1   
 26  14  35  1   
 27  14  36  1   
 28  15  17  1   
 29  15  37  1   
 30  15  38  1   
 31  16  18  1   
 32  16  39  1   
 33  16  40  1   
 34  17  18  1   
 35  17  41  1   
 36  17  42  1   
 37  18  19  1   
 38  18  20  1   
 39  19  21  1   
 40  20  22  1   
 41  20  43  1   
 42  20  44  1   
 43  21  23  1   
 44  21  45  1   
 45  21  46  1   
 46  22  23  1   
 47  22  24  1   
 48  22  25  1   
 49  23  26  1   
 50  23  47  1   
 51  24  48  1   
 52  25  49  1   
 53  25  50  1   
 54  25  51  1   
 55  26  52  1   
@<TRIPOS>SUBSTRUCTURE
  1 ****  11 GROUP 4 **** **** 0

# MOE 2024.06 (io_trps.svl 2023.06)
