@<TRIPOS>MOLECULE
NONAME
40 42 1 0 0 
SMALL
USER_CHARGES


@<TRIPOS>ATOM
  1 O       -0.4630     0.3900    -0.5940 O.2   1 <1>  -0.5700 
  2 C       -1.4650     0.9880    -0.2520 C.2   1 <1>   0.5440 
  3 N       -2.5950     0.2550     0.0380 N.am  1 <1>  -0.6600 
  4 C       -1.4440     2.4300    -0.1790 C.ar  1 <1>   0.0860 
  5 C       -3.9850     0.7620    -0.1030 C.3   1 <1>   0.1400 
  6 C       -2.5840    -1.2310     0.0310 C.3   1 <1>   0.1400 
  7 C       -0.7850     3.1730    -1.1570 C.ar  1 <1>   0.1600 
  8 C       -2.0540     3.1480     0.8470 C.ar  1 <1>  -0.1500 
  9 C       -4.8160    -0.4710    -0.4570 C.3   1 <1>   0.2000 
 10 C       -4.0500    -1.6530     0.1300 C.3   1 <1>  -0.0800 
 11 N       -0.7080     4.4930    -1.2140 N.ar  1 <1>  -0.6200 
 12 C       -1.9820     4.5200     0.8080 C.ar  1 <1>  -0.1500 
 13 O       -6.0890    -0.4060     0.0860 O.3   1 <1>  -0.6800 
 14 C       -4.3570    -2.9810    -0.5760 C.3   1 <1>   0.0200 
 15 C       -1.3080     5.1440    -0.2360 C.ar  1 <1>   0.4100 
 16 C       -3.5130    -4.1050    -0.0070 C.2   1 <1>  -0.0400 
 17 N       -1.2080     6.4890    -0.3140 N.pl3 1 <1>  -0.9000 
 18 O       -3.6430    -4.4480     1.2470 O.3   1 <1>  -0.0190 
 19 C       -2.5730    -4.8890    -0.5540 C.2   1 <1>  -0.1500 
 20 N       -2.8370    -5.4170     1.5700 N.2   1 <1>  -0.4100 
 21 C       -2.1800    -5.7050     0.5030 C.2   1 <1>   0.1080 
 22 C       -1.1240    -6.7830     0.4200 C.3   1 <1>  -0.0590 
 23 H       -4.3070     1.1770     0.8360 H     1 <1>   0.0800 
 24 H       -4.0480     1.5020    -0.8810 H     1 <1>   0.0800 
 25 H       -2.1450    -1.5740    -0.8910 H     1 <1>   0.0800 
 26 H       -2.0070    -1.6110     0.8580 H     1 <1>   0.0800 
 27 H       -0.2910     2.6270    -1.9430 H     1 <1>   0.1500 
 28 H       -2.5580     2.6360     1.6480 H     1 <1>   0.1500 
 29 H       -4.9060    -0.5520    -1.5270 H     1 <1>   0.0800 
 30 H       -4.2820    -1.7450     1.1780 H     1 <1>   0.0800 
 31 H       -2.4390     5.1220     1.5700 H     1 <1>   0.1500 
 32 H       -6.0470    -0.4190     1.0620 H     1 <1>   0.4000 
 33 H       -4.1610    -2.8920    -1.6300 H     1 <1>   0.0800 
 34 H       -5.3970    -3.2260    -0.4500 H     1 <1>   0.0800 
 35 H       -0.5860     6.8160    -1.0560 H     1 <1>   0.4000 
 36 H       -1.1700     7.0430     0.5400 H     1 <1>   0.4000 
 37 H       -2.1880    -4.9120    -1.5560 H     1 <1>   0.1500 
 38 H       -1.4040    -7.5130    -0.3160 H     1 <1>   0.0800 
 39 H       -1.0220    -7.2710     1.3730 H     1 <1>   0.0800 
 40 H       -0.1790    -6.3480     0.1500 H     1 <1>   0.0800 
@<TRIPOS>BOND
  1   1   2  2   
  2   2   3  am  
  3   2   4  1   
  4   3   5  1   
  5   3   6  1   
  6   4   7  ar  
  7   4   8  ar  
  8   5   9  1   
  9   5  23  1   
 10   5  24  1   
 11   6  10  1   
 12   6  25  1   
 13   6  26  1   
 14   7  11  ar  
 15   7  27  1   
 16   8  12  ar  
 17   8  28  1   
 18   9  10  1   
 19   9  13  1   
 20   9  29  1   
 21  10  14  1   
 22  10  30  1   
 23  11  15  ar  
 24  12  15  ar  
 25  12  31  1   
 26  13  32  1   
 27  14  16  1   
 28  14  33  1   
 29  14  34  1   
 30  15  17  1   
 31  16  18  1   
 32  16  19  2   
 33  17  35  1   
 34  17  36  1   
 35  18  20  1   
 36  19  21  1   
 37  19  37  1   
 38  20  21  2   
 39  21  22  1   
 40  22  38  1   
 41  22  39  1   
 42  22  40  1   
@<TRIPOS>SUBSTRUCTURE
  1 ****   3 GROUP 4 **** **** 0

# MOE 2024.06 (io_trps.svl 2023.06)
