@<TRIPOS>MOLECULE
NONAME
43 45 1 0 0 
SMALL
USER_CHARGES


@<TRIPOS>ATOM
  1 CL      -2.6770    -0.3690    -1.5450 Cl    1 <1>  -0.1770 
  2 C       -2.1420    -1.8340    -0.7650 C.ar  1 <1>   0.1770 
  3 C       -2.2250    -3.0310    -1.4500 C.ar  1 <1>  -0.1500 
  4 C       -1.6510    -1.7750     0.5250 C.ar  1 <1>  -0.1500 
  5 C       -1.8150    -4.2040    -0.8320 C.ar  1 <1>  -0.1440 
  6 C       -1.2330    -2.9430     1.1400 C.ar  1 <1>  -0.1500 
  7 C       -1.3150    -4.1490     0.4620 C.ar  1 <1>  -0.1500 
  8 C       -1.9180    -5.5430    -1.5590 C.3   1 <1>   0.0450 
  9 C       -2.6040    -6.6330    -0.7400 C.2   1 <1>   0.5690 
 10 O       -1.9220    -7.5890    -0.4470 O.2   1 <1>  -0.5700 
 11 N       -3.9280    -6.5530    -0.3580 N.am  1 <1>  -0.6600 
 12 C       -4.8060    -5.3870    -0.6820 C.3   1 <1>   0.2200 
 13 C       -4.5190    -7.6570     0.4650 C.3   1 <1>   0.0600 
 14 C       -6.2090    -5.7560    -1.1600 C.3   1 <1>  -0.1600 
 15 C       -5.0470    -4.4810     0.5210 C.3   1 <1>  -0.1600 
 16 C       -7.0190    -4.4660    -0.9710 C.3   1 <1>  -0.0800 
 17 C       -6.2970    -3.6720     0.1480 C.3   1 <1>  -0.0800 
 18 C       -8.5220    -4.7280    -0.7430 C.3   1 <1>   0.1400 
 19 C       -7.1810    -3.3380     1.3650 C.3   1 <1>  -0.0990 
 20 N       -9.1400    -3.5580    -0.0870 N.am  1 <1>  -0.7300 
 21 C       -8.5490    -2.8750     0.9150 C.2   1 <1>   0.5690 
 22 O       -9.0890    -1.9390     1.4450 O.2   1 <1>  -0.5700 
 23 H       -2.6080    -3.0320    -2.4540 H     1 <1>   0.1500 
 24 H       -1.5970    -0.8310     1.0360 H     1 <1>   0.1500 
 25 H       -0.8450    -2.9160     2.1440 H     1 <1>   0.1500 
 26 H       -0.9880    -5.0520     0.9520 H     1 <1>   0.1500 
 27 H       -0.9240    -5.8730    -1.7980 H     1 <1>   0.0800 
 28 H       -2.4440    -5.4340    -2.4890 H     1 <1>   0.0800 
 29 H       -4.3620    -4.7920    -1.4590 H     1 <1>   0.0800 
 30 H       -5.1880    -7.2640     1.2080 H     1 <1>   0.0800 
 31 H       -3.7480    -8.2100     0.9740 H     1 <1>   0.0800 
 32 H       -5.0560    -8.3340    -0.1750 H     1 <1>   0.0800 
 33 H       -6.2030    -6.0750    -2.1870 H     1 <1>   0.0800 
 34 H       -6.6300    -6.5290    -0.5450 H     1 <1>   0.0800 
 35 H       -5.2360    -5.0720     1.3970 H     1 <1>   0.0800 
 36 H       -4.2080    -3.8360     0.7060 H     1 <1>   0.0800 
 37 H       -6.9310    -3.8890    -1.8760 H     1 <1>   0.0800 
 38 H       -5.9760    -2.7380    -0.2840 H     1 <1>   0.0800 
 39 H       -8.6610    -5.5840    -0.1030 H     1 <1>   0.0800 
 40 H       -9.0100    -4.9220    -1.6830 H     1 <1>   0.0800 
 41 H       -6.7190    -2.5710     1.9590 H     1 <1>   0.0800 
 42 H       -7.3200    -4.2060     1.9810 H     1 <1>   0.0800 
 43 H      -10.0790    -3.2670    -0.3680 H     1 <1>   0.3700 
@<TRIPOS>BOND
  1   1   2  1   
  2   2   3  ar  
  3   2   4  ar  
  4   3   5  ar  
  5   3  23  1   
  6   4   6  ar  
  7   4  24  1   
  8   5   7  ar  
  9   5   8  1   
 10   6   7  ar  
 11   6  25  1   
 12   7  26  1   
 13   8   9  1   
 14   8  27  1   
 15   8  28  1   
 16   9  10  2   
 17   9  11  am  
 18  11  12  1   
 19  11  13  1   
 20  12  14  1   
 21  12  15  1   
 22  12  29  1   
 23  13  30  1   
 24  13  31  1   
 25  13  32  1   
 26  14  16  1   
 27  14  33  1   
 28  14  34  1   
 29  15  17  1   
 30  15  35  1   
 31  15  36  1   
 32  16  17  1   
 33  16  18  1   
 34  16  37  1   
 35  17  19  1   
 36  17  38  1   
 37  18  20  1   
 38  18  39  1   
 39  18  40  1   
 40  19  21  1   
 41  19  41  1   
 42  19  42  1   
 43  20  21  am  
 44  20  43  1   
 45  21  22  2   
@<TRIPOS>SUBSTRUCTURE
  1 ****  15 GROUP 4 **** **** 0

# MOE 2024.06 (io_trps.svl 2023.06)
