@<TRIPOS>MOLECULE
NONAME
15 14 1 0 0 
SMALL
USER_CHARGES


@<TRIPOS>ATOM
  1 SI       0.0590     0.4040    -0.3610 Si    1 <1>   0.5390 
  2 O        0.0370     1.4710    -1.5940 O.3   1 <1>  -0.6970 
  3 C        0.1550    -1.2540    -1.0510 C.3   1 <1>  -0.3210 
  4 C        1.4990     0.7520     0.6600 C.3   1 <1>  -0.3200 
  5 C       -1.4550     0.6080     0.5900 C.3   1 <1>  -0.3200 
  6 H        0.7990     1.4760    -2.1980 H     1 <1>   0.4000 
  7 H        1.0410    -1.3990    -1.6390 H     1 <1>   0.0800 
  8 H       -0.6800    -1.4690    -1.6920 H     1 <1>   0.0800 
  9 H        0.1610    -2.0100    -0.2880 H     1 <1>   0.0800 
 10 H        2.4180     0.6550     0.1130 H     1 <1>   0.0800 
 11 H        1.5680     0.0890     1.5020 H     1 <1>   0.0800 
 12 H        1.4770     1.7510     1.0540 H     1 <1>   0.0800 
 13 H       -2.3280     0.4340    -0.0100 H     1 <1>   0.0800 
 14 H       -1.5460     1.6020     0.9850 H     1 <1>   0.0800 
 15 H       -1.5080    -0.0670     1.4230 H     1 <1>   0.0800 
@<TRIPOS>BOND
  1   1   2  1   
  2   1   3  1   
  3   1   4  1   
  4   1   5  1   
  5   2   6  1   
  6   3   7  1   
  7   3   8  1   
  8   3   9  1   
  9   4  10  1   
 10   4  11  1   
 11   4  12  1   
 12   5  13  1   
 13   5  14  1   
 14   5  15  1   
@<TRIPOS>SUBSTRUCTURE
  1 ****   1 GROUP 4 **** **** 0

# MOE 2024.06 (io_trps.svl 2023.06)
