@<TRIPOS>MOLECULE
NONAME
49 52 1 0 0 
SMALL
USER_CHARGES


@<TRIPOS>ATOM
  1 O        0.8910    -2.1840     2.7410 O.2   1 <1>  -0.5700 
  2 C        0.8040    -3.1880     2.0550 C.2   1 <1>   0.6900 
  3 N        1.6320    -3.5390     1.0530 N.am  1 <1>  -0.5390 
  4 N       -0.1560    -4.1310     2.1680 N.am  1 <1>  -0.5390 
  5 C        1.1800    -4.7420     0.4910 C.2   1 <1>   0.1230 
  6 C        0.0700    -5.0800     1.1920 C.2   1 <1>  -0.0410 
  7 C        1.8200    -5.4020    -0.6270 C.2   1 <1>   0.6160 
  8 O        2.4440    -4.7440    -1.4420 O.2   1 <1>  -0.5700 
  9 N        1.7440    -6.7610    -0.8050 N.am  1 <1>  -0.6600 
 10 C        1.8620    -7.7200     0.3460 C.3   1 <1>   0.2200 
 11 C        1.5390    -7.2900    -2.1840 C.3   1 <1>   0.1400 
 12 C        3.1240    -8.5930     0.2080 C.3   1 <1>   0.1200 
 13 C        0.5800    -8.5540     0.6120 C.3   1 <1>   0.1100 
 14 C        1.4570    -8.8210    -2.3040 C.3   1 <1>  -0.0800 
 15 O        2.9160    -9.7310    -0.5710 O.3   1 <1>  -0.5600 
 16 N       -0.3520    -8.6550    -0.5320 N.3   1 <1>  -0.8100 
 17 C        2.7820    -9.5150    -1.9390 C.3   1 <1>   0.1200 
 18 C        0.2190    -9.4560    -1.6340 C.3   1 <1>   0.1100 
 19 C       -1.6830    -9.1840    -0.1360 C.3   1 <1>   0.2530 
 20 C       -1.6820   -10.6180     0.4070 C.ar  1 <1>   0.1670 
 21 N       -1.8440   -11.6000    -0.4720 N.ar  1 <1>  -0.6200 
 22 C       -1.5340   -10.8260     1.7710 C.ar  1 <1>  -0.1500 
 23 C       -1.8410   -12.8280     0.0160 C.ar  1 <1>   0.1670 
 24 C       -1.5360   -12.1100     2.2710 C.ar  1 <1>  -0.1500 
 25 C       -1.6920   -13.1300     1.3600 C.ar  1 <1>  -0.1500 
 26 C       -2.0160   -13.9380    -0.9990 C.3   1 <1>  -0.0970 
 27 H        2.3770    -2.9460     0.6890 H     1 <1>   0.3700 
 28 H       -0.9150    -4.0430     2.8440 H     1 <1>   0.3700 
 29 H       -0.5790    -5.9270     1.0400 H     1 <1>   0.1500 
 30 H        2.0350    -7.1370     1.2320 H     1 <1>   0.0800 
 31 H        0.6260    -6.8700    -2.5670 H     1 <1>   0.0800 
 32 H        2.3430    -6.9340    -2.8060 H     1 <1>   0.0800 
 33 H        3.4080    -8.9470     1.1830 H     1 <1>   0.0800 
 34 H        3.9440    -8.0260    -0.1970 H     1 <1>   0.0800 
 35 H        0.0630    -8.0910     1.4320 H     1 <1>   0.0800 
 36 H        0.8590    -9.5420     0.9400 H     1 <1>   0.0800 
 37 H        1.3400    -9.0110    -3.3550 H     1 <1>   0.0800 
 38 H        3.6300    -8.9510    -2.2890 H     1 <1>   0.0800 
 39 H        2.8100   -10.4860    -2.4020 H     1 <1>   0.0800 
 40 H        0.4650   -10.4450    -1.2810 H     1 <1>   0.0800 
 41 H       -0.5410    -9.5710    -2.3880 H     1 <1>   0.0800 
 42 H       -2.1060    -8.5310     0.6060 H     1 <1>   0.0800 
 43 H       -2.3370    -9.1480    -0.9900 H     1 <1>   0.0800 
 44 H       -1.4160    -9.9920     2.4370 H     1 <1>   0.1500 
 45 H       -1.4200   -12.3080     3.3230 H     1 <1>   0.1500 
 46 H       -1.6980   -14.1510     1.6930 H     1 <1>   0.1500 
 47 H       -2.0170   -14.9010    -0.5250 H     1 <1>   0.0800 
 48 H       -1.2120   -13.8990    -1.7110 H     1 <1>   0.0800 
 49 H       -2.9460   -13.8030    -1.5190 H     1 <1>   0.0800 
@<TRIPOS>BOND
  1   1   2  2   
  2   2   3  am  
  3   2   4  am  
  4   3   5  1   
  5   3  27  1   
  6   4   6  1   
  7   4  28  1   
  8   5   6  2   
  9   5   7  1   
 10   6  29  1   
 11   7   8  2   
 12   7   9  am  
 13   9  10  1   
 14   9  11  1   
 15  10  12  1   
 16  10  13  1   
 17  10  30  1   
 18  11  14  1   
 19  11  31  1   
 20  11  32  1   
 21  12  15  1   
 22  12  33  1   
 23  12  34  1   
 24  13  16  1   
 25  13  35  1   
 26  13  36  1   
 27  14  17  1   
 28  14  18  1   
 29  14  37  1   
 30  15  17  1   
 31  16  18  1   
 32  16  19  1   
 33  17  38  1   
 34  17  39  1   
 35  18  40  1   
 36  18  41  1   
 37  19  20  1   
 38  19  42  1   
 39  19  43  1   
 40  20  21  ar  
 41  20  22  ar  
 42  21  23  ar  
 43  22  24  ar  
 44  22  44  1   
 45  23  25  ar  
 46  23  26  1   
 47  24  25  ar  
 48  24  45  1   
 49  25  46  1   
 50  26  47  1   
 51  26  48  1   
 52  26  49  1   
@<TRIPOS>SUBSTRUCTURE
  1 ****  13 GROUP 4 **** **** 0

# MOE 2024.06 (io_trps.svl 2023.06)
