@<TRIPOS>MOLECULE
NONAME
48 50 1 0 0 
SMALL
USER_CHARGES


@<TRIPOS>ATOM
  1 S       -0.2220    -0.1400    -0.1180 S.3   1 <1>  -0.3320 
  2 C       -0.0730     1.6410    -0.3530 C.ar  1 <1>   0.1020 
  3 C       -1.0270    -0.8130    -1.6520 C.3   1 <1>   0.1310 
  4 C        0.3800     2.3800     0.7230 C.ar  1 <1>  -0.1500 
  5 C       -0.3950     2.2560    -1.5530 C.ar  1 <1>  -0.1500 
  6 C       -1.2830    -2.3100    -1.5370 C.2   1 <1>   0.5690 
  7 C        0.5120     3.7540     0.6130 C.ar  1 <1>   0.0830 
  8 C       -0.2630     3.6300    -1.6660 C.ar  1 <1>  -0.1500 
  9 O       -0.6860    -3.0400    -2.2930 O.2   1 <1>  -0.5700 
 10 N       -2.1930    -2.8070    -0.6400 N.am  1 <1>  -0.6600 
 11 O        0.9610     4.4160     1.7090 O.3   1 <1>  -0.3630 
 12 C        0.1870     4.3790    -0.5900 C.ar  1 <1>  -0.1500 
 13 C       -2.9910    -2.0280     0.3400 C.3   1 <1>   0.1400 
 14 C       -2.4390    -4.2610    -0.4790 C.3   1 <1>   0.1400 
 15 C        1.1490     5.8130     1.6980 C.3   1 <1>   0.0400 
 16 C       -3.9390    -3.0490     0.9670 C.3   1 <1>   0.2000 
 17 C       -3.2310    -4.3930     0.8220 C.3   1 <1>  -0.0800 
 18 O       -4.1800    -2.7710     2.3020 O.3   1 <1>  -0.6800 
 19 C       -4.1940    -5.5900     0.8390 C.3   1 <1>   0.0210 
 20 C       -3.4550    -6.8860     0.5710 C.2   1 <1>   0.1080 
 21 N       -2.5280    -7.3420     1.3550 N.2   1 <1>  -0.7070 
 22 C       -3.6670    -7.7130    -0.5280 C.2   1 <1>  -0.1500 
 23 N       -2.1190    -8.4840     0.7710 N.pl3 1 <1>   0.3000 
 24 C       -2.7940    -8.7290    -0.3720 C.2   1 <1>  -0.3320 
 25 C       -2.5580    -9.9380    -1.2580 C.3   1 <1>  -0.0600 
 26 H       -1.9500    -0.2850    -1.7930 H     1 <1>   0.0800 
 27 H       -0.3580    -0.6190    -2.4690 H     1 <1>   0.0800 
 28 H        0.6310     1.8930     1.6470 H     1 <1>   0.1500 
 29 H       -0.7400     1.6940    -2.3980 H     1 <1>   0.1500 
 30 H       -0.5100     4.1190    -2.5920 H     1 <1>   0.1500 
 31 H        0.2790     5.4410    -0.7070 H     1 <1>   0.1500 
 32 H       -2.3330    -1.6180     1.0870 H     1 <1>   0.0800 
 33 H       -3.5400    -1.2430    -0.1490 H     1 <1>   0.0800 
 34 H       -3.0100    -4.6140    -1.3210 H     1 <1>   0.0800 
 35 H       -1.5100    -4.8060    -0.4290 H     1 <1>   0.0800 
 36 H        1.5130     6.1080     2.6660 H     1 <1>   0.0800 
 37 H        0.2060     6.2910     1.5020 H     1 <1>   0.0800 
 38 H        1.8740     6.0620     0.9440 H     1 <1>   0.0800 
 39 H       -4.8790    -3.0400     0.4420 H     1 <1>   0.0800 
 40 H       -2.5130    -4.5110     1.6150 H     1 <1>   0.0800 
 41 H       -3.3580    -2.8750     2.8210 H     1 <1>   0.4000 
 42 H       -4.9620    -5.4590     0.0980 H     1 <1>   0.0800 
 43 H       -4.6670    -5.6560     1.8020 H     1 <1>   0.0800 
 44 H       -4.3790    -7.5510    -1.3170 H     1 <1>   0.1500 
 45 H       -1.3800    -9.0700     1.1760 H     1 <1>   0.2700 
 46 H       -3.2170    -9.9080    -2.1070 H     1 <1>   0.0800 
 47 H       -2.7460   -10.8440    -0.7100 H     1 <1>   0.0800 
 48 H       -1.5430    -9.9460    -1.6130 H     1 <1>   0.0800 
@<TRIPOS>BOND
  1   1   2  1   
  2   1   3  1   
  3   2   4  ar  
  4   2   5  ar  
  5   3   6  1   
  6   3  26  1   
  7   3  27  1   
  8   4   7  ar  
  9   4  28  1   
 10   5   8  ar  
 11   5  29  1   
 12   6   9  2   
 13   6  10  am  
 14   7  11  1   
 15   7  12  ar  
 16   8  12  ar  
 17   8  30  1   
 18  10  13  1   
 19  10  14  1   
 20  11  15  1   
 21  12  31  1   
 22  13  16  1   
 23  13  32  1   
 24  13  33  1   
 25  14  17  1   
 26  14  34  1   
 27  14  35  1   
 28  15  36  1   
 29  15  37  1   
 30  15  38  1   
 31  16  17  1   
 32  16  18  1   
 33  16  39  1   
 34  17  19  1   
 35  17  40  1   
 36  18  41  1   
 37  19  20  1   
 38  19  42  1   
 39  19  43  1   
 40  20  21  2   
 41  20  22  1   
 42  21  23  1   
 43  22  24  2   
 44  22  44  1   
 45  23  24  1   
 46  23  45  1   
 47  24  25  1   
 48  25  46  1   
 49  25  47  1   
 50  25  48  1   
@<TRIPOS>SUBSTRUCTURE
  1 ****  10 GROUP 4 **** **** 0

# MOE 2024.06 (io_trps.svl 2023.06)
