@<TRIPOS>MOLECULE
NONAME
50 53 1 0 0 
SMALL
USER_CHARGES


@<TRIPOS>ATOM
  1 S       -0.7370    -0.4710     0.2880 S.3   1 <1>  -0.0800 
  2 C       -1.5890    -1.8600    -0.3460 C.ar  1 <1>   0.0400 
  3 C       -0.8640    -1.1560     1.9050 C.2   1 <1>   0.1980 
  4 C       -1.8840    -2.7010     0.7090 C.ar  1 <1>   0.2270 
  5 C       -1.9380    -2.1360    -1.6540 C.ar  1 <1>  -0.1500 
  6 N       -1.4630    -2.2730     1.9660 N.2   1 <1>  -0.5650 
  7 C       -0.2570    -0.3570     3.0350 C.3   1 <1>  -0.0600 
  8 C       -2.5620    -3.8780     0.4450 C.ar  1 <1>  -0.1500 
  9 C       -2.6210    -3.3140    -1.8950 C.ar  1 <1>  -0.1500 
 10 C       -2.9500    -4.1980    -0.8550 C.ar  1 <1>   0.0860 
 11 C       -3.6820    -5.4190    -1.1200 C.2   1 <1>   0.5440 
 12 O       -3.1370    -6.4920    -0.9430 O.2   1 <1>  -0.5700 
 13 N       -4.9930    -5.3980    -1.5430 N.am  1 <1>  -0.6600 
 14 C       -5.7350    -6.6660    -1.8250 C.3   1 <1>   0.1400 
 15 C       -5.8530    -4.1830    -1.4900 C.3   1 <1>   0.1400 
 16 C       -6.5070    -7.1780    -0.5970 C.3   1 <1>   0.1400 
 17 C       -6.3170    -3.8790    -0.0590 C.3   1 <1>  -0.1600 
 18 N       -7.4010    -6.1280    -0.0020 N.am  1 <1>  -0.6600 
 19 C       -6.6630    -5.1070     0.7930 C.3   1 <1>   0.1400 
 20 C       -8.7720    -6.0840    -0.0890 C.2   1 <1>   0.5690 
 21 O       -9.4020    -5.1740     0.3980 O.2   1 <1>  -0.5700 
 22 C       -9.5720    -7.1430    -0.8330 C.3   1 <1>   0.0810 
 23 C       -9.8610    -8.3540     0.0350 C.2   1 <1>  -0.0400 
 24 O       -8.9090    -9.1970     0.3310 O.3   1 <1>  -0.0190 
 25 C      -10.9900    -8.7880     0.6150 C.2   1 <1>  -0.1500 
 26 N       -9.3390   -10.1740     1.0750 N.2   1 <1>  -0.4100 
 27 C      -10.5900    -9.9520     1.2650 C.2   1 <1>   0.1080 
 28 C      -11.4970   -10.8410     2.0870 C.3   1 <1>  -0.0590 
 29 H       -1.6820    -1.4540    -2.4460 H     1 <1>   0.1500 
 30 H       -0.7290     0.6050     3.0970 H     1 <1>   0.0800 
 31 H        0.7960    -0.2280     2.8650 H     1 <1>   0.0800 
 32 H       -0.3990    -0.8780     3.9640 H     1 <1>   0.0800 
 33 H       -2.7870    -4.5450     1.2560 H     1 <1>   0.1500 
 34 H       -2.9080    -3.5710    -2.9000 H     1 <1>   0.1500 
 35 H       -5.0420    -7.4270    -2.1400 H     1 <1>   0.0800 
 36 H       -6.4210    -6.5070    -2.6380 H     1 <1>   0.0800 
 37 H       -6.7210    -4.3420    -2.1080 H     1 <1>   0.0800 
 38 H       -5.3290    -3.3340    -1.8920 H     1 <1>   0.0800 
 39 H       -5.7990    -7.5040     0.1450 H     1 <1>   0.0800 
 40 H       -7.0720    -8.0440    -0.8850 H     1 <1>   0.0800 
 41 H       -7.1840    -3.2450    -0.1110 H     1 <1>   0.0800 
 42 H       -5.5550    -3.3170     0.4490 H     1 <1>   0.0800 
 43 H       -7.2570    -4.8030     1.6390 H     1 <1>   0.0800 
 44 H       -5.7560    -5.5420     1.1780 H     1 <1>   0.0800 
 45 H       -9.0600    -7.4400    -1.7270 H     1 <1>   0.0800 
 46 H      -10.5060    -6.7040    -1.1300 H     1 <1>   0.0800 
 47 H      -11.9770    -8.3650     0.6060 H     1 <1>   0.1500 
 48 H      -11.9150   -10.2800     2.9020 H     1 <1>   0.0800 
 49 H      -10.9380   -11.6690     2.4840 H     1 <1>   0.0800 
 50 H      -12.2920   -11.2200     1.4710 H     1 <1>   0.0800 
@<TRIPOS>BOND
  1   1   2  1   
  2   1   3  1   
  3   2   4  ar  
  4   2   5  ar  
  5   3   6  2   
  6   3   7  1   
  7   4   6  1   
  8   4   8  ar  
  9   5   9  ar  
 10   5  29  1   
 11   7  30  1   
 12   7  31  1   
 13   7  32  1   
 14   8  10  ar  
 15   8  33  1   
 16   9  10  ar  
 17   9  34  1   
 18  10  11  1   
 19  11  12  2   
 20  11  13  am  
 21  13  14  1   
 22  13  15  1   
 23  14  16  1   
 24  14  35  1   
 25  14  36  1   
 26  15  17  1   
 27  15  37  1   
 28  15  38  1   
 29  16  18  1   
 30  16  39  1   
 31  16  40  1   
 32  17  19  1   
 33  17  41  1   
 34  17  42  1   
 35  18  19  1   
 36  18  20  am  
 37  19  43  1   
 38  19  44  1   
 39  20  21  2   
 40  20  22  1   
 41  22  23  1   
 42  22  45  1   
 43  22  46  1   
 44  23  24  1   
 45  23  25  2   
 46  24  26  1   
 47  25  27  1   
 48  25  47  1   
 49  26  27  2   
 50  27  28  1   
 51  28  48  1   
 52  28  49  1   
 53  28  50  1   
@<TRIPOS>SUBSTRUCTURE
  1 ****  19 GROUP 4 **** **** 0

# MOE 2024.06 (io_trps.svl 2023.06)
