@<TRIPOS>MOLECULE
NONAME
44 45 1 0 0 
SMALL
USER_CHARGES


@<TRIPOS>ATOM
  1 F       -1.2930    -1.3620    -0.7110 F     1 <1>  -0.1900 
  2 C       -1.1980    -2.6010    -0.3020 C.ar  1 <1>   0.1900 
  3 C       -2.3110    -3.4150    -0.3770 C.ar  1 <1>  -0.1500 
  4 C        0.0110    -3.0500     0.1900 C.ar  1 <1>  -0.1500 
  5 C       -2.2170    -4.7290     0.0550 C.ar  1 <1>  -0.1440 
  6 C        0.1000    -4.3620     0.6180 C.ar  1 <1>  -0.1500 
  7 C       -1.0020    -5.2140     0.5560 C.ar  1 <1>   0.1170 
  8 C       -3.4520    -5.6220    -0.0230 C.3   1 <1>  -0.0960 
  9 N       -0.9350    -6.5500     0.9750 N.am  1 <1>  -0.5470 
 10 C        0.0380    -7.3520     1.5010 C.2   1 <1>   0.5690 
 11 O        1.1680    -7.0040     1.7490 O.2   1 <1>  -0.5700 
 12 C       -0.3830    -8.7960     1.7690 C.3   1 <1>   0.1710 
 13 N       -1.4410    -9.2370     0.8140 N.3   1 <1>  -0.8100 
 14 C       -2.5250   -10.0500     1.4050 C.3   1 <1>   0.2900 
 15 C       -0.9160    -9.7220    -0.4750 C.3   1 <1>   0.1100 
 16 C       -3.8540    -9.7450     0.7240 C.2   1 <1>   0.0060 
 17 C       -1.5490    -8.9500    -1.6380 C.3   1 <1>   0.1200 
 18 N       -4.5930    -8.7340     1.0620 N.2   1 <1>  -0.5650 
 19 N       -4.3820   -10.4870    -0.2850 N.pl3 1 <1>   0.0480 
 20 O       -1.2220    -9.5840    -2.8280 O.3   1 <1>  -0.6800 
 21 C       -5.6520    -8.8140     0.2380 C.2   1 <1>   0.0770 
 22 C       -5.5390    -9.8730    -0.5900 C.2   1 <1>  -0.3020 
 23 C       -3.8510   -11.6820    -0.9680 C.3   1 <1>   0.0160 
 24 H       -3.2290    -3.0160    -0.7660 H     1 <1>   0.1500 
 25 H        0.8570    -2.3890     0.2350 H     1 <1>   0.1500 
 26 H        1.0370    -4.7190     1.0030 H     1 <1>   0.1500 
 27 H       -4.2920    -5.0890    -0.4310 H     1 <1>   0.0800 
 28 H       -3.7220    -5.9670     0.9600 H     1 <1>   0.0800 
 29 H       -3.2620    -6.4760    -0.6480 H     1 <1>   0.0800 
 30 H       -1.7930    -7.0900     0.8120 H     1 <1>   0.3700 
 31 H       -0.7540    -8.8300     2.7780 H     1 <1>   0.0800 
 32 H        0.4750    -9.4420     1.7100 H     1 <1>   0.0800 
 33 H       -2.6430    -9.7920     2.4440 H     1 <1>   0.0800 
 34 H       -2.2860   -11.0970     1.3540 H     1 <1>   0.0800 
 35 H       -1.1180   -10.7730    -0.5820 H     1 <1>   0.0800 
 36 H        0.1500    -9.5780    -0.5180 H     1 <1>   0.0800 
 37 H       -1.1860    -7.9380    -1.6740 H     1 <1>   0.0800 
 38 H       -2.6210    -8.9410    -1.5580 H     1 <1>   0.0800 
 39 H       -0.2980    -9.3860    -3.0790 H     1 <1>   0.4000 
 40 H       -6.4520    -8.0940     0.2840 H     1 <1>   0.1500 
 41 H       -6.2050   -10.2110    -1.3620 H     1 <1>   0.1500 
 42 H       -3.2950   -12.2850    -0.2760 H     1 <1>   0.0800 
 43 H       -3.2140   -11.3740    -1.7770 H     1 <1>   0.0800 
 44 H       -4.6680   -12.2590    -1.3610 H     1 <1>   0.0800 
@<TRIPOS>BOND
  1   1   2  1   
  2   2   3  ar  
  3   2   4  ar  
  4   3   5  ar  
  5   3  24  1   
  6   4   6  ar  
  7   4  25  1   
  8   5   7  ar  
  9   5   8  1   
 10   6   7  ar  
 11   6  26  1   
 12   7   9  1   
 13   8  27  1   
 14   8  28  1   
 15   8  29  1   
 16   9  10  am  
 17   9  30  1   
 18  10  11  2   
 19  10  12  1   
 20  12  13  1   
 21  12  31  1   
 22  12  32  1   
 23  13  14  1   
 24  13  15  1   
 25  14  16  1   
 26  14  33  1   
 27  14  34  1   
 28  15  17  1   
 29  15  35  1   
 30  15  36  1   
 31  16  18  2   
 32  16  19  1   
 33  17  20  1   
 34  17  37  1   
 35  17  38  1   
 36  18  21  1   
 37  19  22  1   
 38  19  23  1   
 39  20  39  1   
 40  21  22  2   
 41  21  40  1   
 42  22  41  1   
 43  23  42  1   
 44  23  43  1   
 45  23  44  1   
@<TRIPOS>SUBSTRUCTURE
  1 ****   9 GROUP 4 **** **** 0

# MOE 2024.06 (io_trps.svl 2023.06)
