@<TRIPOS>MOLECULE
NONAME
51 53 1 0 0 
SMALL
USER_CHARGES


@<TRIPOS>ATOM
  1 F       -1.9560    -1.0850     1.5840 F     1 <1>  -0.1900 
  2 C       -2.3370     0.1130     1.2230 C.ar  1 <1>   0.1900 
  3 C       -3.0420     0.2600     0.0400 C.ar  1 <1>  -0.1440 
  4 C       -2.0350     1.1780     2.0470 C.ar  1 <1>  -0.1500 
  5 C       -3.4570     1.5340    -0.3200 C.ar  1 <1>  -0.1500 
  6 C       -3.3510    -0.9430    -0.8250 C.3   1 <1>   0.4870 
  7 C       -2.4600     2.4410     1.6730 C.ar  1 <1>  -0.1500 
  8 C       -3.1700     2.6210     0.4940 C.ar  1 <1>  -0.1440 
  9 N       -4.2340    -1.8700    -0.0520 N.4   1 <1>  -0.9590 
 10 C       -3.6250     4.0140     0.0950 C.3   1 <1>  -0.0970 
 11 C       -4.3370    -3.2330    -0.6890 C.3   1 <1>   0.3430 
 12 C       -5.5580    -1.2250     0.2150 C.3   1 <1>   0.3430 
 13 C       -5.3270    -4.2070     0.0380 C.3   1 <1>   0.4230 
 14 C       -6.4150    -2.1840     1.0390 C.3   1 <1>  -0.1600 
 15 N       -5.4550    -5.5990    -0.5920 N.4   1 <1>  -0.9590 
 16 C       -6.6970    -3.5180     0.2920 C.3   1 <1>   0.0000 
 17 C       -6.7060    -6.3400    -0.2010 C.3   1 <1>   0.3430 
 18 C       -5.2980    -5.6850    -2.0850 C.3   1 <1>   0.2630 
 19 C       -7.5740    -4.4080     1.2160 C.3   1 <1>  -0.1600 
 20 C       -7.4260    -3.2750    -1.0650 C.3   1 <1>   0.1200 
 21 C       -7.1970    -5.9010     1.1770 C.3   1 <1>  -0.1600 
 22 O       -8.2720    -2.1850    -0.9970 O.3   1 <1>  -0.6800 
 23 H       -1.4830     1.0270     2.9580 H     1 <1>   0.1500 
 24 H       -4.0010     1.6990    -1.2350 H     1 <1>   0.1500 
 25 H       -2.4240    -1.4330    -1.0780 H     1 <1>   0.0800 
 26 H       -3.8350    -0.6290    -1.7360 H     1 <1>   0.0800 
 27 H       -2.2320     3.2860     2.3020 H     1 <1>   0.1500 
 28 H       -3.7550    -1.9460     0.8620 H     1 <1>   0.4500 
 29 H       -3.8200     4.6120     0.9670 H     1 <1>   0.0800 
 30 H       -4.5260     3.9700    -0.4900 H     1 <1>   0.0800 
 31 H       -2.8580     4.4950    -0.4870 H     1 <1>   0.0800 
 32 H       -4.6690    -3.1050    -1.7060 H     1 <1>   0.0800 
 33 H       -3.3590    -3.6840    -0.7100 H     1 <1>   0.0800 
 34 H       -5.4210    -0.3040     0.7630 H     1 <1>   0.0800 
 35 H       -6.0610    -0.9920    -0.7110 H     1 <1>   0.0800 
 36 H       -4.9060    -4.3640     1.0180 H     1 <1>   0.0800 
 37 H       -5.9230    -2.3670     1.9790 H     1 <1>   0.0800 
 38 H       -7.3410    -1.6880     1.2780 H     1 <1>   0.0800 
 39 H       -4.6910    -6.1650    -0.1860 H     1 <1>   0.4500 
 40 H       -7.4880    -6.1480    -0.9190 H     1 <1>   0.0800 
 41 H       -6.5190    -7.4030    -0.1980 H     1 <1>   0.0800 
 42 H       -6.0740    -5.1260    -2.5830 H     1 <1>   0.0800 
 43 H       -5.3660    -6.7130    -2.4060 H     1 <1>   0.0800 
 44 H       -4.3380    -5.3040    -2.3940 H     1 <1>   0.0800 
 45 H       -7.5000    -4.0880     2.2430 H     1 <1>   0.0800 
 46 H       -8.6120    -4.2960     0.9480 H     1 <1>   0.0800 
 47 H       -8.0080    -4.1270    -1.3710 H     1 <1>   0.0800 
 48 H       -6.7280    -3.0510    -1.8520 H     1 <1>   0.0800 
 49 H       -8.0600    -6.4870     1.4460 H     1 <1>   0.0800 
 50 H       -6.4370    -6.1150     1.9080 H     1 <1>   0.0800 
 51 H       -9.1480    -2.4150    -0.6180 H     1 <1>   0.4000 
@<TRIPOS>BOND
  1   1   2  1   
  2   2   3  ar  
  3   2   4  ar  
  4   3   5  ar  
  5   3   6  1   
  6   4   7  ar  
  7   4  23  1   
  8   5   8  ar  
  9   5  24  1   
 10   6   9  1   
 11   6  25  1   
 12   6  26  1   
 13   7   8  ar  
 14   7  27  1   
 15   8  10  1   
 16   9  11  1   
 17   9  12  1   
 18   9  28  1   
 19  10  29  1   
 20  10  30  1   
 21  10  31  1   
 22  11  13  1   
 23  11  32  1   
 24  11  33  1   
 25  12  14  1   
 26  12  34  1   
 27  12  35  1   
 28  13  15  1   
 29  13  16  1   
 30  13  36  1   
 31  14  16  1   
 32  14  37  1   
 33  14  38  1   
 34  15  17  1   
 35  15  18  1   
 36  15  39  1   
 37  16  19  1   
 38  16  20  1   
 39  17  21  1   
 40  17  40  1   
 41  17  41  1   
 42  18  42  1   
 43  18  43  1   
 44  18  44  1   
 45  19  21  1   
 46  19  45  1   
 47  19  46  1   
 48  20  22  1   
 49  20  47  1   
 50  20  48  1   
 51  21  49  1   
 52  21  50  1   
 53  22  51  1   
@<TRIPOS>SUBSTRUCTURE
  1 ****   9 GROUP 4 **** **** 0

# MOE 2024.06 (io_trps.svl 2023.06)
