@<TRIPOS>MOLECULE
NONAME
55 58 1 0 0 
SMALL
USER_CHARGES


@<TRIPOS>ATOM
  1 O       -0.1020     1.0430     1.5850 O.2   1 <1>  -0.5700 
  2 C       -0.0200     2.2210     1.2880 C.2   1 <1>   0.5440 
  3 N       -1.1790     2.9580     1.1430 N.am  1 <1>  -0.6600 
  4 C        1.2910     2.8030     1.0870 C.ar  1 <1>   0.0860 
  5 C       -2.5110     2.4100     1.5400 C.3   1 <1>   0.1400 
  6 C       -1.2600     4.2420     0.3960 C.3   1 <1>   0.1400 
  7 C        1.6980     3.9480     1.7760 C.ar  1 <1>  -0.1500 
  8 C        2.1980     2.2300     0.1950 C.ar  1 <1>  -0.1500 
  9 C       -3.3800     2.1390     0.2960 C.3   1 <1>   0.0000 
 10 C       -2.1110     4.0540    -0.8660 C.3   1 <1>  -0.1600 
 11 C        2.9480     4.5020     1.5750 C.ar  1 <1>  -0.1500 
 12 C        3.4500     2.7780    -0.0140 C.ar  1 <1>  -0.1500 
 13 C       -4.7490     1.5670     0.7140 C.3   1 <1>   0.2000 
 14 C       -3.4880     3.4400    -0.5500 C.3   1 <1>  -0.1600 
 15 C       -2.8270     0.9770    -0.5490 C.3   1 <1>  -0.1600 
 16 C        3.8340     3.9190     0.6830 C.ar  1 <1>   0.0820 
 17 O       -5.6610     2.5450     1.0670 O.3   1 <1>  -0.6800 
 18 C       -5.2680     0.7670    -0.4800 C.3   1 <1>  -0.1600 
 19 C       -4.0270     0.4010    -1.3070 C.3   1 <1>  -0.1600 
 20 O        5.0460     4.4990     0.5160 O.3   1 <1>  -0.1650 
 21 C        6.1520     3.7820     0.1930 C.ar  1 <1>   0.0820 
 22 C        6.4510     2.5810     0.8260 C.ar  1 <1>  -0.1500 
 23 C        7.0030     4.2820    -0.7800 C.ar  1 <1>  -0.1500 
 24 C        7.5890     1.8760     0.4740 C.ar  1 <1>  -0.1500 
 25 C        8.1400     3.5770    -1.1300 C.ar  1 <1>  -0.1500 
 26 C        8.4410     2.3730    -0.5110 C.ar  1 <1>   0.0820 
 27 O        9.5750     1.7460    -0.9160 O.3   1 <1>  -0.3620 
 28 C        9.9840     0.5290    -0.3330 C.3   1 <1>   0.0400 
 29 H       -2.3920     1.5050     2.1110 H     1 <1>   0.0800 
 30 H       -3.0070     3.1260     2.1720 H     1 <1>   0.0800 
 31 H       -1.7080     4.9860     1.0310 H     1 <1>   0.0800 
 32 H       -0.2820     4.5880     0.1110 H     1 <1>   0.0800 
 33 H        1.0190     4.3990     2.4780 H     1 <1>   0.1500 
 34 H        1.9050     1.3410    -0.3360 H     1 <1>   0.1500 
 35 H       -2.2480     5.0100    -1.3400 H     1 <1>   0.0800 
 36 H       -1.5720     3.4320    -1.5580 H     1 <1>   0.0800 
 37 H        3.2470     5.3860     2.1110 H     1 <1>   0.1500 
 38 H        4.1220     2.3200    -0.7180 H     1 <1>   0.1500 
 39 H       -4.6290     0.9080     1.5580 H     1 <1>   0.0800 
 40 H       -4.0150     3.2530    -1.4680 H     1 <1>   0.0800 
 41 H       -4.0430     4.1780     0.0020 H     1 <1>   0.0800 
 42 H       -2.0330     1.2680    -1.2120 H     1 <1>   0.0800 
 43 H       -2.4390     0.2160     0.1080 H     1 <1>   0.0800 
 44 H       -5.8300     3.1210     0.2990 H     1 <1>   0.4000 
 45 H       -5.7730    -0.1190    -0.1380 H     1 <1>   0.0800 
 46 H       -5.9410     1.3530    -1.0800 H     1 <1>   0.0800 
 47 H       -3.9300    -0.6640    -1.4260 H     1 <1>   0.0800 
 48 H       -4.0950     0.8540    -2.2820 H     1 <1>   0.0800 
 49 H        5.7980     2.2030     1.5920 H     1 <1>   0.1500 
 50 H        6.7710     5.2160    -1.2590 H     1 <1>   0.1500 
 51 H        7.7960     0.9500     0.9760 H     1 <1>   0.1500 
 52 H        8.8050     3.9550    -1.8860 H     1 <1>   0.1500 
 53 H       10.9040     0.2270    -0.8010 H     1 <1>   0.0800 
 54 H        9.2250    -0.2140    -0.5050 H     1 <1>   0.0800 
 55 H       10.1430     0.6830     0.7200 H     1 <1>   0.0800 
@<TRIPOS>BOND
  1   1   2  2   
  2   2   3  am  
  3   2   4  1   
  4   3   5  1   
  5   3   6  1   
  6   4   7  ar  
  7   4   8  ar  
  8   5   9  1   
  9   5  29  1   
 10   5  30  1   
 11   6  10  1   
 12   6  31  1   
 13   6  32  1   
 14   7  11  ar  
 15   7  33  1   
 16   8  12  ar  
 17   8  34  1   
 18   9  13  1   
 19   9  14  1   
 20   9  15  1   
 21  10  14  1   
 22  10  35  1   
 23  10  36  1   
 24  11  16  ar  
 25  11  37  1   
 26  12  16  ar  
 27  12  38  1   
 28  13  17  1   
 29  13  18  1   
 30  13  39  1   
 31  14  40  1   
 32  14  41  1   
 33  15  19  1   
 34  15  42  1   
 35  15  43  1   
 36  16  20  1   
 37  17  44  1   
 38  18  19  1   
 39  18  45  1   
 40  18  46  1   
 41  19  47  1   
 42  19  48  1   
 43  20  21  1   
 44  21  22  ar  
 45  21  23  ar  
 46  22  24  ar  
 47  22  49  1   
 48  23  25  ar  
 49  23  50  1   
 50  24  26  ar  
 51  24  51  1   
 52  25  26  ar  
 53  25  52  1   
 54  26  27  1   
 55  27  28  1   
 56  28  53  1   
 57  28  54  1   
 58  28  55  1   
@<TRIPOS>SUBSTRUCTURE
  1 ****   8 GROUP 4 **** **** 0

# MOE 2024.06 (io_trps.svl 2023.06)
