@<TRIPOS>MOLECULE
NONAME
55 59 1 0 0 
SMALL
USER_CHARGES


@<TRIPOS>ATOM
  1 O       -0.7540     1.4090    -2.4400 O.2   1 <1>  -0.5700 
  2 C       -1.4070     1.6190    -1.4410 C.2   1 <1>   0.5690 
  3 N       -2.6440     1.0680    -1.3190 N.am  1 <1>  -0.5470 
  4 C       -0.8630     2.5320    -0.2970 C.3   1 <1>   0.4300 
  5 C       -3.4530     1.2240    -0.1830 C.ar  1 <1>   0.1170 
  6 N       -1.6330     2.3810     0.9860 N.pl3 1 <1>  -0.8690 
  7 C        0.5950     2.1580     0.0430 C.3   1 <1>  -0.1600 
  8 C       -0.9990     4.0030    -0.7320 C.3   1 <1>  -0.1600 
  9 C       -2.9440     1.8830     0.9490 C.ar  1 <1>   0.1000 
 10 C       -4.7510     0.7370    -0.1730 C.ar  1 <1>  -0.1500 
 11 C        1.5940     2.9870    -0.7590 C.3   1 <1>   0.2090 
 12 C        0.0440     4.8940    -0.0670 C.3   1 <1>   0.2090 
 13 C       -3.7600     2.0360     2.0590 C.ar  1 <1>  -0.1500 
 14 C       -5.5530     0.9000     0.9440 C.ar  1 <1>  -0.1500 
 15 N        1.4130     4.4350    -0.4410 N.pl3 1 <1>  -0.8380 
 16 C       -5.0560     1.5510     2.0600 C.ar  1 <1>  -0.1500 
 17 C        2.5000     5.2180    -0.1070 C.ar  1 <1>   0.4100 
 18 N        2.3510     6.0620     0.9100 N.ar  1 <1>  -0.6200 
 19 C        3.6980     5.1160    -0.8150 C.ar  1 <1>  -0.1500 
 20 C        3.4050     6.7910     1.2320 C.ar  1 <1>   0.1600 
 21 C        4.7800     5.8890    -0.4710 C.ar  1 <1>  -0.1500 
 22 C        4.6410     6.7760     0.5920 C.ar  1 <1>   0.0860 
 23 C        5.7070     7.6410     1.0410 C.2   1 <1>   0.5440 
 24 O        5.8830     7.7920     2.2350 O.2   1 <1>  -0.5700 
 25 N        6.5280     8.3160     0.1610 N.am  1 <1>  -0.6600 
 26 C        7.8010     8.9620     0.6060 C.3   1 <1>   0.1400 
 27 C        6.1060     8.7400    -1.2090 C.3   1 <1>   0.1400 
 28 C        7.7490    10.4800     0.3710 C.3   1 <1>   0.1200 
 29 C        6.1660    10.2720    -1.3460 C.3   1 <1>   0.1200 
 30 O        7.4200    10.7590    -0.9620 O.3   1 <1>  -0.5600 
 31 H       -2.9580     0.4910    -2.0960 H     1 <1>   0.3700 
 32 H       -1.4590     3.1430     1.6460 H     1 <1>   0.4000 
 33 H        0.7570     1.1140    -0.1550 H     1 <1>   0.0800 
 34 H        0.7980     2.3260     1.0850 H     1 <1>   0.0800 
 35 H       -1.9910     4.3620    -0.5220 H     1 <1>   0.0800 
 36 H       -0.8540     4.0820    -1.7950 H     1 <1>   0.0800 
 37 H       -5.1410     0.2310    -1.0370 H     1 <1>   0.1500 
 38 H        1.4450     2.8320    -1.8150 H     1 <1>   0.0800 
 39 H        2.5930     2.6760    -0.5060 H     1 <1>   0.0800 
 40 H       -0.0630     4.8610     1.0040 H     1 <1>   0.0800 
 41 H       -0.0850     5.9150    -0.3870 H     1 <1>   0.0800 
 42 H       -3.3760     2.5330     2.9310 H     1 <1>   0.1500 
 43 H       -6.5600     0.5210     0.9450 H     1 <1>   0.1500 
 44 H       -5.6770     1.6770     2.9300 H     1 <1>   0.1500 
 45 H        3.7590     4.4300    -1.6370 H     1 <1>   0.1500 
 46 H        3.2910     7.4610     2.0680 H     1 <1>   0.1500 
 47 H        5.7140     5.8140    -1.0000 H     1 <1>   0.1500 
 48 H        8.6210     8.5470     0.0470 H     1 <1>   0.0800 
 49 H        7.9840     8.7690     1.6480 H     1 <1>   0.0800 
 50 H        5.1030     8.4150    -1.4170 H     1 <1>   0.0800 
 51 H        6.7630     8.2950    -1.9360 H     1 <1>   0.0800 
 52 H        8.7090    10.9200     0.5720 H     1 <1>   0.0800 
 53 H        7.0160    10.9350     1.0140 H     1 <1>   0.0800 
 54 H        5.4140    10.7360    -0.7310 H     1 <1>   0.0800 
 55 H        6.0020    10.5610    -2.3690 H     1 <1>   0.0800 
@<TRIPOS>BOND
  1   1   2  2   
  2   2   3  am  
  3   2   4  1   
  4   3   5  1   
  5   3  31  1   
  6   4   6  1   
  7   4   7  1   
  8   4   8  1   
  9   5   9  ar  
 10   5  10  ar  
 11   6   9  1   
 12   6  32  1   
 13   7  11  1   
 14   7  33  1   
 15   7  34  1   
 16   8  12  1   
 17   8  35  1   
 18   8  36  1   
 19   9  13  ar  
 20  10  14  ar  
 21  10  37  1   
 22  11  15  1   
 23  11  38  1   
 24  11  39  1   
 25  12  15  1   
 26  12  40  1   
 27  12  41  1   
 28  13  16  ar  
 29  13  42  1   
 30  14  16  ar  
 31  14  43  1   
 32  15  17  1   
 33  16  44  1   
 34  17  18  ar  
 35  17  19  ar  
 36  18  20  ar  
 37  19  21  ar  
 38  19  45  1   
 39  20  22  ar  
 40  20  46  1   
 41  21  22  ar  
 42  21  47  1   
 43  22  23  1   
 44  23  24  2   
 45  23  25  am  
 46  25  26  1   
 47  25  27  1   
 48  26  28  1   
 49  26  48  1   
 50  26  49  1   
 51  27  29  1   
 52  27  50  1   
 53  27  51  1   
 54  28  30  1   
 55  28  52  1   
 56  28  53  1   
 57  29  30  1   
 58  29  54  1   
 59  29  55  1   
@<TRIPOS>SUBSTRUCTURE
  1 ****  15 GROUP 4 **** **** 0

# MOE 2024.06 (io_trps.svl 2023.06)
