@<TRIPOS>MOLECULE
NONAME
47 50 1 0 0 
SMALL
USER_CHARGES


@<TRIPOS>ATOM
  1 O       -2.2510    -0.9360    -2.7960 O.2   1 <1>  -0.5700 
  2 C       -2.4490    -1.2310    -1.6410 C.2   1 <1>   0.5690 
  3 N       -2.2020    -0.3610    -0.6190 N.am  1 <1>  -0.6600 
  4 C       -2.9760    -2.6170    -1.3500 C.3   1 <1>  -0.0190 
  5 C       -2.5450    -0.6910     0.7930 C.3   1 <1>   0.2200 
  6 C       -1.6430     1.0010    -0.8580 C.3   1 <1>   0.0600 
  7 C       -1.9670    -3.4120    -0.5000 C.3   1 <1>   0.1200 
  8 C       -4.4380    -2.5730    -0.8620 C.3   1 <1>   0.1400 
  9 C       -1.6890    -1.8720     1.3250 C.3   1 <1>   0.1200 
 10 C       -4.0760    -0.8340     0.9630 C.3   1 <1>   0.1400 
 11 O       -2.0520    -3.1500     0.8680 O.3   1 <1>  -0.5600 
 12 N       -4.6230    -2.1740     0.5720 N.am  1 <1>  -0.6600 
 13 C       -5.0950    -3.0200     1.5530 C.2   1 <1>   0.5690 
 14 O       -5.3440    -2.6180     2.6670 O.2   1 <1>  -0.5700 
 15 C       -5.3000    -4.5080     1.2950 C.3   1 <1>   0.0440 
 16 C       -6.5010    -4.8770     0.4120 C.ar  1 <1>  -0.1440 
 17 C       -6.5550    -6.1550    -0.2080 C.ar  1 <1>   0.0000 
 18 C       -7.5160    -3.9730     0.2170 C.ar  1 <1>  -0.1500 
 19 C       -7.6450    -6.4460    -1.0620 C.ar  1 <1>   0.0000 
 20 C       -5.5870    -7.1720    -0.0230 C.ar  1 <1>  -0.1500 
 21 C       -8.5990    -4.2750    -0.6120 C.ar  1 <1>  -0.1500 
 22 C       -8.6560    -5.4830    -1.2420 C.ar  1 <1>  -0.1500 
 23 C       -7.7030    -7.6960    -1.7130 C.ar  1 <1>  -0.1500 
 24 C       -5.6700    -8.3780    -0.6610 C.ar  1 <1>  -0.1500 
 25 C       -6.7380    -8.6430    -1.5220 C.ar  1 <1>  -0.1500 
 26 H       -3.0030    -3.1120    -2.3030 H     1 <1>   0.0800 
 27 H       -2.2650     0.1620     1.3850 H     1 <1>   0.0800 
 28 H       -0.7390     1.1290    -0.2890 H     1 <1>   0.0800 
 29 H       -2.3600     1.7470    -0.5640 H     1 <1>   0.0800 
 30 H       -1.4110     1.1430    -1.9000 H     1 <1>   0.0800 
 31 H       -0.9590    -3.2180    -0.8230 H     1 <1>   0.0800 
 32 H       -2.1610    -4.4640    -0.6190 H     1 <1>   0.0800 
 33 H       -4.8720    -3.5380    -1.0370 H     1 <1>   0.0800 
 34 H       -4.9860    -1.8790    -1.4780 H     1 <1>   0.0800 
 35 H       -1.7860    -1.9030     2.3960 H     1 <1>   0.0800 
 36 H       -0.6520    -1.7110     1.0900 H     1 <1>   0.0800 
 37 H       -4.5710    -0.0710     0.3890 H     1 <1>   0.0800 
 38 H       -4.3040    -0.6410     1.9950 H     1 <1>   0.0800 
 39 H       -4.3910    -4.8620     0.8510 H     1 <1>   0.0800 
 40 H       -5.4090    -5.0040     2.2420 H     1 <1>   0.0800 
 41 H       -7.5140    -3.0070     0.6920 H     1 <1>   0.1500 
 42 H       -4.7620    -7.0060     0.6420 H     1 <1>   0.1500 
 43 H       -9.3760    -3.5430    -0.7440 H     1 <1>   0.1500 
 44 H       -9.4840    -5.7200    -1.8860 H     1 <1>   0.1500 
 45 H       -8.5320    -7.8940    -2.3680 H     1 <1>   0.1500 
 46 H       -4.9230    -9.1380    -0.5090 H     1 <1>   0.1500 
 47 H       -6.7880    -9.5960    -2.0200 H     1 <1>   0.1500 
@<TRIPOS>BOND
  1   1   2  2   
  2   2   3  am  
  3   2   4  1   
  4   3   5  1   
  5   3   6  1   
  6   4   7  1   
  7   4   8  1   
  8   4  26  1   
  9   5   9  1   
 10   5  10  1   
 11   5  27  1   
 12   6  28  1   
 13   6  29  1   
 14   6  30  1   
 15   7  11  1   
 16   7  31  1   
 17   7  32  1   
 18   8  12  1   
 19   8  33  1   
 20   8  34  1   
 21   9  11  1   
 22   9  35  1   
 23   9  36  1   
 24  10  12  1   
 25  10  37  1   
 26  10  38  1   
 27  12  13  am  
 28  13  14  2   
 29  13  15  1   
 30  15  16  1   
 31  15  39  1   
 32  15  40  1   
 33  16  17  ar  
 34  16  18  ar  
 35  17  19  ar  
 36  17  20  ar  
 37  18  21  ar  
 38  18  41  1   
 39  19  22  ar  
 40  19  23  ar  
 41  20  24  ar  
 42  20  42  1   
 43  21  22  ar  
 44  21  43  1   
 45  22  44  1   
 46  23  25  ar  
 47  23  45  1   
 48  24  25  ar  
 49  24  46  1   
 50  25  47  1   
@<TRIPOS>SUBSTRUCTURE
  1 ****   8 GROUP 4 **** **** 0

# MOE 2024.06 (io_trps.svl 2023.06)
