@<TRIPOS>MOLECULE
NONAME
37 39 1 0 0 
SMALL
USER_CHARGES


@<TRIPOS>ATOM
  1 CL       0.1490     0.6710    -0.8810 Cl    1 <1>  -0.1770 
  2 C        0.1850     2.3330    -0.3570 C.ar  1 <1>   0.1770 
  3 C       -0.7090     3.2350    -0.9010 C.ar  1 <1>  -0.1500 
  4 C        1.1080     2.7250     0.5920 C.ar  1 <1>  -0.1500 
  5 C       -0.6750     4.5570    -0.4900 C.ar  1 <1>  -0.1500 
  6 C        1.1410     4.0470     1.0030 C.ar  1 <1>  -0.1500 
  7 C        0.2530     4.9700     0.4590 C.ar  1 <1>  -0.1430 
  8 C        0.3030     6.4260     0.8880 C.3   1 <1>   0.4870 
  9 N        1.5840     7.0160     0.4190 N.4   1 <1>  -0.9590 
 10 C        1.8850     8.3450     1.0650 C.3   1 <1>   0.3430 
 11 C        1.7450     6.9440    -1.0750 C.3   1 <1>   0.3430 
 12 C        3.3310     8.8740     0.8450 C.3   1 <1>   0.2200 
 13 C        3.1880     7.1520    -1.5590 C.3   1 <1>  -0.0190 
 14 N        3.4930     9.3760    -0.5390 N.am  1 <1>  -0.7300 
 15 C        4.4310     7.8320     1.1730 C.3   1 <1>   0.1200 
 16 C        3.4470     8.6300    -1.6550 C.2   1 <1>   0.5690 
 17 C        4.3010     6.4290    -0.7680 C.3   1 <1>   0.1200 
 18 O        4.1690     6.5640     0.6230 O.3   1 <1>  -0.5600 
 19 O        3.5780     9.1410    -2.7330 O.2   1 <1>  -0.5700 
 20 H       -1.4210     2.8990    -1.6350 H     1 <1>   0.1500 
 21 H        1.7880     1.9990     1.0020 H     1 <1>   0.1500 
 22 H       -1.3800     5.2510    -0.9180 H     1 <1>   0.1500 
 23 H        1.8630     4.3390     1.7470 H     1 <1>   0.1500 
 24 H        0.2400     6.4780     1.9630 H     1 <1>   0.0800 
 25 H       -0.5310     6.9640     0.4680 H     1 <1>   0.0800 
 26 H        2.3420     6.3900     0.7590 H     1 <1>   0.4500 
 27 H        1.1900     9.0880     0.7110 H     1 <1>   0.0800 
 28 H        1.7380     8.2450     2.1280 H     1 <1>   0.0800 
 29 H        1.4360     5.9680    -1.4100 H     1 <1>   0.0800 
 30 H        1.1030     7.6680    -1.5500 H     1 <1>   0.0800 
 31 H        3.4770     9.7160     1.5000 H     1 <1>   0.0800 
 32 H        3.2340     6.7810    -2.5670 H     1 <1>   0.0800 
 33 H        3.7280    10.3670    -0.6700 H     1 <1>   0.3700 
 34 H        4.4840     7.6980     2.2390 H     1 <1>   0.0800 
 35 H        5.3970     8.1700     0.8360 H     1 <1>   0.0800 
 36 H        5.2750     6.7860    -1.0610 H     1 <1>   0.0800 
 37 H        4.2600     5.3740    -0.9810 H     1 <1>   0.0800 
@<TRIPOS>BOND
  1   1   2  1   
  2   2   3  ar  
  3   2   4  ar  
  4   3   5  ar  
  5   3  20  1   
  6   4   6  ar  
  7   4  21  1   
  8   5   7  ar  
  9   5  22  1   
 10   6   7  ar  
 11   6  23  1   
 12   7   8  1   
 13   8   9  1   
 14   8  24  1   
 15   8  25  1   
 16   9  10  1   
 17   9  11  1   
 18   9  26  1   
 19  10  12  1   
 20  10  27  1   
 21  10  28  1   
 22  11  13  1   
 23  11  29  1   
 24  11  30  1   
 25  12  14  1   
 26  12  15  1   
 27  12  31  1   
 28  13  16  1   
 29  13  17  1   
 30  13  32  1   
 31  14  16  am  
 32  14  33  1   
 33  15  18  1   
 34  15  34  1   
 35  15  35  1   
 36  16  19  2   
 37  17  18  1   
 38  17  36  1   
 39  17  37  1   
@<TRIPOS>SUBSTRUCTURE
  1 ****   9 GROUP 4 **** **** 0

# MOE 2024.06 (io_trps.svl 2023.06)
