@<TRIPOS>MOLECULE
NONAME
37 38 1 0 0 
SMALL
USER_CHARGES


@<TRIPOS>ATOM
  1 O       -1.4510    -0.3780    -1.6450 O.2   1 <1>  -0.5700 
  2 C       -1.6150    -0.8600    -0.5430 C.2   1 <1>   0.6340 
  3 O       -1.6820    -0.0400     0.5110 O.3   1 <1>  -0.4300 
  4 C       -1.7010    -2.2940    -0.3200 C.ar  1 <1>   0.0860 
  5 C       -1.5710     1.3630     0.3740 C.3   1 <1>   0.0400 
  6 C       -2.5600    -2.9080     0.6050 C.ar  1 <1>  -0.1440 
  7 C       -0.8790    -3.1290    -1.0760 C.ar  1 <1>  -0.1500 
  8 C       -2.5550    -4.2860     0.7600 C.ar  1 <1>  -0.1500 
  9 C       -3.5320    -2.1010     1.4590 C.3   1 <1>  -0.0960 
 10 C       -0.8820    -4.5010    -0.9210 C.ar  1 <1>  -0.1500 
 11 C       -1.7210    -5.0970     0.0060 C.ar  1 <1>  -0.1440 
 12 C       -1.7480    -6.6080     0.2050 C.3   1 <1>   0.0630 
 13 C       -0.3830    -7.1280     0.6790 C.3   1 <1>  -0.1600 
 14 C       -2.1870    -7.3280    -1.0780 C.3   1 <1>  -0.1600 
 15 C       -0.3870    -8.6490     0.8270 C.3   1 <1>   0.3430 
 16 C       -2.1630    -8.8450    -0.9020 C.3   1 <1>   0.3430 
 17 N       -0.8080    -9.2740    -0.4570 N.4   1 <1>  -0.9060 
 18 H       -1.6560     1.8090     1.3490 H     1 <1>   0.0800 
 19 H       -2.3630     1.7130    -0.2660 H     1 <1>   0.0800 
 20 H       -0.6140     1.5940    -0.0590 H     1 <1>   0.0800 
 21 H       -0.2210    -2.6830    -1.8040 H     1 <1>   0.1500 
 22 H       -3.2180    -4.7310     1.4810 H     1 <1>   0.1500 
 23 H       -4.0440    -1.3720     0.8570 H     1 <1>   0.0800 
 24 H       -2.9980    -1.5920     2.2420 H     1 <1>   0.0800 
 25 H       -4.2740    -2.7340     1.9120 H     1 <1>   0.0800 
 26 H       -0.2230    -5.0900    -1.5330 H     1 <1>   0.1500 
 27 H       -2.4700    -6.8350     0.9730 H     1 <1>   0.0800 
 28 H       -0.1470    -6.6820     1.6300 H     1 <1>   0.0800 
 29 H        0.3920    -6.8410    -0.0090 H     1 <1>   0.0800 
 30 H       -1.5520    -7.0550    -1.9020 H     1 <1>   0.0800 
 31 H       -3.1870    -7.0170    -1.3300 H     1 <1>   0.0800 
 32 H       -1.0720    -8.9310     1.6120 H     1 <1>   0.0800 
 33 H        0.5990    -8.9890     1.1020 H     1 <1>   0.0800 
 34 H       -2.4170    -9.3220    -1.8370 H     1 <1>   0.0800 
 35 H       -2.8980    -9.1330    -0.1660 H     1 <1>   0.0800 
 36 H       -0.7830   -10.2980    -0.3670 H     1 <1>   0.4500 
 37 H       -0.1270    -9.0260    -1.1850 H     1 <1>   0.4500 
@<TRIPOS>BOND
  1   1   2  2   
  2   2   3  1   
  3   2   4  1   
  4   3   5  1   
  5   4   6  ar  
  6   4   7  ar  
  7   5  18  1   
  8   5  19  1   
  9   5  20  1   
 10   6   8  ar  
 11   6   9  1   
 12   7  10  ar  
 13   7  21  1   
 14   8  11  ar  
 15   8  22  1   
 16   9  23  1   
 17   9  24  1   
 18   9  25  1   
 19  10  11  ar  
 20  10  26  1   
 21  11  12  1   
 22  12  13  1   
 23  12  14  1   
 24  12  27  1   
 25  13  15  1   
 26  13  28  1   
 27  13  29  1   
 28  14  16  1   
 29  14  30  1   
 30  14  31  1   
 31  15  17  1   
 32  15  32  1   
 33  15  33  1   
 34  16  17  1   
 35  16  34  1   
 36  16  35  1   
 37  17  36  1   
 38  17  37  1   
@<TRIPOS>SUBSTRUCTURE
  1 ****  11 GROUP 4 **** **** 0

# MOE 2024.06 (io_trps.svl 2023.06)
