@<TRIPOS>MOLECULE
NONAME
54 56 1 0 0 
SMALL
USER_CHARGES


@<TRIPOS>ATOM
  1 O       -0.8070     0.4060     1.0080 O.2   1 <1>  -0.5700 
  2 C       -1.2380     1.2520     0.2440 C.2   1 <1>   0.5440 
  3 N       -2.4440     1.0190    -0.3900 N.am  1 <1>  -0.6600 
  4 C       -0.4980     2.4800     0.0560 C.ar  1 <1>   0.0860 
  5 C       -3.1060    -0.3150    -0.3020 C.3   1 <1>   0.1400 
  6 C       -3.3080     2.1200    -0.8940 C.3   1 <1>   0.1400 
  7 C       -0.0910     2.9060    -1.2100 C.ar  1 <1>  -0.1500 
  8 C       -0.1660     3.2900     1.1410 C.ar  1 <1>  -0.1500 
  9 C       -4.2420    -0.3170     0.7290 C.3   1 <1>   0.1400 
 10 C       -4.2070     2.6150     0.2420 C.3   1 <1>  -0.1600 
 11 C        0.5960     4.0920    -1.3830 C.ar  1 <1>  -0.1500 
 12 C        0.5190     4.4770     0.9710 C.ar  1 <1>  -0.1500 
 13 N       -5.4640     0.3790     0.2090 N.am  1 <1>  -0.6600 
 14 C       -5.5400     1.8640     0.3710 C.3   1 <1>   0.1400 
 15 C        0.9130     4.8970    -0.2960 C.ar  1 <1>   0.1000 
 16 C       -6.6070    -0.3150    -0.1340 C.2   1 <1>   0.7150 
 17 N        1.5980     6.0820    -0.4970 N.pl3 1 <1>  -0.8690 
 18 O       -7.6630     0.2890    -0.1940 O.2   1 <1>  -0.5700 
 19 C       -6.6000    -1.7280    -0.3940 C.2   1 <1>  -0.2370 
 20 C        2.6050     6.5630     0.4700 C.3   1 <1>   0.2090 
 21 N       -7.5180    -2.5860     0.1220 N.pl3 1 <1>   0.3140 
 22 C       -5.7750    -2.5050    -1.1510 C.2   1 <1>  -0.1500 
 23 C        3.6800     7.3430    -0.2850 C.3   1 <1>  -0.1600 
 24 N       -7.2940    -3.8550    -0.2490 N.2   1 <1>  -0.7070 
 25 C       -8.6550    -2.2560     0.9970 C.3   1 <1>   0.0160 
 26 C       -6.2490    -3.7960    -1.0180 C.2   1 <1>   0.1390 
 27 C        4.7590     7.8750     0.6650 C.3   1 <1>  -0.2400 
 28 H       -2.3820    -1.0580    -0.0180 H     1 <1>   0.0800 
 29 H       -3.4840    -0.5880    -1.2690 H     1 <1>   0.0800 
 30 H       -3.9000     1.7770    -1.7250 H     1 <1>   0.0800 
 31 H       -2.7010     2.9360    -1.2410 H     1 <1>   0.0800 
 32 H       -0.3200     2.2920    -2.0620 H     1 <1>   0.1500 
 33 H       -0.4560     2.9740     2.1280 H     1 <1>   0.1500 
 34 H       -3.9050     0.1540     1.6370 H     1 <1>   0.0800 
 35 H       -4.4810    -1.3360     0.9760 H     1 <1>   0.0800 
 36 H       -4.4430     3.6480     0.0580 H     1 <1>   0.0800 
 37 H       -3.6750     2.5860     1.1770 H     1 <1>   0.0800 
 38 H        0.8940     4.4010    -2.3670 H     1 <1>   0.1500 
 39 H        0.7460     5.0880     1.8230 H     1 <1>   0.1500 
 40 H       -6.2070     2.2510    -0.3820 H     1 <1>   0.0800 
 41 H       -5.9800     2.0850     1.3290 H     1 <1>   0.0800 
 42 H        1.8620     6.2840    -1.4660 H     1 <1>   0.4000 
 43 H        3.0490     5.7250     0.9810 H     1 <1>   0.0800 
 44 H        2.1250     7.1990     1.1940 H     1 <1>   0.0800 
 45 H       -4.9320    -2.2090    -1.7460 H     1 <1>   0.1500 
 46 H        3.2230     8.1720    -0.7970 H     1 <1>   0.0800 
 47 H        4.1420     6.6980    -1.0120 H     1 <1>   0.0800 
 48 H       -8.3060    -1.6810     1.8340 H     1 <1>   0.0800 
 49 H       -9.1110    -3.1640     1.3440 H     1 <1>   0.0800 
 50 H       -9.3730    -1.6840     0.4380 H     1 <1>   0.0800 
 51 H       -5.8180    -4.6630    -1.4900 H     1 <1>   0.1500 
 52 H        4.3260     8.5380     1.3940 H     1 <1>   0.0800 
 53 H        5.5020     8.4200     0.1090 H     1 <1>   0.0800 
 54 H        5.2440     7.0630     1.1790 H     1 <1>   0.0800 
@<TRIPOS>BOND
  1   1   2  2   
  2   2   3  am  
  3   2   4  1   
  4   3   5  1   
  5   3   6  1   
  6   4   7  ar  
  7   4   8  ar  
  8   5   9  1   
  9   5  28  1   
 10   5  29  1   
 11   6  10  1   
 12   6  30  1   
 13   6  31  1   
 14   7  11  ar  
 15   7  32  1   
 16   8  12  ar  
 17   8  33  1   
 18   9  13  1   
 19   9  34  1   
 20   9  35  1   
 21  10  14  1   
 22  10  36  1   
 23  10  37  1   
 24  11  15  ar  
 25  11  38  1   
 26  12  15  ar  
 27  12  39  1   
 28  13  14  1   
 29  13  16  am  
 30  14  40  1   
 31  14  41  1   
 32  15  17  1   
 33  16  18  2   
 34  16  19  1   
 35  17  20  1   
 36  17  42  1   
 37  19  21  1   
 38  19  22  2   
 39  20  23  1   
 40  20  43  1   
 41  20  44  1   
 42  21  24  1   
 43  21  25  1   
 44  22  26  1   
 45  22  45  1   
 46  23  27  1   
 47  23  46  1   
 48  23  47  1   
 49  24  26  2   
 50  25  48  1   
 51  25  49  1   
 52  25  50  1   
 53  26  51  1   
 54  27  52  1   
 55  27  53  1   
 56  27  54  1   
@<TRIPOS>SUBSTRUCTURE
  1 ****   3 GROUP 4 **** **** 0

# MOE 2024.06 (io_trps.svl 2023.06)
