@<TRIPOS>MOLECULE
NONAME
61 65 1 0 0 
SMALL
USER_CHARGES


@<TRIPOS>ATOM
  1 O       -2.5670     1.6680     2.4490 O.2   1 <1>  -0.5700 
  2 C       -2.8670     1.5330     1.2760 C.2   1 <1>   0.7160 
  3 N       -3.6340     0.4470     0.8990 N.am  1 <1>  -0.6600 
  4 C       -2.3390     2.4310     0.3030 C.2   1 <1>  -0.0860 
  5 C       -4.1500     0.2500    -0.4770 C.3   1 <1>   0.1400 
  6 C       -3.8630    -0.7050     1.8040 C.3   1 <1>   0.1400 
  7 C       -2.8360     3.6860    -0.0500 C.2   1 <1>   0.3720 
  8 C       -1.2970     2.2470    -0.5460 C.2   1 <1>   0.0870 
  9 C       -3.4280    -0.9500    -1.1020 C.3   1 <1>  -0.1600 
 10 C       -3.1180    -1.9160     1.2290 C.3   1 <1>  -0.1600 
 11 N       -2.1560     4.1910    -1.0220 N.2   1 <1>  -0.4100 
 12 N       -3.9440     4.3030     0.5390 N.pl3 1 <1>  -0.8210 
 13 O       -1.2310     3.3110    -1.3030 O.3   1 <1>  -0.0190 
 14 C       -0.3920     1.1400    -0.7220 C.ar  1 <1>   0.0530 
 15 C       -3.5190    -2.2280    -0.2320 C.3   1 <1>   0.0000 
 16 C       -4.6000     5.3700    -0.2800 C.3   1 <1>   0.2090 
 17 C       -3.6970     4.8050     1.9260 C.3   1 <1>   0.2090 
 18 C        0.0950     0.8080    -1.9870 C.ar  1 <1>  -0.1500 
 19 C        0.0140     0.3480     0.3520 C.ar  1 <1>  -0.1500 
 20 C       -2.5870    -3.3060    -0.8050 C.3   1 <1>   0.3430 
 21 C       -4.9270    -2.8560    -0.3170 C.3   1 <1>  -0.1600 
 22 C       -5.8510     5.9190     0.4300 C.3   1 <1>   0.1200 
 23 C       -4.9840     5.3820     2.5410 C.3   1 <1>   0.1200 
 24 C        0.9330    -0.2760    -2.1740 C.ar  1 <1>  -0.1500 
 25 C        0.8510    -0.7380     0.1710 C.ar  1 <1>  -0.1500 
 26 N       -3.4540    -4.1740    -1.6430 N.4   1 <1>  -0.9590 
 27 C       -4.7480    -4.2410    -0.9260 C.3   1 <1>   0.3430 
 28 O       -5.5360     6.3730     1.7180 O.3   1 <1>  -0.5600 
 29 C        1.3110    -1.0540    -1.0940 C.ar  1 <1>  -0.1500 
 30 C       -2.8570    -5.5160    -1.9140 C.3   1 <1>   0.2630 
 31 H       -3.9980     1.1300    -1.0790 H     1 <1>   0.0800 
 32 H       -5.2100     0.0700    -0.4290 H     1 <1>   0.0800 
 33 H       -4.9190    -0.8980     1.8720 H     1 <1>   0.0800 
 34 H       -3.5020    -0.4930     2.7970 H     1 <1>   0.0800 
 35 H       -2.3960    -0.6790    -1.2320 H     1 <1>   0.0800 
 36 H       -3.8310    -1.1270    -2.0840 H     1 <1>   0.0800 
 37 H       -3.2970    -2.7680     1.8610 H     1 <1>   0.0800 
 38 H       -2.0640    -1.7000     1.2780 H     1 <1>   0.0800 
 39 H       -4.8810     4.9630    -1.2360 H     1 <1>   0.0800 
 40 H       -3.9080     6.1770    -0.4510 H     1 <1>   0.0800 
 41 H       -2.9390     5.5700     1.9030 H     1 <1>   0.0800 
 42 H       -3.3410     4.0080     2.5520 H     1 <1>   0.0800 
 43 H       -0.1870     1.4100    -2.8330 H     1 <1>   0.1500 
 44 H       -0.3190     0.5900     1.3470 H     1 <1>   0.1500 
 45 H       -2.1720    -3.8830     0.0040 H     1 <1>   0.0800 
 46 H       -1.7820    -2.8710    -1.3770 H     1 <1>   0.0800 
 47 H       -5.5820    -2.2800    -0.9480 H     1 <1>   0.0800 
 48 H       -5.4000    -2.9460     0.6450 H     1 <1>   0.0800 
 49 H       -6.6020     5.1530     0.5100 H     1 <1>   0.0800 
 50 H       -6.2560     6.7480    -0.1210 H     1 <1>   0.0800 
 51 H       -4.7700     5.8300     3.4950 H     1 <1>   0.0800 
 52 H       -5.7130     4.6030     2.6790 H     1 <1>   0.0800 
 53 H        1.3000    -0.5090    -3.1600 H     1 <1>   0.1500 
 54 H        1.1570    -1.3280     1.0190 H     1 <1>   0.1500 
 55 H       -3.6150    -3.6800    -2.5330 H     1 <1>   0.4500 
 56 H       -5.5600    -4.4950    -1.5890 H     1 <1>   0.0800 
 57 H       -4.6890    -4.9740    -0.1370 H     1 <1>   0.0800 
 58 H        1.9730    -1.8920    -1.2370 H     1 <1>   0.1500 
 59 H       -2.6820    -6.0420    -0.9900 H     1 <1>   0.0800 
 60 H       -1.9190    -5.4100    -2.4340 H     1 <1>   0.0800 
 61 H       -3.5230    -6.1050    -2.5250 H     1 <1>   0.0800 
@<TRIPOS>BOND
  1   1   2  2   
  2   2   3  am  
  3   2   4  1   
  4   3   5  1   
  5   3   6  1   
  6   4   7  1   
  7   4   8  2   
  8   5   9  1   
  9   5  31  1   
 10   5  32  1   
 11   6  10  1   
 12   6  33  1   
 13   6  34  1   
 14   7  11  2   
 15   7  12  1   
 16   8  13  1   
 17   8  14  1   
 18   9  15  1   
 19   9  35  1   
 20   9  36  1   
 21  10  15  1   
 22  10  37  1   
 23  10  38  1   
 24  11  13  1   
 25  12  16  1   
 26  12  17  1   
 27  14  18  ar  
 28  14  19  ar  
 29  15  20  1   
 30  15  21  1   
 31  16  22  1   
 32  16  39  1   
 33  16  40  1   
 34  17  23  1   
 35  17  41  1   
 36  17  42  1   
 37  18  24  ar  
 38  18  43  1   
 39  19  25  ar  
 40  19  44  1   
 41  20  26  1   
 42  20  45  1   
 43  20  46  1   
 44  21  27  1   
 45  21  47  1   
 46  21  48  1   
 47  22  28  1   
 48  22  49  1   
 49  22  50  1   
 50  23  28  1   
 51  23  51  1   
 52  23  52  1   
 53  24  29  ar  
 54  24  53  1   
 55  25  29  ar  
 56  25  54  1   
 57  26  27  1   
 58  26  30  1   
 59  26  55  1   
 60  27  56  1   
 61  27  57  1   
 62  29  58  1   
 63  30  59  1   
 64  30  60  1   
 65  30  61  1   
@<TRIPOS>SUBSTRUCTURE
  1 ****   3 GROUP 4 **** **** 0

# MOE 2024.06 (io_trps.svl 2023.06)
