@<TRIPOS>MOLECULE
NONAME
54 57 1 0 0 
SMALL
USER_CHARGES


@<TRIPOS>ATOM
  1 F        0.1570     0.1220     0.5980 F     1 <1>  -0.1900 
  2 C        1.1210    -0.7330     0.3250 C.ar  1 <1>   0.1900 
  3 C        0.8420    -1.9310    -0.3340 C.ar  1 <1>   0.4100 
  4 C        2.4160    -0.4360     0.6760 C.ar  1 <1>   0.1660 
  5 N        1.8340    -2.7590    -0.6230 N.ar  1 <1>  -0.6200 
  6 N       -0.4320    -2.3330    -0.7170 N.pl3 1 <1>  -0.8380 
  7 N        3.4010    -1.2740     0.3900 N.ar  1 <1>  -0.6200 
  8 C        2.7990     0.8520     1.3950 C.3   1 <1>  -0.0170 
  9 C        3.0420    -2.3800    -0.2440 C.ar  1 <1>   0.4700 
 10 C       -0.6610    -3.1360    -1.9490 C.3   1 <1>   0.2090 
 11 C       -1.5690    -2.3390     0.2390 C.3   1 <1>   0.2090 
 12 C        3.3080     1.9110     0.4100 C.3   1 <1>  -0.2400 
 13 C       -0.9730    -4.5820    -1.5650 C.3   1 <1>  -0.1600 
 14 C       -1.8790    -3.7810     0.6380 C.3   1 <1>  -0.1600 
 15 C       -2.1510    -4.6680    -0.5870 C.3   1 <1>   0.4240 
 16 O       -3.2550    -4.1350    -1.2840 O.3   1 <1>  -0.5600 
 17 C       -2.4000    -6.1340    -0.1680 C.ar  1 <1>  -0.1430 
 18 C       -4.5290    -4.4760    -0.8320 C.3   1 <1>   0.1200 
 19 C       -3.6250    -6.7510    -0.3860 C.ar  1 <1>  -0.1430 
 20 C       -1.3970    -6.8710     0.4500 C.ar  1 <1>  -0.1500 
 21 C       -4.7430    -5.9700    -1.0490 C.3   1 <1>  -0.0170 
 22 C       -3.8340    -8.0650    -0.0010 C.ar  1 <1>  -0.1500 
 23 C       -1.5850    -8.1870     0.8350 C.ar  1 <1>   0.0830 
 24 C       -2.8290    -8.8010     0.6200 C.ar  1 <1>   0.0830 
 25 O       -0.4990    -8.7750     1.4150 O.3   1 <1>  -0.3620 
 26 O       -3.0390   -10.0860     1.0330 O.3   1 <1>  -0.3630 
 27 C       -0.2370   -10.1500     1.2430 C.3   1 <1>   0.0400 
 28 C       -4.3130   -10.6900     0.9930 C.3   1 <1>   0.0400 
 29 H        3.5690     0.6340     2.1140 H     1 <1>   0.0800 
 30 H        1.9560     1.2430     1.9350 H     1 <1>   0.0800 
 31 H        3.8400    -3.0630    -0.4820 H     1 <1>   0.1500 
 32 H        0.2080    -3.1030    -2.5840 H     1 <1>   0.0800 
 33 H       -1.4870    -2.7130    -2.4960 H     1 <1>   0.0800 
 34 H       -2.4270    -1.8870    -0.2290 H     1 <1>   0.0800 
 35 H       -1.3260    -1.7720     1.1200 H     1 <1>   0.0800 
 36 H        4.1710     1.5420    -0.1160 H     1 <1>   0.0800 
 37 H        3.5810     2.8080     0.9370 H     1 <1>   0.0800 
 38 H        2.5420     2.1500    -0.3070 H     1 <1>   0.0800 
 39 H       -0.0890    -5.0020    -1.1230 H     1 <1>   0.0800 
 40 H       -1.1990    -5.1540    -2.4450 H     1 <1>   0.0800 
 41 H       -2.7150    -3.8070     1.3090 H     1 <1>   0.0800 
 42 H       -1.0310    -4.1650     1.1750 H     1 <1>   0.0800 
 43 H       -5.2430    -3.9060    -1.3990 H     1 <1>   0.0800 
 44 H       -4.6180    -4.2180     0.2090 H     1 <1>   0.0800 
 45 H       -0.4360    -6.4280     0.6420 H     1 <1>   0.1500 
 46 H       -4.7560    -6.1790    -2.1040 H     1 <1>   0.0800 
 47 H       -5.6940    -6.2540    -0.6350 H     1 <1>   0.0800 
 48 H       -4.7950    -8.5000    -0.1950 H     1 <1>   0.1500 
 49 H        0.8050   -10.3200     1.4430 H     1 <1>   0.0800 
 50 H       -0.4710   -10.4300     0.2310 H     1 <1>   0.0800 
 51 H       -0.8360   -10.7060     1.9410 H     1 <1>   0.0800 
 52 H       -4.2330   -11.6670     1.4340 H     1 <1>   0.0800 
 53 H       -4.6270   -10.7780    -0.0320 H     1 <1>   0.0800 
 54 H       -5.0020   -10.0900     1.5600 H     1 <1>   0.0800 
@<TRIPOS>BOND
  1   1   2  1   
  2   2   3  ar  
  3   2   4  ar  
  4   3   5  ar  
  5   3   6  1   
  6   4   7  ar  
  7   4   8  1   
  8   5   9  ar  
  9   6  10  1   
 10   6  11  1   
 11   7   9  ar  
 12   8  12  1   
 13   8  29  1   
 14   8  30  1   
 15   9  31  1   
 16  10  13  1   
 17  10  32  1   
 18  10  33  1   
 19  11  14  1   
 20  11  34  1   
 21  11  35  1   
 22  12  36  1   
 23  12  37  1   
 24  12  38  1   
 25  13  15  1   
 26  13  39  1   
 27  13  40  1   
 28  14  15  1   
 29  14  41  1   
 30  14  42  1   
 31  15  16  1   
 32  15  17  1   
 33  16  18  1   
 34  17  19  ar  
 35  17  20  ar  
 36  18  21  1   
 37  18  43  1   
 38  18  44  1   
 39  19  21  1   
 40  19  22  ar  
 41  20  23  ar  
 42  20  45  1   
 43  21  46  1   
 44  21  47  1   
 45  22  24  ar  
 46  22  48  1   
 47  23  24  ar  
 48  23  25  1   
 49  24  26  1   
 50  25  27  1   
 51  26  28  1   
 52  27  49  1   
 53  27  50  1   
 54  27  51  1   
 55  28  52  1   
 56  28  53  1   
 57  28  54  1   
@<TRIPOS>SUBSTRUCTURE
  1 ****  14 GROUP 4 **** **** 0

# MOE 2024.06 (io_trps.svl 2023.06)
