@<TRIPOS>MOLECULE
NONAME
41 42 1 0 0 
SMALL
USER_CHARGES


@<TRIPOS>ATOM
  1 O        0.1370     0.0690    -0.7500 O.2   1 <1>  -0.5700 
  2 C        1.1990     0.6080    -0.4920 C.2   1 <1>   0.5440 
  3 N        1.1700     1.8510     0.0850 N.am  1 <1>  -0.7300 
  4 C        2.4640    -0.0290    -0.7770 C.ar  1 <1>   0.0860 
  5 C       -0.0560     2.6250     0.4130 C.3   1 <1>   0.0600 
  6 C        2.6720    -1.4030    -0.5430 C.ar  1 <1>   0.4100 
  7 C        3.5290     0.7070    -1.2840 C.ar  1 <1>  -0.1500 
  8 N        3.8330    -2.0210    -0.7520 N.ar  1 <1>  -0.6200 
  9 N        1.6540    -2.1870    -0.0580 N.pl3 1 <1>  -0.8690 
 10 C        4.7220     0.0610    -1.5100 C.ar  1 <1>  -0.1500 
 11 C        4.8190    -1.2890    -1.2270 C.ar  1 <1>   0.1600 
 12 C        1.5940    -3.6660    -0.2010 C.3   1 <1>   0.4330 
 13 C        0.1680    -4.1640    -0.5360 C.ar  1 <1>   0.1670 
 14 C        2.1860    -4.3200     1.0630 C.3   1 <1>  -0.1600 
 15 N        0.1360    -5.0690    -1.5150 N.ar  1 <1>  -0.6200 
 16 C       -0.9880    -3.7110     0.1180 C.ar  1 <1>  -0.1430 
 17 C        2.2980    -5.8490     0.9640 C.3   1 <1>  -0.2400 
 18 C       -1.0500    -5.5310    -1.8640 C.ar  1 <1>   0.1600 
 19 C       -2.2150    -4.2140    -0.2720 C.ar  1 <1>  -0.1500 
 20 C       -1.0200    -2.6790     1.2440 C.3   1 <1>  -0.0970 
 21 C       -2.2400    -5.1440    -1.2840 C.ar  1 <1>  -0.1500 
 22 H        2.0480     2.2530     0.4180 H     1 <1>   0.3700 
 23 H       -0.9250     2.1570    -0.0180 H     1 <1>   0.0800 
 24 H        0.0280     3.6230     0.0200 H     1 <1>   0.0800 
 25 H       -0.1810     2.6720     1.4810 H     1 <1>   0.0800 
 26 H        3.4210     1.7550    -1.5010 H     1 <1>   0.1500 
 27 H        0.7230    -1.7720    -0.2040 H     1 <1>   0.4000 
 28 H        5.5720     0.5910    -1.9020 H     1 <1>   0.1500 
 29 H        5.7560    -1.7890    -1.4030 H     1 <1>   0.1500 
 30 H        2.2220    -3.9410    -1.0320 H     1 <1>   0.0800 
 31 H        1.5890    -4.0720     1.9180 H     1 <1>   0.0800 
 32 H        3.1710    -3.9170     1.2170 H     1 <1>   0.0800 
 33 H        1.3240    -6.2960     0.8670 H     1 <1>   0.0800 
 34 H        2.7690    -6.2420     1.8470 H     1 <1>   0.0800 
 35 H        2.8880    -6.1240     0.1070 H     1 <1>   0.0800 
 36 H       -1.0720    -6.2580    -2.6570 H     1 <1>   0.1500 
 37 H       -3.1300    -3.8920     0.1950 H     1 <1>   0.1500 
 38 H       -0.1330    -2.7050     1.8450 H     1 <1>   0.0800 
 39 H       -1.8550    -2.8610     1.8970 H     1 <1>   0.0800 
 40 H       -1.1280    -1.6930     0.8290 H     1 <1>   0.0800 
 41 H       -3.1690    -5.5620    -1.6230 H     1 <1>   0.1500 
@<TRIPOS>BOND
  1   1   2  2   
  2   2   3  am  
  3   2   4  1   
  4   3   5  1   
  5   3  22  1   
  6   4   6  ar  
  7   4   7  ar  
  8   5  23  1   
  9   5  24  1   
 10   5  25  1   
 11   6   8  ar  
 12   6   9  1   
 13   7  10  ar  
 14   7  26  1   
 15   8  11  ar  
 16   9  12  1   
 17   9  27  1   
 18  10  11  ar  
 19  10  28  1   
 20  11  29  1   
 21  12  13  1   
 22  12  14  1   
 23  12  30  1   
 24  13  15  ar  
 25  13  16  ar  
 26  14  17  1   
 27  14  31  1   
 28  14  32  1   
 29  15  18  ar  
 30  16  19  ar  
 31  16  20  1   
 32  17  33  1   
 33  17  34  1   
 34  17  35  1   
 35  18  21  ar  
 36  18  36  1   
 37  19  21  ar  
 38  19  37  1   
 39  20  38  1   
 40  20  39  1   
 41  20  40  1   
 42  21  41  1   
@<TRIPOS>SUBSTRUCTURE
  1 ****   9 GROUP 4 **** **** 0

# MOE 2024.06 (io_trps.svl 2023.06)
