@<TRIPOS>MOLECULE
NONAME
54 56 1 0 0 
SMALL
USER_CHARGES


@<TRIPOS>ATOM
  1 O       -0.4220     0.8580     1.7380 O.2   1 <1>  -0.5700 
  2 C       -1.3610     1.0950     1.0140 C.2   1 <1>   0.5690 
  3 N       -2.3560     0.1720     0.7960 N.am  1 <1>  -0.6600 
  4 C       -1.4030     2.4720     0.3630 C.3   1 <1>  -0.0990 
  5 C       -3.5310     0.4150    -0.0970 C.3   1 <1>   0.1400 
  6 C       -2.3070    -1.1490     1.4950 C.3   1 <1>   0.1400 
  7 C       -0.7920     2.5100    -1.0530 C.3   1 <1>  -0.0800 
  8 C       -4.1470    -0.9080    -0.5470 C.3   1 <1>  -0.1600 
  9 C       -3.7140    -1.6290     1.8630 C.3   1 <1>  -0.1600 
 10 C        0.7120     2.2050    -1.0280 C.3   1 <1>  -0.2400 
 11 C       -1.0270     3.8830    -1.6930 C.3   1 <1>  -0.2400 
 12 C       -4.6820    -1.6980     0.6620 C.3   1 <1>   0.4240 
 13 O       -5.8460    -1.0370     1.1010 O.3   1 <1>  -0.5600 
 14 C       -4.9650    -3.1680     0.2810 C.ar  1 <1>  -0.1440 
 15 C       -7.0550    -1.3520     0.4790 C.3   1 <1>   0.1200 
 16 C       -6.2470    -3.6970     0.3340 C.ar  1 <1>  -0.1440 
 17 C       -3.9290    -3.9990    -0.1240 C.ar  1 <1>  -0.1500 
 18 C       -7.3970    -2.8100     0.7660 C.3   1 <1>  -0.0170 
 19 C       -6.4780    -5.0220     0.0010 C.ar  1 <1>  -0.1500 
 20 C       -4.1400    -5.3230    -0.4730 C.ar  1 <1>   0.0820 
 21 C       -5.4370    -5.8560    -0.3970 C.ar  1 <1>   0.0820 
 22 O       -3.0140    -5.9880    -0.8620 O.3   1 <1>  -0.3620 
 23 O       -5.6600    -7.1710    -0.6950 O.3   1 <1>  -0.3620 
 24 C       -3.0650    -7.1090    -1.7170 C.3   1 <1>   0.0400 
 25 C       -6.8840    -7.8100    -0.4040 C.3   1 <1>   0.0400 
 26 H       -0.8630     3.1540     0.9960 H     1 <1>   0.0800 
 27 H       -2.4190     2.8160     0.3370 H     1 <1>   0.0800 
 28 H       -3.2290     0.9720    -0.9640 H     1 <1>   0.0800 
 29 H       -4.2660     0.9910     0.4410 H     1 <1>   0.0800 
 30 H       -1.7190    -1.0700     2.3940 H     1 <1>   0.0800 
 31 H       -1.8250    -1.8640     0.8520 H     1 <1>   0.0800 
 32 H       -1.2720     1.7650    -1.6650 H     1 <1>   0.0800 
 33 H       -3.3910    -1.4730    -1.0610 H     1 <1>   0.0800 
 34 H       -4.9320    -0.7280    -1.2540 H     1 <1>   0.0800 
 35 H       -4.0980    -0.9530     2.6070 H     1 <1>   0.0800 
 36 H       -3.6390    -2.5950     2.3270 H     1 <1>   0.0800 
 37 H        1.2320     2.9120    -0.4060 H     1 <1>   0.0800 
 38 H        1.1220     2.2530    -2.0210 H     1 <1>   0.0800 
 39 H        0.8910     1.2170    -0.6410 H     1 <1>   0.0800 
 40 H       -0.5530     4.6570    -1.1150 H     1 <1>   0.0800 
 41 H       -2.0800     4.0950    -1.7540 H     1 <1>   0.0800 
 42 H       -0.6220     3.9050    -2.6900 H     1 <1>   0.0800 
 43 H       -6.9680    -1.1770    -0.5780 H     1 <1>   0.0800 
 44 H       -7.8110    -0.7020     0.8830 H     1 <1>   0.0800 
 45 H       -2.9230    -3.6270    -0.1790 H     1 <1>   0.1500 
 46 H       -8.2930    -3.0740     0.2330 H     1 <1>   0.0800 
 47 H       -7.5770    -2.9350     1.8180 H     1 <1>   0.0800 
 48 H       -7.4840    -5.3880     0.0610 H     1 <1>   0.1500 
 49 H       -2.0800    -7.2700    -2.1170 H     1 <1>   0.0800 
 50 H       -3.7590    -6.9110    -2.5140 H     1 <1>   0.0800 
 51 H       -3.3710    -7.9670    -1.1460 H     1 <1>   0.0800 
 52 H       -6.7760    -8.8550    -0.6300 H     1 <1>   0.0800 
 53 H       -7.6570    -7.3820    -1.0170 H     1 <1>   0.0800 
 54 H       -7.1030    -7.6830     0.6420 H     1 <1>   0.0800 
@<TRIPOS>BOND
  1   1   2  2   
  2   2   3  am  
  3   2   4  1   
  4   3   5  1   
  5   3   6  1   
  6   4   7  1   
  7   4  26  1   
  8   4  27  1   
  9   5   8  1   
 10   5  28  1   
 11   5  29  1   
 12   6   9  1   
 13   6  30  1   
 14   6  31  1   
 15   7  10  1   
 16   7  11  1   
 17   7  32  1   
 18   8  12  1   
 19   8  33  1   
 20   8  34  1   
 21   9  12  1   
 22   9  35  1   
 23   9  36  1   
 24  10  37  1   
 25  10  38  1   
 26  10  39  1   
 27  11  40  1   
 28  11  41  1   
 29  11  42  1   
 30  12  13  1   
 31  12  14  1   
 32  13  15  1   
 33  14  16  ar  
 34  14  17  ar  
 35  15  18  1   
 36  15  43  1   
 37  15  44  1   
 38  16  18  1   
 39  16  19  ar  
 40  17  20  ar  
 41  17  45  1   
 42  18  46  1   
 43  18  47  1   
 44  19  21  ar  
 45  19  48  1   
 46  20  21  ar  
 47  20  22  1   
 48  21  23  1   
 49  22  24  1   
 50  23  25  1   
 51  24  49  1   
 52  24  50  1   
 53  24  51  1   
 54  25  52  1   
 55  25  53  1   
 56  25  54  1   
@<TRIPOS>SUBSTRUCTURE
  1 ****  12 GROUP 4 **** **** 0

# MOE 2024.06 (io_trps.svl 2023.06)
