@<TRIPOS>MOLECULE
NONAME
45 47 1 0 0 
SMALL
USER_CHARGES


@<TRIPOS>ATOM
  1 S        2.1250    -0.1210    -1.0860 S.3   1 <1>  -0.0800 
  2 C        1.9740     0.1240     0.6480 C.2   1 <1>  -0.1400 
  3 C        0.4540    -0.6410    -1.2060 C.2   1 <1>  -0.1100 
  4 C        0.7280    -0.1820     1.0560 C.2   1 <1>  -0.1500 
  5 C        3.1910     0.6140     1.4210 C.3   1 <1>   0.0810 
  6 C       -0.1370    -0.6170     0.0030 C.2   1 <1>  -0.1500 
  7 C        3.5200     2.0780     1.1500 C.2   1 <1>   0.5690 
  8 O        2.9840     2.8940     1.8650 O.2   1 <1>  -0.5700 
  9 N        4.4120     2.4690     0.1770 N.am  1 <1>  -0.6600 
 10 C        5.1910     1.5680    -0.7310 C.3   1 <1>   0.1400 
 11 C        4.6460     3.9140    -0.0880 C.3   1 <1>   0.1400 
 12 C        6.6770     1.4970    -0.3450 C.3   1 <1>   0.1400 
 13 C        5.7430     4.4730     0.8240 C.3   1 <1>  -0.1600 
 14 N        7.3250     2.8510    -0.2800 N.am  1 <1>  -0.6600 
 15 C        7.0000     3.6000     0.9700 C.3   1 <1>   0.1400 
 16 C        8.2610     3.2440    -1.2230 C.2   1 <1>   0.6160 
 17 O        8.5370     2.4620    -2.1140 O.2   1 <1>  -0.5700 
 18 C        8.9590     4.5180    -1.2100 C.2   1 <1>   0.0910 
 19 O        8.2720     5.6010    -0.7940 O.3   1 <1>  -0.1530 
 20 C       10.2480     4.6830    -1.6210 C.2   1 <1>  -0.1360 
 21 C        8.8100     6.8250    -0.7570 C.2   1 <1>  -0.0620 
 22 C       10.8850     5.9480    -1.6050 C.2   1 <1>   0.5410 
 23 C       10.0880     7.0310    -1.1470 C.2   1 <1>  -0.1360 
 24 C        7.8690     7.9020    -0.2540 C.3   1 <1>  -0.1020 
 25 O       12.0410     6.1020    -1.9550 O.2   1 <1>  -0.5700 
 26 H        0.0870    -0.9110    -2.1800 H     1 <1>   0.1500 
 27 H        0.3690    -0.1170     2.0690 H     1 <1>   0.1500 
 28 H        4.0360    -0.0130     1.2180 H     1 <1>   0.0800 
 29 H        2.9810     0.5210     2.4700 H     1 <1>   0.0800 
 30 H       -1.1590    -0.8880     0.2050 H     1 <1>   0.1500 
 31 H        5.1120     1.9260    -1.7430 H     1 <1>   0.0800 
 32 H        4.7880     0.5750    -0.7220 H     1 <1>   0.0800 
 33 H        3.7330     4.4640     0.0680 H     1 <1>   0.0800 
 34 H        4.9320     4.0490    -1.1170 H     1 <1>   0.0800 
 35 H        7.1810     0.8710    -1.0600 H     1 <1>   0.0800 
 36 H        6.7690     1.0110     0.6090 H     1 <1>   0.0800 
 37 H        5.3250     4.6300     1.8020 H     1 <1>   0.0800 
 38 H        6.0210     5.4410     0.4540 H     1 <1>   0.0800 
 39 H        6.8300     2.8910     1.7620 H     1 <1>   0.0800 
 40 H        7.8360     4.2070     1.2710 H     1 <1>   0.0800 
 41 H       10.8360     3.8580    -1.9790 H     1 <1>   0.1500 
 42 H       10.5600     7.9950    -1.1340 H     1 <1>   0.1500 
 43 H        7.0000     7.9530    -0.8850 H     1 <1>   0.0800 
 44 H        8.3540     8.8620    -0.2570 H     1 <1>   0.0800 
 45 H        7.5570     7.6770     0.7500 H     1 <1>   0.0800 
@<TRIPOS>BOND
  1   1   2  1   
  2   1   3  1   
  3   2   4  2   
  4   2   5  1   
  5   3   6  2   
  6   3  26  1   
  7   4   6  1   
  8   4  27  1   
  9   5   7  1   
 10   5  28  1   
 11   5  29  1   
 12   6  30  1   
 13   7   8  2   
 14   7   9  am  
 15   9  10  1   
 16   9  11  1   
 17  10  12  1   
 18  10  31  1   
 19  10  32  1   
 20  11  13  1   
 21  11  33  1   
 22  11  34  1   
 23  12  14  1   
 24  12  35  1   
 25  12  36  1   
 26  13  15  1   
 27  13  37  1   
 28  13  38  1   
 29  14  15  1   
 30  14  16  am  
 31  15  39  1   
 32  15  40  1   
 33  16  17  2   
 34  16  18  1   
 35  18  19  1   
 36  18  20  2   
 37  19  21  1   
 38  20  22  1   
 39  20  41  1   
 40  21  23  2   
 41  21  24  1   
 42  22  23  1   
 43  22  25  2   
 44  23  42  1   
 45  24  43  1   
 46  24  44  1   
 47  24  45  1   
@<TRIPOS>SUBSTRUCTURE
  1 ****  14 GROUP 4 **** **** 0

# MOE 2024.06 (io_trps.svl 2023.06)
