@<TRIPOS>MOLECULE
NONAME
41 43 1 0 0 
SMALL
USER_CHARGES


@<TRIPOS>ATOM
  1 O        0.4830    -0.4840     1.7780 O.2   1 <1>  -0.5700 
  2 C        1.2680    -0.4200     0.8660 C.2   1 <1>   0.5690 
  3 N        1.7170     0.7580     0.3780 N.am  1 <1>  -0.7300 
  4 C        1.7580    -1.7040     0.2440 C.3   1 <1>  -0.0990 
  5 C        1.3230     2.0940     0.8680 C.3   1 <1>   0.2200 
  6 C        0.5660    -2.5880    -0.1410 C.3   1 <1>   0.0960 
  7 C        1.0440     2.9990    -0.3210 C.3   1 <1>   0.1200 
  8 C        2.5350     2.7750     1.4690 C.3   1 <1>  -0.1600 
  9 N        1.0300    -3.8520    -0.7380 N.pl3 1 <1>   0.3140 
 10 O        2.3040     3.3640    -0.7890 O.3   1 <1>  -0.5600 
 11 C        3.2060     3.4780     0.2750 C.3   1 <1>   0.2800 
 12 N        1.5490    -3.9360    -1.9420 N.2   1 <1>  -0.4180 
 13 C        1.0330    -5.0640    -0.2190 C.2   1 <1>   0.0360 
 14 C        4.5130     2.7810    -0.1440 C.3   1 <1>  -0.1600 
 15 C        3.4510     4.9750     0.5400 C.3   1 <1>  -0.1600 
 16 N        1.8490    -5.1730    -2.1210 N.2   1 <1>   0.0000 
 17 N        1.5320    -5.8940    -1.0500 N.2   1 <1>  -0.3380 
 18 C        5.2070     3.4840    -1.3220 C.3   1 <1>  -0.1600 
 19 C        4.1480     5.6770    -0.6370 C.3   1 <1>  -0.1600 
 20 C        5.4540     4.9670    -1.0140 C.3   1 <1>  -0.1600 
 21 H        2.3670     0.7980    -0.4120 H     1 <1>   0.3700 
 22 H        2.3750    -2.2110     0.9630 H     1 <1>   0.0800 
 23 H        2.3470    -1.4840    -0.6290 H     1 <1>   0.0800 
 24 H        0.4900     2.0300     1.5480 H     1 <1>   0.0800 
 25 H       -0.0520    -2.0800    -0.8590 H     1 <1>   0.0800 
 26 H       -0.0290    -2.8100     0.7270 H     1 <1>   0.0800 
 27 H        0.5320     3.8930    -0.0130 H     1 <1>   0.0800 
 28 H        0.4940     2.5060    -1.1030 H     1 <1>   0.0800 
 29 H        3.1850     2.0850     1.9770 H     1 <1>   0.0800 
 30 H        2.2060     3.5060     2.1850 H     1 <1>   0.0800 
 31 H        0.6670    -5.3000     0.7630 H     1 <1>   0.1500 
 32 H        4.3140     1.7580    -0.4010 H     1 <1>   0.0800 
 33 H        5.1860     2.7790     0.6950 H     1 <1>   0.0800 
 34 H        4.0720     5.0730     1.4130 H     1 <1>   0.0800 
 35 H        2.5170     5.4650     0.7490 H     1 <1>   0.0800 
 36 H        4.5870     3.4040    -2.1990 H     1 <1>   0.0800 
 37 H        6.1430     2.9980    -1.5350 H     1 <1>   0.0800 
 38 H        4.3530     6.7010    -0.3790 H     1 <1>   0.0800 
 39 H        3.4880     5.6780    -1.4890 H     1 <1>   0.0800 
 40 H        5.8870     5.4450    -1.8750 H     1 <1>   0.0800 
 41 H        6.1560     5.0520    -0.2010 H     1 <1>   0.0800 
@<TRIPOS>BOND
  1   1   2  2   
  2   2   3  am  
  3   2   4  1   
  4   3   5  1   
  5   3  21  1   
  6   4   6  1   
  7   4  22  1   
  8   4  23  1   
  9   5   7  1   
 10   5   8  1   
 11   5  24  1   
 12   6   9  1   
 13   6  25  1   
 14   6  26  1   
 15   7  10  1   
 16   7  27  1   
 17   7  28  1   
 18   8  11  1   
 19   8  29  1   
 20   8  30  1   
 21   9  12  1   
 22   9  13  1   
 23  10  11  1   
 24  11  14  1   
 25  11  15  1   
 26  12  16  2   
 27  13  17  2   
 28  13  31  1   
 29  14  18  1   
 30  14  32  1   
 31  14  33  1   
 32  15  19  1   
 33  15  34  1   
 34  15  35  1   
 35  16  17  1   
 36  18  20  1   
 37  18  36  1   
 38  18  37  1   
 39  19  20  1   
 40  19  38  1   
 41  19  39  1   
 42  20  40  1   
 43  20  41  1   
@<TRIPOS>SUBSTRUCTURE
  1 ****   3 GROUP 4 **** **** 0

# MOE 2024.06 (io_trps.svl 2023.06)
