@<TRIPOS>MOLECULE
NONAME
44 45 1 0 0 
SMALL
USER_CHARGES


@<TRIPOS>ATOM
  1 O        0.2890     1.7130     0.3040 O.3   1 <1>  -0.6800 
  2 C       -1.0640     1.5770     0.0590 C.3   1 <1>   0.2800 
  3 C       -1.2270     0.4210    -0.9250 C.3   1 <1>  -0.1600 
  4 C       -1.6990     1.0430     1.3370 C.3   1 <1>  -0.1600 
  5 C       -1.6360     2.9230    -0.4090 C.3   1 <1>  -0.1600 
  6 C       -1.0900    -0.8580    -0.0900 C.3   1 <1>  -0.1600 
  7 C       -1.3850    -0.4590     1.3620 C.3   1 <1>  -0.1600 
  8 C       -0.9500     3.4900    -1.6600 C.3   1 <1>   0.2090 
  9 N       -0.3640     4.8230    -1.3780 N.pl3 1 <1>  -0.8690 
 10 C        0.6930     5.1760    -0.6390 C.ar  1 <1>   0.7710 
 11 N        1.0470     6.4410    -0.6900 N.ar  1 <1>  -0.6200 
 12 N        1.3330     4.2670     0.1070 N.ar  1 <1>  -0.1790 
 13 C        2.1030     6.8120     0.0120 C.ar  1 <1>   0.4100 
 14 C        2.3920     4.6110     0.8710 C.ar  1 <1>   0.2110 
 15 N        2.4740     8.1130    -0.1080 N.pl3 1 <1>  -0.8380 
 16 C        2.8060     5.9040     0.8480 C.ar  1 <1>  -0.1440 
 17 C        1.4600     9.2050    -0.1720 C.3   1 <1>   0.1290 
 18 C        3.8280     8.5210    -0.5740 C.3   1 <1>   0.1290 
 19 C        3.9660     6.3530     1.7340 C.3   1 <1>  -0.0970 
 20 H        0.5980     0.8250     0.5920 H     1 <1>   0.4000 
 21 H       -0.5230     0.4570    -1.7380 H     1 <1>   0.0800 
 22 H       -2.2220     0.4500    -1.3360 H     1 <1>   0.0800 
 23 H       -2.7670     1.1640     1.2740 H     1 <1>   0.0800 
 24 H       -1.3530     1.5530     2.2190 H     1 <1>   0.0800 
 25 H       -1.6090     3.6270     0.4040 H     1 <1>   0.0800 
 26 H       -2.6760     2.7730    -0.6430 H     1 <1>   0.0800 
 27 H       -0.0900    -1.2500    -0.1670 H     1 <1>   0.0800 
 28 H       -1.7790    -1.6130    -0.4340 H     1 <1>   0.0800 
 29 H       -2.2180    -1.0160     1.7590 H     1 <1>   0.0800 
 30 H       -0.5230    -0.6500     1.9780 H     1 <1>   0.0800 
 31 H       -1.6770     3.5910    -2.4490 H     1 <1>   0.0800 
 32 H       -0.1790     2.8280    -2.0200 H     1 <1>   0.0800 
 33 H       -0.7880     5.6010    -1.8950 H     1 <1>   0.4000 
 34 H        0.9370     3.3200     0.0960 H     1 <1>   0.4570 
 35 H        2.8600     3.8520     1.4760 H     1 <1>   0.1500 
 36 H        0.5260     8.8720     0.2480 H     1 <1>   0.0800 
 37 H        1.2970     9.4930    -1.1960 H     1 <1>   0.0800 
 38 H        1.8030    10.0570     0.3880 H     1 <1>   0.0800 
 39 H        4.4140     7.6570    -0.8340 H     1 <1>   0.0800 
 40 H        4.3310     9.0710     0.2030 H     1 <1>   0.0800 
 41 H        3.7440     9.1450    -1.4470 H     1 <1>   0.0800 
 42 H        3.7180     7.2800     2.2230 H     1 <1>   0.0800 
 43 H        4.8540     6.5010     1.1460 H     1 <1>   0.0800 
 44 H        4.1820     5.6240     2.4940 H     1 <1>   0.0800 
@<TRIPOS>BOND
  1   1   2  1   
  2   1  20  1   
  3   2   3  1   
  4   2   4  1   
  5   2   5  1   
  6   3   6  1   
  7   3  21  1   
  8   3  22  1   
  9   4   7  1   
 10   4  23  1   
 11   4  24  1   
 12   5   8  1   
 13   5  25  1   
 14   5  26  1   
 15   6   7  1   
 16   6  27  1   
 17   6  28  1   
 18   7  29  1   
 19   7  30  1   
 20   8   9  1   
 21   8  31  1   
 22   8  32  1   
 23   9  10  1   
 24   9  33  1   
 25  10  11  ar  
 26  10  12  ar  
 27  11  13  ar  
 28  12  14  ar  
 29  12  34  1   
 30  13  15  1   
 31  13  16  ar  
 32  14  16  ar  
 33  14  35  1   
 34  15  17  1   
 35  15  18  1   
 36  16  19  1   
 37  17  36  1   
 38  17  37  1   
 39  17  38  1   
 40  18  39  1   
 41  18  40  1   
 42  18  41  1   
 43  19  42  1   
 44  19  43  1   
 45  19  44  1   
@<TRIPOS>SUBSTRUCTURE
  1 ****  12 GROUP 4 **** **** 0

# MOE 2024.06 (io_trps.svl 2023.06)
