@<TRIPOS>MOLECULE
NONAME
51 53 1 0 0 
SMALL
USER_CHARGES


@<TRIPOS>ATOM
  1 O       -0.0500    -0.5030    -0.3950 O.2   1 <1>  -0.5700 
  2 C        1.1550    -0.5320    -0.2510 C.2   1 <1>   0.7150 
  3 N        1.7740     0.6560    -0.0680 N.am  1 <1>  -0.8000 
  4 C        1.9060    -1.7640    -0.2710 C.2   1 <1>   0.0550 
  5 O        3.2240    -1.7670    -0.1150 O.3   1 <1>  -0.2800 
  6 C        1.4970    -3.0490    -0.4310 C.2   1 <1>  -0.1500 
  7 C        3.6790    -3.0050    -0.1670 C.2   1 <1>  -0.0400 
  8 C        2.6360    -3.8560    -0.3600 C.2   1 <1>  -0.1810 
  9 C        5.1960    -3.1880     0.0110 C.3   1 <1>   0.1800 
 10 C        2.5450    -5.3690    -0.4830 C.3   1 <1>   0.2910 
 11 C        5.6700    -4.6220    -0.2590 C.3   1 <1>  -0.2400 
 12 C        5.9410    -2.2560    -0.9580 C.3   1 <1>  -0.2400 
 13 C        5.5670    -2.8180     1.4520 C.3   1 <1>  -0.2400 
 14 N        2.6680    -6.0200     0.8350 N.3   1 <1>  -0.8100 
 15 C        2.7910    -7.4950     0.7280 C.3   1 <1>   0.2900 
 16 C        1.5820    -5.6360     1.7530 C.3   1 <1>   0.0300 
 17 C        1.5780    -8.1960     0.1170 C.2   1 <1>   0.2980 
 18 O        1.4650    -8.2230    -1.1850 O.3   1 <1>  -0.0190 
 19 N        0.6450    -8.7780     0.7540 N.2   1 <1>  -0.5650 
 20 N        0.3610    -8.8650    -1.3950 N.2   1 <1>  -0.4100 
 21 C       -0.1300    -9.1960    -0.2520 C.2   1 <1>   0.4620 
 22 C       -1.3680    -9.9280    -0.0400 C.ar  1 <1>   0.0540 
 23 C       -1.8240   -10.2470     1.2410 C.ar  1 <1>  -0.1500 
 24 C       -2.1560   -10.3440    -1.1160 C.ar  1 <1>  -0.1500 
 25 C       -3.0030   -10.9420     1.4400 C.ar  1 <1>  -0.1500 
 26 C       -3.3370   -11.0390    -0.9250 C.ar  1 <1>  -0.1500 
 27 C       -3.7630   -11.3400     0.3550 C.ar  1 <1>  -0.1500 
 28 H        1.2300     1.5160    -0.0520 H     1 <1>   0.3700 
 29 H        2.7830     0.7110     0.0640 H     1 <1>   0.3700 
 30 H        0.4880    -3.3890    -0.5790 H     1 <1>   0.1500 
 31 H        3.3250    -5.7190    -1.1360 H     1 <1>   0.0800 
 32 H        1.6020    -5.6260    -0.9350 H     1 <1>   0.0800 
 33 H        5.4200    -4.9160    -1.2610 H     1 <1>   0.0800 
 34 H        5.2170    -5.3030     0.4370 H     1 <1>   0.0800 
 35 H        6.7370    -4.6930    -0.1440 H     1 <1>   0.0800 
 36 H        5.6610    -2.4790    -1.9720 H     1 <1>   0.0800 
 37 H        7.0050    -2.3730    -0.8590 H     1 <1>   0.0800 
 38 H        5.6950    -1.2290    -0.7590 H     1 <1>   0.0800 
 39 H        5.0430    -3.4580     2.1400 H     1 <1>   0.0800 
 40 H        5.2880    -1.8010     1.6610 H     1 <1>   0.0800 
 41 H        6.6240    -2.9250     1.6160 H     1 <1>   0.0800 
 42 H        2.9510    -7.8960     1.7130 H     1 <1>   0.0800 
 43 H        3.6610    -7.7340     0.1430 H     1 <1>   0.0800 
 44 H        1.6220    -4.5790     1.9520 H     1 <1>   0.0800 
 45 H        1.6890    -6.1540     2.6910 H     1 <1>   0.0800 
 46 H        0.6210    -5.8760     1.3300 H     1 <1>   0.0800 
 47 H       -1.2460    -9.9460     2.0970 H     1 <1>   0.1500 
 48 H       -1.8400   -10.1190    -2.1200 H     1 <1>   0.1500 
 49 H       -3.3300   -11.1740     2.4390 H     1 <1>   0.1500 
 50 H       -3.9240   -11.3460    -1.7730 H     1 <1>   0.1500 
 51 H       -4.6820   -11.8810     0.5070 H     1 <1>   0.1500 
@<TRIPOS>BOND
  1   1   2  2   
  2   2   3  am  
  3   2   4  1   
  4   3  28  1   
  5   3  29  1   
  6   4   5  1   
  7   4   6  2   
  8   5   7  1   
  9   6   8  1   
 10   6  30  1   
 11   7   8  2   
 12   7   9  1   
 13   8  10  1   
 14   9  11  1   
 15   9  12  1   
 16   9  13  1   
 17  10  14  1   
 18  10  31  1   
 19  10  32  1   
 20  11  33  1   
 21  11  34  1   
 22  11  35  1   
 23  12  36  1   
 24  12  37  1   
 25  12  38  1   
 26  13  39  1   
 27  13  40  1   
 28  13  41  1   
 29  14  15  1   
 30  14  16  1   
 31  15  17  1   
 32  15  42  1   
 33  15  43  1   
 34  16  44  1   
 35  16  45  1   
 36  16  46  1   
 37  17  18  1   
 38  17  19  2   
 39  18  20  1   
 40  19  21  1   
 41  20  21  2   
 42  21  22  1   
 43  22  23  ar  
 44  22  24  ar  
 45  23  25  ar  
 46  23  47  1   
 47  24  26  ar  
 48  24  48  1   
 49  25  27  ar  
 50  25  49  1   
 51  26  27  ar  
 52  26  50  1   
 53  27  51  1   
@<TRIPOS>SUBSTRUCTURE
  1 ****  10 GROUP 4 **** **** 0

# MOE 2024.06 (io_trps.svl 2023.06)
