@<TRIPOS>MOLECULE
STOCK7S-73643
40 42 1 0 0 
SMALL
USER_CHARGES


@<TRIPOS>ATOM
  1 O        1.5650     1.6810     1.9200 O.2   1 <1>  -0.5700 
  2 C        0.9960     2.2320     0.9930 C.2   1 <1>   0.7060 
  3 O       -0.0290     3.0300     1.3460 O.3   1 <1>  -0.2270 
  4 C        1.3610     2.0680    -0.3900 C.2   1 <1>   0.0290 
  5 C       -0.7630     3.7090     0.4570 C.2   1 <1>  -0.0610 
  6 C        0.5700     2.7970    -1.3320 C.2   1 <1>   0.5410 
  7 C        2.3990     1.2700    -0.8210 C.2   1 <1>  -0.0500 
  8 C       -0.4930     3.6140    -0.8540 C.2   1 <1>  -0.1360 
  9 C       -1.8650     4.5440     1.0790 C.3   1 <1>  -0.1020 
 10 O        0.7720     2.7460    -2.5330 O.2   1 <1>  -0.5700 
 11 N        3.2270     0.5270    -0.0450 N.pl3 1 <1>  -0.8690 
 12 C        4.3290    -0.3190    -0.5210 C.3   1 <1>   0.2890 
 13 C        4.0440    -1.7710    -0.1280 C.3   1 <1>  -0.1600 
 14 C        5.6390     0.1810     0.0960 C.3   1 <1>  -0.1600 
 15 C        5.2170    -2.6950    -0.5120 C.3   1 <1>  -0.1600 
 16 C        6.8220    -0.7290    -0.2880 C.3   1 <1>  -0.1600 
 17 C        6.5670    -2.2100     0.0490 C.3   1 <1>   0.3610 
 18 N        6.5890    -2.3940     1.5150 N.am  1 <1>  -0.7300 
 19 C        7.7420    -3.1270    -0.3460 C.2   1 <1>   0.5690 
 20 C        7.5480    -3.2730     1.8630 C.2   1 <1>   0.6900 
 21 O        8.1550    -3.3260    -1.4610 O.2   1 <1>  -0.5700 
 22 N        8.2390    -3.6850     0.7800 N.am  1 <1>  -0.4900 
 23 O        7.7510    -3.6650     2.9870 O.2   1 <1>  -0.5700 
 24 H        2.5860     1.2190    -1.8850 H     1 <1>   0.1500 
 25 H       -1.0540     4.1400    -1.6060 H     1 <1>   0.1500 
 26 H       -2.5390     3.9100     1.6280 H     1 <1>   0.0800 
 27 H       -2.4220     5.0660     0.3220 H     1 <1>   0.0800 
 28 H       -1.4420     5.2650     1.7560 H     1 <1>   0.0800 
 29 H        3.0990     0.5340     0.9830 H     1 <1>   0.4000 
 30 H        4.3930    -0.2480    -1.5950 H     1 <1>   0.0800 
 31 H        3.8730    -1.8280     0.9320 H     1 <1>   0.0800 
 32 H        3.1510    -2.1010    -0.6290 H     1 <1>   0.0800 
 33 H        5.8310     1.1810    -0.2510 H     1 <1>   0.0800 
 34 H        5.5420     0.2110     1.1670 H     1 <1>   0.0800 
 35 H        5.2900    -2.7290    -1.5850 H     1 <1>   0.0800 
 36 H        5.0210    -3.6990    -0.1750 H     1 <1>   0.0800 
 37 H        7.7190    -0.3940     0.2030 H     1 <1>   0.0800 
 38 H        6.9890    -0.6480    -1.3480 H     1 <1>   0.0800 
 39 H        5.8570    -2.0720     2.1460 H     1 <1>   0.3700 
 40 H        9.0030    -4.3500     0.8250 H     1 <1>   0.3700 
@<TRIPOS>BOND
  1   1   2  2   
  2   2   3  1   
  3   2   4  1   
  4   3   5  1   
  5   4   6  1   
  6   4   7  2   
  7   5   8  2   
  8   5   9  1   
  9   6   8  1   
 10   6  10  2   
 11   7  11  1   
 12   7  24  1   
 13   8  25  1   
 14   9  26  1   
 15   9  27  1   
 16   9  28  1   
 17  11  12  1   
 18  11  29  1   
 19  12  13  1   
 20  12  14  1   
 21  12  30  1   
 22  13  15  1   
 23  13  31  1   
 24  13  32  1   
 25  14  16  1   
 26  14  33  1   
 27  14  34  1   
 28  15  17  1   
 29  15  35  1   
 30  15  36  1   
 31  16  17  1   
 32  16  37  1   
 33  16  38  1   
 34  17  18  1   
 35  17  19  1   
 36  18  20  am  
 37  18  39  1   
 38  19  21  2   
 39  19  22  am  
 40  20  22  am  
 41  20  23  2   
 42  22  40  1   
@<TRIPOS>SUBSTRUCTURE
  1 ****  11 GROUP 4 **** **** 0

# MOE 2024.06 (io_trps.svl 2023.06)
