@<TRIPOS>MOLECULE
NONAME
40 42 1 0 0 
SMALL
USER_CHARGES


@<TRIPOS>ATOM
  1 CL      -2.3330     1.7290    -1.9750 Cl    1 <1>  -0.1770 
  2 C       -1.1880     2.3400    -0.8070 C.ar  1 <1>   0.1770 
  3 C       -1.5640     2.4980     0.5290 C.ar  1 <1>   0.0860 
  4 C        0.0800     2.6550    -1.2570 C.ar  1 <1>  -0.1500 
  5 C       -2.8910     2.1690     0.9930 C.2   1 <1>   0.5440 
  6 C       -0.6040     2.9840     1.4210 C.ar  1 <1>  -0.1500 
  7 C        0.9910     3.1390    -0.3400 C.ar  1 <1>   0.1900 
  8 O       -3.0540     1.1210     1.5870 O.2   1 <1>  -0.5700 
  9 N       -3.9600     3.0260     0.8200 N.am  1 <1>  -0.6600 
 10 C        0.6730     3.3080     0.9950 C.ar  1 <1>  -0.1500 
 11 F        2.1910     3.4450    -0.7460 F     1 <1>  -0.1900 
 12 C       -5.3370     2.6700     1.2840 C.3   1 <1>   0.1400 
 13 C       -3.8730     4.3520     0.1520 C.3   1 <1>   0.1400 
 14 C       -6.3510     2.6730     0.1140 C.3   1 <1>   0.0000 
 15 C       -4.8380     4.3920    -1.0360 C.3   1 <1>  -0.1600 
 16 C       -7.7500     2.3530     0.6800 C.3   1 <1>   0.2000 
 17 C       -6.2740     4.0380    -0.6160 C.3   1 <1>  -0.1600 
 18 C       -6.0820     1.4830    -0.8300 C.3   1 <1>  -0.1600 
 19 O       -8.7320     2.6910    -0.2360 O.3   1 <1>  -0.6800 
 20 C       -7.7830     0.8340     0.8280 C.3   1 <1>  -0.1600 
 21 C       -6.8310     0.2800    -0.2410 C.3   1 <1>  -0.1600 
 22 H        0.3510     2.5280    -2.2890 H     1 <1>   0.1500 
 23 H       -0.8720     3.1000     2.4580 H     1 <1>   0.1500 
 24 H        1.4130     3.6830     1.6800 H     1 <1>   0.1500 
 25 H       -5.3320     1.7070     1.7610 H     1 <1>   0.0800 
 26 H       -5.6410     3.3920     2.0210 H     1 <1>   0.0800 
 27 H       -4.1410     5.1160     0.8620 H     1 <1>   0.0800 
 28 H       -2.8740     4.5530    -0.1900 H     1 <1>   0.0800 
 29 H       -4.8250     5.3770    -1.4680 H     1 <1>   0.0800 
 30 H       -4.4980     3.7040    -1.7890 H     1 <1>   0.0800 
 31 H       -7.9640     2.8690     1.6010 H     1 <1>   0.0800 
 32 H       -6.9030     4.0350    -1.4890 H     1 <1>   0.0800 
 33 H       -6.6450     4.8050     0.0420 H     1 <1>   0.0800 
 34 H       -6.4790     1.6950    -1.8070 H     1 <1>   0.0800 
 35 H       -5.0320     1.2720    -0.9360 H     1 <1>   0.0800 
 36 H       -8.5670     2.1990    -1.0620 H     1 <1>   0.4000 
 37 H       -7.4030     0.5720     1.8000 H     1 <1>   0.0800 
 38 H       -8.7800     0.4380     0.7410 H     1 <1>   0.0800 
 39 H       -6.1350    -0.4080     0.2090 H     1 <1>   0.0800 
 40 H       -7.3770    -0.2360    -1.0120 H     1 <1>   0.0800 
@<TRIPOS>BOND
  1   1   2  1   
  2   2   3  ar  
  3   2   4  ar  
  4   3   5  1   
  5   3   6  ar  
  6   4   7  ar  
  7   4  22  1   
  8   5   8  2   
  9   5   9  am  
 10   6  10  ar  
 11   6  23  1   
 12   7  10  ar  
 13   7  11  1   
 14   9  12  1   
 15   9  13  1   
 16  10  24  1   
 17  12  14  1   
 18  12  25  1   
 19  12  26  1   
 20  13  15  1   
 21  13  27  1   
 22  13  28  1   
 23  14  16  1   
 24  14  17  1   
 25  14  18  1   
 26  15  17  1   
 27  15  29  1   
 28  15  30  1   
 29  16  19  1   
 30  16  20  1   
 31  16  31  1   
 32  17  32  1   
 33  17  33  1   
 34  18  21  1   
 35  18  34  1   
 36  18  35  1   
 37  19  36  1   
 38  20  21  1   
 39  20  37  1   
 40  20  38  1   
 41  21  39  1   
 42  21  40  1   
@<TRIPOS>SUBSTRUCTURE
  1 ****   9 GROUP 4 **** **** 0

# MOE 2024.06 (io_trps.svl 2023.06)
