@<TRIPOS>MOLECULE
NONAME
51 54 1 0 0 
SMALL
USER_CHARGES


@<TRIPOS>ATOM
  1 S       -0.2960     0.1460     1.0630 S.3   1 <1>  -0.0800 
  2 C       -0.6270    -1.4200     0.3440 C.2   1 <1>  -0.1400 
  3 C       -0.7810     0.9840    -0.4000 C.2   1 <1>  -0.1400 
  4 C       -1.0720    -1.2660    -0.9200 C.2   1 <1>  -0.1500 
  5 C       -0.3540    -2.6050     1.2470 C.3   1 <1>   0.5230 
  6 C       -1.1590     0.0980    -1.3400 C.2   1 <1>  -0.1500 
  7 C       -0.6980     2.5010    -0.3680 C.3   1 <1>   0.0200 
  8 N       -0.7250    -3.8670     0.5560 N.4   1 <1>  -0.9590 
  9 C       -1.1360     3.1340    -1.6920 C.3   1 <1>  -0.2400 
 10 C       -0.4160    -5.1400     1.2340 C.3   1 <1>   0.4230 
 11 C       -2.1490    -4.1170     0.3360 C.3   1 <1>   0.4230 
 12 C       -0.8350    -6.1570     0.1400 C.3   1 <1>   0.0610 
 13 C       -1.4290    -5.0880     2.4000 C.3   1 <1>  -0.1600 
 14 C       -2.0790    -5.4290    -0.4590 C.3   1 <1>  -0.1600 
 15 C       -2.6520    -4.4200     1.7530 C.3   1 <1>  -0.1600 
 16 C       -1.1190    -7.5270     0.7580 C.2   1 <1>   0.5690 
 17 C        0.2890    -6.4000    -0.9100 C.3   1 <1>   0.0210 
 18 O       -0.4050    -7.8860     1.6620 O.2   1 <1>  -0.5700 
 19 N       -2.1060    -8.3260     0.2670 N.am  1 <1>  -0.7300 
 20 C        1.1040    -5.1940    -1.3610 C.2   1 <1>   0.0460 
 21 C       -2.4370    -9.6810     0.7860 C.3   1 <1>   0.0600 
 22 N        0.4620    -4.1850    -2.0660 N.2   1 <1>  -0.5650 
 23 C        2.4180    -5.0230    -1.1470 C.2   1 <1>  -0.1100 
 24 C        1.2810    -3.2670    -2.4100 C.2   1 <1>   0.2280 
 25 S        2.9210    -3.5220    -1.8640 S.3   1 <1>  -0.0800 
 26 H       -1.3510    -2.0470    -1.6050 H     1 <1>   0.1500 
 27 H       -0.9140    -2.4950     2.1600 H     1 <1>   0.0800 
 28 H        0.6960    -2.6200     1.4920 H     1 <1>   0.0800 
 29 H       -1.5030     0.3490    -2.3290 H     1 <1>   0.1500 
 30 H       -1.3230     2.8690     0.4260 H     1 <1>   0.0800 
 31 H        0.3160     2.7920    -0.1540 H     1 <1>   0.0800 
 32 H       -0.2580    -3.8570    -0.3700 H     1 <1>   0.4500 
 33 H       -2.1570     2.8720    -1.9100 H     1 <1>   0.0800 
 34 H       -0.5070     2.7920    -2.4950 H     1 <1>   0.0800 
 35 H       -1.0620     4.2050    -1.6290 H     1 <1>   0.0800 
 36 H        0.6110    -5.2450     1.5470 H     1 <1>   0.0800 
 37 H       -2.6750    -3.3200    -0.1670 H     1 <1>   0.0800 
 38 H       -1.6700    -6.0510     2.8140 H     1 <1>   0.0800 
 39 H       -1.0400    -4.4860     3.2020 H     1 <1>   0.0800 
 40 H       -2.9970    -5.9770    -0.3480 H     1 <1>   0.0800 
 41 H       -1.9500    -5.2130    -1.5050 H     1 <1>   0.0800 
 42 H       -2.9190    -3.5120     2.2640 H     1 <1>   0.0800 
 43 H       -3.5110    -5.0690     1.7410 H     1 <1>   0.0800 
 44 H       -0.1350    -6.8680    -1.7820 H     1 <1>   0.0800 
 45 H        0.9910    -7.1080    -0.5010 H     1 <1>   0.0800 
 46 H       -2.6430    -8.0440    -0.5560 H     1 <1>   0.3700 
 47 H       -1.8340    -9.9160     1.6470 H     1 <1>   0.0800 
 48 H       -2.2510   -10.4190     0.0250 H     1 <1>   0.0800 
 49 H       -3.4750    -9.7210     1.0700 H     1 <1>   0.0800 
 50 H        3.1680    -5.6180    -0.6540 H     1 <1>   0.1500 
 51 H        1.0920    -2.3700    -2.9770 H     1 <1>   0.1500 
@<TRIPOS>BOND
  1   1   2  1   
  2   1   3  1   
  3   2   4  2   
  4   2   5  1   
  5   3   6  2   
  6   3   7  1   
  7   4   6  1   
  8   4  26  1   
  9   5   8  1   
 10   5  27  1   
 11   5  28  1   
 12   6  29  1   
 13   7   9  1   
 14   7  30  1   
 15   7  31  1   
 16   8  10  1   
 17   8  11  1   
 18   8  32  1   
 19   9  33  1   
 20   9  34  1   
 21   9  35  1   
 22  10  12  1   
 23  10  13  1   
 24  10  36  1   
 25  11  14  1   
 26  11  15  1   
 27  11  37  1   
 28  12  14  1   
 29  12  16  1   
 30  12  17  1   
 31  13  15  1   
 32  13  38  1   
 33  13  39  1   
 34  14  40  1   
 35  14  41  1   
 36  15  42  1   
 37  15  43  1   
 38  16  18  2   
 39  16  19  am  
 40  17  20  1   
 41  17  44  1   
 42  17  45  1   
 43  19  21  1   
 44  19  46  1   
 45  20  22  1   
 46  20  23  2   
 47  21  47  1   
 48  21  48  1   
 49  21  49  1   
 50  22  24  2   
 51  23  25  1   
 52  23  50  1   
 53  24  25  1   
 54  24  51  1   
@<TRIPOS>SUBSTRUCTURE
  1 ****   8 GROUP 4 **** **** 0

# MOE 2024.06 (io_trps.svl 2023.06)
