@<TRIPOS>MOLECULE
NONAME
46 49 1 0 0 
SMALL
USER_CHARGES


@<TRIPOS>ATOM
  1 O       -3.2500    -1.5680     0.3520 O.co2 1 <1>  -0.9000 
  2 C       -2.4090    -0.6580     0.4670 C.2   1 <1>   0.9790 
  3 O       -1.2370    -0.9550     0.7540 O.co2 1 <1>  -0.9000 
  4 C       -2.8040     0.7330     0.2870 C.ar  1 <1>  -0.1790 
  5 C       -4.0770     1.0700    -0.1720 C.ar  1 <1>  -0.1500 
  6 C       -1.9340     1.7850     0.5730 C.ar  1 <1>  -0.1500 
  7 C       -4.5140     2.3860    -0.3120 C.ar  1 <1>   0.0860 
  8 C       -2.3240     3.1020     0.4200 C.ar  1 <1>  -0.1500 
  9 C       -5.8640     2.7080    -0.7470 C.2   1 <1>   0.5440 
 10 C       -3.6010     3.3980    -0.0180 C.ar  1 <1>  -0.1500 
 11 O       -6.0330     3.6170    -1.5410 O.2   1 <1>  -0.5700 
 12 N       -6.9760     2.0410    -0.2680 N.am  1 <1>  -0.6600 
 13 C       -8.3060     2.1450    -0.9460 C.3   1 <1>   0.1400 
 14 C       -7.0010     1.2630     1.0040 C.3   1 <1>   0.1400 
 15 C       -9.3510     2.7890    -0.0160 C.3   1 <1>   0.1430 
 16 C       -8.0390     1.8610     1.9630 C.3   1 <1>  -0.1600 
 17 C      -10.6820     2.8360    -0.7460 C.ar  1 <1>   0.1670 
 18 C       -9.4250     1.9960     1.3070 C.3   1 <1>  -0.1600 
 19 C       -9.0530     4.2940     0.2170 C.3   1 <1>  -0.1600 
 20 N      -11.4820     1.8130    -0.9550 N.ar  1 <1>  -0.6200 
 21 C      -10.9630     4.0950    -1.1880 C.ar  1 <1>  -0.1430 
 22 C       -9.8730     5.0730    -0.8240 C.3   1 <1>  -0.0170 
 23 C      -12.5870     2.1090    -1.6230 C.ar  1 <1>   0.4770 
 24 C      -12.1360     4.2870    -1.8740 C.ar  1 <1>   0.1600 
 25 N      -12.9650     3.2890    -2.0980 N.ar  1 <1>  -0.6200 
 26 C      -13.5320     0.9610    -1.8830 C.3   1 <1>  -0.0970 
 27 H       -4.7500     0.2670    -0.4230 H     1 <1>   0.1500 
 28 H       -0.9410     1.5490     0.9200 H     1 <1>   0.1500 
 29 H       -1.6300     3.8930     0.6420 H     1 <1>   0.1500 
 30 H       -3.9040     4.4220    -0.1380 H     1 <1>   0.1500 
 31 H       -8.6340     1.1550    -1.2140 H     1 <1>   0.0800 
 32 H       -8.2270     2.7150    -1.8550 H     1 <1>   0.0800 
 33 H       -6.0380     1.2770     1.4850 H     1 <1>   0.0800 
 34 H       -7.2480     0.2380     0.7820 H     1 <1>   0.0800 
 35 H       -7.6910     2.8250     2.2900 H     1 <1>   0.0800 
 36 H       -8.1140     1.2320     2.8330 H     1 <1>   0.0800 
 37 H       -9.8050     1.0110     1.0980 H     1 <1>   0.0800 
 38 H      -10.1140     2.4700     1.9840 H     1 <1>   0.0800 
 39 H       -8.0050     4.5260     0.1470 H     1 <1>   0.0800 
 40 H       -9.3970     4.5800     1.1950 H     1 <1>   0.0800 
 41 H       -9.2730     5.2870    -1.6920 H     1 <1>   0.0800 
 42 H      -10.2700     5.9860    -0.4160 H     1 <1>   0.0800 
 43 H      -12.3990     5.2630    -2.2430 H     1 <1>   0.1500 
 44 H      -13.4200     0.2100    -1.1230 H     1 <1>   0.0800 
 45 H      -13.3100     0.5310    -2.8410 H     1 <1>   0.0800 
 46 H      -14.5470     1.3120    -1.8790 H     1 <1>   0.0800 
@<TRIPOS>BOND
  1   1   2  ar  
  2   2   3  ar  
  3   2   4  1   
  4   4   5  ar  
  5   4   6  ar  
  6   5   7  ar  
  7   5  27  1   
  8   6   8  ar  
  9   6  28  1   
 10   7   9  1   
 11   7  10  ar  
 12   8  10  ar  
 13   8  29  1   
 14   9  11  2   
 15   9  12  am  
 16  10  30  1   
 17  12  13  1   
 18  12  14  1   
 19  13  15  1   
 20  13  31  1   
 21  13  32  1   
 22  14  16  1   
 23  14  33  1   
 24  14  34  1   
 25  15  17  1   
 26  15  18  1   
 27  15  19  1   
 28  16  18  1   
 29  16  35  1   
 30  16  36  1   
 31  17  20  ar  
 32  17  21  ar  
 33  18  37  1   
 34  18  38  1   
 35  19  22  1   
 36  19  39  1   
 37  19  40  1   
 38  20  23  ar  
 39  21  22  1   
 40  21  24  ar  
 41  22  41  1   
 42  22  42  1   
 43  23  25  ar  
 44  23  26  1   
 45  24  25  ar  
 46  24  43  1   
 47  26  44  1   
 48  26  45  1   
 49  26  46  1   
@<TRIPOS>SUBSTRUCTURE
  1 ****  12 GROUP 4 **** **** 0

# MOE 2024.06 (io_trps.svl 2023.06)
