@<TRIPOS>MOLECULE
NONAME
42 44 1 0 0 
SMALL
USER_CHARGES


@<TRIPOS>ATOM
  1 F       -1.3190    -0.4060     0.3050 F     1 <1>  -0.1900 
  2 C       -2.2750     0.4870     0.3620 C.ar  1 <1>   0.1900 
  3 C       -2.0500     1.7760    -0.0940 C.ar  1 <1>   0.1900 
  4 C       -3.5080     0.1140     0.8720 C.ar  1 <1>  -0.1440 
  5 F       -0.8820     2.1080    -0.5790 F     1 <1>  -0.1900 
  6 C       -3.0530     2.7260    -0.0520 C.ar  1 <1>  -0.1500 
  7 C       -4.5180     1.0700     0.9150 C.ar  1 <1>  -0.1500 
  8 C       -3.7440    -1.2980     1.3730 C.3   1 <1>   0.4870 
  9 C       -4.2910     2.3630     0.4570 C.ar  1 <1>  -0.1500 
 10 N       -3.6910    -2.2510     0.2300 N.4   1 <1>  -0.9590 
 11 C       -4.7900    -1.9920    -0.7510 C.3   1 <1>   0.3430 
 12 C       -3.8720    -3.6560     0.7150 C.3   1 <1>   0.3430 
 13 C       -5.9200    -2.9460    -0.3580 C.3   1 <1>   0.2000 
 14 C       -5.1740    -4.1960     0.0980 C.3   1 <1>  -0.0800 
 15 O       -6.5910    -2.4120     0.7390 O.3   1 <1>  -0.6800 
 16 C       -4.8920    -5.1480    -1.0820 C.3   1 <1>   0.0210 
 17 C       -4.1910    -6.4080    -0.6160 C.2   1 <1>   0.1080 
 18 N       -2.9650    -6.4140    -0.1960 N.2   1 <1>  -0.7070 
 19 C       -4.7650    -7.6740    -0.5880 C.2   1 <1>  -0.1500 
 20 N       -2.7150    -7.7070     0.1040 N.pl3 1 <1>   0.3000 
 21 C       -3.7940    -8.4850    -0.1200 C.2   1 <1>  -0.3320 
 22 C       -3.8290    -9.9830     0.1240 C.3   1 <1>  -0.0600 
 23 H       -2.8660     3.7240    -0.4090 H     1 <1>   0.1500 
 24 H       -5.4910     0.8210     1.3080 H     1 <1>   0.1500 
 25 H       -4.7060    -1.3580     1.8570 H     1 <1>   0.0800 
 26 H       -2.9830    -1.5490     2.0940 H     1 <1>   0.0800 
 27 H       -5.0830     3.0940     0.4980 H     1 <1>   0.1500 
 28 H       -2.7700    -2.1440    -0.2200 H     1 <1>   0.4500 
 29 H       -5.1220    -0.9670    -0.7410 H     1 <1>   0.0800 
 30 H       -4.4490    -2.2410    -1.7420 H     1 <1>   0.0800 
 31 H       -3.0250    -4.2570     0.4330 H     1 <1>   0.0800 
 32 H       -3.9550    -3.6710     1.7890 H     1 <1>   0.0800 
 33 H       -6.6270    -3.1090    -1.1540 H     1 <1>   0.0800 
 34 H       -5.7370    -4.7420     0.8350 H     1 <1>   0.0800 
 35 H       -7.4040    -2.9240     0.9380 H     1 <1>   0.4000 
 36 H       -4.2740    -4.6720    -1.8230 H     1 <1>   0.0800 
 37 H       -5.8180    -5.4270    -1.5530 H     1 <1>   0.0800 
 38 H       -5.7670    -7.9320    -0.8830 H     1 <1>   0.1500 
 39 H       -1.8040    -8.0300     0.4530 H     1 <1>   0.2700 
 40 H       -4.7960   -10.3780    -0.1320 H     1 <1>   0.0800 
 41 H       -3.6360   -10.1970     1.1610 H     1 <1>   0.0800 
 42 H       -3.0880   -10.4770    -0.4800 H     1 <1>   0.0800 
@<TRIPOS>BOND
  1   1   2  1   
  2   2   3  ar  
  3   2   4  ar  
  4   3   5  1   
  5   3   6  ar  
  6   4   7  ar  
  7   4   8  1   
  8   6   9  ar  
  9   6  23  1   
 10   7   9  ar  
 11   7  24  1   
 12   8  10  1   
 13   8  25  1   
 14   8  26  1   
 15   9  27  1   
 16  10  11  1   
 17  10  12  1   
 18  10  28  1   
 19  11  13  1   
 20  11  29  1   
 21  11  30  1   
 22  12  14  1   
 23  12  31  1   
 24  12  32  1   
 25  13  14  1   
 26  13  15  1   
 27  13  33  1   
 28  14  16  1   
 29  14  34  1   
 30  15  35  1   
 31  16  17  1   
 32  16  36  1   
 33  16  37  1   
 34  17  18  2   
 35  17  19  1   
 36  18  20  1   
 37  19  21  2   
 38  19  38  1   
 39  20  21  1   
 40  20  39  1   
 41  21  22  1   
 42  22  40  1   
 43  22  41  1   
 44  22  42  1   
@<TRIPOS>SUBSTRUCTURE
  1 ****  10 GROUP 4 **** **** 0

# MOE 2024.06 (io_trps.svl 2023.06)
