@<TRIPOS>MOLECULE
NONAME
41 43 1 0 0 
SMALL
USER_CHARGES


@<TRIPOS>ATOM
  1 S       -2.7420    -2.7030    -0.9350 S.3   1 <1>  -0.0800 
  2 C       -1.9370    -3.0460     0.5570 C.2   1 <1>   0.4420 
  3 C       -2.1800    -1.0730    -0.7850 C.2   1 <1>   0.1980 
  4 N       -1.3320    -2.0170     1.0300 N.2   1 <1>  -0.3380 
  5 N       -2.0580    -4.3300     1.0380 N.am  1 <1>  -0.4940 
  6 N       -1.4810    -0.8930     0.2620 N.2   1 <1>  -0.3380 
  7 C       -2.5640    -0.0650    -1.8660 C.3   1 <1>   0.3800 
  8 C       -1.3060    -4.9990     1.9580 C.2   1 <1>   0.5690 
  9 O       -3.9200    -0.1610    -2.2000 O.3   1 <1>  -0.5600 
 10 C       -1.7770    -0.2930    -3.1550 C.3   1 <1>  -0.2400 
 11 O       -0.3340    -4.5270     2.4930 O.2   1 <1>  -0.5700 
 12 C       -1.7300    -6.4200     2.3300 C.3   1 <1>   0.1810 
 13 C       -4.8090     0.2500    -1.2050 C.3   1 <1>   0.0400 
 14 O       -1.8360    -7.2670     1.2010 O.3   1 <1>  -0.5600 
 15 C       -3.1120    -7.7720     0.9390 C.3   1 <1>   0.3000 
 16 C       -3.9310    -6.7060     0.2290 C.2   1 <1>   0.0060 
 17 N       -4.6650    -5.8340     0.8330 N.2   1 <1>  -0.5650 
 18 N       -3.9220    -6.5740    -1.1220 N.pl3 1 <1>   0.0330 
 19 C       -5.1910    -5.0770    -0.1690 C.ar  1 <1>   0.2270 
 20 C       -4.7310    -5.5190    -1.3980 C.ar  1 <1>  -0.1520 
 21 C       -6.0470    -3.9820    -0.0900 C.ar  1 <1>  -0.1500 
 22 C       -5.1000    -4.8870    -2.5910 C.ar  1 <1>  -0.1500 
 23 C       -6.3980    -3.3690    -1.2680 C.ar  1 <1>   0.1900 
 24 C       -5.9420    -3.7980    -2.5180 C.ar  1 <1>  -0.1500 
 25 F       -7.1950    -2.3310    -1.2280 F     1 <1>  -0.1900 
 26 H       -2.8570    -4.8570     0.6760 H     1 <1>   0.3700 
 27 H       -2.3740     0.9320    -1.5070 H     1 <1>   0.0800 
 28 H       -1.9880    -1.2690    -3.5530 H     1 <1>   0.0800 
 29 H       -0.7240    -0.2210    -2.9540 H     1 <1>   0.0800 
 30 H       -2.0420     0.4540    -3.8810 H     1 <1>   0.0800 
 31 H       -2.6650    -6.3800     2.8610 H     1 <1>   0.0800 
 32 H       -0.9860    -6.8430     2.9800 H     1 <1>   0.0800 
 33 H       -5.8080     0.1640    -1.5950 H     1 <1>   0.0800 
 34 H       -4.6080     1.2760    -0.9470 H     1 <1>   0.0800 
 35 H       -4.7080    -0.3850    -0.3420 H     1 <1>   0.0800 
 36 H       -3.5780    -8.0740     1.8620 H     1 <1>   0.0800 
 37 H       -3.0010    -8.6380     0.3120 H     1 <1>   0.0800 
 38 H       -3.3890    -7.1280    -1.7990 H     1 <1>   0.2700 
 39 H       -6.4040    -3.6410     0.8630 H     1 <1>   0.1500 
 40 H       -4.7310    -5.2420    -3.5380 H     1 <1>   0.1500 
 41 H       -6.2540    -3.2670    -3.4000 H     1 <1>   0.1500 
@<TRIPOS>BOND
  1   1   2  1   
  2   1   3  1   
  3   2   4  2   
  4   2   5  1   
  5   3   6  2   
  6   3   7  1   
  7   4   6  1   
  8   5   8  am  
  9   5  26  1   
 10   7   9  1   
 11   7  10  1   
 12   7  27  1   
 13   8  11  2   
 14   8  12  1   
 15   9  13  1   
 16  10  28  1   
 17  10  29  1   
 18  10  30  1   
 19  12  14  1   
 20  12  31  1   
 21  12  32  1   
 22  13  33  1   
 23  13  34  1   
 24  13  35  1   
 25  14  15  1   
 26  15  16  1   
 27  15  36  1   
 28  15  37  1   
 29  16  17  2   
 30  16  18  1   
 31  17  19  1   
 32  18  20  1   
 33  18  38  1   
 34  19  20  ar  
 35  19  21  ar  
 36  20  22  ar  
 37  21  23  ar  
 38  21  39  1   
 39  22  24  ar  
 40  22  40  1   
 41  23  24  ar  
 42  23  25  1   
 43  24  41  1   
@<TRIPOS>SUBSTRUCTURE
  1 ****   1 GROUP 4 **** **** 0

# MOE 2024.06 (io_trps.svl 2023.06)
