@<TRIPOS>MOLECULE
NONAME
51 54 1 0 0 
SMALL
USER_CHARGES


@<TRIPOS>ATOM
  1 O       -0.5860    -0.4460    -0.5600 O.2   1 <1>  -0.5700 
  2 C       -1.6940    -0.1530    -0.1840 C.2   1 <1>   0.5690 
  3 N       -2.6950    -1.0110     0.1830 N.am  1 <1>  -0.4770 
  4 C       -2.1280     1.2830    -0.0630 C.3   1 <1>  -0.0990 
  5 C       -2.6920    -2.4170     0.1550 C.ar  1 <1>   0.1170 
  6 C       -3.8930    -0.2560     0.6080 C.3   1 <1>   0.1400 
  7 C       -3.6420     1.1840     0.1490 C.3   1 <1>  -0.1600 
  8 C       -3.3970    -3.1580     1.1010 C.ar  1 <1>  -0.1500 
  9 C       -1.9920    -3.1220    -0.8200 C.ar  1 <1>  -0.1500 
 10 C       -3.4110    -4.5390     1.0620 C.ar  1 <1>  -0.1500 
 11 C       -2.0060    -4.5030    -0.8560 C.ar  1 <1>  -0.1500 
 12 C       -2.7270    -5.2500     0.0750 C.ar  1 <1>   0.0860 
 13 C       -2.7490    -6.6990     0.0140 C.2   1 <1>   0.5440 
 14 O       -1.7150    -7.3140    -0.1690 O.2   1 <1>  -0.5700 
 15 N       -3.9210    -7.4120     0.1400 N.am  1 <1>  -0.6600 
 16 C       -5.2710    -6.8660    -0.1500 C.3   1 <1>   0.1400 
 17 C       -3.9450    -8.8960     0.1050 C.3   1 <1>   0.1400 
 18 C       -6.0770    -8.0640    -0.6490 C.3   1 <1>   0.2000 
 19 C       -5.4220    -9.2800    -0.0010 C.3   1 <1>  -0.0800 
 20 O       -7.4080    -7.9760    -0.2750 O.3   1 <1>  -0.6800 
 21 C       -5.6630   -10.5840    -0.7760 C.3   1 <1>   0.0210 
 22 C       -4.9190   -11.7380    -0.1340 C.2   1 <1>   0.1080 
 23 N       -5.1890   -12.1710     1.0590 N.2   1 <1>  -0.7070 
 24 C       -3.8770   -12.4430    -0.7260 C.2   1 <1>  -0.1500 
 25 N       -4.3180   -13.1770     1.2600 N.pl3 1 <1>   0.3000 
 26 C       -3.5110   -13.3600     0.1930 C.2   1 <1>  -0.3320 
 27 C       -2.4230   -14.4150     0.1180 C.3   1 <1>  -0.0600 
 28 H       -1.6420     1.7220     0.7880 H     1 <1>   0.0800 
 29 H       -1.8800     1.8330    -0.9530 H     1 <1>   0.0800 
 30 H       -4.7800    -0.6650     0.1530 H     1 <1>   0.0800 
 31 H       -3.9760    -0.2990     1.6800 H     1 <1>   0.0800 
 32 H       -4.1500     1.3450    -0.7860 H     1 <1>   0.0800 
 33 H       -4.0020     1.9010     0.8670 H     1 <1>   0.0800 
 34 H       -3.9310    -2.6520     1.8830 H     1 <1>   0.1500 
 35 H       -1.4260    -2.5830    -1.5590 H     1 <1>   0.1500 
 36 H       -3.9530    -5.0880     1.8120 H     1 <1>   0.1500 
 37 H       -1.4490    -5.0240    -1.6150 H     1 <1>   0.1500 
 38 H       -5.6970    -6.4760     0.7580 H     1 <1>   0.0800 
 39 H       -5.2220    -6.0970    -0.9020 H     1 <1>   0.0800 
 40 H       -3.3940    -9.2360    -0.7570 H     1 <1>   0.0800 
 41 H       -3.4960    -9.3070     0.9940 H     1 <1>   0.0800 
 42 H       -6.0260    -8.1120    -1.7230 H     1 <1>   0.0800 
 43 H       -5.7880    -9.3960     1.0040 H     1 <1>   0.0800 
 44 H       -7.5010    -8.1380     0.6840 H     1 <1>   0.4000 
 45 H       -5.3420   -10.4750    -1.7960 H     1 <1>   0.0800 
 46 H       -6.7140   -10.8110    -0.7780 H     1 <1>   0.0800 
 47 H       -3.4700   -12.2720    -1.7060 H     1 <1>   0.1500 
 48 H       -4.2990   -13.7170     2.1330 H     1 <1>   0.2700 
 49 H       -1.9200   -14.3590    -0.8320 H     1 <1>   0.0800 
 50 H       -2.8480   -15.3970     0.2230 H     1 <1>   0.0800 
 51 H       -1.6990   -14.2590     0.8970 H     1 <1>   0.0800 
@<TRIPOS>BOND
  1   1   2  2   
  2   2   3  am  
  3   2   4  1   
  4   3   5  1   
  5   3   6  1   
  6   4   7  1   
  7   4  28  1   
  8   4  29  1   
  9   5   8  ar  
 10   5   9  ar  
 11   6   7  1   
 12   6  30  1   
 13   6  31  1   
 14   7  32  1   
 15   7  33  1   
 16   8  10  ar  
 17   8  34  1   
 18   9  11  ar  
 19   9  35  1   
 20  10  12  ar  
 21  10  36  1   
 22  11  12  ar  
 23  11  37  1   
 24  12  13  1   
 25  13  14  2   
 26  13  15  am  
 27  15  16  1   
 28  15  17  1   
 29  16  18  1   
 30  16  38  1   
 31  16  39  1   
 32  17  19  1   
 33  17  40  1   
 34  17  41  1   
 35  18  19  1   
 36  18  20  1   
 37  18  42  1   
 38  19  21  1   
 39  19  43  1   
 40  20  44  1   
 41  21  22  1   
 42  21  45  1   
 43  21  46  1   
 44  22  23  2   
 45  22  24  1   
 46  23  25  1   
 47  24  26  2   
 48  24  47  1   
 49  25  26  1   
 50  25  48  1   
 51  26  27  1   
 52  27  49  1   
 53  27  50  1   
 54  27  51  1   
@<TRIPOS>SUBSTRUCTURE
  1 ****  13 GROUP 4 **** **** 0

# MOE 2024.06 (io_trps.svl 2023.06)
