@<TRIPOS>MOLECULE
NONAME
56 59 1 0 0 
SMALL
USER_CHARGES


@<TRIPOS>ATOM
  1 F       -0.6030    -0.4930     1.4830 F     1 <1>  -0.1900 
  2 C       -1.7570    -1.0430     1.1990 C.ar  1 <1>   0.1900 
  3 C       -2.6320    -0.3670     0.3710 C.ar  1 <1>  -0.1500 
  4 C       -2.0560    -2.2780     1.7370 C.ar  1 <1>  -0.1500 
  5 C       -3.8560    -0.9410     0.0630 C.ar  1 <1>  -0.1440 
  6 C       -3.2780    -2.8450     1.4300 C.ar  1 <1>  -0.1500 
  7 C       -4.1860    -2.1930     0.6000 C.ar  1 <1>   0.1000 
  8 C       -4.8020    -0.1800    -0.8560 C.3   1 <1>  -0.0960 
  9 N       -5.3970    -2.8330     0.3400 N.pl3 1 <1>  -0.8380 
 10 C       -5.5130    -3.6720    -0.8650 C.3   1 <1>   0.2090 
 11 C       -6.6410    -2.2980     0.9200 C.3   1 <1>   0.2090 
 12 C       -6.3680    -4.8820    -0.4970 C.3   1 <1>  -0.1600 
 13 C       -7.5010    -3.4940     1.3150 C.3   1 <1>  -0.1600 
 14 C       -7.6990    -4.4370     0.1240 C.3   1 <1>   0.4230 
 15 N       -8.4750    -5.6020     0.6060 N.4   1 <1>  -0.9060 
 16 C       -8.9720    -6.5580    -0.4220 C.3   1 <1>   0.4230 
 17 C      -10.2670    -7.1830     0.0920 C.3   1 <1>  -0.0800 
 18 C       -8.0630    -7.7840    -0.4360 C.3   1 <1>   0.1200 
 19 C       -9.7680    -8.3670     0.9430 C.3   1 <1>   0.1200 
 20 C      -11.1750    -7.6470    -1.0650 C.3   1 <1>  -0.0170 
 21 O       -8.3840    -8.4200     0.7530 O.3   1 <1>  -0.5600 
 22 C      -12.4710    -8.2360    -0.5320 C.ar  1 <1>  -0.1430 
 23 C      -12.6930    -9.5980    -0.4860 C.ar  1 <1>  -0.1500 
 24 C      -13.4980    -7.4360    -0.0690 C.ar  1 <1>  -0.1500 
 25 C      -13.8890   -10.0810     0.0190 C.ar  1 <1>   0.1600 
 26 C      -14.6560    -8.0210     0.4160 C.ar  1 <1>   0.1600 
 27 N      -14.8720    -9.3240     0.4760 N.ar  1 <1>  -0.6200 
 28 H       -2.3460     0.5920    -0.0200 H     1 <1>   0.1500 
 29 H       -1.3500    -2.7740     2.3780 H     1 <1>   0.1500 
 30 H       -3.5420    -3.8040     1.8340 H     1 <1>   0.1500 
 31 H       -4.2970     0.6420    -1.3320 H     1 <1>   0.0800 
 32 H       -5.6260     0.2110    -0.2880 H     1 <1>   0.0800 
 33 H       -5.1780    -0.8290    -1.6240 H     1 <1>   0.0800 
 34 H       -5.9690    -3.1040    -1.6590 H     1 <1>   0.0800 
 35 H       -4.5320    -3.9850    -1.1870 H     1 <1>   0.0800 
 36 H       -6.4090    -1.6960     1.7840 H     1 <1>   0.0800 
 37 H       -7.1450    -1.6830     0.1950 H     1 <1>   0.0800 
 38 H       -5.8080    -5.4800     0.2000 H     1 <1>   0.0800 
 39 H       -6.5340    -5.4490    -1.3940 H     1 <1>   0.0800 
 40 H       -8.4480    -3.1290     1.6690 H     1 <1>   0.0800 
 41 H       -7.0030    -4.0050     2.1210 H     1 <1>   0.0800 
 42 H       -8.2670    -3.9110    -0.6270 H     1 <1>   0.0800 
 43 H       -9.2670    -5.2640     1.1600 H     1 <1>   0.4500 
 44 H       -7.9010    -6.1600     1.2580 H     1 <1>   0.4500 
 45 H       -9.0820    -6.0900    -1.3870 H     1 <1>   0.0800 
 46 H      -10.8290    -6.4960     0.6990 H     1 <1>   0.0800 
 47 H       -7.0120    -7.5570    -0.4490 H     1 <1>   0.0800 
 48 H       -8.3000    -8.4470    -1.2500 H     1 <1>   0.0800 
 49 H      -10.1860    -9.3100     0.6320 H     1 <1>   0.0800 
 50 H       -9.9610    -8.2240     1.9930 H     1 <1>   0.0800 
 51 H      -10.6750    -8.3800    -1.6750 H     1 <1>   0.0800 
 52 H      -11.4180    -6.8110    -1.6990 H     1 <1>   0.0800 
 53 H      -11.9550   -10.2960    -0.8370 H     1 <1>   0.1500 
 54 H      -13.4190    -6.3650    -0.0800 H     1 <1>   0.1500 
 55 H      -14.0450   -11.1460     0.0500 H     1 <1>   0.1500 
 56 H      -15.4490    -7.3850     0.7730 H     1 <1>   0.1500 
@<TRIPOS>BOND
  1   1   2  1   
  2   2   3  ar  
  3   2   4  ar  
  4   3   5  ar  
  5   3  28  1   
  6   4   6  ar  
  7   4  29  1   
  8   5   7  ar  
  9   5   8  1   
 10   6   7  ar  
 11   6  30  1   
 12   7   9  1   
 13   8  31  1   
 14   8  32  1   
 15   8  33  1   
 16   9  10  1   
 17   9  11  1   
 18  10  12  1   
 19  10  34  1   
 20  10  35  1   
 21  11  13  1   
 22  11  36  1   
 23  11  37  1   
 24  12  14  1   
 25  12  38  1   
 26  12  39  1   
 27  13  14  1   
 28  13  40  1   
 29  13  41  1   
 30  14  15  1   
 31  14  42  1   
 32  15  16  1   
 33  15  43  1   
 34  15  44  1   
 35  16  17  1   
 36  16  18  1   
 37  16  45  1   
 38  17  19  1   
 39  17  20  1   
 40  17  46  1   
 41  18  21  1   
 42  18  47  1   
 43  18  48  1   
 44  19  21  1   
 45  19  49  1   
 46  19  50  1   
 47  20  22  1   
 48  20  51  1   
 49  20  52  1   
 50  22  23  ar  
 51  22  24  ar  
 52  23  25  ar  
 53  23  53  1   
 54  24  26  ar  
 55  24  54  1   
 56  25  27  ar  
 57  25  55  1   
 58  26  27  ar  
 59  26  56  1   
@<TRIPOS>SUBSTRUCTURE
  1 ****  14 GROUP 4 **** **** 0

# MOE 2024.06 (io_trps.svl 2023.06)
