@<TRIPOS>MOLECULE
NONAME
53 55 1 0 0 
SMALL
USER_CHARGES


@<TRIPOS>ATOM
  1 O        0.1730    -4.5230    -0.9040 O.2   1 <1>  -0.5700 
  2 C        1.3360    -4.2950    -0.7000 C.2   1 <1>   0.5690 
  3 N        2.2690    -4.4700    -1.6580 N.am  1 <1>  -0.7300 
  4 C        1.8050    -3.8100     0.6540 C.3   1 <1>  -0.0990 
  5 C        3.7130    -4.2460    -1.4380 C.3   1 <1>   0.1400 
  6 C        2.8470    -2.6870     0.4920 C.3   1 <1>  -0.0800 
  7 C        3.9320    -2.9860    -0.5740 C.3   1 <1>  -0.0800 
  8 C        3.5860    -2.3620     1.7990 C.3   1 <1>  -0.1600 
  9 C        5.2640    -3.0110     0.1840 C.3   1 <1>  -0.1600 
 10 C        5.0250    -2.0890     1.3740 C.3   1 <1>   0.2200 
 11 N        6.0240    -2.2710     2.4760 N.am  1 <1>  -0.6600 
 12 C        6.8780    -1.2760     2.8900 C.2   1 <1>   0.5690 
 13 C        6.2330    -3.6550     3.0070 C.3   1 <1>   0.0600 
 14 O        7.8260    -1.5100     3.6030 O.2   1 <1>  -0.5700 
 15 C        6.7380     0.1550     2.4350 C.3   1 <1>  -0.0380 
 16 C        7.3830     0.2610     1.0820 C.2   1 <1>   0.5690 
 17 O        6.7310     0.7140     0.1740 O.2   1 <1>  -0.5700 
 18 N        8.6640    -0.2000     0.9590 N.am  1 <1>  -0.5470 
 19 C        9.4920    -0.3740    -0.1610 C.ar  1 <1>   0.1170 
 20 C       10.4700    -1.3760    -0.1460 C.ar  1 <1>  -0.1440 
 21 C        9.3700     0.4430    -1.2780 C.ar  1 <1>  -0.1500 
 22 C       11.3130    -1.5350    -1.2460 C.ar  1 <1>  -0.1440 
 23 C       10.5880    -2.2770     1.0880 C.3   1 <1>  -0.0970 
 24 C       10.1980     0.2780    -2.3680 C.ar  1 <1>  -0.1500 
 25 C       11.1660    -0.7070    -2.3500 C.ar  1 <1>  -0.1500 
 26 C       12.4090    -2.5910    -1.2960 C.3   1 <1>  -0.0970 
 27 H        1.9550    -4.8280    -2.5630 H     1 <1>   0.3700 
 28 H        0.9620    -3.4560     1.2190 H     1 <1>   0.0800 
 29 H        2.2310    -4.6500     1.1710 H     1 <1>   0.0800 
 30 H        4.1140    -5.1140    -0.9420 H     1 <1>   0.0800 
 31 H        4.2160    -4.1340    -2.3840 H     1 <1>   0.0800 
 32 H        2.3210    -1.8040     0.1680 H     1 <1>   0.0800 
 33 H        3.9590    -2.1420    -1.2430 H     1 <1>   0.0800 
 34 H        3.5370    -3.2000     2.4690 H     1 <1>   0.0800 
 35 H        3.1580    -1.5020     2.2840 H     1 <1>   0.0800 
 36 H        6.0750    -2.6560    -0.4280 H     1 <1>   0.0800 
 37 H        5.4700    -4.0120     0.5150 H     1 <1>   0.0800 
 38 H        5.0530    -1.0850     0.9930 H     1 <1>   0.0800 
 39 H        5.3350    -4.2400     2.9460 H     1 <1>   0.0800 
 40 H        6.5380    -3.6110     4.0390 H     1 <1>   0.0800 
 41 H        7.0080    -4.1420     2.4420 H     1 <1>   0.0800 
 42 H        5.7070     0.4480     2.3980 H     1 <1>   0.0800 
 43 H        7.2470     0.8060     3.1190 H     1 <1>   0.0800 
 44 H        9.0320    -0.6340     1.8090 H     1 <1>   0.3700 
 45 H        8.6260     1.2170    -1.2980 H     1 <1>   0.1500 
 46 H       11.2160    -3.1300     0.9220 H     1 <1>   0.0800 
 47 H        9.6200    -2.6520     1.3700 H     1 <1>   0.0800 
 48 H       10.9960    -1.7170     1.9100 H     1 <1>   0.0800 
 49 H       10.0920     0.9160    -3.2270 H     1 <1>   0.1500 
 50 H       11.8070    -0.8220    -3.2060 H     1 <1>   0.1500 
 51 H       13.0030    -2.4930    -2.1870 H     1 <1>   0.0800 
 52 H       11.9740    -3.5740    -1.2900 H     1 <1>   0.0800 
 53 H       13.0630    -2.4860    -0.4490 H     1 <1>   0.0800 
@<TRIPOS>BOND
  1   1   2  2   
  2   2   3  am  
  3   2   4  1   
  4   3   5  1   
  5   3  27  1   
  6   4   6  1   
  7   4  28  1   
  8   4  29  1   
  9   5   7  1   
 10   5  30  1   
 11   5  31  1   
 12   6   7  1   
 13   6   8  1   
 14   6  32  1   
 15   7   9  1   
 16   7  33  1   
 17   8  10  1   
 18   8  34  1   
 19   8  35  1   
 20   9  10  1   
 21   9  36  1   
 22   9  37  1   
 23  10  11  1   
 24  10  38  1   
 25  11  12  am  
 26  11  13  1   
 27  12  14  2   
 28  12  15  1   
 29  13  39  1   
 30  13  40  1   
 31  13  41  1   
 32  15  16  1   
 33  15  42  1   
 34  15  43  1   
 35  16  17  2   
 36  16  18  am  
 37  18  19  1   
 38  18  44  1   
 39  19  20  ar  
 40  19  21  ar  
 41  20  22  ar  
 42  20  23  1   
 43  21  24  ar  
 44  21  45  1   
 45  22  25  ar  
 46  22  26  1   
 47  23  46  1   
 48  23  47  1   
 49  23  48  1   
 50  24  25  ar  
 51  24  49  1   
 52  25  50  1   
 53  26  51  1   
 54  26  52  1   
 55  26  53  1   
@<TRIPOS>SUBSTRUCTURE
  1 ****   9 GROUP 4 **** **** 0

# MOE 2024.06 (io_trps.svl 2023.06)
