@<TRIPOS>MOLECULE
NONAME
46 49 1 0 0 
SMALL
USER_CHARGES


@<TRIPOS>ATOM
  1 N        0.2650    -0.6210     0.0220 N.ar  1 <1>  -0.6200 
  2 C        1.3020     0.2040    -0.0470 C.ar  1 <1>   0.7710 
  3 C        0.4960    -1.9110     0.0540 C.ar  1 <1>   0.4100 
  4 N        2.5640    -0.2600    -0.0970 N.ar  1 <1>  -0.1790 
  5 N        1.0880     1.5470    -0.0740 N.pl3 1 <1>  -0.8380 
  6 N       -0.5980    -2.6790     0.1280 N.pl3 1 <1>  -0.8690 
  7 C        1.7980    -2.4400     0.0130 C.ar  1 <1>  -0.1500 
  8 C        2.8470    -1.5850    -0.0660 C.ar  1 <1>   0.2170 
  9 C       -0.3250     2.0610    -0.1950 C.3   1 <1>   0.2090 
 10 C        2.1430     2.6060     0.0950 C.3   1 <1>   0.2090 
 11 C       -0.7730    -4.1460     0.1620 C.3   1 <1>   0.3890 
 12 C        4.2980    -2.0300    -0.1230 C.3   1 <1>  -0.0970 
 13 C       -0.3570     3.4900    -0.7440 C.3   1 <1>  -0.1600 
 14 C        1.5880     3.7990     0.8770 C.3   1 <1>  -0.1600 
 15 C       -2.2540    -4.4950     0.1740 C.2   1 <1>   0.0060 
 16 C        0.4150     4.4740     0.1490 C.3   1 <1>  -0.1600 
 17 N       -3.2290    -3.6410     0.1690 N.2   1 <1>  -0.3380 
 18 N       -2.6970    -5.7570     0.1910 N.pl3 1 <1>   0.3340 
 19 N       -4.3630    -4.3270     0.1840 N.2   1 <1>  -0.3380 
 20 C       -4.0420    -5.5950     0.1970 C.2   1 <1>   0.1410 
 21 C       -2.1210    -7.0270     0.2030 C.2   1 <1>  -0.1810 
 22 C       -4.8780    -6.7400     0.2150 C.2   1 <1>  -0.1050 
 23 C       -2.9140    -8.1310     0.2210 C.2   1 <1>  -0.1500 
 24 C       -4.3270    -7.9870     0.2270 C.2   1 <1>  -0.1500 
 25 H        3.2820     0.4460    -0.1840 H     1 <1>   0.4570 
 26 H       -1.5120    -2.2000     0.1490 H     1 <1>   0.4000 
 27 H        1.9300    -3.5040     0.0440 H     1 <1>   0.1500 
 28 H       -0.7940     2.0380     0.7760 H     1 <1>   0.0800 
 29 H       -0.8980     1.4280    -0.8540 H     1 <1>   0.0800 
 30 H        2.4710     2.9420    -0.8760 H     1 <1>   0.0800 
 31 H        2.9910     2.2200     0.6330 H     1 <1>   0.0800 
 32 H       -0.3050    -4.5390     1.0480 H     1 <1>   0.0800 
 33 H       -0.3090    -4.5800    -0.7070 H     1 <1>   0.0800 
 34 H        4.8470    -1.6350     0.7150 H     1 <1>   0.0800 
 35 H        4.7600    -1.6950    -1.0350 H     1 <1>   0.0800 
 36 H        4.3650    -3.1040    -0.0900 H     1 <1>   0.0800 
 37 H       -1.3780     3.8160    -0.8380 H     1 <1>   0.0800 
 38 H        0.0670     3.4830    -1.7330 H     1 <1>   0.0800 
 39 H        2.3680     4.5220     1.0420 H     1 <1>   0.0800 
 40 H        1.2620     3.4520     1.8420 H     1 <1>   0.0800 
 41 H       -0.2500     4.8960     0.8840 H     1 <1>   0.0800 
 42 H        0.7780     5.2840    -0.4620 H     1 <1>   0.0800 
 43 H       -1.0480    -7.0800     0.1990 H     1 <1>   0.1500 
 44 H       -5.9410    -6.5780     0.2180 H     1 <1>   0.1500 
 45 H       -2.5040    -9.1280     0.2310 H     1 <1>   0.1500 
 46 H       -4.9380    -8.8740     0.2400 H     1 <1>   0.1500 
@<TRIPOS>BOND
  1   1   2  ar  
  2   1   3  ar  
  3   2   4  ar  
  4   2   5  1   
  5   3   6  1   
  6   3   7  ar  
  7   4   8  ar  
  8   4  25  1   
  9   5   9  1   
 10   5  10  1   
 11   6  11  1   
 12   6  26  1   
 13   7   8  ar  
 14   7  27  1   
 15   8  12  1   
 16   9  13  1   
 17   9  28  1   
 18   9  29  1   
 19  10  14  1   
 20  10  30  1   
 21  10  31  1   
 22  11  15  1   
 23  11  32  1   
 24  11  33  1   
 25  12  34  1   
 26  12  35  1   
 27  12  36  1   
 28  13  16  1   
 29  13  37  1   
 30  13  38  1   
 31  14  16  1   
 32  14  39  1   
 33  14  40  1   
 34  15  17  2   
 35  15  18  1   
 36  16  41  1   
 37  16  42  1   
 38  17  19  1   
 39  18  20  1   
 40  18  21  1   
 41  19  20  2   
 42  20  22  1   
 43  21  23  2   
 44  21  43  1   
 45  22  24  2   
 46  22  44  1   
 47  23  24  1   
 48  23  45  1   
 49  24  46  1   
@<TRIPOS>SUBSTRUCTURE
  1 ****   6 GROUP 4 **** **** 0

# MOE 2024.06 (io_trps.svl 2023.06)
