@<TRIPOS>MOLECULE
NONAME
49 51 1 0 0 
SMALL
USER_CHARGES


@<TRIPOS>ATOM
  1 O       -1.6020    -3.4560    -1.3600 O.2   1 <1>  -0.5700 
  2 C       -0.6520    -2.6990    -1.2340 C.2   1 <1>   0.5440 
  3 N       -0.9370    -1.3920    -1.4470 N.am  1 <1>  -0.8000 
  4 C        0.6920    -3.1250    -0.8710 C.ar  1 <1>   0.0860 
  5 C        0.9350    -4.2810    -0.1050 C.ar  1 <1>   0.4100 
  6 C        1.8100    -2.4030    -1.2700 C.ar  1 <1>  -0.1500 
  7 N        2.1330    -4.7140     0.2630 N.ar  1 <1>  -0.6200 
  8 N       -0.1160    -5.0560     0.2980 N.3   1 <1>  -0.5900 
  9 C        3.0630    -2.8400    -0.8950 C.ar  1 <1>  -0.1430 
 10 C        3.1670    -3.9970    -0.1270 C.ar  1 <1>   0.1670 
 11 C       -0.9680    -4.7960     1.5000 C.3   1 <1>   0.2450 
 12 C       -0.2120    -6.5040     0.6460 C.3   1 <1>   0.2450 
 13 C        4.2890    -2.0490    -1.3370 C.3   1 <1>  -0.0970 
 14 C        4.5210    -4.5220     0.3170 C.3   1 <1>  -0.0970 
 15 C       -1.6750    -6.1210     1.0730 C.3   1 <1>   0.4720 
 16 N       -2.6740    -5.8820    -0.0570 N.4   1 <1>  -0.9280 
 17 C       -4.0790    -5.6360     0.3790 C.3   1 <1>   0.4230 
 18 C       -2.5950    -6.9350    -1.1100 C.3   1 <1>   0.3430 
 19 C       -4.9270    -5.2180    -0.8300 C.3   1 <1>  -0.1600 
 20 C       -4.1730    -4.5500     1.4510 C.3   1 <1>  -0.2400 
 21 C       -3.4190    -6.5330    -2.3320 C.3   1 <1>  -0.1600 
 22 C       -4.8760    -6.2520    -1.9590 C.3   1 <1>  -0.1600 
 23 H       -1.8790    -1.1200    -1.7330 H     1 <1>   0.3700 
 24 H       -0.2710    -0.6310    -1.3140 H     1 <1>   0.3700 
 25 H        1.7010    -1.5200    -1.8730 H     1 <1>   0.1500 
 26 H       -1.5520    -3.9010     1.3970 H     1 <1>   0.0000 
 27 H       -0.4050    -4.8550     2.4180 H     1 <1>   0.0000 
 28 H        0.4390    -6.7710     1.4620 H     1 <1>   0.0000 
 29 H       -0.1210    -7.1470    -0.2090 H     1 <1>   0.0000 
 30 H        4.0170    -1.2530    -2.0060 H     1 <1>   0.0800 
 31 H        4.9810    -2.6930    -1.8500 H     1 <1>   0.0800 
 32 H        4.7790    -1.6200    -0.4820 H     1 <1>   0.0800 
 33 H        4.4000    -5.3090     1.0390 H     1 <1>   0.0800 
 34 H        5.0980    -3.7390     0.7690 H     1 <1>   0.0800 
 35 H        5.0520    -4.9160    -0.5290 H     1 <1>   0.0800 
 36 H       -2.0780    -6.7100     1.8770 H     1 <1>   0.0000 
 37 H       -2.3320    -5.0100    -0.5190 H     1 <1>   0.4500 
 38 H       -4.4840    -6.5510     0.7810 H     1 <1>   0.0800 
 39 H       -2.9570    -7.8720    -0.7190 H     1 <1>   0.0800 
 40 H       -1.5750    -7.0670    -1.4290 H     1 <1>   0.0800 
 41 H       -4.5800    -4.2670    -1.1990 H     1 <1>   0.0800 
 42 H       -5.9500    -5.0910    -0.5240 H     1 <1>   0.0800 
 43 H       -3.7600    -3.6230     1.0950 H     1 <1>   0.0800 
 44 H       -3.6870    -4.8490     2.3610 H     1 <1>   0.0800 
 45 H       -5.2070    -4.3760     1.6920 H     1 <1>   0.0800 
 46 H       -3.3810    -7.3240    -3.0610 H     1 <1>   0.0800 
 47 H       -2.9790    -5.6580    -2.7810 H     1 <1>   0.0800 
 48 H       -5.4090    -5.8810    -2.8190 H     1 <1>   0.0800 
 49 H       -5.3540    -7.1640    -1.6410 H     1 <1>   0.0800 
@<TRIPOS>BOND
  1   1   2  2   
  2   2   3  am  
  3   2   4  1   
  4   3  23  1   
  5   3  24  1   
  6   4   5  ar  
  7   4   6  ar  
  8   5   7  ar  
  9   5   8  1   
 10   6   9  ar  
 11   6  25  1   
 12   7  10  ar  
 13   8  11  1   
 14   8  12  1   
 15   9  10  ar  
 16   9  13  1   
 17  10  14  1   
 18  11  15  1   
 19  11  26  1   
 20  11  27  1   
 21  12  15  1   
 22  12  28  1   
 23  12  29  1   
 24  13  30  1   
 25  13  31  1   
 26  13  32  1   
 27  14  33  1   
 28  14  34  1   
 29  14  35  1   
 30  15  16  1   
 31  15  36  1   
 32  16  17  1   
 33  16  18  1   
 34  16  37  1   
 35  17  19  1   
 36  17  20  1   
 37  17  38  1   
 38  18  21  1   
 39  18  39  1   
 40  18  40  1   
 41  19  22  1   
 42  19  41  1   
 43  19  42  1   
 44  20  43  1   
 45  20  44  1   
 46  20  45  1   
 47  21  22  1   
 48  21  46  1   
 49  21  47  1   
 50  22  48  1   
 51  22  49  1   
@<TRIPOS>SUBSTRUCTURE
  1 ****   8 GROUP 4 **** **** 0

# MOE 2024.06 (io_trps.svl 2023.06)
