@<TRIPOS>MOLECULE
NONAME
50 53 1 0 0 
SMALL
USER_CHARGES


@<TRIPOS>ATOM
  1 O        3.8010    -0.0160     1.6410 O.2   1 <1>  -0.5700 
  2 C        2.9340    -0.5590     0.9790 C.2   1 <1>   0.5440 
  3 N        2.6730     0.0200    -0.2390 N.am  1 <1>  -0.6600 
  4 C        2.3520    -1.8230     1.3920 C.ar  1 <1>   0.0860 
  5 C        3.1930    -0.6400    -1.4730 C.3   1 <1>   0.1400 
  6 C        2.3740     1.4760    -0.3520 C.3   1 <1>   0.1400 
  7 C        1.1440    -2.3210     0.8480 C.ar  1 <1>   0.0000 
  8 C        2.9860    -2.6170     2.3400 C.ar  1 <1>  -0.1500 
  9 C        4.7370    -0.5940    -1.5140 C.3   1 <1>   0.3430 
 10 C        3.6390     2.3520    -0.3330 C.3   1 <1>  -0.1600 
 11 C        0.6620    -3.5750     1.2260 C.ar  1 <1>  -0.1520 
 12 C        0.1980    -1.8160    -0.0730 C.2   1 <1>  -0.1500 
 13 C        2.4910    -3.8640     2.7240 C.ar  1 <1>  -0.1500 
 14 N        5.2810     0.5740    -0.7500 N.4   1 <1>  -0.9590 
 15 C        4.7800     1.8850    -1.2400 C.3   1 <1>   0.3430 
 16 N       -0.5050    -3.8280     0.5450 N.pl3 1 <1>   0.0480 
 17 C        1.3350    -4.3530     2.1670 C.ar  1 <1>  -0.1500 
 18 C       -0.7720    -2.7450    -0.2360 C.2   1 <1>  -0.3020 
 19 C        6.7700     0.5240    -0.5490 C.3   1 <1>   0.5240 
 20 C       -1.3400    -5.0350     0.6670 C.3   1 <1>   0.0160 
 21 C        7.2650     1.4480     0.5680 C.2   1 <1>   0.3350 
 22 N        7.7560     1.0350     1.6660 N.2   1 <1>  -0.4100 
 23 N        7.2190     2.7730     0.4730 N.2   1 <1>  -0.5650 
 24 O        8.0620     2.0840     2.3670 O.3   1 <1>  -0.0190 
 25 C        7.7190     3.0890     1.6010 C.2   1 <1>   0.2980 
 26 C        7.9390     4.4970     2.1080 C.3   1 <1>  -0.0600 
 27 H        2.7920    -0.1470    -2.3420 H     1 <1>   0.0800 
 28 H        2.8630    -1.6650    -1.5050 H     1 <1>   0.0800 
 29 H        1.7380     1.7630     0.4700 H     1 <1>   0.0800 
 30 H        1.8210     1.6500    -1.2590 H     1 <1>   0.0800 
 31 H        3.8940    -2.2690     2.8010 H     1 <1>   0.1500 
 32 H        5.0720    -0.5690    -2.5380 H     1 <1>   0.0800 
 33 H        5.1060    -1.5050    -1.0710 H     1 <1>   0.0800 
 34 H        4.0020     2.4360     0.6760 H     1 <1>   0.0800 
 35 H        3.3560     3.3440    -0.6330 H     1 <1>   0.0800 
 36 H        0.2470    -0.8520    -0.5460 H     1 <1>   0.1500 
 37 H        3.0240    -4.4390     3.4620 H     1 <1>   0.1500 
 38 H        4.8590     0.4830     0.2040 H     1 <1>   0.4500 
 39 H        5.5670     2.6210    -1.2130 H     1 <1>   0.0800 
 40 H        4.4360     1.8020    -2.2580 H     1 <1>   0.0800 
 41 H        0.9480    -5.3150     2.4550 H     1 <1>   0.1500 
 42 H       -1.6470    -2.6940    -0.8610 H     1 <1>   0.1500 
 43 H        7.2720     0.7900    -1.4630 H     1 <1>   0.0800 
 44 H        7.0600    -0.4790    -0.2860 H     1 <1>   0.0800 
 45 H       -0.7560    -5.8970     0.4050 H     1 <1>   0.0800 
 46 H       -2.1840    -4.9580     0.0060 H     1 <1>   0.0800 
 47 H       -1.6850    -5.1250     1.6800 H     1 <1>   0.0800 
 48 H        7.6150     5.2100     1.3730 H     1 <1>   0.0800 
 49 H        8.9840     4.6500     2.3080 H     1 <1>   0.0800 
 50 H        7.3810     4.6480     3.0130 H     1 <1>   0.0800 
@<TRIPOS>BOND
  1   1   2  2   
  2   2   3  am  
  3   2   4  1   
  4   3   5  1   
  5   3   6  1   
  6   4   7  ar  
  7   4   8  ar  
  8   5   9  1   
  9   5  27  1   
 10   5  28  1   
 11   6  10  1   
 12   6  29  1   
 13   6  30  1   
 14   7  11  ar  
 15   7  12  1   
 16   8  13  ar  
 17   8  31  1   
 18   9  14  1   
 19   9  32  1   
 20   9  33  1   
 21  10  15  1   
 22  10  34  1   
 23  10  35  1   
 24  11  16  1   
 25  11  17  ar  
 26  12  18  2   
 27  12  36  1   
 28  13  17  ar  
 29  13  37  1   
 30  14  15  1   
 31  14  19  1   
 32  14  38  1   
 33  15  39  1   
 34  15  40  1   
 35  16  18  1   
 36  16  20  1   
 37  17  41  1   
 38  18  42  1   
 39  19  21  1   
 40  19  43  1   
 41  19  44  1   
 42  20  45  1   
 43  20  46  1   
 44  20  47  1   
 45  21  22  2   
 46  21  23  1   
 47  22  24  1   
 48  23  25  2   
 49  24  25  1   
 50  25  26  1   
 51  26  48  1   
 52  26  49  1   
 53  26  50  1   
@<TRIPOS>SUBSTRUCTURE
  1 ****   2 GROUP 4 **** **** 0

# MOE 2024.06 (io_trps.svl 2023.06)
