@<TRIPOS>MOLECULE
NONAME
49 52 1 0 0 
SMALL
USER_CHARGES


@<TRIPOS>ATOM
  1 O        0.2910     1.1860     0.9150 O.2   1 <1>  -0.5700 
  2 C        0.2990     2.3410     0.5780 C.2   1 <1>   0.5690 
  3 N       -0.7960     3.1160     0.7530 N.am  1 <1>  -0.7300 
  4 C        1.5470     2.9450    -0.0760 C.3   1 <1>   0.1810 
  5 C       -0.8390     4.5580     0.4170 C.3   1 <1>   0.3640 
  6 O        1.5680     4.3560    -0.0120 O.3   1 <1>  -0.5600 
  7 C       -2.1540     4.8790    -0.2790 C.ar  1 <1>  -0.1440 
  8 C        0.3720     4.9790    -0.4510 C.3   1 <1>   0.2610 
  9 C       -2.6550     4.0620    -1.2840 C.ar  1 <1>   0.1600 
 10 C       -2.8700     6.0080     0.0730 C.ar  1 <1>  -0.1500 
 11 C        0.4890     6.5090    -0.4770 C.2   1 <1>   0.5690 
 12 N       -3.7800     4.2750    -1.9460 N.ar  1 <1>  -0.6200 
 13 C       -4.0450     6.2450    -0.6080 C.ar  1 <1>  -0.1500 
 14 O        0.2980     7.0530    -1.5430 O.2   1 <1>  -0.5700 
 15 N        0.7810     7.2620     0.6400 N.am  1 <1>  -0.6600 
 16 C       -4.4490     5.3610    -1.5930 C.ar  1 <1>   0.1600 
 17 C        0.8080     8.7520     0.5380 C.3   1 <1>   0.3200 
 18 C        1.4330     6.7470     1.8810 C.3   1 <1>   0.0600 
 19 C        2.1540     9.2140     0.0130 C.2   1 <1>   0.0060 
 20 N        2.5600     8.8830    -1.2370 N.pl3 1 <1>   0.0330 
 21 N        3.0060     9.9240     0.6700 N.2   1 <1>  -0.5650 
 22 C        3.7890     9.4310    -1.3890 C.ar  1 <1>  -0.1520 
 23 C        4.0540    10.0770    -0.1940 C.ar  1 <1>   0.2270 
 24 C        4.7080     9.4340    -2.4390 C.ar  1 <1>  -0.1500 
 25 C        5.2650    10.7550    -0.0200 C.ar  1 <1>  -0.1430 
 26 C        5.8980    10.1020    -2.2620 C.ar  1 <1>  -0.1500 
 27 C        6.1760    10.7600    -1.0570 C.ar  1 <1>  -0.1500 
 28 C        5.5470    11.4620     1.2950 C.3   1 <1>  -0.0970 
 29 H       -1.6180     2.7040     1.1990 H     1 <1>   0.3700 
 30 H        1.5910     2.6500    -1.1080 H     1 <1>   0.0800 
 31 H        2.4250     2.5810     0.4260 H     1 <1>   0.0800 
 32 H       -0.8060     5.1060     1.3420 H     1 <1>   0.0800 
 33 H        0.2020     4.6550    -1.4620 H     1 <1>   0.0800 
 34 H       -2.1040     3.1800    -1.5650 H     1 <1>   0.1500 
 35 H       -2.5350     6.6850     0.8400 H     1 <1>   0.1500 
 36 H       -4.6460     7.1070    -0.3810 H     1 <1>   0.1500 
 37 H       -5.3680     5.5560    -2.1190 H     1 <1>   0.1500 
 38 H        0.0300     9.0920    -0.1240 H     1 <1>   0.0800 
 39 H        0.6330     9.1880     1.5060 H     1 <1>   0.0800 
 40 H        1.0130     7.2330     2.7450 H     1 <1>   0.0800 
 41 H        2.4890     6.9620     1.8450 H     1 <1>   0.0800 
 42 H        1.3050     5.6870     1.9950 H     1 <1>   0.0800 
 43 H        2.0340     8.2940    -1.8940 H     1 <1>   0.2700 
 44 H        4.4820     8.9250    -3.3590 H     1 <1>   0.1500 
 45 H        6.6290    10.1240    -3.0500 H     1 <1>   0.1500 
 46 H        7.1160    11.2720    -0.9530 H     1 <1>   0.1500 
 47 H        6.5040    11.9500     1.2760 H     1 <1>   0.0800 
 48 H        5.5360    10.7470     2.0980 H     1 <1>   0.0800 
 49 H        4.7840    12.1970     1.4800 H     1 <1>   0.0800 
@<TRIPOS>BOND
  1   1   2  2   
  2   2   3  am  
  3   2   4  1   
  4   3   5  1   
  5   3  29  1   
  6   4   6  1   
  7   4  30  1   
  8   4  31  1   
  9   5   7  1   
 10   5   8  1   
 11   5  32  1   
 12   6   8  1   
 13   7   9  ar  
 14   7  10  ar  
 15   8  11  1   
 16   8  33  1   
 17   9  12  ar  
 18   9  34  1   
 19  10  13  ar  
 20  10  35  1   
 21  11  14  2   
 22  11  15  am  
 23  12  16  ar  
 24  13  16  ar  
 25  13  36  1   
 26  15  17  1   
 27  15  18  1   
 28  16  37  1   
 29  17  19  1   
 30  17  38  1   
 31  17  39  1   
 32  18  40  1   
 33  18  41  1   
 34  18  42  1   
 35  19  20  1   
 36  19  21  2   
 37  20  22  1   
 38  20  43  1   
 39  21  23  1   
 40  22  23  ar  
 41  22  24  ar  
 42  23  25  ar  
 43  24  26  ar  
 44  24  44  1   
 45  25  27  ar  
 46  25  28  1   
 47  26  27  ar  
 48  26  45  1   
 49  27  46  1   
 50  28  47  1   
 51  28  48  1   
 52  28  49  1   
@<TRIPOS>SUBSTRUCTURE
  1 ****  11 GROUP 4 **** **** 0

# MOE 2024.06 (io_trps.svl 2023.06)
