@<TRIPOS>MOLECULE
NONAME
39 40 1 0 0 
SMALL
USER_CHARGES


@<TRIPOS>ATOM
  1 S        0.0680     0.0310    -0.7710 S.o2  1 <1>   1.3330 
  2 O       -0.4150     0.2480    -2.1160 O.2   1 <1>  -0.6500 
  3 O       -0.1900    -1.2300    -0.1140 O.2   1 <1>  -0.6500 
  4 N        1.7520     0.2580    -0.7820 N.am  1 <1>  -0.8490 
  5 C       -0.5440     1.3700     0.2550 C.3   1 <1>  -0.0550 
  6 C        2.4130    -0.2460     0.4280 C.3   1 <1>   0.1160 
  7 C        2.3790    -0.3300    -1.9700 C.3   1 <1>   0.1160 
  8 C       -0.3620     2.7760    -0.3590 C.3   1 <1>  -0.0800 
  9 C       -1.0510     3.8890     0.4290 C.3   1 <1>   0.2000 
 10 C        1.0970     3.2410    -0.4700 C.3   1 <1>   0.2090 
 11 O       -0.7880     3.7180     1.7800 O.3   1 <1>  -0.6800 
 12 C       -0.3200     5.1450    -0.0380 C.3   1 <1>   0.2090 
 13 N        1.0940     4.7130    -0.2250 N.pl3 1 <1>  -0.8380 
 14 C        2.0290     5.2050     0.6640 C.ar  1 <1>   0.4100 
 15 N        1.8390     4.8510     1.9350 N.ar  1 <1>  -0.6200 
 16 C        3.0860     6.0150     0.2280 C.ar  1 <1>   0.0730 
 17 C        2.7130     5.3210     2.8070 C.ar  1 <1>   0.1600 
 18 C        3.2340     6.3450    -1.1560 C.1   1 <1>   0.4840 
 19 C        3.9840     6.4890     1.1670 C.ar  1 <1>  -0.1500 
 20 C        3.7860     6.1310     2.4840 C.ar  1 <1>  -0.1500 
 21 N        3.4030     6.6400    -2.2460 N.1   1 <1>  -0.5570 
 22 H       -1.5930     1.2140     0.4170 H     1 <1>   0.0800 
 23 H       -0.0680     1.3310     1.2150 H     1 <1>   0.0800 
 24 H        3.4620    -0.0030     0.4050 H     1 <1>   0.0800 
 25 H        2.3030    -1.3160     0.5000 H     1 <1>   0.0800 
 26 H        1.9810     0.2050     1.3050 H     1 <1>   0.0800 
 27 H        3.4410    -0.1580    -1.9560 H     1 <1>   0.0800 
 28 H        1.9780     0.1230    -2.8610 H     1 <1>   0.0800 
 29 H        2.1900    -1.3900    -2.0060 H     1 <1>   0.0800 
 30 H       -0.7760     2.7750    -1.3520 H     1 <1>   0.0800 
 31 H       -2.1160     3.9290     0.2820 H     1 <1>   0.0800 
 32 H        1.4970     3.0250    -1.4470 H     1 <1>   0.0800 
 33 H        1.7080     2.7530     0.2710 H     1 <1>   0.0800 
 34 H        0.1440     4.0270     1.9370 H     1 <1>   0.4000 
 35 H       -0.4110     5.9450     0.6780 H     1 <1>   0.0800 
 36 H       -0.7130     5.4720    -0.9850 H     1 <1>   0.0800 
 37 H        2.5670     5.0460     3.8390 H     1 <1>   0.1500 
 38 H        4.8100     7.1180     0.8810 H     1 <1>   0.1500 
 39 H        4.4550     6.4760     3.2530 H     1 <1>   0.1500 
@<TRIPOS>BOND
  1   1   2  2   
  2   1   3  2   
  3   1   4  am  
  4   1   5  1   
  5   4   6  1   
  6   4   7  1   
  7   5   8  1   
  8   5  22  1   
  9   5  23  1   
 10   6  24  1   
 11   6  25  1   
 12   6  26  1   
 13   7  27  1   
 14   7  28  1   
 15   7  29  1   
 16   8   9  1   
 17   8  10  1   
 18   8  30  1   
 19   9  11  1   
 20   9  12  1   
 21   9  31  1   
 22  10  13  1   
 23  10  32  1   
 24  10  33  1   
 25  11  34  1   
 26  12  13  1   
 27  12  35  1   
 28  12  36  1   
 29  13  14  1   
 30  14  15  ar  
 31  14  16  ar  
 32  15  17  ar  
 33  16  18  1   
 34  16  19  ar  
 35  17  20  ar  
 36  17  37  1   
 37  18  21  3   
 38  19  20  ar  
 39  19  38  1   
 40  20  39  1   
@<TRIPOS>SUBSTRUCTURE
  1 ****  10 GROUP 4 **** **** 0

# MOE 2024.06 (io_trps.svl 2023.06)
