@<TRIPOS>MOLECULE
NONAME
45 49 1 0 0 
SMALL
USER_CHARGES


@<TRIPOS>ATOM
  1 S       -0.2710     0.6750    -2.0310 S.3   1 <1>  -0.0800 
  2 C       -0.1180     1.9610    -0.8530 C.2   1 <1>  -0.1400 
  3 C        1.3740     0.9570    -2.5810 C.2   1 <1>  -0.1100 
  4 C        1.0940     2.5300    -0.8870 C.2   1 <1>  -0.1810 
  5 C       -1.2400     2.3550     0.0690 C.3   1 <1>   0.0200 
  6 C        1.9510     1.9580    -1.8860 C.2   1 <1>  -0.1500 
  7 C        1.4570     3.6690     0.0690 C.3   1 <1>   0.4610 
  8 C       -0.9070     3.7490     0.6230 C.3   1 <1>   0.1200 
  9 O        0.4360     3.8230     1.0400 O.3   1 <1>  -0.5600 
 10 C        1.6380     4.9910    -0.6880 C.3   1 <1>  -0.1600 
 11 C        2.7320     3.3290     0.8470 C.3   1 <1>  -0.1600 
 12 C        2.0730     6.1290     0.2370 C.3   1 <1>   0.1400 
 13 C        3.1490     4.4750     1.7690 C.3   1 <1>   0.1400 
 14 N        3.3020     5.7230     0.9720 N.am  1 <1>  -0.6600 
 15 C        4.4940     6.4350     0.9430 C.2   1 <1>   0.7160 
 16 O        5.5110     5.8270     1.2490 O.2   1 <1>  -0.5700 
 17 C        4.5940     7.8450     0.5610 C.2   1 <1>   0.2030 
 18 N        3.6450     8.7780     0.5920 N.2   1 <1>  -0.7070 
 19 C        5.7830     8.4320     0.1050 C.2   1 <1>  -0.1810 
 20 N        4.2290     9.9170     0.1690 N.pl3 1 <1>   0.3000 
 21 C        5.5210     9.7090    -0.1290 C.2   1 <1>  -0.3320 
 22 C        7.2160     8.0810    -0.1810 C.3   1 <1>   0.0210 
 23 C        6.6970    10.5030    -0.6220 C.3   1 <1>   0.0200 
 24 C        7.7900     9.4110    -0.7350 C.3   1 <1>  -0.1600 
 25 H        1.7400     0.3350    -3.3780 H     1 <1>   0.1500 
 26 H       -1.3230     1.6440     0.8710 H     1 <1>   0.0800 
 27 H       -2.1730     2.3880    -0.4650 H     1 <1>   0.0800 
 28 H        2.9530     2.3190    -2.0370 H     1 <1>   0.1500 
 29 H       -1.5270     3.9690     1.4740 H     1 <1>   0.0800 
 30 H       -1.0730     4.5010    -0.1270 H     1 <1>   0.0800 
 31 H        0.7310     5.2550    -1.1970 H     1 <1>   0.0800 
 32 H        2.3930     4.8620    -1.4410 H     1 <1>   0.0800 
 33 H        3.5380     3.1340     0.1650 H     1 <1>   0.0800 
 34 H        2.5680     2.4360     1.4220 H     1 <1>   0.0800 
 35 H        1.2960     6.3540     0.9470 H     1 <1>   0.0800 
 36 H        2.2490     7.0040    -0.3610 H     1 <1>   0.0800 
 37 H        4.0680     4.2220     2.2690 H     1 <1>   0.0800 
 38 H        2.3960     4.6320     2.5230 H     1 <1>   0.0800 
 39 H        3.7270    10.8100     0.1000 H     1 <1>   0.2700 
 40 H        7.2770     7.2870    -0.9040 H     1 <1>   0.0800 
 41 H        7.7100     7.7870     0.7290 H     1 <1>   0.0800 
 42 H        6.9720    11.2560     0.0960 H     1 <1>   0.0800 
 43 H        6.4910    10.9540    -1.5770 H     1 <1>   0.0800 
 44 H        8.0590     9.2790    -1.7680 H     1 <1>   0.0800 
 45 H        8.6680     9.6980    -0.1850 H     1 <1>   0.0800 
@<TRIPOS>BOND
  1   1   2  1   
  2   1   3  1   
  3   2   4  2   
  4   2   5  1   
  5   3   6  2   
  6   3  25  1   
  7   4   6  1   
  8   4   7  1   
  9   5   8  1   
 10   5  26  1   
 11   5  27  1   
 12   6  28  1   
 13   7   9  1   
 14   7  10  1   
 15   7  11  1   
 16   8   9  1   
 17   8  29  1   
 18   8  30  1   
 19  10  12  1   
 20  10  31  1   
 21  10  32  1   
 22  11  13  1   
 23  11  33  1   
 24  11  34  1   
 25  12  14  1   
 26  12  35  1   
 27  12  36  1   
 28  13  14  1   
 29  13  37  1   
 30  13  38  1   
 31  14  15  am  
 32  15  16  2   
 33  15  17  1   
 34  17  18  2   
 35  17  19  1   
 36  18  20  1   
 37  19  21  2   
 38  19  22  1   
 39  20  21  1   
 40  20  39  1   
 41  21  23  1   
 42  22  24  1   
 43  22  40  1   
 44  22  41  1   
 45  23  24  1   
 46  23  42  1   
 47  23  43  1   
 48  24  44  1   
 49  24  45  1   
@<TRIPOS>SUBSTRUCTURE
  1 ****  14 GROUP 4 **** **** 0

# MOE 2024.06 (io_trps.svl 2023.06)
