@<TRIPOS>MOLECULE
NONAME
47 49 1 0 0 
SMALL
USER_CHARGES


@<TRIPOS>ATOM
  1 CL       1.2780    -0.6850    -2.8200 Cl    1 <1>  -0.1770 
  2 C        1.7810    -1.3770    -1.2870 C.ar  1 <1>   0.1770 
  3 C        1.3290    -2.6290    -0.8870 C.ar  1 <1>   0.4100 
  4 C        2.6300    -0.6970    -0.4590 C.ar  1 <1>   0.1600 
  5 N        1.7140    -3.1420     0.2690 N.ar  1 <1>  -0.6200 
  6 N        0.4690    -3.3750    -1.6650 N.pl3 1 <1>  -0.8690 
  7 N        3.0220    -1.2030     0.6980 N.ar  1 <1>  -0.6200 
  8 C        2.5380    -2.3990     0.9900 C.ar  1 <1>   0.4770 
  9 C        0.2020    -4.8130    -1.4510 C.3   1 <1>   0.2090 
 10 C        2.9900    -2.9800     2.3080 C.3   1 <1>  -0.0970 
 11 C       -0.9560    -4.9640    -0.4560 C.3   1 <1>  -0.0800 
 12 C       -1.2740    -6.4240    -0.1420 C.3   1 <1>   0.3430 
 13 C       -2.2730    -4.3480    -0.9420 C.3   1 <1>  -0.1600 
 14 N       -2.7350    -6.5870    -0.3810 N.4   1 <1>  -0.9590 
 15 C       -3.3440    -5.2340    -0.3380 C.3   1 <1>   0.3430 
 16 C       -3.4010    -7.5550     0.5310 C.3   1 <1>   0.4860 
 17 C       -4.8460    -7.7100     0.0920 C.ar  1 <1>  -0.1430 
 18 C       -5.9010    -7.2080     0.8520 C.ar  1 <1>  -0.1430 
 19 C       -5.1110    -8.3650    -1.1040 C.ar  1 <1>  -0.1500 
 20 C       -7.2000    -7.3530     0.3880 C.ar  1 <1>  -0.1500 
 21 C       -5.6860    -6.5120     2.1910 C.3   1 <1>  -0.0970 
 22 C       -6.4100    -8.5050    -1.5550 C.ar  1 <1>  -0.1500 
 23 C       -7.4550    -7.9950    -0.8100 C.ar  1 <1>  -0.1500 
 24 H        2.9960     0.2740    -0.7420 H     1 <1>   0.1500 
 25 H        0.3030    -3.0210    -2.6150 H     1 <1>   0.4000 
 26 H        1.0890    -5.2870    -1.0640 H     1 <1>   0.0800 
 27 H       -0.0430    -5.2720    -2.3930 H     1 <1>   0.0800 
 28 H        2.3890    -3.8290     2.5750 H     1 <1>   0.0800 
 29 H        2.9060    -2.2370     3.0790 H     1 <1>   0.0800 
 30 H        4.0160    -3.2860     2.2280 H     1 <1>   0.0800 
 31 H       -0.6660    -4.4960     0.4700 H     1 <1>   0.0800 
 32 H       -1.0330    -6.6260     0.8900 H     1 <1>   0.0800 
 33 H       -0.7090    -7.0920    -0.7730 H     1 <1>   0.0800 
 34 H       -2.3460    -4.3850    -2.0150 H     1 <1>   0.0800 
 35 H       -2.3780    -3.3240    -0.6250 H     1 <1>   0.0800 
 36 H       -2.8820    -6.9310    -1.3370 H     1 <1>   0.4500 
 37 H       -4.2700    -5.1920    -0.8910 H     1 <1>   0.0800 
 38 H       -3.5210    -4.9410     0.6840 H     1 <1>   0.0800 
 39 H       -3.3520    -7.2040     1.5480 H     1 <1>   0.0800 
 40 H       -2.9120    -8.5140     0.4780 H     1 <1>   0.0800 
 41 H       -4.3170    -8.7810    -1.6990 H     1 <1>   0.1500 
 42 H       -8.0310    -6.9720     0.9570 H     1 <1>   0.1500 
 43 H       -5.1300    -5.6020     2.0640 H     1 <1>   0.0800 
 44 H       -5.1620    -7.1600     2.8700 H     1 <1>   0.0800 
 45 H       -6.6290    -6.2600     2.6450 H     1 <1>   0.0800 
 46 H       -6.6140    -9.0140    -2.4830 H     1 <1>   0.1500 
 47 H       -8.4690    -8.1020    -1.1580 H     1 <1>   0.1500 
@<TRIPOS>BOND
  1   1   2  1   
  2   2   3  ar  
  3   2   4  ar  
  4   3   5  ar  
  5   3   6  1   
  6   4   7  ar  
  7   4  24  1   
  8   5   8  ar  
  9   6   9  1   
 10   6  25  1   
 11   7   8  ar  
 12   8  10  1   
 13   9  11  1   
 14   9  26  1   
 15   9  27  1   
 16  10  28  1   
 17  10  29  1   
 18  10  30  1   
 19  11  12  1   
 20  11  13  1   
 21  11  31  1   
 22  12  14  1   
 23  12  32  1   
 24  12  33  1   
 25  13  15  1   
 26  13  34  1   
 27  13  35  1   
 28  14  15  1   
 29  14  16  1   
 30  14  36  1   
 31  15  37  1   
 32  15  38  1   
 33  16  17  1   
 34  16  39  1   
 35  16  40  1   
 36  17  18  ar  
 37  17  19  ar  
 38  18  20  ar  
 39  18  21  1   
 40  19  22  ar  
 41  19  41  1   
 42  20  23  ar  
 43  20  42  1   
 44  21  43  1   
 45  21  44  1   
 46  21  45  1   
 47  22  23  ar  
 48  22  46  1   
 49  23  47  1   
@<TRIPOS>SUBSTRUCTURE
  1 ****  11 GROUP 4 **** **** 0

# MOE 2024.06 (io_trps.svl 2023.06)
