@<TRIPOS>MOLECULE
NONAME
44 45 1 0 0 
SMALL
USER_CHARGES


@<TRIPOS>ATOM
  1 S        0.2810     0.3800    -1.2260 S.o2  1 <1>   1.3330 
  2 O        0.5430    -0.8110    -2.0030 O.2   1 <1>  -0.6500 
  3 O       -0.7030     1.3330    -1.6860 O.2   1 <1>  -0.6500 
  4 N       -0.1890    -0.1110     0.3330 N.am  1 <1>  -0.8490 
  5 C        1.8390     1.2270    -0.9630 C.3   1 <1>  -0.0550 
  6 C       -1.0640    -1.2860     0.3000 C.3   1 <1>   0.1160 
  7 C       -0.8240     0.9580     1.1110 C.3   1 <1>   0.1160 
  8 C        2.9920     0.3160    -0.4890 C.3   1 <1>  -0.0800 
  9 C        4.3560     0.9880    -0.4590 C.3   1 <1>   0.2200 
 10 C        2.8500    -0.2270     0.9380 C.3   1 <1>   0.1200 
 11 N        4.2550     2.3610     0.0930 N.am  1 <1>  -0.7300 
 12 C        5.0830     0.1060     0.5450 C.3   1 <1>   0.1200 
 13 O        4.1270    -0.2070     1.5110 O.3   1 <1>  -0.5600 
 14 C        4.2690     3.5110    -0.6410 C.2   1 <1>   0.5440 
 15 O        4.2710     3.4150    -1.8530 O.2   1 <1>  -0.5700 
 16 C        4.2350     4.8030     0.0110 C.ar  1 <1>   0.0860 
 17 C        5.2040     5.1500     0.9530 C.ar  1 <1>   0.1900 
 18 C        3.2430     5.7620    -0.2490 C.ar  1 <1>  -0.1440 
 19 F        6.1530     4.3000     1.2410 F     1 <1>  -0.1900 
 20 C        5.2250     6.3610     1.6150 C.ar  1 <1>  -0.1500 
 21 C        3.2550     6.9830     0.4110 C.ar  1 <1>  -0.1500 
 22 C        2.1330     5.4900    -1.2580 C.3   1 <1>  -0.0970 
 23 C        4.2380     7.2870     1.3390 C.ar  1 <1>  -0.1500 
 24 H        2.1350     1.6750    -1.8930 H     1 <1>   0.0800 
 25 H        1.6940     2.0220    -0.2600 H     1 <1>   0.0800 
 26 H       -1.3350    -1.5800     1.2990 H     1 <1>   0.0800 
 27 H       -0.5550    -2.1130    -0.1660 H     1 <1>   0.0800 
 28 H       -1.9590    -1.0710    -0.2620 H     1 <1>   0.0800 
 29 H       -1.0200     0.6180     2.1140 H     1 <1>   0.0800 
 30 H       -1.7550     1.2550     0.6550 H     1 <1>   0.0800 
 31 H       -0.1770     1.8160     1.1650 H     1 <1>   0.0800 
 32 H        3.0570    -0.5280    -1.1550 H     1 <1>   0.0800 
 33 H        4.8410     0.9980    -1.4210 H     1 <1>   0.0800 
 34 H        2.4770    -1.2380     0.9460 H     1 <1>   0.0800 
 35 H        2.2160     0.3970     1.5430 H     1 <1>   0.0800 
 36 H        4.2920     2.4030     1.1150 H     1 <1>   0.3700 
 37 H        5.9210     0.5990     1.0070 H     1 <1>   0.0800 
 38 H        5.4030    -0.8130     0.0860 H     1 <1>   0.0800 
 39 H        6.0000     6.5740     2.3300 H     1 <1>   0.1500 
 40 H        2.4940     7.7170     0.2040 H     1 <1>   0.1500 
 41 H        1.3840     6.2610    -1.2340 H     1 <1>   0.0800 
 42 H        1.6540     4.5510    -1.0470 H     1 <1>   0.0800 
 43 H        2.5440     5.4500    -2.2520 H     1 <1>   0.0800 
 44 H        4.2320     8.2400     1.8400 H     1 <1>   0.1500 
@<TRIPOS>BOND
  1   1   2  2   
  2   1   3  2   
  3   1   4  am  
  4   1   5  1   
  5   4   6  1   
  6   4   7  1   
  7   5   8  1   
  8   5  24  1   
  9   5  25  1   
 10   6  26  1   
 11   6  27  1   
 12   6  28  1   
 13   7  29  1   
 14   7  30  1   
 15   7  31  1   
 16   8   9  1   
 17   8  10  1   
 18   8  32  1   
 19   9  11  1   
 20   9  12  1   
 21   9  33  1   
 22  10  13  1   
 23  10  34  1   
 24  10  35  1   
 25  11  14  am  
 26  11  36  1   
 27  12  13  1   
 28  12  37  1   
 29  12  38  1   
 30  14  15  2   
 31  14  16  1   
 32  16  17  ar  
 33  16  18  ar  
 34  17  19  1   
 35  17  20  ar  
 36  18  21  ar  
 37  18  22  1   
 38  20  23  ar  
 39  20  39  1   
 40  21  23  ar  
 41  21  40  1   
 42  22  41  1   
 43  22  42  1   
 44  22  43  1   
 45  23  44  1   
@<TRIPOS>SUBSTRUCTURE
  1 ****  11 GROUP 4 **** **** 0

# MOE 2024.06 (io_trps.svl 2023.06)
