@<TRIPOS>MOLECULE
NONAME
41 43 1 0 0 
SMALL
USER_CHARGES


@<TRIPOS>ATOM
  1 O        1.0080    -0.3440     1.7750 O.3   1 <1>  -0.0190 
  2 N        1.3030     0.8580     1.3840 N.2   1 <1>  -0.4100 
  3 C        1.2680    -1.0910     0.7310 C.2   1 <1>   0.2980 
  4 C        1.7120     0.7740     0.1790 C.2   1 <1>   0.3350 
  5 N        1.6960    -0.4680    -0.2960 N.2   1 <1>  -0.5650 
  6 C        1.0490    -2.5960     0.8310 C.3   1 <1>   0.2900 
  7 C        2.1560     1.9610    -0.6710 C.3   1 <1>   0.3010 
  8 N       -0.3820    -2.9740     0.9230 N.3   1 <1>  -0.8100 
  9 O        3.5520     1.9910    -0.8140 O.3   1 <1>  -0.5600 
 10 C       -1.1660    -2.5050    -0.2270 C.3   1 <1>   0.1100 
 11 C       -0.5760    -4.4320     0.9940 C.3   1 <1>   0.1100 
 12 C        4.0230     3.0450    -1.5890 C.3   1 <1>   0.0400 
 13 C       -2.4010    -3.3960    -0.2200 C.3   1 <1>   0.2000 
 14 C       -1.8390    -4.7610     0.1750 C.3   1 <1>  -0.0800 
 15 O       -3.2220    -2.9660     0.8030 O.3   1 <1>  -0.6800 
 16 C       -1.5230    -5.6060    -1.0750 C.3   1 <1>  -0.0170 
 17 C       -0.9970    -6.9870    -0.7150 C.ar  1 <1>   0.1670 
 18 N        0.3160    -7.1530    -0.7460 N.ar  1 <1>  -0.6200 
 19 C       -1.8930    -8.0010    -0.3780 C.ar  1 <1>   0.1600 
 20 C        0.6680    -8.3870    -0.4240 C.ar  1 <1>   0.1600 
 21 N       -1.5420    -9.2330    -0.0520 N.ar  1 <1>  -0.6200 
 22 C       -0.2300    -9.3920    -0.0880 C.ar  1 <1>   0.1600 
 23 H        1.5650    -2.9560     1.7030 H     1 <1>   0.0800 
 24 H        1.4900    -3.0610    -0.0340 H     1 <1>   0.0800 
 25 H        1.8430     2.8750    -0.1990 H     1 <1>   0.0800 
 26 H        1.7120     1.8850    -1.6470 H     1 <1>   0.0800 
 27 H       -1.4230    -1.4630    -0.1350 H     1 <1>   0.0800 
 28 H       -0.6160    -2.6580    -1.1400 H     1 <1>   0.0800 
 29 H        0.2830    -4.9490     0.6010 H     1 <1>   0.0800 
 30 H       -0.7080    -4.7230     2.0220 H     1 <1>   0.0800 
 31 H        5.0960     2.9730    -1.6300 H     1 <1>   0.0800 
 32 H        3.7410     3.9780    -1.1320 H     1 <1>   0.0800 
 33 H        3.6170     2.9670    -2.5830 H     1 <1>   0.0800 
 34 H       -2.9570    -3.3850    -1.1410 H     1 <1>   0.0800 
 35 H       -2.5490    -5.2990     0.7800 H     1 <1>   0.0800 
 36 H       -2.6330    -2.7540     1.5600 H     1 <1>   0.4000 
 37 H       -0.7980    -5.1010    -1.6900 H     1 <1>   0.0800 
 38 H       -2.4170    -5.7210    -1.6610 H     1 <1>   0.0800 
 39 H       -2.9460    -7.7820    -0.3770 H     1 <1>   0.1500 
 40 H        1.7190    -8.6140    -0.4260 H     1 <1>   0.1500 
 41 H        0.1540   -10.3660     0.1600 H     1 <1>   0.1500 
@<TRIPOS>BOND
  1   1   2  1   
  2   1   3  1   
  3   2   4  2   
  4   3   5  2   
  5   3   6  1   
  6   4   5  1   
  7   4   7  1   
  8   6   8  1   
  9   6  23  1   
 10   6  24  1   
 11   7   9  1   
 12   7  25  1   
 13   7  26  1   
 14   8  10  1   
 15   8  11  1   
 16   9  12  1   
 17  10  13  1   
 18  10  27  1   
 19  10  28  1   
 20  11  14  1   
 21  11  29  1   
 22  11  30  1   
 23  12  31  1   
 24  12  32  1   
 25  12  33  1   
 26  13  14  1   
 27  13  15  1   
 28  13  34  1   
 29  14  16  1   
 30  14  35  1   
 31  15  36  1   
 32  16  17  1   
 33  16  37  1   
 34  16  38  1   
 35  17  18  ar  
 36  17  19  ar  
 37  18  20  ar  
 38  19  21  ar  
 39  19  39  1   
 40  20  22  ar  
 41  20  40  1   
 42  21  22  ar  
 43  22  41  1   
@<TRIPOS>SUBSTRUCTURE
  1 ****   8 GROUP 4 **** **** 0

# MOE 2024.06 (io_trps.svl 2023.06)
