@<TRIPOS>MOLECULE
NONAME
47 49 1 0 0 
SMALL
USER_CHARGES


@<TRIPOS>ATOM
  1 O        0.4420    -0.1740    -1.0280 O.3   1 <1>  -0.3400 
  2 C        0.1020    -1.4160    -0.5980 C.ar  1 <1>   0.0830 
  3 C        1.6270     0.0400    -1.7720 C.3   1 <1>   0.2580 
  4 C       -0.7670    -1.5200     0.4860 C.ar  1 <1>  -0.1440 
  5 C        0.5950    -2.5710    -1.2010 C.ar  1 <1>  -0.1500 
  6 C        2.9030    -0.1520    -0.9200 C.3   1 <1>   0.2100 
  7 C        2.0190     1.5320    -1.7870 C.3   1 <1>   0.2100 
  8 C       -1.1190    -2.7750     0.9590 C.ar  1 <1>  -0.1500 
  9 C       -1.3350    -0.2820     1.1720 C.3   1 <1>  -0.0160 
 10 C        0.2350    -3.8170    -0.7200 C.ar  1 <1>  -0.1500 
 11 N        3.4250     1.1000    -1.5330 N.3   1 <1>  -0.6890 
 12 C       -0.6210    -3.9190     0.3610 C.ar  1 <1>  -0.1500 
 13 C       -0.3560     0.2530     2.2200 C.3   1 <1>  -0.2400 
 14 C        4.0930     1.9510    -0.5480 C.3   1 <1>   0.2900 
 15 C        4.4700     3.2870    -1.1660 C.2   1 <1>  -0.3320 
 16 N        4.8820     4.3640    -0.4610 N.pl3 1 <1>   0.0480 
 17 C        4.4780     3.6580    -2.4660 C.2   1 <1>   0.0770 
 18 C        5.0980     5.3180    -1.3970 C.2   1 <1>   0.0360 
 19 C        5.0490     4.5000     1.0110 C.3   1 <1>   0.1760 
 20 N        4.8700     4.9370    -2.6100 N.2   1 <1>  -0.5650 
 21 C        3.9390     5.3870     1.5840 C.3   1 <1>  -0.2400 
 22 C        6.4350     5.0600     1.3520 C.3   1 <1>  -0.2400 
 23 H        1.6110    -0.4350    -2.7370 H     1 <1>   0.0000 
 24 H        1.2540    -2.5210    -2.0470 H     1 <1>   0.1500 
 25 H        3.4950    -1.0050    -1.1990 H     1 <1>   0.0000 
 26 H        2.7310    -0.0510     0.1390 H     1 <1>   0.0000 
 27 H        1.6050     2.0930    -0.9650 H     1 <1>   0.0000 
 28 H        1.9180     2.0040    -2.7470 H     1 <1>   0.0000 
 29 H       -1.7840    -2.8680     1.7990 H     1 <1>   0.1500 
 30 H       -2.2690    -0.5260     1.6470 H     1 <1>   0.0800 
 31 H       -1.5380     0.4810     0.4410 H     1 <1>   0.0800 
 32 H        0.6190    -4.7070    -1.1870 H     1 <1>   0.1500 
 33 H       -0.9010    -4.8880     0.7370 H     1 <1>   0.1500 
 34 H       -0.1600    -0.5000     2.9620 H     1 <1>   0.0800 
 35 H       -0.7680     1.1200     2.7030 H     1 <1>   0.0800 
 36 H        0.5730     0.5260     1.7510 H     1 <1>   0.0800 
 37 H        4.9870     1.4560    -0.2090 H     1 <1>   0.0800 
 38 H        3.4470     2.1100     0.2990 H     1 <1>   0.0800 
 39 H        4.2150     3.0540    -3.3190 H     1 <1>   0.1500 
 40 H        5.4310     6.3070    -1.1360 H     1 <1>   0.1500 
 41 H        4.9670     3.5220     1.4500 H     1 <1>   0.0800 
 42 H        3.9990     6.3820     1.1800 H     1 <1>   0.0800 
 43 H        4.0300     5.4470     2.6540 H     1 <1>   0.0800 
 44 H        2.9750     4.9700     1.3500 H     1 <1>   0.0800 
 45 H        6.5490     6.0630     0.9810 H     1 <1>   0.0800 
 46 H        7.2010     4.4360     0.9260 H     1 <1>   0.0800 
 47 H        6.5700     5.0780     2.4190 H     1 <1>   0.0800 
@<TRIPOS>BOND
  1   1   2  1   
  2   1   3  1   
  3   2   4  ar  
  4   2   5  ar  
  5   3   6  1   
  6   3   7  1   
  7   3  23  1   
  8   4   8  ar  
  9   4   9  1   
 10   5  10  ar  
 11   5  24  1   
 12   6  11  1   
 13   6  25  1   
 14   6  26  1   
 15   7  11  1   
 16   7  27  1   
 17   7  28  1   
 18   8  12  ar  
 19   8  29  1   
 20   9  13  1   
 21   9  30  1   
 22   9  31  1   
 23  10  12  ar  
 24  10  32  1   
 25  11  14  1   
 26  12  33  1   
 27  13  34  1   
 28  13  35  1   
 29  13  36  1   
 30  14  15  1   
 31  14  37  1   
 32  14  38  1   
 33  15  16  1   
 34  15  17  2   
 35  16  18  1   
 36  16  19  1   
 37  17  20  1   
 38  17  39  1   
 39  18  20  2   
 40  18  40  1   
 41  19  21  1   
 42  19  22  1   
 43  19  41  1   
 44  21  42  1   
 45  21  43  1   
 46  21  44  1   
 47  22  45  1   
 48  22  46  1   
 49  22  47  1   
@<TRIPOS>SUBSTRUCTURE
  1 ****   7 GROUP 4 **** **** 0

# MOE 2024.06 (io_trps.svl 2023.06)
