@<TRIPOS>MOLECULE
NONAME
47 48 1 0 0 
SMALL
USER_CHARGES


@<TRIPOS>ATOM
  1 O       -1.5480    -0.2570    -1.3550 O.2   1 <1>  -0.5700 
  2 C       -1.8090     0.5460    -0.4790 C.2   1 <1>   0.5440 
  3 N       -2.5180     0.1020     0.6170 N.am  1 <1>  -0.6600 
  4 C       -1.4840     1.9510    -0.6460 C.ar  1 <1>   0.0860 
  5 C       -2.5160    -1.3470     0.9590 C.3   1 <1>   0.3200 
  6 C       -3.6770     0.8820     1.1510 C.3   1 <1>   0.1400 
  7 C       -1.0610     2.7380     0.4250 C.ar  1 <1>  -0.1500 
  8 C       -1.6080     2.5710    -1.8860 C.ar  1 <1>  -0.1500 
  9 C       -3.7350    -1.9550     0.3030 C.2   1 <1>  -0.3320 
 10 C       -4.6760     1.1920     0.0160 C.3   1 <1>   0.3430 
 11 C       -0.8080     4.0930     0.2840 C.ar  1 <1>  -0.1440 
 12 C       -1.3580     3.9200    -2.0410 C.ar  1 <1>  -0.1500 
 13 N       -3.8340    -2.0800    -1.0320 N.pl3 1 <1>   0.0330 
 14 C       -4.8860    -2.4310     0.8230 C.2   1 <1>   0.0770 
 15 N       -6.0730     1.4600     0.4940 N.4   1 <1>  -0.9590 
 16 C       -0.9630     4.6930    -0.9600 C.ar  1 <1>  -0.1430 
 17 C       -0.3500     4.8930     1.4970 C.3   1 <1>  -0.0970 
 18 C       -5.0670    -2.5860    -1.2440 C.2   1 <1>   0.0360 
 19 N       -5.7390    -2.7890    -0.1540 N.2   1 <1>  -0.5650 
 20 C       -6.7650     0.1820     0.8680 C.3   1 <1>   0.2630 
 21 C       -6.8540     2.1520    -0.5760 C.3   1 <1>   0.2630 
 22 C       -0.6940     6.1760    -1.1700 C.3   1 <1>  -0.0970 
 23 H       -2.5560    -1.4700     2.0280 H     1 <1>   0.0800 
 24 H       -1.6180    -1.8210     0.5980 H     1 <1>   0.0800 
 25 H       -3.3250     1.8000     1.5890 H     1 <1>   0.0800 
 26 H       -4.1600     0.3060     1.9200 H     1 <1>   0.0800 
 27 H       -0.9240     2.2700     1.3830 H     1 <1>   0.1500 
 28 H       -1.9000     1.9850    -2.7410 H     1 <1>   0.1500 
 29 H       -4.6980     0.3520    -0.6590 H     1 <1>   0.0800 
 30 H       -4.3090     2.0460    -0.5290 H     1 <1>   0.0800 
 31 H       -1.4640     4.3680    -3.0140 H     1 <1>   0.1500 
 32 H       -3.1080    -1.8210    -1.7180 H     1 <1>   0.2700 
 33 H       -5.1590    -2.5250     1.8620 H     1 <1>   0.1500 
 34 H       -6.0370     2.0800     1.3180 H     1 <1>   0.4500 
 35 H       -0.2770     4.2710     2.3700 H     1 <1>   0.0800 
 36 H       -1.0470     5.6860     1.7040 H     1 <1>   0.0800 
 37 H        0.6180     5.3210     1.3090 H     1 <1>   0.0800 
 38 H       -5.4350    -2.7950    -2.2340 H     1 <1>   0.1500 
 39 H       -6.7920    -0.4920     0.0250 H     1 <1>   0.0800 
 40 H       -7.7770     0.3780     1.1830 H     1 <1>   0.0800 
 41 H       -6.2450    -0.3090     1.6730 H     1 <1>   0.0800 
 42 H       -6.9180     1.5300    -1.4550 H     1 <1>   0.0800 
 43 H       -6.3800     3.0820    -0.8460 H     1 <1>   0.0800 
 44 H       -7.8540     2.3650    -0.2330 H     1 <1>   0.0800 
 45 H       -1.3290     6.7640    -0.5330 H     1 <1>   0.0800 
 46 H       -0.8820     6.4640    -2.1890 H     1 <1>   0.0800 
 47 H        0.3330     6.4000    -0.9430 H     1 <1>   0.0800 
@<TRIPOS>BOND
  1   1   2  2   
  2   2   3  am  
  3   2   4  1   
  4   3   5  1   
  5   3   6  1   
  6   4   7  ar  
  7   4   8  ar  
  8   5   9  1   
  9   5  23  1   
 10   5  24  1   
 11   6  10  1   
 12   6  25  1   
 13   6  26  1   
 14   7  11  ar  
 15   7  27  1   
 16   8  12  ar  
 17   8  28  1   
 18   9  13  1   
 19   9  14  2   
 20  10  15  1   
 21  10  29  1   
 22  10  30  1   
 23  11  16  ar  
 24  11  17  1   
 25  12  16  ar  
 26  12  31  1   
 27  13  18  1   
 28  13  32  1   
 29  14  19  1   
 30  14  33  1   
 31  15  20  1   
 32  15  21  1   
 33  15  34  1   
 34  16  22  1   
 35  17  35  1   
 36  17  36  1   
 37  17  37  1   
 38  18  19  2   
 39  18  38  1   
 40  20  39  1   
 41  20  40  1   
 42  20  41  1   
 43  21  42  1   
 44  21  43  1   
 45  21  44  1   
 46  22  45  1   
 47  22  46  1   
 48  22  47  1   
@<TRIPOS>SUBSTRUCTURE
  1 ****   3 GROUP 4 **** **** 0

# MOE 2024.06 (io_trps.svl 2023.06)
