@<TRIPOS>MOLECULE
NONAME
50 50 1 0 0 
SMALL
USER_CHARGES


@<TRIPOS>ATOM
  1 O       -0.8280    -0.8350    -0.6570 O.3   1 <1>  -0.6800 
  2 C       -0.7300    -2.0020     0.0750 C.3   1 <1>   0.1200 
  3 C        0.6570    -2.6010    -0.2020 C.3   1 <1>   0.3430 
  4 N        0.8390    -3.9730     0.3870 N.4   1 <1>  -0.9590 
  5 C        0.0250    -5.0020    -0.3380 C.3   1 <1>   0.3430 
  6 C        2.2930    -4.3100     0.3830 C.3   1 <1>   0.3430 
  7 C        0.1890    -6.3980     0.2960 C.3   1 <1>  -0.0800 
  8 C        2.5030    -5.6720     1.0460 C.3   1 <1>  -0.1600 
  9 C        1.6820    -6.7800     0.3700 C.3   1 <1>  -0.1600 
 10 C       -0.6570    -7.4210    -0.4920 C.3   1 <1>   0.3430 
 11 N       -0.6160    -8.7850     0.1220 N.4   1 <1>  -0.9590 
 12 C       -1.9930    -9.3870     0.1400 C.3   1 <1>   0.3430 
 13 C        0.3410    -9.6870    -0.6050 C.3   1 <1>   0.2630 
 14 C       -2.0740   -10.6310     1.0280 C.3   1 <1>  -0.0220 
 15 C       -3.5170   -11.0990     1.0780 C.2   1 <1>  -0.2880 
 16 C       -4.0800   -12.1130     0.4100 C.2   1 <1>  -0.2760 
 17 C       -5.5500   -12.4580     0.5910 C.3   1 <1>  -0.1020 
 18 C       -3.3990   -13.0460    -0.5850 C.3   1 <1>  -0.1020 
 19 H       -1.6730    -0.3640    -0.4910 H     1 <1>   0.4000 
 20 H       -0.8450    -1.7540     1.1170 H     1 <1>   0.0800 
 21 H       -1.5220    -2.6530    -0.2480 H     1 <1>   0.0800 
 22 H        1.3930    -1.9300     0.2110 H     1 <1>   0.0800 
 23 H        0.8070    -2.6430    -1.2690 H     1 <1>   0.0800 
 24 H        0.5460    -3.9320     1.3740 H     1 <1>   0.4500 
 25 H       -1.0160    -4.7200    -0.3180 H     1 <1>   0.0800 
 26 H        0.3410    -5.0380    -1.3690 H     1 <1>   0.0800 
 27 H        2.6610    -4.3410    -0.6310 H     1 <1>   0.0800 
 28 H        2.8510    -3.5590     0.9200 H     1 <1>   0.0800 
 29 H       -0.2110    -6.3450     1.2940 H     1 <1>   0.0800 
 30 H        3.5500    -5.9230     0.9940 H     1 <1>   0.0800 
 31 H        2.2480    -5.6020     2.0900 H     1 <1>   0.0800 
 32 H        1.8160    -7.6900     0.9310 H     1 <1>   0.0800 
 33 H        2.0700    -6.9430    -0.6230 H     1 <1>   0.0800 
 34 H       -0.3160    -7.4740    -1.5140 H     1 <1>   0.0800 
 35 H       -1.6790    -7.0740    -0.5100 H     1 <1>   0.0800 
 36 H       -0.3110    -8.7060     1.1040 H     1 <1>   0.4500 
 37 H       -2.6990    -8.6650     0.5180 H     1 <1>   0.0800 
 38 H       -2.2970    -9.6510    -0.8600 H     1 <1>   0.0800 
 39 H        0.0070    -9.8520    -1.6170 H     1 <1>   0.0800 
 40 H        0.4110   -10.6420    -0.1100 H     1 <1>   0.0800 
 41 H        1.3260    -9.2510    -0.6350 H     1 <1>   0.0800 
 42 H       -1.4470   -11.4130     0.6440 H     1 <1>   0.0800 
 43 H       -1.7540   -10.4050     2.0300 H     1 <1>   0.0800 
 44 H       -4.1030   -10.4980     1.7560 H     1 <1>   0.1500 
 45 H       -6.0730   -12.3730    -0.3450 H     1 <1>   0.0800 
 46 H       -6.0190   -11.7990     1.3000 H     1 <1>   0.0800 
 47 H       -5.6520   -13.4660     0.9530 H     1 <1>   0.0800 
 48 H       -3.9180   -13.0190    -1.5270 H     1 <1>   0.0800 
 49 H       -3.4260   -14.0550    -0.2130 H     1 <1>   0.0800 
 50 H       -2.3750   -12.7840    -0.7650 H     1 <1>   0.0800 
@<TRIPOS>BOND
  1   1   2  1   
  2   1  19  1   
  3   2   3  1   
  4   2  20  1   
  5   2  21  1   
  6   3   4  1   
  7   3  22  1   
  8   3  23  1   
  9   4   5  1   
 10   4   6  1   
 11   4  24  1   
 12   5   7  1   
 13   5  25  1   
 14   5  26  1   
 15   6   8  1   
 16   6  27  1   
 17   6  28  1   
 18   7   9  1   
 19   7  10  1   
 20   7  29  1   
 21   8   9  1   
 22   8  30  1   
 23   8  31  1   
 24   9  32  1   
 25   9  33  1   
 26  10  11  1   
 27  10  34  1   
 28  10  35  1   
 29  11  12  1   
 30  11  13  1   
 31  11  36  1   
 32  12  14  1   
 33  12  37  1   
 34  12  38  1   
 35  13  39  1   
 36  13  40  1   
 37  13  41  1   
 38  14  15  1   
 39  14  42  1   
 40  14  43  1   
 41  15  16  2   
 42  15  44  1   
 43  16  17  1   
 44  16  18  1   
 45  17  45  1   
 46  17  46  1   
 47  17  47  1   
 48  18  48  1   
 49  18  49  1   
 50  18  50  1   
@<TRIPOS>SUBSTRUCTURE
  1 ****  10 GROUP 4 **** **** 0

# MOE 2024.06 (io_trps.svl 2023.06)
