@<TRIPOS>MOLECULE
NONAME
47 49 1 0 0 
SMALL
USER_CHARGES


@<TRIPOS>ATOM
  1 O       -1.8550    -0.5390     1.8370 O.2   1 <1>  -0.5700 
  2 C       -1.4220    -1.3980     1.0970 C.2   1 <1>   0.6900 
  3 N       -2.0430    -2.6260     0.9420 N.am  1 <1>  -0.4690 
  4 N       -0.2890    -1.1510     0.3910 N.am  1 <1>  -0.4900 
  5 C       -1.5160    -3.5740     0.0700 C.2   1 <1>  -0.0410 
  6 C       -3.2800    -2.9580     1.7200 C.3   1 <1>   0.2010 
  7 C        0.2660    -2.0470    -0.4670 C.2   1 <1>   0.6160 
  8 C       -0.3880    -3.3120    -0.6310 C.2   1 <1>  -0.1240 
  9 C       -4.4700    -3.3100     0.8250 C.2   1 <1>   0.5690 
 10 O        1.2840    -1.7280    -1.0470 O.2   1 <1>  -0.5700 
 11 C        0.2110    -4.3260    -1.5960 C.3   1 <1>  -0.1020 
 12 O       -4.6910    -4.4890     0.6610 O.2   1 <1>  -0.5700 
 13 N       -5.2540    -2.3420     0.2410 N.am  1 <1>  -0.6600 
 14 C       -6.4190    -2.6980    -0.6180 C.3   1 <1>   0.1400 
 15 C       -5.0400    -0.8710     0.3500 C.3   1 <1>   0.1400 
 16 C       -7.6880    -2.0680    -0.0380 C.3   1 <1>  -0.1600 
 17 C       -6.2900    -0.2270     0.9510 C.3   1 <1>  -0.1600 
 18 C       -7.5450    -0.5520     0.1280 C.3   1 <1>   0.4180 
 19 O       -7.3990    -0.0280    -1.1700 O.3   1 <1>  -0.5600 
 20 C       -8.7980     0.0110     0.7930 C.2   1 <1>  -0.2880 
 21 C       -7.6810     1.3320    -1.3540 C.3   1 <1>   0.1200 
 22 C       -9.5490     0.9860     0.2750 C.2   1 <1>  -0.2760 
 23 C       -9.1540     1.6270    -1.0430 C.3   1 <1>  -0.0220 
 24 C      -10.8190     1.5250     0.9090 C.3   1 <1>  -0.1020 
 25 H        0.1700    -0.2570     0.5140 H     1 <1>   0.3700 
 26 H       -2.0470    -4.5110    -0.0180 H     1 <1>   0.1500 
 27 H       -3.5550    -2.1520     2.3730 H     1 <1>   0.0800 
 28 H       -3.0680    -3.8080     2.3420 H     1 <1>   0.0800 
 29 H        0.2510    -3.9080    -2.5870 H     1 <1>   0.0800 
 30 H       -0.3760    -5.2270    -1.6250 H     1 <1>   0.0800 
 31 H        1.2120    -4.5760    -1.2910 H     1 <1>   0.0800 
 32 H       -6.5420    -3.7660    -0.6770 H     1 <1>   0.0800 
 33 H       -6.2490    -2.3280    -1.6150 H     1 <1>   0.0800 
 34 H       -4.8590    -0.4690    -0.6330 H     1 <1>   0.0800 
 35 H       -4.1910    -0.6380     0.9630 H     1 <1>   0.0800 
 36 H       -7.8890    -2.5200     0.9150 H     1 <1>   0.0800 
 37 H       -8.5240    -2.2740    -0.6810 H     1 <1>   0.0800 
 38 H       -6.1590     0.8360     1.0240 H     1 <1>   0.0800 
 39 H       -6.4200    -0.5980     1.9510 H     1 <1>   0.0800 
 40 H       -9.0230    -0.4690     1.7280 H     1 <1>   0.1500 
 41 H       -7.4590     1.5790    -2.3770 H     1 <1>   0.0800 
 42 H       -7.0380     1.9070    -0.7120 H     1 <1>   0.0800 
 43 H       -9.7760     1.2470    -1.8340 H     1 <1>   0.0800 
 44 H       -9.2860     2.6930    -0.9940 H     1 <1>   0.0800 
 45 H      -11.6510     1.3900     0.2410 H     1 <1>   0.0800 
 46 H      -10.7120     2.5730     1.1260 H     1 <1>   0.0800 
 47 H      -11.0310     1.0060     1.8270 H     1 <1>   0.0800 
@<TRIPOS>BOND
  1   1   2  2   
  2   2   3  am  
  3   2   4  am  
  4   3   5  1   
  5   3   6  1   
  6   4   7  am  
  7   4  25  1   
  8   5   8  2   
  9   5  26  1   
 10   6   9  1   
 11   6  27  1   
 12   6  28  1   
 13   7   8  1   
 14   7  10  2   
 15   8  11  1   
 16   9  12  2   
 17   9  13  am  
 18  11  29  1   
 19  11  30  1   
 20  11  31  1   
 21  13  14  1   
 22  13  15  1   
 23  14  16  1   
 24  14  32  1   
 25  14  33  1   
 26  15  17  1   
 27  15  34  1   
 28  15  35  1   
 29  16  18  1   
 30  16  36  1   
 31  16  37  1   
 32  17  18  1   
 33  17  38  1   
 34  17  39  1   
 35  18  19  1   
 36  18  20  1   
 37  19  21  1   
 38  20  22  2   
 39  20  40  1   
 40  21  23  1   
 41  21  41  1   
 42  21  42  1   
 43  22  23  1   
 44  22  24  1   
 45  23  43  1   
 46  23  44  1   
 47  24  45  1   
 48  24  46  1   
 49  24  47  1   
@<TRIPOS>SUBSTRUCTURE
  1 ****  15 GROUP 4 **** **** 0

# MOE 2024.06 (io_trps.svl 2023.06)
