@<TRIPOS>MOLECULE
NONAME
49 52 1 0 0 
SMALL
USER_CHARGES


@<TRIPOS>ATOM
  1 F        0.7540     1.5150     2.3320 F     1 <1>  -0.1900 
  2 C        0.8170     2.7110     1.8100 C.ar  1 <1>   0.1900 
  3 C        1.0290     3.7920     2.6440 C.ar  1 <1>  -0.1500 
  4 C        0.6670     2.8490     0.4420 C.ar  1 <1>  -0.1500 
  5 C        1.0960     5.0560     2.0820 C.ar  1 <1>  -0.1500 
  6 C        0.7360     4.1170    -0.1120 C.ar  1 <1>  -0.1500 
  7 C        0.9560     5.2240     0.7100 C.ar  1 <1>   0.0830 
  8 O        1.0490     6.4930     0.2460 O.3   1 <1>  -0.3630 
  9 C        1.2240     6.7560    -1.1390 C.3   1 <1>   0.1810 
 10 C        1.5260     8.2310    -1.3990 C.2   1 <1>   0.5690 
 11 O        0.7800     8.8080    -2.1580 O.2   1 <1>  -0.5700 
 12 N        2.6120     8.8690    -0.8380 N.am  1 <1>  -0.6600 
 13 C        3.6280     8.1990     0.0390 C.3   1 <1>   0.1400 
 14 C        2.8020    10.3350    -1.0220 C.3   1 <1>   0.1400 
 15 C        5.0590     8.3450    -0.5020 C.3   1 <1>   0.1400 
 16 C        3.9060    10.5920    -2.0530 C.3   1 <1>  -0.1600 
 17 N        5.5700     9.7390    -0.3360 N.am  1 <1>  -0.6600 
 18 C        5.3170    10.6930    -1.4570 C.3   1 <1>   0.1400 
 19 C        6.1420    10.1200     0.8640 C.2   1 <1>   0.5440 
 20 O        5.9960     9.3970     1.8320 O.2   1 <1>  -0.5700 
 21 C        6.8970    11.3490     1.0110 C.ar  1 <1>   0.0860 
 22 C        7.8880    11.7150     0.1130 C.ar  1 <1>  -0.1500 
 23 C        6.6390    12.2090     2.1020 C.ar  1 <1>  -0.1500 
 24 C        8.5810    12.9110     0.2790 C.ar  1 <1>   0.2270 
 25 C        7.3210    13.3890     2.2790 C.ar  1 <1>  -0.1500 
 26 N        9.5610    13.4760    -0.4690 N.2   1 <1>  -0.2270 
 27 C        8.3000    13.7300     1.3410 C.ar  1 <1>  -0.1520 
 28 N        9.8950    14.5860     0.0740 N.2   1 <1>  -0.4180 
 29 N        9.1490    14.7640     1.1750 N.pl3 1 <1>   0.3000 
 30 H        1.1370     3.6460     3.7030 H     1 <1>   0.1500 
 31 H        0.4990     1.9800    -0.1690 H     1 <1>   0.1500 
 32 H        1.2580     5.9190     2.7020 H     1 <1>   0.1500 
 33 H        0.6120     4.2220    -1.1730 H     1 <1>   0.1500 
 34 H        0.3150     6.4860    -1.6460 H     1 <1>   0.0800 
 35 H        2.0360     6.1570    -1.5040 H     1 <1>   0.0800 
 36 H        3.4210     7.1500     0.1220 H     1 <1>   0.0800 
 37 H        3.5750     8.6140     1.0310 H     1 <1>   0.0800 
 38 H        3.0420    10.7970    -0.0790 H     1 <1>   0.0800 
 39 H        1.8840    10.7770    -1.3720 H     1 <1>   0.0800 
 40 H        5.0970     8.0510    -1.5350 H     1 <1>   0.0800 
 41 H        5.6990     7.6770     0.0490 H     1 <1>   0.0800 
 42 H        3.6980    11.5240    -2.5450 H     1 <1>   0.0800 
 43 H        3.8750     9.8320    -2.8130 H     1 <1>   0.0800 
 44 H        5.4460    11.6990    -1.0990 H     1 <1>   0.0800 
 45 H        6.0450    10.5260    -2.2330 H     1 <1>   0.0800 
 46 H        8.1410    11.0860    -0.7200 H     1 <1>   0.1500 
 47 H        5.8820    11.9100     2.8080 H     1 <1>   0.1500 
 48 H        7.1150    14.0360     3.1150 H     1 <1>   0.1500 
 49 H        9.2410    15.5830     1.7830 H     1 <1>   0.2700 
@<TRIPOS>BOND
  1   1   2  1   
  2   2   3  ar  
  3   2   4  ar  
  4   3   5  ar  
  5   3  30  1   
  6   4   6  ar  
  7   4  31  1   
  8   5   7  ar  
  9   5  32  1   
 10   6   7  ar  
 11   6  33  1   
 12   7   8  1   
 13   8   9  1   
 14   9  10  1   
 15   9  34  1   
 16   9  35  1   
 17  10  11  2   
 18  10  12  am  
 19  12  13  1   
 20  12  14  1   
 21  13  15  1   
 22  13  36  1   
 23  13  37  1   
 24  14  16  1   
 25  14  38  1   
 26  14  39  1   
 27  15  17  1   
 28  15  40  1   
 29  15  41  1   
 30  16  18  1   
 31  16  42  1   
 32  16  43  1   
 33  17  18  1   
 34  17  19  am  
 35  18  44  1   
 36  18  45  1   
 37  19  20  2   
 38  19  21  1   
 39  21  22  ar  
 40  21  23  ar  
 41  22  24  ar  
 42  22  46  1   
 43  23  25  ar  
 44  23  47  1   
 45  24  26  1   
 46  24  27  ar  
 47  25  27  ar  
 48  25  48  1   
 49  26  28  2   
 50  27  29  1   
 51  28  29  1   
 52  29  49  1   
@<TRIPOS>SUBSTRUCTURE
  1 ****  13 GROUP 4 **** **** 0

# MOE 2024.06 (io_trps.svl 2023.06)
