@<TRIPOS>MOLECULE
NONAME
55 58 1 0 0 
SMALL
USER_CHARGES


@<TRIPOS>ATOM
  1 O        3.6550     2.5920    -1.0050 O.3   1 <1>  -0.0190 
  2 N        4.3610     1.6890    -0.3960 N.2   1 <1>  -0.4100 
  3 C        2.3740     2.4280    -0.8030 C.2   1 <1>  -0.0400 
  4 C        3.5220     0.9120     0.1890 C.2   1 <1>   0.1080 
  5 C        2.2150     1.3410    -0.0330 C.2   1 <1>  -0.1500 
  6 C        1.3860     3.4170    -1.3920 C.3   1 <1>   0.0200 
  7 C        3.9120    -0.3010     1.0060 C.3   1 <1>  -0.0590 
  8 C        1.8770     4.8560    -1.1400 C.3   1 <1>  -0.0800 
  9 C        0.9100     5.9900    -1.4800 C.3   1 <1>   0.2000 
 10 C        2.2600     5.1320     0.3110 C.3   1 <1>   0.3430 
 11 O       -0.3660     5.6840    -1.0170 O.3   1 <1>  -0.6800 
 12 C        1.4600     7.1890    -0.6940 C.3   1 <1>   0.3430 
 13 N        2.3060     6.6130     0.4010 N.4   1 <1>  -0.9590 
 14 C        2.0590     7.1860     1.7460 C.3   1 <1>   0.4860 
 15 C        2.5060     8.6350     1.7160 C.ar  1 <1>  -0.1430 
 16 C        3.8220     8.9480     1.3860 C.ar  1 <1>   0.0830 
 17 C        1.6070     9.6500     2.0090 C.ar  1 <1>  -0.1500 
 18 O        4.6510     7.9100     1.0940 O.3   1 <1>  -0.3630 
 19 C        4.2270    10.2790     1.3530 C.ar  1 <1>  -0.1500 
 20 C        2.0160    10.9710     1.9710 C.ar  1 <1>  -0.1500 
 21 C        5.9280     8.0730     0.5070 C.3   1 <1>   0.2000 
 22 C        3.3230    11.2840     1.6450 C.ar  1 <1>  -0.1500 
 23 C        5.7630     8.3990    -0.9770 C.3   1 <1>  -0.1600 
 24 C        6.5940     6.7020     0.4910 C.3   1 <1>  -0.1600 
 25 C        5.4900     7.0600    -1.6710 C.3   1 <1>  -0.1600 
 26 C        6.0200     5.9710    -0.7290 C.3   1 <1>  -0.1600 
 27 H        1.3210     0.8790     0.3450 H     1 <1>   0.1500 
 28 H        1.3030     3.2450    -2.4510 H     1 <1>   0.0800 
 29 H        0.4200     3.2440    -0.9510 H     1 <1>   0.0800 
 30 H        3.5160    -0.2180     2.0010 H     1 <1>   0.0800 
 31 H        4.9830    -0.3770     1.0620 H     1 <1>   0.0800 
 32 H        3.5250    -1.1910     0.5440 H     1 <1>   0.0800 
 33 H        2.7660     4.9980    -1.7310 H     1 <1>   0.0800 
 34 H        0.8430     6.1880    -2.5370 H     1 <1>   0.0800 
 35 H        3.2100     4.6860     0.5620 H     1 <1>   0.0800 
 36 H        1.4980     4.7420     0.9660 H     1 <1>   0.0800 
 37 H       -0.3950     5.5030    -0.0590 H     1 <1>   0.4000 
 38 H        0.6540     7.7930    -0.3090 H     1 <1>   0.0800 
 39 H        2.0760     7.7950    -1.3370 H     1 <1>   0.0800 
 40 H        3.2850     6.9070     0.2180 H     1 <1>   0.4500 
 41 H        1.0160     7.1160     2.0050 H     1 <1>   0.0800 
 42 H        2.6410     6.6590     2.4850 H     1 <1>   0.0800 
 43 H        0.5850     9.4310     2.2710 H     1 <1>   0.1500 
 44 H        5.2350    10.5560     1.1080 H     1 <1>   0.1500 
 45 H        1.3180    11.7600     2.2000 H     1 <1>   0.1500 
 46 H        6.4980     8.7950     1.0650 H     1 <1>   0.0800 
 47 H        3.6360    12.3150     1.6200 H     1 <1>   0.1500 
 48 H        4.9970     9.1300    -1.1650 H     1 <1>   0.0800 
 49 H        6.6980     8.7900    -1.3410 H     1 <1>   0.0800 
 50 H        7.6520     6.8390     0.3450 H     1 <1>   0.0800 
 51 H        6.4440     6.1630     1.4100 H     1 <1>   0.0800 
 52 H        4.4350     6.9300    -1.8290 H     1 <1>   0.0800 
 53 H        5.9870     7.0200    -2.6260 H     1 <1>   0.0800 
 54 H        6.7810     5.3770    -1.2070 H     1 <1>   0.0800 
 55 H        5.2220     5.3180    -0.4270 H     1 <1>   0.0800 
@<TRIPOS>BOND
  1   1   2  1   
  2   1   3  1   
  3   2   4  2   
  4   3   5  2   
  5   3   6  1   
  6   4   5  1   
  7   4   7  1   
  8   5  27  1   
  9   6   8  1   
 10   6  28  1   
 11   6  29  1   
 12   7  30  1   
 13   7  31  1   
 14   7  32  1   
 15   8   9  1   
 16   8  10  1   
 17   8  33  1   
 18   9  11  1   
 19   9  12  1   
 20   9  34  1   
 21  10  13  1   
 22  10  35  1   
 23  10  36  1   
 24  11  37  1   
 25  12  13  1   
 26  12  38  1   
 27  12  39  1   
 28  13  14  1   
 29  13  40  1   
 30  14  15  1   
 31  14  41  1   
 32  14  42  1   
 33  15  16  ar  
 34  15  17  ar  
 35  16  18  1   
 36  16  19  ar  
 37  17  20  ar  
 38  17  43  1   
 39  18  21  1   
 40  19  22  ar  
 41  19  44  1   
 42  20  22  ar  
 43  20  45  1   
 44  21  23  1   
 45  21  24  1   
 46  21  46  1   
 47  22  47  1   
 48  23  25  1   
 49  23  48  1   
 50  23  49  1   
 51  24  26  1   
 52  24  50  1   
 53  24  51  1   
 54  25  26  1   
 55  25  52  1   
 56  25  53  1   
 57  26  54  1   
 58  26  55  1   
@<TRIPOS>SUBSTRUCTURE
  1 ****  13 GROUP 4 **** **** 0

# MOE 2024.06 (io_trps.svl 2023.06)
