@<TRIPOS>MOLECULE
NONAME
49 51 1 0 0 
SMALL
USER_CHARGES


@<TRIPOS>ATOM
  1 F       -0.9030     1.7810    -1.9570 F     1 <1>  -0.3400 
  2 C       -1.4220     1.4140    -0.7880 C.3   1 <1>   1.1640 
  3 F       -0.5290     1.7540     0.1370 F     1 <1>  -0.3400 
  4 F       -1.4260     0.0820    -0.8030 F     1 <1>  -0.3400 
  5 C       -2.8200     2.0310    -0.5310 C.ar  1 <1>   0.1660 
  6 N       -2.9510     3.3460    -0.4180 N.ar  1 <1>  -0.6200 
  7 C       -3.9210     1.2200    -0.4180 C.ar  1 <1>  -0.1500 
  8 C       -4.1770     3.8090    -0.1940 C.ar  1 <1>   0.7200 
  9 C       -5.1560     1.7880    -0.1870 C.ar  1 <1>   0.4100 
 10 N       -5.2800     3.0900    -0.0710 N.ar  1 <1>  -0.6200 
 11 N       -4.3060     5.1820    -0.0800 N.pl3 1 <1>  -0.8380 
 12 N       -6.2930     1.0050    -0.0700 N.pl3 1 <1>  -0.8380 
 13 C       -3.1350     6.0750     0.1450 C.3   1 <1>   0.1290 
 14 C       -5.6300     5.8580    -0.1730 C.3   1 <1>   0.1290 
 15 C       -6.5250    -0.1140    -1.0530 C.3   1 <1>   0.2090 
 16 C       -7.5340     1.6050     0.4990 C.3   1 <1>   0.2090 
 17 C       -7.4410    -1.2290    -0.5130 C.3   1 <1>  -0.1060 
 18 C       -8.4630     0.5340     1.0680 C.3   1 <1>  -0.1600 
 19 C       -7.8690    -2.0810    -1.7080 C.2   1 <1>   0.9060 
 20 C       -8.7190    -0.5470     0.0260 C.3   1 <1>   0.2000 
 21 C       -6.7270    -2.2030     0.4830 C.3   1 <1>  -0.0650 
 22 O       -7.2240    -2.0380    -2.7620 O.co2 1 <1>  -0.9000 
 23 O       -8.8550    -2.8240    -1.5880 O.co2 1 <1>  -0.9000 
 24 O       -9.5850    -1.4790     0.5630 O.3   1 <1>  -0.6800 
 25 C       -5.7170    -1.6430     1.5010 C.3   1 <1>  -0.1950 
 26 C       -4.2410    -1.8060     1.3040 C.3   1 <1>  -0.2000 
 27 C       -4.9510    -2.6090     2.3500 C.3   1 <1>  -0.2000 
 28 H       -3.8460     0.1560    -0.4990 H     1 <1>   0.1500 
 29 H       -3.4270     6.9270     0.7330 H     1 <1>   0.0800 
 30 H       -2.7510     6.4100    -0.8020 H     1 <1>   0.0800 
 31 H       -2.3560     5.5510     0.6730 H     1 <1>   0.0800 
 32 H       -5.5190     6.8260    -0.6270 H     1 <1>   0.0800 
 33 H       -6.0450     5.9700     0.8130 H     1 <1>   0.0800 
 34 H       -6.3090     5.2780    -0.7750 H     1 <1>   0.0800 
 35 H       -6.9820     0.3150    -1.9300 H     1 <1>   0.0800 
 36 H       -5.6010    -0.5580    -1.3730 H     1 <1>   0.0800 
 37 H       -7.2780     2.2970     1.2840 H     1 <1>   0.0800 
 38 H       -8.0400     2.1510    -0.2780 H     1 <1>   0.0800 
 39 H       -9.3970     0.9930     1.3360 H     1 <1>   0.0800 
 40 H       -8.0360     0.1100     1.9540 H     1 <1>   0.0800 
 41 H       -9.2360    -0.0990    -0.8070 H     1 <1>   0.0800 
 42 H       -7.4770    -2.7460     1.0290 H     1 <1>   0.0800 
 43 H       -6.2060    -2.9430    -0.1000 H     1 <1>   0.0800 
 44 H       -9.6120    -2.2200    -0.1100 H     1 <1>   0.4000 
 45 H       -6.0490    -0.7470     1.9890 H     1 <1>   0.1000 
 46 H       -3.8870    -2.3050     0.4180 H     1 <1>   0.1000 
 47 H       -3.5880    -1.0150     1.6260 H     1 <1>   0.1000 
 48 H       -4.8000    -2.3660     3.3870 H     1 <1>   0.1000 
 49 H       -5.0870    -3.6640     2.1880 H     1 <1>   0.1000 
@<TRIPOS>BOND
  1   1   2  1   
  2   2   3  1   
  3   2   4  1   
  4   2   5  1   
  5   5   6  ar  
  6   5   7  ar  
  7   6   8  ar  
  8   7   9  ar  
  9   7  28  1   
 10   8  10  ar  
 11   8  11  1   
 12   9  10  ar  
 13   9  12  1   
 14  11  13  1   
 15  11  14  1   
 16  12  15  1   
 17  12  16  1   
 18  13  29  1   
 19  13  30  1   
 20  13  31  1   
 21  14  32  1   
 22  14  33  1   
 23  14  34  1   
 24  15  17  1   
 25  15  35  1   
 26  15  36  1   
 27  16  18  1   
 28  16  37  1   
 29  16  38  1   
 30  17  19  1   
 31  17  20  1   
 32  17  21  1   
 33  18  20  1   
 34  18  39  1   
 35  18  40  1   
 36  19  22  ar  
 37  19  23  ar  
 38  20  24  1   
 39  20  41  1   
 40  21  25  1   
 41  21  42  1   
 42  21  43  1   
 43  24  44  1   
 44  25  26  1   
 45  25  27  1   
 46  25  45  1   
 47  26  27  1   
 48  26  46  1   
 49  26  47  1   
 50  27  48  1   
 51  27  49  1   
@<TRIPOS>SUBSTRUCTURE
  1 ****   9 GROUP 4 **** **** 0

# MOE 2024.06 (io_trps.svl 2023.06)
