@<TRIPOS>MOLECULE
NONAME
43 45 1 0 0 
SMALL
USER_CHARGES


@<TRIPOS>ATOM
  1 O        0.6250     0.2680     0.4120 O.2   1 <1>  -0.5700 
  2 C        0.5390     1.4440     0.1220 C.2   1 <1>   0.5690 
  3 N       -0.5740     1.9600    -0.4890 N.am  1 <1>  -0.6600 
  4 C        1.7380     2.3660     0.4870 C.3   1 <1>   0.2510 
  5 C       -0.6180     3.4050    -0.8400 C.3   1 <1>   0.1400 
  6 C       -1.9200     1.2640    -0.4170 C.3   1 <1>   0.0340 
  7 N        1.5690     3.8360     0.2550 N.3   1 <1>  -0.8100 
  8 C        2.9950     1.9410    -0.2830 C.3   1 <1>  -0.2400 
  9 C        0.1400     4.2230     0.2090 C.3   1 <1>   0.1100 
 10 C       -3.0370     1.9850     0.3550 C.2   1 <1>   0.9060 
 11 C        2.2810     4.6270     1.2720 C.3   1 <1>   0.2540 
 12 O       -2.7670     2.7260     1.3130 O.co2 1 <1>  -0.9000 
 13 O       -4.2010     1.8310    -0.0340 O.co2 1 <1>  -0.9000 
 14 C        2.3530     6.0990     0.8820 C.ar  1 <1>  -0.1440 
 15 C        2.8550     6.4720    -0.3450 C.ar  1 <1>  -0.1500 
 16 C        1.9120     7.0810     1.7810 C.ar  1 <1>  -0.1500 
 17 C        2.9280     7.8250    -0.6880 C.ar  1 <1>   0.0000 
 18 C        1.9780     8.4170     1.4570 C.ar  1 <1>  -0.1500 
 19 C        2.4920     8.7910     0.2120 C.ar  1 <1>  -0.1520 
 20 C        3.3780     8.5170    -1.8310 C.2   1 <1>  -0.1500 
 21 N        2.6720    10.0280    -0.3590 N.pl3 1 <1>   0.0480 
 22 C        3.2100     9.8410    -1.6010 C.2   1 <1>  -0.3020 
 23 C        2.3450    11.3230     0.2580 C.3   1 <1>   0.0160 
 24 H        1.9080     2.2000     1.5360 H     1 <1>   0.0800 
 25 H       -1.6360     3.7520    -0.8800 H     1 <1>   0.0800 
 26 H       -0.1740     3.5540    -1.8070 H     1 <1>   0.0800 
 27 H       -1.8030     0.3000     0.0410 H     1 <1>   0.0800 
 28 H       -2.2760     1.1050    -1.4160 H     1 <1>   0.0800 
 29 H        2.8360     2.0840    -1.3370 H     1 <1>   0.0800 
 30 H        3.1930     0.8990    -0.1070 H     1 <1>   0.0800 
 31 H        3.8500     2.5080     0.0290 H     1 <1>   0.0800 
 32 H       -0.3280     4.0720     1.1680 H     1 <1>   0.0800 
 33 H        0.0550     5.2650    -0.0470 H     1 <1>   0.0800 
 34 H        3.2870     4.2630     1.3750 H     1 <1>   0.0800 
 35 H        1.7880     4.5170     2.2230 H     1 <1>   0.0800 
 36 H        3.1860     5.7320    -1.0510 H     1 <1>   0.1500 
 37 H        1.5150     6.7830     2.7350 H     1 <1>   0.1500 
 38 H        1.6400     9.1690     2.1470 H     1 <1>   0.1500 
 39 H        3.7750     8.0360    -2.7060 H     1 <1>   0.1500 
 40 H        3.4440    10.6650    -2.2510 H     1 <1>   0.1500 
 41 H        2.9110    11.4340     1.1640 H     1 <1>   0.0800 
 42 H        1.2940    11.3520     0.4810 H     1 <1>   0.0800 
 43 H        2.5910    12.1180    -0.4210 H     1 <1>   0.0800 
@<TRIPOS>BOND
  1   1   2  2   
  2   2   3  am  
  3   2   4  1   
  4   3   5  1   
  5   3   6  1   
  6   4   7  1   
  7   4   8  1   
  8   4  24  1   
  9   5   9  1   
 10   5  25  1   
 11   5  26  1   
 12   6  10  1   
 13   6  27  1   
 14   6  28  1   
 15   7   9  1   
 16   7  11  1   
 17   8  29  1   
 18   8  30  1   
 19   8  31  1   
 20   9  32  1   
 21   9  33  1   
 22  10  12  ar  
 23  10  13  ar  
 24  11  14  1   
 25  11  34  1   
 26  11  35  1   
 27  14  15  ar  
 28  14  16  ar  
 29  15  17  ar  
 30  15  36  1   
 31  16  18  ar  
 32  16  37  1   
 33  17  19  ar  
 34  17  20  1   
 35  18  19  ar  
 36  18  38  1   
 37  19  21  1   
 38  20  22  2   
 39  20  39  1   
 40  21  22  1   
 41  21  23  1   
 42  22  40  1   
 43  23  41  1   
 44  23  42  1   
 45  23  43  1   
@<TRIPOS>SUBSTRUCTURE
  1 ****   9 GROUP 4 **** **** 0

# MOE 2024.06 (io_trps.svl 2023.06)
