@<TRIPOS>MOLECULE
NONAME
49 51 1 0 0 
SMALL
USER_CHARGES


@<TRIPOS>ATOM
  1 O       -0.4340     0.2160     1.9890 O.2   1 <1>  -0.5700 
  2 C       -1.2430     0.8740     1.3740 C.2   1 <1>   0.5690 
  3 N       -2.2190     0.2590     0.6290 N.am  1 <1>  -0.6600 
  4 C       -1.1750     2.4080     1.4880 C.3   1 <1>   0.1710 
  5 C       -3.3040     0.9100    -0.1460 C.3   1 <1>   0.1400 
  6 C       -2.2940    -1.2160     0.5020 C.3   1 <1>   0.1400 
  7 N       -0.1700     3.0890     0.6200 N.3   1 <1>  -0.8100 
  8 C       -3.9240    -0.2200    -0.9670 C.3   1 <1>   0.2000 
  9 C       -3.6330    -1.4970    -0.1830 C.3   1 <1>  -0.0800 
 10 C       -0.0410     4.5140     0.9700 C.3   1 <1>   0.2530 
 11 C       -0.4190     2.8890    -0.8140 C.3   1 <1>   0.0300 
 12 O       -5.2890    -0.0490    -1.1220 O.3   1 <1>  -0.6800 
 13 C       -3.6210    -2.7540    -1.0650 C.3   1 <1>   0.0200 
 14 C        1.1710     5.1440     0.2980 C.ar  1 <1>  -0.1440 
 15 C       -3.2640    -3.9830    -0.2510 C.2   1 <1>  -0.0400 
 16 C        2.4180     4.5540     0.3510 C.ar  1 <1>  -0.1500 
 17 C        1.0930     6.3370    -0.3950 C.ar  1 <1>  -0.1500 
 18 O       -4.0470    -4.3730     0.7190 O.3   1 <1>  -0.0190 
 19 C       -2.2240    -4.8280    -0.3080 C.2   1 <1>  -0.1500 
 20 C        3.4950     5.1640    -0.2690 C.ar  1 <1>   0.1600 
 21 C        2.2330     6.8640    -0.9790 C.ar  1 <1>   0.1600 
 22 N       -3.5850    -5.4320     1.3170 N.2   1 <1>  -0.4100 
 23 C       -2.4880    -5.7300     0.7190 C.2   1 <1>   0.1080 
 24 N        3.4330     6.3080    -0.9330 N.ar  1 <1>  -0.6200 
 25 C       -1.6080    -6.9030     1.0910 C.3   1 <1>  -0.0590 
 26 H       -0.9310     2.6190     2.5140 H     1 <1>   0.0800 
 27 H       -2.1480     2.8230     1.3020 H     1 <1>   0.0800 
 28 H       -4.0250     1.3240     0.5360 H     1 <1>   0.0800 
 29 H       -2.9140     1.6750    -0.7910 H     1 <1>   0.0800 
 30 H       -1.4690    -1.5550    -0.1020 H     1 <1>   0.0800 
 31 H       -2.2400    -1.6880     1.4700 H     1 <1>   0.0800 
 32 H       -3.4720    -0.2460    -1.9450 H     1 <1>   0.0800 
 33 H       -4.3670    -1.6150     0.5950 H     1 <1>   0.0800 
 34 H       -0.9380     5.0400     0.6910 H     1 <1>   0.0800 
 35 H        0.0860     4.6080     2.0360 H     1 <1>   0.0800 
 36 H        0.3830     3.3160    -1.3930 H     1 <1>   0.0800 
 37 H       -1.3440     3.3550    -1.1070 H     1 <1>   0.0800 
 38 H       -0.4580     1.8380    -1.0390 H     1 <1>   0.0800 
 39 H       -5.7480    -0.1510    -0.2650 H     1 <1>   0.4000 
 40 H       -2.9070    -2.6390    -1.8620 H     1 <1>   0.0800 
 41 H       -4.5920    -2.8970    -1.5050 H     1 <1>   0.0800 
 42 H        2.5480     3.6190     0.8680 H     1 <1>   0.1500 
 43 H        0.1600     6.8610    -0.4850 H     1 <1>   0.1500 
 44 H       -1.3760    -4.8390    -0.9670 H     1 <1>   0.1500 
 45 H        4.4560     4.6840    -0.2160 H     1 <1>   0.1500 
 46 H        2.1540     7.7950    -1.5140 H     1 <1>   0.1500 
 47 H       -1.4950    -7.5570     0.2460 H     1 <1>   0.0800 
 48 H       -2.0530    -7.4530     1.9000 H     1 <1>   0.0800 
 49 H       -0.6420    -6.5500     1.4000 H     1 <1>   0.0800 
@<TRIPOS>BOND
  1   1   2  2   
  2   2   3  am  
  3   2   4  1   
  4   3   5  1   
  5   3   6  1   
  6   4   7  1   
  7   4  26  1   
  8   4  27  1   
  9   5   8  1   
 10   5  28  1   
 11   5  29  1   
 12   6   9  1   
 13   6  30  1   
 14   6  31  1   
 15   7  10  1   
 16   7  11  1   
 17   8   9  1   
 18   8  12  1   
 19   8  32  1   
 20   9  13  1   
 21   9  33  1   
 22  10  14  1   
 23  10  34  1   
 24  10  35  1   
 25  11  36  1   
 26  11  37  1   
 27  11  38  1   
 28  12  39  1   
 29  13  15  1   
 30  13  40  1   
 31  13  41  1   
 32  14  16  ar  
 33  14  17  ar  
 34  15  18  1   
 35  15  19  2   
 36  16  20  ar  
 37  16  42  1   
 38  17  21  ar  
 39  17  43  1   
 40  18  22  1   
 41  19  23  1   
 42  19  44  1   
 43  20  24  ar  
 44  20  45  1   
 45  21  24  ar  
 46  21  46  1   
 47  22  23  2   
 48  23  25  1   
 49  25  47  1   
 50  25  48  1   
 51  25  49  1   
@<TRIPOS>SUBSTRUCTURE
  1 ****   3 GROUP 4 **** **** 0

# MOE 2024.06 (io_trps.svl 2023.06)
