@<TRIPOS>MOLECULE
NONAME
43 45 1 0 0 
SMALL
USER_CHARGES


@<TRIPOS>ATOM
  1 O        1.8500    -0.6300     1.7720 O.3   1 <1>  -0.0190 
  2 N        2.0020     0.6590     1.7870 N.2   1 <1>  -0.4100 
  3 C        1.7280    -0.9210     0.5010 C.2   1 <1>   0.2980 
  4 C        1.9710     1.0580     0.5760 C.2   1 <1>   0.3350 
  5 N        1.7830     0.0720    -0.2960 N.2   1 <1>  -0.5650 
  6 C        1.5450    -2.3800     0.0980 C.3   1 <1>   0.2900 
  7 C        2.1050     2.5140     0.1390 C.3   1 <1>   0.3010 
  8 N        0.2530    -2.9490     0.5450 N.3   1 <1>  -0.8100 
  9 O        3.3680     2.7650    -0.4170 O.3   1 <1>  -0.5600 
 10 C       -0.9090    -2.2350    -0.0130 C.3   1 <1>   0.1100 
 11 C        0.0910    -4.3650     0.1670 C.3   1 <1>   0.1100 
 12 C        3.5520     4.0730    -0.8490 C.3   1 <1>   0.0400 
 13 C       -2.0530    -3.2320     0.1220 C.3   1 <1>   0.2000 
 14 C       -1.3720    -4.5420    -0.2700 C.3   1 <1>  -0.0800 
 15 O       -2.4020    -3.2710     1.4600 O.3   1 <1>  -0.6800 
 16 C       -2.0300    -5.8260     0.2650 C.3   1 <1>   0.0210 
 17 C       -1.2630    -7.0600    -0.1740 C.2   1 <1>   0.1080 
 18 N       -1.0280    -7.3450    -1.4180 N.2   1 <1>  -0.7070 
 19 C       -0.7290    -8.0080     0.6920 C.2   1 <1>  -0.1500 
 20 N       -0.3370    -8.5000    -1.3770 N.pl3 1 <1>   0.3000 
 21 C       -0.1400    -8.9200    -0.1100 C.2   1 <1>  -0.3320 
 22 C        0.6070   -10.1870     0.2620 C.3   1 <1>  -0.0600 
 23 H        2.3480    -2.9510     0.5280 H     1 <1>   0.0800 
 24 H        1.6200    -2.4510    -0.9730 H     1 <1>   0.0800 
 25 H        1.9750     3.1560     0.9910 H     1 <1>   0.0800 
 26 H        1.3540     2.7330    -0.5990 H     1 <1>   0.0800 
 27 H       -1.1080    -1.3200     0.5190 H     1 <1>   0.0800 
 28 H       -0.7460    -2.0150    -1.0540 H     1 <1>   0.0800 
 29 H        0.7450    -4.6410    -0.6440 H     1 <1>   0.0800 
 30 H        0.3170    -4.9830     1.0200 H     1 <1>   0.0800 
 31 H        4.5460     4.1540    -1.2530 H     1 <1>   0.0800 
 32 H        3.4460     4.7430    -0.0130 H     1 <1>   0.0800 
 33 H        2.8310     4.3000    -1.6160 H     1 <1>   0.0800 
 34 H       -2.9210    -2.9920    -0.4680 H     1 <1>   0.0800 
 35 H       -1.3740    -4.5980    -1.3450 H     1 <1>   0.0800 
 36 H       -1.5580    -3.2340     1.9600 H     1 <1>   0.4000 
 37 H       -3.0360    -5.8940    -0.1070 H     1 <1>   0.0800 
 38 H       -2.0740    -5.8070     1.3390 H     1 <1>   0.0800 
 39 H       -0.7910    -7.9920     1.7650 H     1 <1>   0.1500 
 40 H       -0.0190    -8.9770    -2.2290 H     1 <1>   0.2700 
 41 H        0.6280   -10.3030     1.3320 H     1 <1>   0.0800 
 42 H        1.6190   -10.1430    -0.0980 H     1 <1>   0.0800 
 43 H        0.1190   -11.0460    -0.1650 H     1 <1>   0.0800 
@<TRIPOS>BOND
  1   1   2  1   
  2   1   3  1   
  3   2   4  2   
  4   3   5  2   
  5   3   6  1   
  6   4   5  1   
  7   4   7  1   
  8   6   8  1   
  9   6  23  1   
 10   6  24  1   
 11   7   9  1   
 12   7  25  1   
 13   7  26  1   
 14   8  10  1   
 15   8  11  1   
 16   9  12  1   
 17  10  13  1   
 18  10  27  1   
 19  10  28  1   
 20  11  14  1   
 21  11  29  1   
 22  11  30  1   
 23  12  31  1   
 24  12  32  1   
 25  12  33  1   
 26  13  14  1   
 27  13  15  1   
 28  13  34  1   
 29  14  16  1   
 30  14  35  1   
 31  15  36  1   
 32  16  17  1   
 33  16  37  1   
 34  16  38  1   
 35  17  18  2   
 36  17  19  1   
 37  18  20  1   
 38  19  21  2   
 39  19  39  1   
 40  20  21  1   
 41  20  40  1   
 42  21  22  1   
 43  22  41  1   
 44  22  42  1   
 45  22  43  1   
@<TRIPOS>SUBSTRUCTURE
  1 ****   8 GROUP 4 **** **** 0

# MOE 2024.06 (io_trps.svl 2023.06)
