@<TRIPOS>MOLECULE
NONAME
28 30 1 0 0 
SMALL
USER_CHARGES


@<TRIPOS>ATOM
  1 O       -0.7440     0.0440     1.1930 O.2   1 <1>  -0.5700 
  2 C       -1.8450    -0.3110     0.8010 C.2   1 <1>   0.6160 
  3 N       -2.8420     0.6160     0.7170 N.am  1 <1>  -0.5390 
  4 C       -2.1470    -1.6460     0.4180 C.2   1 <1>  -0.1360 
  5 C       -4.1040     0.2910     0.2780 C.2   1 <1>  -0.0290 
  6 C       -3.3930    -1.9860    -0.0130 C.2   1 <1>  -0.1500 
  7 C       -4.4020    -0.9870    -0.0780 C.2   1 <1>  -0.1380 
  8 C       -5.1430     1.3860     0.1930 C.3   1 <1>  -0.0220 
  9 C       -5.8150    -1.3570    -0.5460 C.3   1 <1>  -0.0220 
 10 C       -6.3400     0.8710    -0.6210 C.3   1 <1>  -0.1600 
 11 C       -6.9620    -0.4220     0.0470 C.3   1 <1>   0.5600 
 12 O       -7.9270     0.4030     0.6600 O.3   1 <1>  -0.5600 
 13 O       -7.5840    -1.5580     0.5980 O.3   1 <1>  -0.5600 
 14 C       -9.2000    -0.0660     0.4230 C.3   1 <1>   0.1200 
 15 C       -8.9430    -1.5350     0.3740 C.3   1 <1>   0.1200 
 16 H       -2.5830     1.5580     1.0090 H     1 <1>   0.3700 
 17 H       -1.3460    -2.3560     0.4910 H     1 <1>   0.1500 
 18 H       -3.6320    -2.9950    -0.3020 H     1 <1>   0.1500 
 19 H       -4.7250     2.2510    -0.2910 H     1 <1>   0.0800 
 20 H       -5.4610     1.6620     1.1840 H     1 <1>   0.0800 
 21 H       -5.9140    -2.4070    -0.3090 H     1 <1>   0.0800 
 22 H       -5.8390    -1.3510    -1.6200 H     1 <1>   0.0800 
 23 H       -6.0110     0.7120    -1.6330 H     1 <1>   0.0800 
 24 H       -7.0270     1.6970    -0.7390 H     1 <1>   0.0800 
 25 H       -9.5600     0.3190    -0.5150 H     1 <1>   0.0800 
 26 H       -9.8420     0.2190     1.2370 H     1 <1>   0.0800 
 27 H       -9.4440    -2.0730     1.1580 H     1 <1>   0.0800 
 28 H       -9.1590    -1.9560    -0.5920 H     1 <1>   0.0800 
@<TRIPOS>BOND
  1   1   2  2   
  2   2   3  am  
  3   2   4  1   
  4   3   5  1   
  5   3  16  1   
  6   4   6  2   
  7   4  17  1   
  8   5   7  2   
  9   5   8  1   
 10   6   7  1   
 11   6  18  1   
 12   7   9  1   
 13   8  10  1   
 14   8  19  1   
 15   8  20  1   
 16   9  11  1   
 17   9  21  1   
 18   9  22  1   
 19  10  11  1   
 20  10  23  1   
 21  10  24  1   
 22  11  12  1   
 23  11  13  1   
 24  12  14  1   
 25  13  15  1   
 26  14  15  1   
 27  14  25  1   
 28  14  26  1   
 29  15  27  1   
 30  15  28  1   
@<TRIPOS>SUBSTRUCTURE
  1 ****   7 GROUP 4 **** **** 0

# MOE 2024.06 (io_trps.svl 2023.06)
