@<TRIPOS>MOLECULE
NONAME
53 54 1 0 0 
SMALL
USER_CHARGES


@<TRIPOS>ATOM
  1 O       -0.4730     1.1330    -1.5720 O.2   1 <1>  -0.5700 
  2 C       -0.6400     2.3180    -1.4080 C.2   1 <1>   0.5690 
  3 N       -1.3230     2.8500    -0.3420 N.am  1 <1>  -0.6600 
  4 C       -0.0510     3.2640    -2.4510 C.3   1 <1>   0.1810 
  5 C       -1.4520     4.3390    -0.1900 C.3   1 <1>   0.3640 
  6 C       -1.8690     2.0600     0.7970 C.3   1 <1>   0.2200 
  7 O        0.3820     4.4640    -1.8700 O.3   1 <1>  -0.5600 
  8 C       -2.9240     4.7510    -0.2400 C.ar  1 <1>  -0.1440 
  9 C       -0.6460     5.1840    -1.2130 C.3   1 <1>   0.2610 
 10 C       -0.7270     1.4130     1.5790 C.3   1 <1>  -0.2400 
 11 C       -2.8950     1.0280     0.3260 C.3   1 <1>  -0.2400 
 12 C       -3.3980     5.7060     0.6490 C.ar  1 <1>  -0.1500 
 13 C       -3.8000     4.2010    -1.1670 C.ar  1 <1>  -0.1500 
 14 C       -0.1070     6.4320    -0.4990 C.2   1 <1>   0.5690 
 15 C       -4.7250     6.0980     0.6170 C.ar  1 <1>  -0.1500 
 16 C       -5.1280     4.5920    -1.1990 C.ar  1 <1>  -0.1500 
 17 O       -0.7000     7.4670    -0.7030 O.2   1 <1>  -0.5700 
 18 N        0.9680     6.3990     0.3690 N.am  1 <1>  -0.6600 
 19 C       -5.5910     5.5400    -0.3050 C.ar  1 <1>  -0.1500 
 20 C        1.4110     7.6520     1.0590 C.3   1 <1>   0.1400 
 21 C        1.7660     5.1830     0.7030 C.3   1 <1>   0.1400 
 22 C        2.0920     8.6110     0.0810 C.3   1 <1>   0.1200 
 23 C        3.0940     5.2060    -0.0490 C.3   1 <1>  -0.2400 
 24 O        2.7170     9.6180     0.8150 O.3   1 <1>  -0.5600 
 25 C        3.3150    10.5940     0.0260 C.3   1 <1>   0.0400 
 26 H       -0.7840     3.4850    -3.2050 H     1 <1>   0.0800 
 27 H        0.8000     2.7990    -2.9140 H     1 <1>   0.0800 
 28 H       -1.0830     4.5810     0.7910 H     1 <1>   0.0800 
 29 H       -2.3830     2.7300     1.4660 H     1 <1>   0.0800 
 30 H       -1.3170     5.5230    -1.9820 H     1 <1>   0.0800 
 31 H       -0.2180     0.6810     0.9780 H     1 <1>   0.0800 
 32 H       -1.1170     0.9170     2.4490 H     1 <1>   0.0800 
 33 H       -0.0240     2.1600     1.9000 H     1 <1>   0.0800 
 34 H       -2.4350     0.2650    -0.2760 H     1 <1>   0.0800 
 35 H       -3.6730     1.5070    -0.2390 H     1 <1>   0.0800 
 36 H       -3.3440     0.5510     1.1770 H     1 <1>   0.0800 
 37 H       -2.7390     6.1600     1.3690 H     1 <1>   0.1500 
 38 H       -3.4570     3.4610    -1.8690 H     1 <1>   0.1500 
 39 H       -5.0820     6.8410     1.3090 H     1 <1>   0.1500 
 40 H       -5.8000     4.1580    -1.9180 H     1 <1>   0.1500 
 41 H       -6.6230     5.8460    -0.3300 H     1 <1>   0.1500 
 42 H        0.5540     8.1420     1.4890 H     1 <1>   0.0800 
 43 H        2.0980     7.4100     1.8500 H     1 <1>   0.0800 
 44 H        1.9480     5.1520     1.7640 H     1 <1>   0.0800 
 45 H        1.2310     4.2880     0.4440 H     1 <1>   0.0800 
 46 H        1.3610     9.0570    -0.5710 H     1 <1>   0.0800 
 47 H        2.8400     8.0960    -0.4940 H     1 <1>   0.0800 
 48 H        3.7050     6.0270     0.2800 H     1 <1>   0.0800 
 49 H        2.9200     5.2850    -1.1070 H     1 <1>   0.0800 
 50 H        3.6290     4.2920     0.1390 H     1 <1>   0.0800 
 51 H        3.7710    11.3180     0.6780 H     1 <1>   0.0800 
 52 H        2.5630    11.0720    -0.5780 H     1 <1>   0.0800 
 53 H        4.0680    10.1390    -0.5940 H     1 <1>   0.0800 
@<TRIPOS>BOND
  1   1   2  2   
  2   2   3  am  
  3   2   4  1   
  4   3   5  1   
  5   3   6  1   
  6   4   7  1   
  7   4  26  1   
  8   4  27  1   
  9   5   8  1   
 10   5   9  1   
 11   5  28  1   
 12   6  10  1   
 13   6  11  1   
 14   6  29  1   
 15   7   9  1   
 16   8  12  ar  
 17   8  13  ar  
 18   9  14  1   
 19   9  30  1   
 20  10  31  1   
 21  10  32  1   
 22  10  33  1   
 23  11  34  1   
 24  11  35  1   
 25  11  36  1   
 26  12  15  ar  
 27  12  37  1   
 28  13  16  ar  
 29  13  38  1   
 30  14  17  2   
 31  14  18  am  
 32  15  19  ar  
 33  15  39  1   
 34  16  19  ar  
 35  16  40  1   
 36  18  20  1   
 37  18  21  1   
 38  19  41  1   
 39  20  22  1   
 40  20  42  1   
 41  20  43  1   
 42  21  23  1   
 43  21  44  1   
 44  21  45  1   
 45  22  24  1   
 46  22  46  1   
 47  22  47  1   
 48  23  48  1   
 49  23  49  1   
 50  23  50  1   
 51  24  25  1   
 52  25  51  1   
 53  25  52  1   
 54  25  53  1   
@<TRIPOS>SUBSTRUCTURE
  1 ****   5 GROUP 4 **** **** 0

# MOE 2024.06 (io_trps.svl 2023.06)
