@<TRIPOS>MOLECULE
NONAME
44 47 1 0 0 
SMALL
USER_CHARGES


@<TRIPOS>ATOM
  1 S        1.2620    -0.2790     1.3750 S.3   1 <1>  -0.0800 
  2 C        1.8840     1.1000     0.4920 C.ar  1 <1>   0.0400 
  3 C        1.6970    -1.3160     0.0220 C.2   1 <1>   0.2280 
  4 C        2.3530     0.6480    -0.7270 C.ar  1 <1>   0.2270 
  5 C        1.9260     2.4230     0.8830 C.ar  1 <1>  -0.1500 
  6 N        2.2360    -0.7180    -0.9620 N.2   1 <1>  -0.5650 
  7 C        2.8890     1.5820    -1.6010 C.ar  1 <1>  -0.1500 
  8 C        2.4730     3.3670     0.0150 C.ar  1 <1>   0.0860 
  9 C        2.9420     2.9160    -1.2310 C.ar  1 <1>  -0.1500 
 10 C        2.5350     4.7680     0.3900 C.2   1 <1>   0.5440 
 11 O        1.5590     5.2830     0.9050 O.2   1 <1>  -0.5700 
 12 N        3.6620     5.5390     0.1910 N.am  1 <1>  -0.6600 
 13 C        5.0280     4.9310     0.0910 C.3   1 <1>   0.1400 
 14 C        3.5320     7.0240     0.2130 C.3   1 <1>   0.1400 
 15 C        6.0890     5.6410     0.9450 C.3   1 <1>   0.1100 
 16 C        4.5980     7.7540    -0.6100 C.3   1 <1>  -0.1600 
 17 N        6.7320     6.7460     0.2080 N.3   1 <1>  -0.8100 
 18 C        5.9100     7.9640     0.1500 C.3   1 <1>   0.1100 
 19 C        8.0820     7.0410     0.7590 C.3   1 <1>   0.2900 
 20 C        8.9520     7.9750    -0.0870 C.2   1 <1>   0.2980 
 21 O        9.9310     8.6000     0.4880 O.3   1 <1>  -0.2800 
 22 N        8.8770     8.2540    -1.3360 N.2   1 <1>  -0.3380 
 23 C       10.4620     9.2880    -0.4680 C.2   1 <1>   0.2980 
 24 N        9.8650     9.1160    -1.5830 N.2   1 <1>  -0.3380 
 25 C       11.6580    10.1690    -0.1920 C.3   1 <1>  -0.0600 
 26 H        1.4770    -2.3640     0.1280 H     1 <1>   0.1500 
 27 H        1.5390     2.7260     1.8400 H     1 <1>   0.1500 
 28 H        3.2520     1.2490    -2.5570 H     1 <1>   0.1500 
 29 H        3.3480     3.6380    -1.9190 H     1 <1>   0.1500 
 30 H        5.3480     4.9230    -0.9370 H     1 <1>   0.0800 
 31 H        4.9780     3.9110     0.4270 H     1 <1>   0.0800 
 32 H        3.5520     7.3640     1.2340 H     1 <1>   0.0800 
 33 H        2.5660     7.2820    -0.1900 H     1 <1>   0.0800 
 34 H        6.8380     4.9030     1.1770 H     1 <1>   0.0800 
 35 H        5.6640     5.9830     1.8730 H     1 <1>   0.0800 
 36 H        4.2090     8.7310    -0.8300 H     1 <1>   0.0800 
 37 H        4.7710     7.2650    -1.5520 H     1 <1>   0.0800 
 38 H        5.7090     8.3250     1.1450 H     1 <1>   0.0800 
 39 H        6.4570     8.7310    -0.3710 H     1 <1>   0.0800 
 40 H        8.6290     6.1210     0.8620 H     1 <1>   0.0800 
 41 H        7.9740     7.4710     1.7390 H     1 <1>   0.0800 
 42 H       11.4010    10.9080     0.5430 H     1 <1>   0.0800 
 43 H       11.9630    10.6620    -1.0960 H     1 <1>   0.0800 
 44 H       12.4710     9.5700     0.1740 H     1 <1>   0.0800 
@<TRIPOS>BOND
  1   1   2  1   
  2   1   3  1   
  3   2   4  ar  
  4   2   5  ar  
  5   3   6  2   
  6   3  26  1   
  7   4   6  1   
  8   4   7  ar  
  9   5   8  ar  
 10   5  27  1   
 11   7   9  ar  
 12   7  28  1   
 13   8   9  ar  
 14   8  10  1   
 15   9  29  1   
 16  10  11  2   
 17  10  12  am  
 18  12  13  1   
 19  12  14  1   
 20  13  15  1   
 21  13  30  1   
 22  13  31  1   
 23  14  16  1   
 24  14  32  1   
 25  14  33  1   
 26  15  17  1   
 27  15  34  1   
 28  15  35  1   
 29  16  18  1   
 30  16  36  1   
 31  16  37  1   
 32  17  18  1   
 33  17  19  1   
 34  18  38  1   
 35  18  39  1   
 36  19  20  1   
 37  19  40  1   
 38  19  41  1   
 39  20  21  1   
 40  20  22  2   
 41  21  23  1   
 42  22  24  1   
 43  23  24  2   
 44  23  25  1   
 45  25  42  1   
 46  25  43  1   
 47  25  44  1   
@<TRIPOS>SUBSTRUCTURE
  1 ****  13 GROUP 4 **** **** 0

# MOE 2024.06 (io_trps.svl 2023.06)
