@<TRIPOS>MOLECULE
NONAME
54 57 1 0 0 
SMALL
USER_CHARGES


@<TRIPOS>ATOM
  1 O        1.6790     0.5850     2.7880 O.3   1 <1>  -0.6800 
  2 C        1.9320    -0.1410     1.6330 C.3   1 <1>   0.2000 
  3 C        3.3130    -0.7870     1.7850 C.3   1 <1>  -0.0800 
  4 C        2.0620     0.8650     0.4800 C.3   1 <1>   0.3430 
  5 C        4.2460     0.3030     1.2610 C.3   1 <1>   0.3430 
  6 C        3.4610    -2.1310     1.0270 C.3   1 <1>  -0.0160 
  7 N        3.5110     0.9240     0.1300 N.4   1 <1>  -0.9590 
  8 C        3.7230    -2.0190    -0.4720 C.ar  1 <1>   0.1670 
  9 C        3.9990     2.2540    -0.2780 C.3   1 <1>   0.5240 
 10 N        2.7310    -1.5570    -1.2210 N.ar  1 <1>  -0.6200 
 11 C        4.9630    -2.3820    -0.9750 C.ar  1 <1>  -0.1500 
 12 C        4.9600     2.0750    -1.4320 C.2   1 <1>  -0.1810 
 13 C        2.9760    -1.4830    -2.5220 C.ar  1 <1>   0.1600 
 14 C        5.2130    -2.2730    -2.3260 C.ar  1 <1>  -0.1500 
 15 C        6.2890     1.6440    -1.3430 C.2   1 <1>   0.2350 
 16 C        4.7380     2.2850    -2.7470 C.2   1 <1>  -0.3020 
 17 C        4.1820    -1.8130    -3.1140 C.ar  1 <1>  -0.1500 
 18 N        6.8330     1.5800    -2.5290 N.2   1 <1>  -0.7070 
 19 C        6.9680     1.2700    -0.1210 C.ar  1 <1>   0.0540 
 20 N        5.8850     1.9850    -3.3850 N.pl3 1 <1>   0.3000 
 21 C        7.1950     2.1480     0.9460 C.ar  1 <1>  -0.1430 
 22 C        7.3840    -0.0520     0.0170 C.ar  1 <1>  -0.1500 
 23 C        7.7330     1.6700     2.1290 C.ar  1 <1>  -0.1500 
 24 C        6.9120     3.6430     0.8540 C.3   1 <1>  -0.0970 
 25 C        7.9280    -0.5280     1.1960 C.ar  1 <1>  -0.1430 
 26 C        8.0870     0.3390     2.2600 C.ar  1 <1>  -0.1500 
 27 C        8.3650    -1.9760     1.3260 C.3   1 <1>  -0.0970 
 28 H        1.3940    -0.0010     3.5210 H     1 <1>   0.4000 
 29 H        1.1280    -0.8400     1.4780 H     1 <1>   0.0800 
 30 H        3.5230    -0.9790     2.8230 H     1 <1>   0.0800 
 31 H        1.6940     1.8260     0.7990 H     1 <1>   0.0800 
 32 H        1.4970     0.5230    -0.3720 H     1 <1>   0.0800 
 33 H        5.1900    -0.1090     0.9500 H     1 <1>   0.0800 
 34 H        4.4120     1.0350     2.0350 H     1 <1>   0.0800 
 35 H        2.5820    -2.7330     1.1780 H     1 <1>   0.0800 
 36 H        4.2770    -2.6730     1.4710 H     1 <1>   0.0800 
 37 H        3.6230     0.2820    -0.6790 H     1 <1>   0.4500 
 38 H        3.1730     2.8600    -0.6100 H     1 <1>   0.0800 
 39 H        4.4780     2.7490     0.5480 H     1 <1>   0.0800 
 40 H        5.7350    -2.7520    -0.3250 H     1 <1>   0.1500 
 41 H        2.1740    -1.1400    -3.1550 H     1 <1>   0.1500 
 42 H        6.1670    -2.5410    -2.7490 H     1 <1>   0.1500 
 43 H        3.8580     2.6230    -3.2660 H     1 <1>   0.1500 
 44 H        4.3090    -1.7200    -4.1780 H     1 <1>   0.1500 
 45 H        6.0550     2.0470    -4.3980 H     1 <1>   0.2700 
 46 H        7.2720    -0.7070    -0.8290 H     1 <1>   0.1500 
 47 H        7.8990     2.3370     2.9580 H     1 <1>   0.1500 
 48 H        7.7470     4.1900     1.2560 H     1 <1>   0.0800 
 49 H        6.0380     3.9000     1.4220 H     1 <1>   0.0800 
 50 H        6.7850     3.9620    -0.1650 H     1 <1>   0.0800 
 51 H        8.5090    -0.0110     3.1870 H     1 <1>   0.1500 
 52 H        9.3550    -2.0230     1.7460 H     1 <1>   0.0800 
 53 H        8.3870    -2.4590     0.3650 H     1 <1>   0.0800 
 54 H        7.6910    -2.5110     1.9700 H     1 <1>   0.0800 
@<TRIPOS>BOND
  1   1   2  1   
  2   1  28  1   
  3   2   3  1   
  4   2   4  1   
  5   2  29  1   
  6   3   5  1   
  7   3   6  1   
  8   3  30  1   
  9   4   7  1   
 10   4  31  1   
 11   4  32  1   
 12   5   7  1   
 13   5  33  1   
 14   5  34  1   
 15   6   8  1   
 16   6  35  1   
 17   6  36  1   
 18   7   9  1   
 19   7  37  1   
 20   8  10  ar  
 21   8  11  ar  
 22   9  12  1   
 23   9  38  1   
 24   9  39  1   
 25  10  13  ar  
 26  11  14  ar  
 27  11  40  1   
 28  12  15  1   
 29  12  16  2   
 30  13  17  ar  
 31  13  41  1   
 32  14  17  ar  
 33  14  42  1   
 34  15  18  2   
 35  15  19  1   
 36  16  20  1   
 37  16  43  1   
 38  17  44  1   
 39  18  20  1   
 40  19  21  ar  
 41  19  22  ar  
 42  20  45  1   
 43  21  23  ar  
 44  21  24  1   
 45  22  25  ar  
 46  22  46  1   
 47  23  26  ar  
 48  23  47  1   
 49  24  48  1   
 50  24  49  1   
 51  24  50  1   
 52  25  26  ar  
 53  25  27  1   
 54  26  51  1   
 55  27  52  1   
 56  27  53  1   
 57  27  54  1   
@<TRIPOS>SUBSTRUCTURE
  1 ****   5 GROUP 4 **** **** 0

# MOE 2024.06 (io_trps.svl 2023.06)
