@<TRIPOS>MOLECULE
NONAME
39 40 1 0 0 
SMALL
USER_CHARGES


@<TRIPOS>ATOM
  1 O        1.1280    -0.9440    -0.3850 O.3   1 <1>  -0.5600 
  2 C        0.0710    -1.3590     0.4060 C.3   1 <1>   0.1200 
  3 C        2.3040    -1.5500     0.0530 C.3   1 <1>   0.1200 
  4 C        0.3480    -2.8430     0.6000 C.3   1 <1>  -0.0800 
  5 C        1.8620    -2.8120     0.7950 C.3   1 <1>  -0.1600 
  6 C       -0.0050    -3.6200    -0.6790 C.3   1 <1>   0.3430 
  7 N       -1.3600    -4.2420    -0.6200 N.4   1 <1>  -0.9590 
  8 C       -1.5330    -5.2340    -1.7190 C.3   1 <1>   0.5240 
  9 C       -2.4950    -3.2670    -0.5210 C.3   1 <1>   0.3430 
 10 C       -2.2150    -6.4560    -1.1140 C.2   1 <1>   0.0460 
 11 C       -3.8350    -3.9200    -0.1460 C.3   1 <1>   0.1200 
 12 N       -2.0250    -6.7590     0.1900 N.2   1 <1>  -0.5650 
 13 C       -3.0490    -7.3450    -1.6970 C.2   1 <1>  -0.3020 
 14 O       -4.7630    -2.9080     0.0210 O.3   1 <1>  -0.6800 
 15 C       -2.7330    -7.8270     0.3680 C.2   1 <1>   0.0060 
 16 N       -3.3830    -8.2360    -0.7440 N.pl3 1 <1>   0.0330 
 17 C       -2.8340    -8.5650     1.6870 C.3   1 <1>  -0.0600 
 18 H       -0.8510    -1.1340    -0.0990 H     1 <1>   0.0800 
 19 H        0.1180    -0.8210     1.3390 H     1 <1>   0.0800 
 20 H        2.8200    -0.8650     0.7050 H     1 <1>   0.0800 
 21 H        2.9130    -1.7700    -0.8070 H     1 <1>   0.0800 
 22 H       -0.1470    -3.2540     1.4630 H     1 <1>   0.0800 
 23 H        2.1020    -2.7000     1.8390 H     1 <1>   0.0800 
 24 H        2.3650    -3.6890     0.4260 H     1 <1>   0.0800 
 25 H        0.7240    -4.4030    -0.8050 H     1 <1>   0.0800 
 26 H        0.0730    -2.9610    -1.5300 H     1 <1>   0.0800 
 27 H       -1.4010    -4.8650     0.2120 H     1 <1>   0.4500 
 28 H       -0.5720    -5.5390    -2.0960 H     1 <1>   0.0800 
 29 H       -2.1170    -4.8280    -2.5280 H     1 <1>   0.0800 
 30 H       -2.6080    -2.7410    -1.4550 H     1 <1>   0.0800 
 31 H       -2.2740    -2.5460     0.2460 H     1 <1>   0.0800 
 32 H       -3.7540    -4.4580     0.7830 H     1 <1>   0.0800 
 33 H       -4.1920    -4.5700    -0.9250 H     1 <1>   0.0800 
 34 H       -3.4170    -7.4060    -2.7070 H     1 <1>   0.1500 
 35 H       -5.6360    -3.2620     0.2960 H     1 <1>   0.4000 
 36 H       -3.9900    -9.0580    -0.8340 H     1 <1>   0.2700 
 37 H       -2.2400    -8.0690     2.4330 H     1 <1>   0.0800 
 38 H       -2.4730    -9.5710     1.5760 H     1 <1>   0.0800 
 39 H       -3.8550    -8.5910     2.0220 H     1 <1>   0.0800 
@<TRIPOS>BOND
  1   1   2  1   
  2   1   3  1   
  3   2   4  1   
  4   2  18  1   
  5   2  19  1   
  6   3   5  1   
  7   3  20  1   
  8   3  21  1   
  9   4   5  1   
 10   4   6  1   
 11   4  22  1   
 12   5  23  1   
 13   5  24  1   
 14   6   7  1   
 15   6  25  1   
 16   6  26  1   
 17   7   8  1   
 18   7   9  1   
 19   7  27  1   
 20   8  10  1   
 21   8  28  1   
 22   8  29  1   
 23   9  11  1   
 24   9  30  1   
 25   9  31  1   
 26  10  12  1   
 27  10  13  2   
 28  11  14  1   
 29  11  32  1   
 30  11  33  1   
 31  12  15  2   
 32  13  16  1   
 33  13  34  1   
 34  14  35  1   
 35  15  16  1   
 36  15  17  1   
 37  16  36  1   
 38  17  37  1   
 39  17  38  1   
 40  17  39  1   
@<TRIPOS>SUBSTRUCTURE
  1 ****   7 GROUP 4 **** **** 0

# MOE 2024.06 (io_trps.svl 2023.06)
