@<TRIPOS>MOLECULE
NONAME
42 43 1 0 0 
SMALL
USER_CHARGES


@<TRIPOS>ATOM
  1 S        2.6720     0.9180    -2.8240 S.3   1 <1>  -0.0800 
  2 C        2.5490     1.5390    -1.1980 C.2   1 <1>  -0.1400 
  3 C        2.9160    -0.6830    -2.1820 C.2   1 <1>   0.2280 
  4 C        2.6950     0.5030    -0.3430 C.2   1 <1>   0.0460 
  5 C        2.3150     3.0460    -1.1500 C.3   1 <1>   0.0200 
  6 N        2.9030    -0.7420    -0.9130 N.2   1 <1>  -0.5650 
  7 C        2.6680     0.4690     1.1730 C.3   1 <1>  -0.0590 
  8 C        2.3290     3.6580     0.2530 C.3   1 <1>   0.1100 
  9 N        2.2650     5.1310     0.2040 N.3   1 <1>  -0.8100 
 10 C        2.7180     5.7220     1.5040 C.3   1 <1>   0.1710 
 11 C        0.9070     5.6050    -0.1290 C.3   1 <1>   0.0300 
 12 C        3.0980     7.2020     1.4200 C.2   1 <1>   0.5690 
 13 O        3.0990     7.8640     2.4300 O.2   1 <1>  -0.5700 
 14 N        3.4160     7.6810     0.1810 N.am  1 <1>  -0.5470 
 15 C        3.7970     8.9470    -0.3040 C.ar  1 <1>   0.1170 
 16 C        3.8550     9.1800    -1.6770 C.ar  1 <1>   0.1900 
 17 C        4.1370    10.0130     0.5260 C.ar  1 <1>  -0.1500 
 18 F        3.5460     8.2060    -2.4990 F     1 <1>  -0.1900 
 19 C        4.2220    10.3940    -2.2220 C.ar  1 <1>  -0.1500 
 20 C        4.5070    11.2440     0.0040 C.ar  1 <1>  -0.1440 
 21 C        4.5510    11.4330    -1.3700 C.ar  1 <1>  -0.1500 
 22 C        4.8700    12.3860     0.9370 C.3   1 <1>  -0.0970 
 23 H        3.0550    -1.4820    -2.8880 H     1 <1>   0.1500 
 24 H        1.3710     3.2460    -1.6210 H     1 <1>   0.0800 
 25 H        3.0860     3.5230    -1.7290 H     1 <1>   0.0800 
 26 H        2.4460     1.4190     1.6070 H     1 <1>   0.0800 
 27 H        3.6240     0.1370     1.5370 H     1 <1>   0.0800 
 28 H        1.9210    -0.2330     1.4960 H     1 <1>   0.0800 
 29 H        3.2520     3.3640     0.7230 H     1 <1>   0.0800 
 30 H        1.5070     3.2740     0.8340 H     1 <1>   0.0800 
 31 H        3.5950     5.2030     1.8470 H     1 <1>   0.0800 
 32 H        1.9520     5.6010     2.2500 H     1 <1>   0.0800 
 33 H        0.6240     5.2760    -1.1130 H     1 <1>   0.0800 
 34 H        0.8700     6.6810    -0.1220 H     1 <1>   0.0800 
 35 H        0.1900     5.2330     0.5840 H     1 <1>   0.0800 
 36 H        3.2730     6.9640    -0.5400 H     1 <1>   0.3700 
 37 H        4.1140     9.8820     1.5920 H     1 <1>   0.1500 
 38 H        4.2510    10.5210    -3.2890 H     1 <1>   0.1500 
 39 H        4.8410    12.3870    -1.7770 H     1 <1>   0.1500 
 40 H        4.4190    12.2440     1.9030 H     1 <1>   0.0800 
 41 H        4.5220    13.3210     0.5360 H     1 <1>   0.0800 
 42 H        5.9370    12.4330     1.0560 H     1 <1>   0.0800 
@<TRIPOS>BOND
  1   1   2  1   
  2   1   3  1   
  3   2   4  2   
  4   2   5  1   
  5   3   6  2   
  6   3  23  1   
  7   4   6  1   
  8   4   7  1   
  9   5   8  1   
 10   5  24  1   
 11   5  25  1   
 12   7  26  1   
 13   7  27  1   
 14   7  28  1   
 15   8   9  1   
 16   8  29  1   
 17   8  30  1   
 18   9  10  1   
 19   9  11  1   
 20  10  12  1   
 21  10  31  1   
 22  10  32  1   
 23  11  33  1   
 24  11  34  1   
 25  11  35  1   
 26  12  13  2   
 27  12  14  am  
 28  14  15  1   
 29  14  36  1   
 30  15  16  ar  
 31  15  17  ar  
 32  16  18  1   
 33  16  19  ar  
 34  17  20  ar  
 35  17  37  1   
 36  19  21  ar  
 37  19  38  1   
 38  20  21  ar  
 39  20  22  1   
 40  21  39  1   
 41  22  40  1   
 42  22  41  1   
 43  22  42  1   
@<TRIPOS>SUBSTRUCTURE
  1 ****   9 GROUP 4 **** **** 0

# MOE 2024.06 (io_trps.svl 2023.06)
