@<TRIPOS>MOLECULE
NONAME
44 45 1 0 0 
SMALL
USER_CHARGES


@<TRIPOS>ATOM
  1 S        0.6270     1.2420    -0.8980 S.o2  1 <1>   1.3330 
  2 O        1.1730    -0.0750    -1.1290 O.2   1 <1>  -0.6500 
  3 O        0.0830     1.9790    -2.0170 O.2   1 <1>  -0.6500 
  4 N        1.8780     2.1760    -0.2370 N.am  1 <1>  -0.8490 
  5 C       -0.6550     1.0980     0.3630 C.3   1 <1>  -0.0550 
  6 C        2.6500     1.4830     0.8000 C.3   1 <1>   0.1160 
  7 C        2.7880     2.6650    -1.2770 C.3   1 <1>   0.1160 
  8 C       -1.3370     2.3620     0.9520 C.3   1 <1>  -0.0800 
  9 C       -1.7290     3.4330    -0.0700 C.3   1 <1>   0.2000 
 10 C       -0.4740     3.1090     1.9740 C.3   1 <1>   0.1400 
 11 O       -2.8570     4.0760     0.4190 O.3   1 <1>  -0.6800 
 12 C       -0.5750     4.4380    -0.0620 C.3   1 <1>   0.1400 
 13 N        0.0540     4.3130     1.2840 N.am  1 <1>  -0.6600 
 14 C        1.3050     4.8100     1.5950 C.2   1 <1>   0.6160 
 15 O        1.8930     4.3400     2.5550 O.2   1 <1>  -0.5700 
 16 C        1.9500     5.8420     0.8160 C.2   1 <1>   0.0140 
 17 C        3.2800     5.7540     0.4870 C.2   1 <1>  -0.0410 
 18 C        1.2450     7.0030     0.3720 C.2   1 <1>  -0.1500 
 19 N        3.9250     6.6930    -0.2810 N.am  1 <1>  -0.4690 
 20 C        1.8730     7.9380    -0.3890 C.2   1 <1>  -0.1360 
 21 C        3.2400     7.8030    -0.7540 C.2   1 <1>   0.6160 
 22 C        5.3690     6.5470    -0.5970 C.3   1 <1>   0.0600 
 23 O        3.8000     8.6320    -1.4580 O.2   1 <1>  -0.5700 
 24 H       -1.4380     0.5040    -0.0690 H     1 <1>   0.0800 
 25 H       -0.2650     0.5210     1.1780 H     1 <1>   0.0800 
 26 H        3.3610     2.1600     1.2430 H     1 <1>   0.0800 
 27 H        3.1770     0.6410     0.3810 H     1 <1>   0.0800 
 28 H        1.9990     1.1300     1.5800 H     1 <1>   0.0800 
 29 H        3.5800     3.2480    -0.8420 H     1 <1>   0.0800 
 30 H        2.2530     3.2890    -1.9730 H     1 <1>   0.0800 
 31 H        3.2170     1.8360    -1.8170 H     1 <1>   0.0800 
 32 H       -2.2190     2.0060     1.4560 H     1 <1>   0.0800 
 33 H       -1.9630     3.0520    -1.0490 H     1 <1>   0.0800 
 34 H        0.3230     2.4900     2.3490 H     1 <1>   0.0800 
 35 H       -1.0770     3.4310     2.8060 H     1 <1>   0.0800 
 36 H       -2.6240     4.5540     1.2400 H     1 <1>   0.4000 
 37 H       -0.9380     5.4330    -0.2460 H     1 <1>   0.0800 
 38 H        0.1480     4.1880    -0.8180 H     1 <1>   0.0800 
 39 H        3.8560     4.9150     0.8400 H     1 <1>   0.1500 
 40 H        0.2170     7.1180     0.6650 H     1 <1>   0.1500 
 41 H        1.3760     8.8210    -0.7430 H     1 <1>   0.1500 
 42 H        5.7700     5.6590    -0.1420 H     1 <1>   0.0800 
 43 H        5.9050     7.4040    -0.2270 H     1 <1>   0.0800 
 44 H        5.4990     6.4900    -1.6640 H     1 <1>   0.0800 
@<TRIPOS>BOND
  1   1   2  2   
  2   1   3  2   
  3   1   4  am  
  4   1   5  1   
  5   4   6  1   
  6   4   7  1   
  7   5   8  1   
  8   5  24  1   
  9   5  25  1   
 10   6  26  1   
 11   6  27  1   
 12   6  28  1   
 13   7  29  1   
 14   7  30  1   
 15   7  31  1   
 16   8   9  1   
 17   8  10  1   
 18   8  32  1   
 19   9  11  1   
 20   9  12  1   
 21   9  33  1   
 22  10  13  1   
 23  10  34  1   
 24  10  35  1   
 25  11  36  1   
 26  12  13  1   
 27  12  37  1   
 28  12  38  1   
 29  13  14  am  
 30  14  15  2   
 31  14  16  1   
 32  16  17  2   
 33  16  18  1   
 34  17  19  1   
 35  17  39  1   
 36  18  20  2   
 37  18  40  1   
 38  19  21  am  
 39  19  22  1   
 40  20  21  1   
 41  20  41  1   
 42  21  23  2   
 43  22  42  1   
 44  22  43  1   
 45  22  44  1   
@<TRIPOS>SUBSTRUCTURE
  1 ****  14 GROUP 4 **** **** 0

# MOE 2024.06 (io_trps.svl 2023.06)
