@<TRIPOS>MOLECULE
NONAME
41 42 1 0 0 
SMALL
USER_CHARGES


@<TRIPOS>ATOM
  1 CL      -1.6460    -0.2970    -1.8790 Cl    1 <1>  -0.1770 
  2 C       -2.3740     0.7680    -0.7030 C.ar  1 <1>   0.1770 
  3 C       -2.9450     0.2400     0.4520 C.ar  1 <1>   0.0860 
  4 C       -2.3710     2.1260    -0.9710 C.ar  1 <1>  -0.1500 
  5 C       -3.5280     1.1610     1.3170 C.ar  1 <1>   0.1900 
  6 C       -2.9330    -1.1710     0.7320 C.2   1 <1>   0.5440 
  7 C       -2.9560     3.0110    -0.0780 C.ar  1 <1>  -0.1500 
  8 F       -4.1060     0.7340     2.4050 F     1 <1>  -0.1900 
  9 C       -3.5420     2.5230     1.0770 C.ar  1 <1>  -0.1500 
 10 O       -2.0320    -1.6460     1.3940 O.2   1 <1>  -0.5700 
 11 N       -3.9210    -2.0000     0.2590 N.am  1 <1>  -0.6600 
 12 C       -5.0470    -1.5900    -0.6130 C.3   1 <1>   0.1400 
 13 C       -3.9470    -3.4580     0.5230 C.3   1 <1>   0.1400 
 14 C       -5.6820    -2.9060    -1.0570 C.3   1 <1>   0.2000 
 15 C       -5.3190    -3.9210     0.0230 C.3   1 <1>  -0.0800 
 16 O       -7.0590    -2.8020    -1.1670 O.3   1 <1>  -0.6800 
 17 C       -5.3480    -5.3660    -0.5040 C.3   1 <1>  -0.0550 
 18 S       -5.0660    -6.5910     0.7720 S.o2  1 <1>   1.3330 
 19 O       -3.6870    -6.5220     1.1980 O.2   1 <1>  -0.6500 
 20 O       -6.1260    -6.4620     1.7460 O.2   1 <1>  -0.6500 
 21 N       -5.2800    -8.0570    -0.0580 N.am  1 <1>  -0.8490 
 22 C       -5.7620    -9.1270     0.8200 C.3   1 <1>   0.1160 
 23 C       -4.0780    -8.5020    -0.7720 C.3   1 <1>   0.1160 
 24 H       -1.9130     2.4880    -1.8760 H     1 <1>   0.1500 
 25 H       -2.9540     4.0700    -0.2820 H     1 <1>   0.1500 
 26 H       -4.0050     3.1880     1.7850 H     1 <1>   0.1500 
 27 H       -5.7410    -1.0000    -0.0400 H     1 <1>   0.0800 
 28 H       -4.6890    -1.0350    -1.4620 H     1 <1>   0.0800 
 29 H       -3.1480    -3.9250    -0.0280 H     1 <1>   0.0800 
 30 H       -3.8150    -3.6580     1.5740 H     1 <1>   0.0800 
 31 H       -5.2850    -3.1930    -2.0160 H     1 <1>   0.0800 
 32 H       -6.0060    -3.8270     0.8480 H     1 <1>   0.0800 
 33 H       -7.4610    -2.6210    -0.2950 H     1 <1>   0.4000 
 34 H       -4.6150    -5.4780    -1.2780 H     1 <1>   0.0800 
 35 H       -6.3120    -5.5470    -0.9380 H     1 <1>   0.0800 
 36 H       -5.9020   -10.0360     0.2600 H     1 <1>   0.0800 
 37 H       -6.7100    -8.8510     1.2510 H     1 <1>   0.0800 
 38 H       -5.0580    -9.3040     1.6160 H     1 <1>   0.0800 
 39 H       -4.2970    -9.3840    -1.3500 H     1 <1>   0.0800 
 40 H       -3.2870    -8.7270    -0.0750 H     1 <1>   0.0800 
 41 H       -3.7380    -7.7330    -1.4440 H     1 <1>   0.0800 
@<TRIPOS>BOND
  1   1   2  1   
  2   2   3  ar  
  3   2   4  ar  
  4   3   5  ar  
  5   3   6  1   
  6   4   7  ar  
  7   4  24  1   
  8   5   8  1   
  9   5   9  ar  
 10   6  10  2   
 11   6  11  am  
 12   7   9  ar  
 13   7  25  1   
 14   9  26  1   
 15  11  12  1   
 16  11  13  1   
 17  12  14  1   
 18  12  27  1   
 19  12  28  1   
 20  13  15  1   
 21  13  29  1   
 22  13  30  1   
 23  14  15  1   
 24  14  16  1   
 25  14  31  1   
 26  15  17  1   
 27  15  32  1   
 28  16  33  1   
 29  17  18  1   
 30  17  34  1   
 31  17  35  1   
 32  18  19  2   
 33  18  20  2   
 34  18  21  am  
 35  21  22  1   
 36  21  23  1   
 37  22  36  1   
 38  22  37  1   
 39  22  38  1   
 40  23  39  1   
 41  23  40  1   
 42  23  41  1   
@<TRIPOS>SUBSTRUCTURE
  1 ****  11 GROUP 4 **** **** 0

# MOE 2024.06 (io_trps.svl 2023.06)
