@<TRIPOS>MOLECULE
NONAME
37 38 1 0 0 
SMALL
USER_CHARGES


@<TRIPOS>ATOM
  1 O       -1.9100    -0.3200    -2.2950 O.2   1 <1>  -0.5700 
  2 C       -2.2420     0.0720    -1.2070 C.2   1 <1>   0.4230 
  3 C       -3.3210    -0.5280    -0.4720 C.ar  1 <1>   0.0860 
  4 C       -1.4140     1.1930    -0.6080 C.3   1 <1>  -0.1790 
  5 C       -4.2960     0.1440     0.2660 C.ar  1 <1>   0.1660 
  6 C       -3.4440    -1.9090    -0.4730 C.ar  1 <1>   0.1600 
  7 N       -5.2070    -0.4880     0.9610 N.ar  1 <1>  -0.6200 
  8 C       -4.4020     1.6600     0.3040 C.3   1 <1>  -0.0960 
  9 N       -4.3550    -2.5630     0.2030 N.ar  1 <1>  -0.6200 
 10 C       -5.1860    -1.8100     0.9150 C.ar  1 <1>   0.7200 
 11 N       -6.1310    -2.4190     1.6470 N.pl3 1 <1>  -0.8690 
 12 C       -6.3090    -3.8640     1.8430 C.3   1 <1>   0.3890 
 13 C       -7.2020    -4.3840     0.7440 C.2   1 <1>  -0.3320 
 14 N       -6.8940    -4.2200    -0.5550 N.pl3 1 <1>   0.3000 
 15 C       -8.3700    -5.0620     0.7840 C.2   1 <1>  -0.1500 
 16 N       -7.8210    -4.7750    -1.3620 N.2   1 <1>  -0.7070 
 17 C       -8.7060    -5.2790    -0.5500 C.2   1 <1>   0.1080 
 18 C       -9.9480    -6.0110    -1.0450 C.3   1 <1>   0.3010 
 19 O      -10.6890    -6.5360     0.0240 O.3   1 <1>  -0.5600 
 20 C      -11.8290    -7.2290    -0.3670 C.3   1 <1>   0.0400 
 21 H       -1.5160     1.2180     0.4600 H     1 <1>   0.0800 
 22 H       -1.7160     2.1350    -1.0260 H     1 <1>   0.0800 
 23 H       -0.3780     1.0340    -0.8470 H     1 <1>   0.0800 
 24 H       -2.7450    -2.4840    -1.0590 H     1 <1>   0.1500 
 25 H       -4.1300     2.0900    -0.6430 H     1 <1>   0.0800 
 26 H       -3.7720     2.0550     1.0780 H     1 <1>   0.0800 
 27 H       -5.4160     1.9510     0.5150 H     1 <1>   0.0800 
 28 H       -6.8830    -1.8200     1.9810 H     1 <1>   0.4000 
 29 H       -6.7560    -4.0460     2.8050 H     1 <1>   0.0800 
 30 H       -5.3550    -4.3640     1.8100 H     1 <1>   0.0800 
 31 H       -6.0600    -3.7190    -0.8960 H     1 <1>   0.2700 
 32 H       -8.9480    -5.3880     1.6300 H     1 <1>   0.1500 
 33 H       -9.6480    -6.8190    -1.6870 H     1 <1>   0.0800 
 34 H      -10.5690    -5.3250    -1.5920 H     1 <1>   0.0800 
 35 H      -12.3230    -7.5860     0.5190 H     1 <1>   0.0800 
 36 H      -11.5440    -8.0630    -0.9850 H     1 <1>   0.0800 
 37 H      -12.4840    -6.5640    -0.9030 H     1 <1>   0.0800 
@<TRIPOS>BOND
  1   1   2  2   
  2   2   3  1   
  3   2   4  1   
  4   3   5  ar  
  5   3   6  ar  
  6   4  21  1   
  7   4  22  1   
  8   4  23  1   
  9   5   7  ar  
 10   5   8  1   
 11   6   9  ar  
 12   6  24  1   
 13   7  10  ar  
 14   8  25  1   
 15   8  26  1   
 16   8  27  1   
 17   9  10  ar  
 18  10  11  1   
 19  11  12  1   
 20  11  28  1   
 21  12  13  1   
 22  12  29  1   
 23  12  30  1   
 24  13  14  1   
 25  13  15  2   
 26  14  16  1   
 27  14  31  1   
 28  15  17  1   
 29  15  32  1   
 30  16  17  2   
 31  17  18  1   
 32  18  19  1   
 33  18  33  1   
 34  18  34  1   
 35  19  20  1   
 36  20  35  1   
 37  20  36  1   
 38  20  37  1   
@<TRIPOS>SUBSTRUCTURE
  1 ****  10 GROUP 4 **** **** 0

# MOE 2024.06 (io_trps.svl 2023.06)
