@<TRIPOS>MOLECULE
NONAME
59 62 1 0 0 
SMALL
USER_CHARGES


@<TRIPOS>ATOM
  1 O        1.1650    -1.6020    -2.8090 O.2   1 <1>  -0.5700 
  2 C        1.5480    -1.9690    -1.7250 C.2   1 <1>   0.5690 
  3 N        2.0800    -1.0710    -0.8370 N.am  1 <1>  -0.6600 
  4 C        1.3830    -3.4540    -1.4440 C.3   1 <1>  -0.0990 
  5 C        2.3950    -1.3680     0.5900 C.3   1 <1>   0.1400 
  6 C        2.1690     0.3780    -1.2050 C.3   1 <1>   0.2840 
  7 C        1.9110    -4.0170    -0.1240 C.3   1 <1>   0.1200 
  8 C        3.5080    -2.4370     0.7590 C.3   1 <1>   0.2800 
  9 C        1.0890     1.1780    -0.4940 C.ar  1 <1>   0.1660 
 10 O        3.2430    -3.6320     0.0560 O.3   1 <1>  -0.5600 
 11 C        4.8430    -1.9030     0.1980 C.3   1 <1>  -0.1600 
 12 C        3.7150    -2.8170     2.2360 C.3   1 <1>  -0.1600 
 13 N        1.4260     1.7960     0.6310 N.ar  1 <1>  -0.6200 
 14 C       -0.1880     1.2150    -1.0450 C.ar  1 <1>   0.1600 
 15 C        6.0850    -2.6640     0.6780 C.3   1 <1>   0.3430 
 16 C        4.8310    -3.8550     2.4460 C.3   1 <1>   0.3430 
 17 C        0.4040     2.4580     1.1490 C.ar  1 <1>   0.1600 
 18 N       -1.2070     1.8740    -0.5190 N.ar  1 <1>  -0.6200 
 19 N        5.6670    -3.9820     1.2210 N.4   1 <1>  -0.9590 
 20 C       -0.8740     2.5000     0.5950 C.ar  1 <1>   0.1670 
 21 C        6.7620    -4.9780     1.3230 C.3   1 <1>   0.5240 
 22 C       -1.9820     3.2880     1.2650 C.3   1 <1>  -0.0970 
 23 C        7.3660    -5.1590    -0.0480 C.2   1 <1>  -0.1810 
 24 C        6.7940    -5.5070    -1.2140 C.2   1 <1>  -0.0400 
 25 C        8.7040    -4.9640    -0.3890 C.2   1 <1>   0.1080 
 26 O        7.7220    -5.4930    -2.1300 O.3   1 <1>  -0.0190 
 27 C        5.3800    -5.8780    -1.6230 C.3   1 <1>  -0.0600 
 28 N        8.8810    -5.1630    -1.6430 N.2   1 <1>  -0.4100 
 29 C        9.8310    -4.5730     0.5460 C.3   1 <1>  -0.0590 
 30 H        1.8610    -3.9840    -2.2470 H     1 <1>   0.0800 
 31 H        0.3350    -3.6790    -1.5110 H     1 <1>   0.0800 
 32 H        1.4940    -1.6620     1.0970 H     1 <1>   0.0800 
 33 H        2.7240    -0.4660     1.0770 H     1 <1>   0.0800 
 34 H        2.0690     0.5120    -2.2680 H     1 <1>   0.0800 
 35 H        3.1360     0.7590    -0.9280 H     1 <1>   0.0800 
 36 H        1.8920    -5.0930    -0.1730 H     1 <1>   0.0800 
 37 H        1.3110    -3.7190     0.7170 H     1 <1>   0.0800 
 38 H        4.9710    -0.8730     0.4780 H     1 <1>   0.0800 
 39 H        4.8060    -1.9230    -0.8780 H     1 <1>   0.0800 
 40 H        2.7980    -3.1890     2.6580 H     1 <1>   0.0800 
 41 H        3.9690    -1.9320     2.7920 H     1 <1>   0.0800 
 42 H       -0.3730     0.6720    -1.9570 H     1 <1>   0.1500 
 43 H        6.5890    -2.0980     1.4450 H     1 <1>   0.0800 
 44 H        6.7630    -2.7900    -0.1530 H     1 <1>   0.0800 
 45 H        4.3820    -4.8100     2.6670 H     1 <1>   0.0800 
 46 H        5.4390    -3.5660     3.2880 H     1 <1>   0.0800 
 47 H        0.5880     2.9980     2.0610 H     1 <1>   0.1500 
 48 H        5.0110    -4.3290     0.4970 H     1 <1>   0.4500 
 49 H        6.3750    -5.9230     1.6700 H     1 <1>   0.0800 
 50 H        7.5120    -4.6360     2.0160 H     1 <1>   0.0800 
 51 H       -1.6350     3.7670     2.1610 H     1 <1>   0.0800 
 52 H       -2.7920     2.6270     1.5130 H     1 <1>   0.0800 
 53 H       -2.3470     4.0390     0.5870 H     1 <1>   0.0800 
 54 H        4.7320    -5.9500    -0.7700 H     1 <1>   0.0800 
 55 H        5.3900    -6.8280    -2.1270 H     1 <1>   0.0800 
 56 H        4.9900    -5.1370    -2.2990 H     1 <1>   0.0800 
 57 H        9.6330    -3.6180     0.9950 H     1 <1>   0.0800 
 58 H       10.7520    -4.5040    -0.0060 H     1 <1>   0.0800 
 59 H        9.9510    -5.3160     1.3120 H     1 <1>   0.0800 
@<TRIPOS>BOND
  1   1   2  2   
  2   2   3  am  
  3   2   4  1   
  4   3   5  1   
  5   3   6  1   
  6   4   7  1   
  7   4  30  1   
  8   4  31  1   
  9   5   8  1   
 10   5  32  1   
 11   5  33  1   
 12   6   9  1   
 13   6  34  1   
 14   6  35  1   
 15   7  10  1   
 16   7  36  1   
 17   7  37  1   
 18   8  10  1   
 19   8  11  1   
 20   8  12  1   
 21   9  13  ar  
 22   9  14  ar  
 23  11  15  1   
 24  11  38  1   
 25  11  39  1   
 26  12  16  1   
 27  12  40  1   
 28  12  41  1   
 29  13  17  ar  
 30  14  18  ar  
 31  14  42  1   
 32  15  19  1   
 33  15  43  1   
 34  15  44  1   
 35  16  19  1   
 36  16  45  1   
 37  16  46  1   
 38  17  20  ar  
 39  17  47  1   
 40  18  20  ar  
 41  19  21  1   
 42  19  48  1   
 43  20  22  1   
 44  21  23  1   
 45  21  49  1   
 46  21  50  1   
 47  22  51  1   
 48  22  52  1   
 49  22  53  1   
 50  23  24  2   
 51  23  25  1   
 52  24  26  1   
 53  24  27  1   
 54  25  28  2   
 55  25  29  1   
 56  26  28  1   
 57  27  54  1   
 58  27  55  1   
 59  27  56  1   
 60  29  57  1   
 61  29  58  1   
 62  29  59  1   
@<TRIPOS>SUBSTRUCTURE
  1 ****   8 GROUP 4 **** **** 0

# MOE 2024.06 (io_trps.svl 2023.06)
