@<TRIPOS>MOLECULE
NONAME
48 50 1 0 0 
SMALL
USER_CHARGES


@<TRIPOS>ATOM
  1 CL      -0.2520    -0.4100    -1.9090 Cl    1 <1>  -0.1770 
  2 C       -0.2760    -1.9800    -1.1600 C.ar  1 <1>   0.1770 
  3 C       -1.3860    -2.7740    -1.2870 C.ar  1 <1>  -0.1500 
  4 C        0.8360    -2.4030    -0.4420 C.ar  1 <1>  -0.1500 
  5 C       -1.4080    -4.0350    -0.6860 C.ar  1 <1>   0.3610 
  6 C        0.8250    -3.6410     0.1530 C.ar  1 <1>  -0.1500 
  7 N       -2.5160    -4.8560    -0.7990 N.ar  1 <1>  -0.1790 
  8 C       -0.2940    -4.4900     0.0490 C.ar  1 <1>   0.0000 
  9 C       -2.6180    -6.0710    -0.2560 C.ar  1 <1>   0.4610 
 10 C       -0.3720    -5.7870     0.6420 C.ar  1 <1>  -0.1430 
 11 N       -3.7450    -6.7940    -0.4290 N.pl3 1 <1>  -0.8380 
 12 C       -1.5000    -6.5340     0.4840 C.ar  1 <1>  -0.1500 
 13 C        0.7990    -6.3360     1.4490 C.3   1 <1>  -0.0970 
 14 C       -4.9920    -6.4100    -1.1680 C.3   1 <1>   0.2090 
 15 C       -3.9370    -8.1730     0.1220 C.3   1 <1>   0.2090 
 16 C       -6.0770    -7.3370    -0.6240 C.3   1 <1>   0.2000 
 17 C       -5.3260    -8.6350    -0.3390 C.3   1 <1>  -0.0800 
 18 O       -6.5510    -6.8040     0.5660 O.3   1 <1>  -0.6800 
 19 C       -6.0410    -9.5980     0.6380 C.3   1 <1>  -0.0550 
 20 S       -5.1440   -11.1220     0.9480 S.o2  1 <1>   1.3330 
 21 O       -6.0030   -12.0540     1.6400 O.2   1 <1>  -0.6500 
 22 O       -3.8630   -10.7580     1.5120 O.2   1 <1>  -0.6500 
 23 N       -4.8630   -11.7280    -0.6130 N.am  1 <1>  -0.8490 
 24 C       -6.0300   -12.4120    -1.1830 C.3   1 <1>   0.1160 
 25 C       -3.7100   -12.6350    -0.6470 C.3   1 <1>   0.1160 
 26 H       -2.2250    -2.4090    -1.8500 H     1 <1>   0.1500 
 27 H        1.6900    -1.7500    -0.3650 H     1 <1>   0.1500 
 28 H        1.6920    -3.9580     0.7070 H     1 <1>   0.1500 
 29 H       -3.3120    -4.5270    -1.3330 H     1 <1>   0.4570 
 30 H       -1.5620    -7.5100     0.9290 H     1 <1>   0.1500 
 31 H        0.5840    -7.3190     1.8290 H     1 <1>   0.0800 
 32 H        1.0100    -5.6950     2.2870 H     1 <1>   0.0800 
 33 H        1.6780    -6.4040     0.8320 H     1 <1>   0.0800 
 34 H       -5.2650    -5.3790    -1.0210 H     1 <1>   0.0800 
 35 H       -4.8550    -6.6050    -2.2190 H     1 <1>   0.0800 
 36 H       -3.1750    -8.8460    -0.2400 H     1 <1>   0.0800 
 37 H       -3.8940    -8.1360     1.1990 H     1 <1>   0.0800 
 38 H       -6.9080    -7.4590    -1.2990 H     1 <1>   0.0800 
 39 H       -5.1940    -9.1440    -1.2790 H     1 <1>   0.0800 
 40 H       -5.8050    -6.6270     1.1730 H     1 <1>   0.4000 
 41 H       -7.0060    -9.8370     0.2370 H     1 <1>   0.0800 
 42 H       -6.2030    -9.1060     1.5780 H     1 <1>   0.0800 
 43 H       -5.8250   -12.7130    -2.1970 H     1 <1>   0.0800 
 44 H       -6.8820   -11.7550    -1.1910 H     1 <1>   0.0800 
 45 H       -6.2760   -13.2870    -0.6030 H     1 <1>   0.0800 
 46 H       -3.5470   -12.9970    -1.6470 H     1 <1>   0.0800 
 47 H       -3.8730   -13.4730     0.0110 H     1 <1>   0.0800 
 48 H       -2.8200   -12.1160    -0.3290 H     1 <1>   0.0800 
@<TRIPOS>BOND
  1   1   2  1   
  2   2   3  ar  
  3   2   4  ar  
  4   3   5  ar  
  5   3  26  1   
  6   4   6  ar  
  7   4  27  1   
  8   5   7  ar  
  9   5   8  ar  
 10   6   8  ar  
 11   6  28  1   
 12   7   9  ar  
 13   7  29  1   
 14   8  10  ar  
 15   9  11  1   
 16   9  12  ar  
 17  10  12  ar  
 18  10  13  1   
 19  11  14  1   
 20  11  15  1   
 21  12  30  1   
 22  13  31  1   
 23  13  32  1   
 24  13  33  1   
 25  14  16  1   
 26  14  34  1   
 27  14  35  1   
 28  15  17  1   
 29  15  36  1   
 30  15  37  1   
 31  16  17  1   
 32  16  18  1   
 33  16  38  1   
 34  17  19  1   
 35  17  39  1   
 36  18  40  1   
 37  19  20  1   
 38  19  41  1   
 39  19  42  1   
 40  20  21  2   
 41  20  22  2   
 42  20  23  am  
 43  23  24  1   
 44  23  25  1   
 45  24  43  1   
 46  24  44  1   
 47  24  45  1   
 48  25  46  1   
 49  25  47  1   
 50  25  48  1   
@<TRIPOS>SUBSTRUCTURE
  1 ****  11 GROUP 4 **** **** 0

# MOE 2024.06 (io_trps.svl 2023.06)
