@<TRIPOS>MOLECULE
NONAME
49 53 1 0 0 
SMALL
USER_CHARGES


@<TRIPOS>ATOM
  1 O        2.8080    -0.1840    -1.7710 O.2   1 <1>  -0.5700 
  2 C        2.4290    -1.1870    -1.2110 C.2   1 <1>   0.5690 
  3 N        1.1460    -1.4250    -0.8430 N.am  1 <1>  -0.6600 
  4 C        3.3520    -2.3410    -0.8780 C.3   1 <1>  -0.0190 
  5 C        0.9930    -2.7380    -0.1760 C.3   1 <1>   0.1400 
  6 C        0.0330    -0.4510    -0.8960 C.3   1 <1>   0.1400 
  7 C        2.4470    -3.1670     0.0390 C.3   1 <1>   0.4180 
  8 C        4.6470    -2.2420     0.0000 C.3   1 <1>  -0.0190 
  9 C       -0.9690    -0.8700    -1.9730 C.3   1 <1>  -0.1600 
 10 O        2.9050    -2.7490     1.2800 O.3   1 <1>  -0.5600 
 11 C        2.9330    -4.5950     0.0710 C.2   1 <1>  -0.2880 
 12 C        5.1710    -0.9190     0.5490 C.2   1 <1>   0.5690 
 13 C        4.2380    -3.1040     1.1990 C.3   1 <1>   0.3380 
 14 C       -2.1220     0.1340    -2.0800 C.3   1 <1>  -0.2400 
 15 C        4.0580    -4.5520     0.7740 C.2   1 <1>  -0.2880 
 16 O        6.2120    -0.9640     1.1640 O.2   1 <1>  -0.5700 
 17 N        4.5100     0.2450     0.3510 N.am  1 <1>  -0.4930 
 18 C        4.8410     1.5750     0.6960 C.2   1 <1>   0.0630 
 19 C        4.1590     2.6500     0.2410 C.2   1 <1>  -0.0680 
 20 C        5.8560     2.0980     1.5000 C.2   1 <1>   0.1390 
 21 N        4.7700     3.7360     0.7780 N.pl3 1 <1>   0.3140 
 22 N        3.0420     2.7200    -0.6260 N.pl3 1 <1>  -0.8530 
 23 N        5.8300     3.4000     1.5550 N.2   1 <1>  -0.7070 
 24 C        4.3980     5.1180     0.4310 C.3   1 <1>   0.0960 
 25 C        2.8200     4.0360    -1.2730 C.3   1 <1>   0.2090 
 26 C        3.0060     5.1570    -0.2370 C.3   1 <1>  -0.1600 
 27 H        3.5440    -2.8820    -1.7850 H     1 <1>   0.0800 
 28 H        0.4710    -2.6540     0.7610 H     1 <1>   0.0800 
 29 H        0.4870    -3.4200    -0.8350 H     1 <1>   0.0800 
 30 H       -0.4470    -0.4020     0.0660 H     1 <1>   0.0800 
 31 H        0.4240     0.5270    -1.1250 H     1 <1>   0.0800 
 32 H        5.4660    -2.7200    -0.5040 H     1 <1>   0.0800 
 33 H       -0.4630    -0.9260    -2.9220 H     1 <1>   0.0800 
 34 H       -1.3700    -1.8400    -1.7380 H     1 <1>   0.0800 
 35 H        2.4090    -5.3900    -0.4300 H     1 <1>   0.1500 
 36 H        4.7400    -2.9380     2.1380 H     1 <1>   0.0800 
 37 H       -1.7470     1.1110    -2.3330 H     1 <1>   0.0800 
 38 H       -2.6560     0.1970    -1.1480 H     1 <1>   0.0800 
 39 H       -2.8100    -0.1760    -2.8480 H     1 <1>   0.0800 
 40 H        4.7760    -5.3040     1.0490 H     1 <1>   0.1500 
 41 H        3.6810     0.2220    -0.2480 H     1 <1>   0.3700 
 42 H        6.5810     1.4890     2.0110 H     1 <1>   0.1500 
 43 H        2.9870     1.9310    -1.2950 H     1 <1>   0.4000 
 44 H        4.4080     5.7120     1.3250 H     1 <1>   0.0800 
 45 H        5.1440     5.4920    -0.2450 H     1 <1>   0.0800 
 46 H        3.5210     4.1560    -2.0830 H     1 <1>   0.0800 
 47 H        1.8210     4.0690    -1.6740 H     1 <1>   0.0800 
 48 H        2.2500     5.0510     0.5210 H     1 <1>   0.0800 
 49 H        2.8630     6.1120    -0.7070 H     1 <1>   0.0800 
@<TRIPOS>BOND
  1   1   2  2   
  2   2   3  am  
  3   2   4  1   
  4   3   5  1   
  5   3   6  1   
  6   4   7  1   
  7   4   8  1   
  8   4  27  1   
  9   5   7  1   
 10   5  28  1   
 11   5  29  1   
 12   6   9  1   
 13   6  30  1   
 14   6  31  1   
 15   7  10  1   
 16   7  11  1   
 17   8  12  1   
 18   8  13  1   
 19   8  32  1   
 20   9  14  1   
 21   9  33  1   
 22   9  34  1   
 23  10  13  1   
 24  11  15  2   
 25  11  35  1   
 26  12  16  2   
 27  12  17  am  
 28  13  15  1   
 29  13  36  1   
 30  14  37  1   
 31  14  38  1   
 32  14  39  1   
 33  15  40  1   
 34  17  18  1   
 35  17  41  1   
 36  18  19  2   
 37  18  20  1   
 38  19  21  1   
 39  19  22  1   
 40  20  23  2   
 41  20  42  1   
 42  21  23  1   
 43  21  24  1   
 44  22  25  1   
 45  22  43  1   
 46  24  26  1   
 47  24  44  1   
 48  24  45  1   
 49  25  26  1   
 50  25  46  1   
 51  25  47  1   
 52  26  48  1   
 53  26  49  1   
@<TRIPOS>SUBSTRUCTURE
  1 ****  17 GROUP 4 **** **** 0

# MOE 2024.06 (io_trps.svl 2023.06)
