@<TRIPOS>MOLECULE
NONAME
19 19 1 0 0 
SMALL
USER_CHARGES


@<TRIPOS>ATOM
  1 F       -1.1230     0.4780    -1.4530 F     1 <1>  -0.3400 
  2 C       -1.4330     0.8260    -0.2070 C.3   1 <1>   0.6000 
  3 F       -0.3690     0.4570     0.5070 F     1 <1>  -0.3400 
  4 C       -2.6850     0.0710     0.2910 C.3   1 <1>   0.1010 
  5 C       -2.5570    -1.4400     0.0880 C.2   1 <1>   0.1080 
  6 C       -3.9850     0.6380    -0.3080 C.3   1 <1>  -0.2660 
  7 N       -3.1820    -2.1440    -0.7940 N.2   1 <1>  -0.4100 
  8 C       -1.7370    -2.2590     0.8630 C.2   1 <1>  -0.1500 
  9 C       -4.1400     2.0540     0.1560 C.2   1 <1>   0.9060 
 10 O       -2.7980    -3.3760    -0.6230 O.3   1 <1>  -0.0190 
 11 C       -1.9390    -3.4810     0.3520 C.2   1 <1>  -0.0100 
 12 O       -3.5600     2.9380    -0.4750 O.co2 1 <1>  -0.9000 
 13 O       -4.7340     2.2610     1.2130 O.co2 1 <1>  -0.9000 
 14 H       -1.5020     1.8980    -0.1620 H     1 <1>   0.0800 
 15 H       -2.7470     0.2450     1.3500 H     1 <1>   0.0800 
 16 H       -4.8330     0.0750     0.0330 H     1 <1>   0.0800 
 17 H       -3.9570     0.6160    -1.3810 H     1 <1>   0.0800 
 18 H       -1.1010    -1.9430     1.6700 H     1 <1>   0.1500 
 19 H       -1.5350    -4.4440     0.6040 H     1 <1>   0.1500 
@<TRIPOS>BOND
  1   1   2  1   
  2   2   3  1   
  3   2   4  1   
  4   2  14  1   
  5   4   5  1   
  6   4   6  1   
  7   4  15  1   
  8   5   7  2   
  9   5   8  1   
 10   6   9  1   
 11   6  16  1   
 12   6  17  1   
 13   7  10  1   
 14   8  11  2   
 15   8  18  1   
 16   9  12  ar  
 17   9  13  ar  
 18  10  11  1   
 19  11  19  1   
@<TRIPOS>SUBSTRUCTURE
  1 ****   4 GROUP 4 **** **** 0

# MOE 2024.06 (io_trps.svl 2023.06)
