@<TRIPOS>MOLECULE
NONAME
34 35 1 0 0 
SMALL
USER_CHARGES


@<TRIPOS>ATOM
  1 CL      -2.2010    -0.8910     3.3950 Cl    1 <1>  -0.1770 
  2 C       -2.6300    -1.2390     1.7420 C.ar  1 <1>   0.1770 
  3 C       -2.6060    -2.5500     1.3050 C.ar  1 <1>  -0.1500 
  4 C       -2.9880    -0.2060     0.8990 C.ar  1 <1>  -0.1500 
  5 C       -2.9570    -2.8410    -0.0070 C.ar  1 <1>  -0.1430 
  6 C       -3.3300    -0.4930    -0.4110 C.ar  1 <1>  -0.1500 
  7 C       -3.3140    -1.8050    -0.8600 C.ar  1 <1>  -0.1500 
  8 C       -2.9560    -4.2760    -0.5010 C.3   1 <1>   0.4870 
  9 N       -4.0770    -5.0040     0.1370 N.4   1 <1>  -0.9590 
 10 C       -3.9790    -6.4950    -0.1100 C.3   1 <1>   0.3430 
 11 C       -5.4060    -4.4580    -0.2770 C.3   1 <1>   0.3430 
 12 C       -5.3350    -7.2260    -0.0760 C.3   1 <1>   0.2000 
 13 C       -6.5000    -5.0560     0.6120 C.3   1 <1>  -0.1600 
 14 O       -5.9050    -7.1410    -1.3350 O.3   1 <1>  -0.6800 
 15 C       -6.2840    -6.5600     0.9260 C.3   1 <1>  -0.1860 
 16 C       -7.5820    -7.3320     0.9790 C.2   1 <1>   0.9060 
 17 O       -7.9650    -7.7480     2.0690 O.co2 1 <1>  -0.9000 
 18 O       -8.1760    -7.5290    -0.0870 O.co2 1 <1>  -0.9000 
 19 H       -2.3110    -3.3170     1.9990 H     1 <1>   0.1500 
 20 H       -2.9960     0.8060     1.2640 H     1 <1>   0.1500 
 21 H       -3.6060     0.3070    -1.0800 H     1 <1>   0.1500 
 22 H       -3.5840    -2.0030    -1.8850 H     1 <1>   0.1500 
 23 H       -2.0180    -4.7400    -0.2410 H     1 <1>   0.0800 
 24 H       -3.0640    -4.3000    -1.5740 H     1 <1>   0.0800 
 25 H       -4.0300    -4.8470     1.1500 H     1 <1>   0.4500 
 26 H       -3.5330    -6.6880    -1.0710 H     1 <1>   0.0800 
 27 H       -3.3430    -6.9290     0.6430 H     1 <1>   0.0800 
 28 H       -5.4260    -3.3830    -0.1960 H     1 <1>   0.0800 
 29 H       -5.6000    -4.7290    -1.3030 H     1 <1>   0.0800 
 30 H       -5.2070    -8.2720     0.1500 H     1 <1>   0.0800 
 31 H       -6.5780    -4.5040     1.5320 H     1 <1>   0.0800 
 32 H       -7.4380    -4.9330     0.0960 H     1 <1>   0.0800 
 33 H       -6.8780    -7.3740    -1.2080 H     1 <1>   0.4000 
 34 H       -5.8410    -6.6440     1.9010 H     1 <1>   0.0800 
@<TRIPOS>BOND
  1   1   2  1   
  2   2   3  ar  
  3   2   4  ar  
  4   3   5  ar  
  5   3  19  1   
  6   4   6  ar  
  7   4  20  1   
  8   5   7  ar  
  9   5   8  1   
 10   6   7  ar  
 11   6  21  1   
 12   7  22  1   
 13   8   9  1   
 14   8  23  1   
 15   8  24  1   
 16   9  10  1   
 17   9  11  1   
 18   9  25  1   
 19  10  12  1   
 20  10  26  1   
 21  10  27  1   
 22  11  13  1   
 23  11  28  1   
 24  11  29  1   
 25  12  14  1   
 26  12  15  1   
 27  12  30  1   
 28  13  15  1   
 29  13  31  1   
 30  13  32  1   
 31  14  33  1   
 32  15  16  1   
 33  15  34  1   
 34  16  17  ar  
 35  16  18  ar  
@<TRIPOS>SUBSTRUCTURE
  1 ****   9 GROUP 4 **** **** 0

# MOE 2024.06 (io_trps.svl 2023.06)
