@<TRIPOS>MOLECULE
NONAME
48 50 1 0 0 
SMALL
USER_CHARGES


@<TRIPOS>ATOM
  1 O        3.7000    -1.3690    -2.0520 O.2   1 <1>  -0.5700 
  2 C        2.9050    -1.4480    -1.1300 C.2   1 <1>   0.5440 
  3 N        2.9730    -0.4170    -0.2290 N.am  1 <1>  -0.6600 
  4 C        2.0710    -2.6320    -0.9580 C.ar  1 <1>   0.0860 
  5 C        3.5390    -0.7290     1.1270 C.3   1 <1>   0.2200 
  6 C        3.0020     0.9940    -0.7240 C.3   1 <1>   0.1400 
  7 C        0.9670    -2.7060    -0.0910 C.ar  1 <1>   0.0830 
  8 C        2.3780    -3.7850    -1.6890 C.ar  1 <1>  -0.1500 
  9 C        3.1130     0.2770     2.2070 C.3   1 <1>   0.1200 
 10 C        5.0830    -0.8400     1.0450 C.3   1 <1>   0.3430 
 11 C        4.1210     1.8630    -0.1200 C.3   1 <1>  -0.0800 
 12 O        0.5940    -1.6110     0.6160 O.3   1 <1>  -0.3630 
 13 C        0.2510    -3.8980     0.0740 C.ar  1 <1>   0.0830 
 14 C        1.6600    -4.9550    -1.5540 C.ar  1 <1>  -0.1500 
 15 O        3.9930     1.3620     2.2440 O.3   1 <1>  -0.5600 
 16 N        5.6400    -0.2070    -0.2050 N.4   1 <1>  -0.9590 
 17 C        3.7710     2.3500     1.2960 C.3   1 <1>   0.1200 
 18 C        5.5520     1.2870    -0.2110 C.3   1 <1>   0.3430 
 19 C       -0.5940    -0.9600     0.2180 C.3   1 <1>   0.0400 
 20 O       -0.7700    -3.9210     0.9790 O.3   1 <1>  -0.3630 
 21 C        0.6000    -5.0180    -0.6700 C.ar  1 <1>  -0.1500 
 22 C        7.0130    -0.6900    -0.5130 C.3   1 <1>   0.2630 
 23 C       -1.4760    -5.1040     1.2800 C.3   1 <1>   0.0400 
 24 H        3.1530    -1.6850     1.4380 H     1 <1>   0.0800 
 25 H        3.1080     0.9910    -1.7970 H     1 <1>   0.0800 
 26 H        2.0470     1.4440    -0.5110 H     1 <1>   0.0800 
 27 H        3.2000    -3.7660    -2.3840 H     1 <1>   0.1500 
 28 H        3.1720    -0.1970     3.1710 H     1 <1>   0.0800 
 29 H        2.1000     0.6140     2.0620 H     1 <1>   0.0800 
 30 H        5.3350    -1.8870     1.0500 H     1 <1>   0.0800 
 31 H        5.5270    -0.3950     1.9200 H     1 <1>   0.0800 
 32 H        4.1320     2.7620    -0.7100 H     1 <1>   0.0800 
 33 H        1.9250    -5.8220    -2.1360 H     1 <1>   0.1500 
 34 H        4.9930    -0.5320    -0.9630 H     1 <1>   0.4500 
 35 H        2.7460     2.6770     1.3640 H     1 <1>   0.0800 
 36 H        4.4020     3.1810     1.5620 H     1 <1>   0.0800 
 37 H        6.1400     1.6850     0.6000 H     1 <1>   0.0800 
 38 H        5.9880     1.6420    -1.1310 H     1 <1>   0.0800 
 39 H       -0.7050    -0.0700     0.8100 H     1 <1>   0.0800 
 40 H       -1.4320    -1.6120     0.3830 H     1 <1>   0.0800 
 41 H       -0.5190    -0.7040    -0.8240 H     1 <1>   0.0800 
 42 H        0.0660    -5.9450    -0.5810 H     1 <1>   0.1500 
 43 H        7.7000    -0.3840     0.2590 H     1 <1>   0.0800 
 44 H        7.3460    -0.2870    -1.4560 H     1 <1>   0.0800 
 45 H        7.0210    -1.7660    -0.5820 H     1 <1>   0.0800 
 46 H       -2.1970    -4.8770     2.0450 H     1 <1>   0.0800 
 47 H       -0.7830    -5.8440     1.6400 H     1 <1>   0.0800 
 48 H       -1.9820    -5.4460     0.3940 H     1 <1>   0.0800 
@<TRIPOS>BOND
  1   1   2  2   
  2   2   3  am  
  3   2   4  1   
  4   3   5  1   
  5   3   6  1   
  6   4   7  ar  
  7   4   8  ar  
  8   5   9  1   
  9   5  10  1   
 10   5  24  1   
 11   6  11  1   
 12   6  25  1   
 13   6  26  1   
 14   7  12  1   
 15   7  13  ar  
 16   8  14  ar  
 17   8  27  1   
 18   9  15  1   
 19   9  28  1   
 20   9  29  1   
 21  10  16  1   
 22  10  30  1   
 23  10  31  1   
 24  11  17  1   
 25  11  18  1   
 26  11  32  1   
 27  12  19  1   
 28  13  20  1   
 29  13  21  ar  
 30  14  21  ar  
 31  14  33  1   
 32  15  17  1   
 33  16  18  1   
 34  16  22  1   
 35  16  34  1   
 36  17  35  1   
 37  17  36  1   
 38  18  37  1   
 39  18  38  1   
 40  19  39  1   
 41  19  40  1   
 42  19  41  1   
 43  20  23  1   
 44  21  42  1   
 45  22  43  1   
 46  22  44  1   
 47  22  45  1   
 48  23  46  1   
 49  23  47  1   
 50  23  48  1   
@<TRIPOS>SUBSTRUCTURE
  1 ****   3 GROUP 4 **** **** 0

# MOE 2024.06 (io_trps.svl 2023.06)
