@<TRIPOS>MOLECULE
NONAME
37 39 1 0 0 
SMALL
USER_CHARGES


@<TRIPOS>ATOM
  1 O       -0.1170    -0.4800     0.7430 O.3   1 <1>  -0.5600 
  2 C        0.5430     0.7390     0.8930 C.3   1 <1>   0.1200 
  3 C       -1.4760    -0.2960     0.4790 C.3   1 <1>   0.1200 
  4 C       -0.3200     1.7640     0.1710 C.3   1 <1>   0.2890 
  5 C       -1.7160     1.2130     0.3900 C.3   1 <1>  -0.0800 
  6 N       -0.1870     3.1350     0.7380 N.pl3 1 <1>  -0.8690 
  7 C       -2.7090     1.6230    -0.7090 C.3   1 <1>  -0.0170 
  8 C        0.5240     4.1840     0.2610 C.ar  1 <1>   0.1000 
  9 C       -4.0760     1.0030    -0.4690 C.ar  1 <1>  -0.1440 
 10 C        0.4410     5.4230     0.9060 C.ar  1 <1>  -0.1500 
 11 C        1.3650     4.1070    -0.8580 C.ar  1 <1>  -0.1500 
 12 C       -4.5130    -0.1040    -1.1690 C.ar  1 <1>  -0.1500 
 13 C       -4.9520     1.5160     0.4660 C.ar  1 <1>  -0.1500 
 14 C        1.1490     6.5050     0.4530 C.ar  1 <1>   0.2110 
 15 C        2.0630     5.2060    -1.2890 C.ar  1 <1>   0.2110 
 16 C       -5.7660    -0.6310    -0.9040 C.ar  1 <1>   0.1600 
 17 C       -6.1840     0.9130     0.6550 C.ar  1 <1>   0.1600 
 18 N        1.9510     6.3910    -0.6360 N.ar  1 <1>  -0.1790 
 19 N       -6.6120    -0.1500    -0.0070 N.ar  1 <1>  -0.6200 
 20 H        0.6010     0.9520     1.9460 H     1 <1>   0.0800 
 21 H        1.5270     0.6580     0.4680 H     1 <1>   0.0800 
 22 H       -1.6940    -0.7910    -0.4510 H     1 <1>   0.0800 
 23 H       -2.0510    -0.7460     1.2710 H     1 <1>   0.0800 
 24 H       -0.0780     1.7500    -0.8770 H     1 <1>   0.0800 
 25 H       -2.0870     1.5350     1.3470 H     1 <1>   0.0800 
 26 H       -0.7100     3.2340     1.6180 H     1 <1>   0.4000 
 27 H       -2.3390     1.3180    -1.6730 H     1 <1>   0.0800 
 28 H       -2.8050     2.6950    -0.7230 H     1 <1>   0.0800 
 29 H       -0.1950     5.5120     1.7700 H     1 <1>   0.1500 
 30 H        1.4690     3.1740    -1.3800 H     1 <1>   0.1500 
 31 H       -3.8960    -0.5630    -1.9190 H     1 <1>   0.1500 
 32 H       -4.6910     2.3790     1.0500 H     1 <1>   0.1500 
 33 H        1.0820     7.4590     0.9520 H     1 <1>   0.1500 
 34 H        2.7100     5.1470    -2.1500 H     1 <1>   0.1500 
 35 H       -6.0910    -1.4940    -1.4590 H     1 <1>   0.1500 
 36 H       -6.8550     1.3270     1.3880 H     1 <1>   0.1500 
 37 H        2.4780     7.2070    -0.9680 H     1 <1>   0.4570 
@<TRIPOS>BOND
  1   1   2  1   
  2   1   3  1   
  3   2   4  1   
  4   2  20  1   
  5   2  21  1   
  6   3   5  1   
  7   3  22  1   
  8   3  23  1   
  9   4   5  1   
 10   4   6  1   
 11   4  24  1   
 12   5   7  1   
 13   5  25  1   
 14   6   8  1   
 15   6  26  1   
 16   7   9  1   
 17   7  27  1   
 18   7  28  1   
 19   8  10  ar  
 20   8  11  ar  
 21   9  12  ar  
 22   9  13  ar  
 23  10  14  ar  
 24  10  29  1   
 25  11  15  ar  
 26  11  30  1   
 27  12  16  ar  
 28  12  31  1   
 29  13  17  ar  
 30  13  32  1   
 31  14  18  ar  
 32  14  33  1   
 33  15  18  ar  
 34  15  34  1   
 35  16  19  ar  
 36  16  35  1   
 37  17  19  ar  
 38  17  36  1   
 39  18  37  1   
@<TRIPOS>SUBSTRUCTURE
  1 ****   5 GROUP 4 **** **** 0

# MOE 2024.06 (io_trps.svl 2023.06)
