@<TRIPOS>MOLECULE
NONAME
40 41 1 0 0 
SMALL
USER_CHARGES


@<TRIPOS>ATOM
  1 N       -0.3470     2.0090     1.0790 N.ar  1 <1>  -0.6200 
  2 C       -0.6890     2.6320    -0.0340 C.ar  1 <1>   0.4100 
  3 C       -0.5410     0.7020     0.9970 C.ar  1 <1>   0.1600 
  4 N       -0.4920     3.9850     0.0150 N.pl3 1 <1>  -0.8690 
  5 C       -1.2070     1.9660    -1.1580 C.ar  1 <1>   0.1600 
  6 C       -1.0420     0.0490    -0.1220 C.ar  1 <1>   0.1600 
  7 C        0.3920     4.6450    -0.9540 C.3   1 <1>   0.2890 
  8 N       -1.3920     0.6620    -1.2440 N.ar  1 <1>  -0.6200 
  9 C        1.8470     4.6480    -0.4390 C.3   1 <1>  -0.1600 
 10 C       -0.2030     6.0120    -1.2710 C.3   1 <1>  -0.2400 
 11 C        2.3010     5.6110     0.6980 C.3   1 <1>   0.1430 
 12 C        2.3130     7.0900     0.2390 C.ar  1 <1>  -0.1430 
 13 C        3.7460     5.2390     1.0750 C.3   1 <1>  -0.2400 
 14 C        1.4590     5.3800     1.9680 C.3   1 <1>  -0.2400 
 15 C        3.0470     7.4570    -0.8870 C.ar  1 <1>  -0.1500 
 16 C        1.6230     8.0970     0.9110 C.ar  1 <1>  -0.1500 
 17 C        3.0810     8.7670    -1.3320 C.ar  1 <1>  -0.1500 
 18 C        1.6550     9.4080     0.4690 C.ar  1 <1>  -0.1500 
 19 C        2.3820     9.7460    -0.6550 C.ar  1 <1>  -0.1500 
 20 H       -0.2890     0.1170     1.8630 H     1 <1>   0.1500 
 21 H       -0.2430     4.2570     0.9680 H     1 <1>   0.4000 
 22 H       -1.4740     2.5660    -2.0070 H     1 <1>   0.1500 
 23 H       -1.1610    -1.0200    -0.0900 H     1 <1>   0.1500 
 24 H        0.3830     4.0720    -1.8660 H     1 <1>   0.0800 
 25 H        2.4680     4.8290    -1.2950 H     1 <1>   0.0800 
 26 H        2.0690     3.6400    -0.1360 H     1 <1>   0.0800 
 27 H       -0.3330     6.5910    -0.3770 H     1 <1>   0.0800 
 28 H       -1.1600     5.8890    -1.7430 H     1 <1>   0.0800 
 29 H        0.4410     6.5500    -1.9430 H     1 <1>   0.0800 
 30 H        4.3970     5.2880     0.2220 H     1 <1>   0.0800 
 31 H        3.7930     4.2410     1.4740 H     1 <1>   0.0800 
 32 H        4.1200     5.9200     1.8200 H     1 <1>   0.0800 
 33 H        0.4460     5.7090     1.8290 H     1 <1>   0.0800 
 34 H        1.8750     5.9230     2.7980 H     1 <1>   0.0800 
 35 H        1.4470     4.3360     2.2280 H     1 <1>   0.0800 
 36 H        3.6100     6.7250    -1.4350 H     1 <1>   0.1500 
 37 H        1.0450     7.8900     1.7920 H     1 <1>   0.1500 
 38 H        3.6550     9.0230    -2.2060 H     1 <1>   0.1500 
 39 H        1.1110    10.1670     1.0040 H     1 <1>   0.1500 
 40 H        2.4060    10.7660    -0.9990 H     1 <1>   0.1500 
@<TRIPOS>BOND
  1   1   2  ar  
  2   1   3  ar  
  3   2   4  1   
  4   2   5  ar  
  5   3   6  ar  
  6   3  20  1   
  7   4   7  1   
  8   4  21  1   
  9   5   8  ar  
 10   5  22  1   
 11   6   8  ar  
 12   6  23  1   
 13   7   9  1   
 14   7  10  1   
 15   7  24  1   
 16   9  11  1   
 17   9  25  1   
 18   9  26  1   
 19  10  27  1   
 20  10  28  1   
 21  10  29  1   
 22  11  12  1   
 23  11  13  1   
 24  11  14  1   
 25  12  15  ar  
 26  12  16  ar  
 27  13  30  1   
 28  13  31  1   
 29  13  32  1   
 30  14  33  1   
 31  14  34  1   
 32  14  35  1   
 33  15  17  ar  
 34  15  36  1   
 35  16  18  ar  
 36  16  37  1   
 37  17  19  ar  
 38  17  38  1   
 39  18  19  ar  
 40  18  39  1   
 41  19  40  1   
@<TRIPOS>SUBSTRUCTURE
  1 ****   9 GROUP 4 **** **** 0

# MOE 2024.06 (io_trps.svl 2023.06)
