@<TRIPOS>MOLECULE
NONAME
45 46 1 0 0 
SMALL
USER_CHARGES


@<TRIPOS>ATOM
  1 O        0.9710     0.1820     0.4160 O.co2 1 <1>  -0.9000 
  2 C        1.9600     0.0300    -0.3300 C.2   1 <1>   0.9790 
  3 O        1.7860    -0.6500    -1.3650 O.co2 1 <1>  -0.9000 
  4 C        3.2750     0.6210    -0.0520 C.ar  1 <1>   0.1310 
  5 N        3.5980     1.1930     1.1330 N.ar  1 <1>  -0.6200 
  6 C        4.2180     0.5730    -1.0860 C.ar  1 <1>   0.1600 
  7 C        4.8210     1.6670     1.1690 C.ar  1 <1>   0.1600 
  8 N        5.4500     1.0570    -1.0490 N.ar  1 <1>  -0.6200 
  9 C        5.7420     1.6250     0.1120 C.ar  1 <1>   0.4100 
 10 N        7.0020     2.1910     0.2390 N.pl3 1 <1>  -0.8380 
 11 C        8.1130     1.7070    -0.6330 C.3   1 <1>   0.2090 
 12 C        7.0980     3.6520     0.5150 C.3   1 <1>   0.2090 
 13 C        9.4820     2.1150    -0.0560 C.3   1 <1>   0.1100 
 14 C        8.4860     4.0120     1.0760 C.3   1 <1>   0.1100 
 15 N        9.5830     3.5740     0.1780 N.3   1 <1>  -0.8100 
 16 C       10.9140     3.9240     0.7600 C.3   1 <1>   0.1710 
 17 C       11.2190     5.4250     0.7770 C.2   1 <1>   0.5690 
 18 O       11.9390     5.8670     1.6410 O.2   1 <1>  -0.5700 
 19 N       10.6500     6.1870    -0.1940 N.am  1 <1>  -0.7300 
 20 C       10.7190     7.6290    -0.4260 C.3   1 <1>   0.3000 
 21 C       12.1690     8.0370    -0.6850 C.3   1 <1>  -0.2400 
 22 C        9.8710     7.9130    -1.6640 C.3   1 <1>  -0.2400 
 23 C       10.1390     8.3670     0.7800 C.3   1 <1>  -0.2400 
 24 H        3.9220     0.1010    -2.0070 H     1 <1>   0.1500 
 25 H        5.1440     2.1220     2.0840 H     1 <1>   0.1500 
 26 H        8.0000     2.1220    -1.6190 H     1 <1>   0.0800 
 27 H        8.0630     0.6350    -0.7140 H     1 <1>   0.0800 
 28 H        6.3410     3.9460     1.2200 H     1 <1>   0.0800 
 29 H        6.9320     4.1950    -0.3990 H     1 <1>   0.0800 
 30 H       10.2500     1.8100    -0.7460 H     1 <1>   0.0800 
 31 H        9.6340     1.5840     0.8690 H     1 <1>   0.0800 
 32 H        8.5960     3.5470     2.0410 H     1 <1>   0.0800 
 33 H        8.5330     5.0780     1.2140 H     1 <1>   0.0800 
 34 H       11.6870     3.4550     0.1790 H     1 <1>   0.0800 
 35 H       10.9840     3.5480     1.7650 H     1 <1>   0.0800 
 36 H       10.0130     5.6800    -0.8140 H     1 <1>   0.3700 
 37 H       12.5760     7.4770    -1.5070 H     1 <1>   0.0800 
 38 H       12.7720     7.8640     0.1880 H     1 <1>   0.0800 
 39 H       12.2220     9.0840    -0.9230 H     1 <1>   0.0800 
 40 H       10.2610     7.3860    -2.5160 H     1 <1>   0.0800 
 41 H        9.8850     8.9650    -1.8860 H     1 <1>   0.0800 
 42 H        8.8510     7.6170    -1.5000 H     1 <1>   0.0800 
 43 H       10.7410     8.1940     1.6530 H     1 <1>   0.0800 
 44 H        9.1340     8.0390     0.9760 H     1 <1>   0.0800 
 45 H       10.1230     9.4250     0.5930 H     1 <1>   0.0800 
@<TRIPOS>BOND
  1   1   2  ar  
  2   2   3  ar  
  3   2   4  1   
  4   4   5  ar  
  5   4   6  ar  
  6   5   7  ar  
  7   6   8  ar  
  8   6  24  1   
  9   7   9  ar  
 10   7  25  1   
 11   8   9  ar  
 12   9  10  1   
 13  10  11  1   
 14  10  12  1   
 15  11  13  1   
 16  11  26  1   
 17  11  27  1   
 18  12  14  1   
 19  12  28  1   
 20  12  29  1   
 21  13  15  1   
 22  13  30  1   
 23  13  31  1   
 24  14  15  1   
 25  14  32  1   
 26  14  33  1   
 27  15  16  1   
 28  16  17  1   
 29  16  34  1   
 30  16  35  1   
 31  17  18  2   
 32  17  19  am  
 33  19  20  1   
 34  19  36  1   
 35  20  21  1   
 36  20  22  1   
 37  20  23  1   
 38  21  37  1   
 39  21  38  1   
 40  21  39  1   
 41  22  40  1   
 42  22  41  1   
 43  22  42  1   
 44  23  43  1   
 45  23  44  1   
 46  23  45  1   
@<TRIPOS>SUBSTRUCTURE
  1 ****  12 GROUP 4 **** **** 0

# MOE 2024.06 (io_trps.svl 2023.06)
