@<TRIPOS>MOLECULE
NONAME
50 52 1 0 0 
SMALL
USER_CHARGES


@<TRIPOS>ATOM
  1 O       -0.6640     0.0770     0.5220 O.2   1 <1>  -0.5700 
  2 C       -1.4990     0.7500    -0.0320 C.2   1 <1>   0.5690 
  3 N       -2.5430     0.1930    -0.7000 N.am  1 <1>  -0.7300 
  4 C       -1.3870     2.2710     0.0410 C.3   1 <1>  -0.0190 
  5 C       -2.7630    -1.2660    -0.8500 C.3   1 <1>   0.1400 
  6 C       -2.6080     2.9040     0.7360 C.3   1 <1>  -0.1600 
  7 C       -1.1350     2.9040    -1.3500 C.3   1 <1>  -0.1600 
  8 C       -3.6460    -1.7850     0.2830 C.3   1 <1>   0.0210 
  9 C       -2.4290     4.4200     0.9580 C.3   1 <1>   0.2000 
 10 C       -1.5430     4.3880    -1.4380 C.3   1 <1>  -0.1600 
 11 C       -3.8750    -3.2750     0.1110 C.2   1 <1>  -0.1810 
 12 O       -3.6960     5.0220     0.8590 O.3   1 <1>  -0.5600 
 13 C       -1.4700     5.0750    -0.0720 C.3   1 <1>   0.2000 
 14 C       -4.9020    -3.8280    -0.6890 C.ar  1 <1>   0.0000 
 15 C       -3.1700    -4.3010     0.6500 C.2   1 <1>  -0.3320 
 16 C       -4.4640     4.9760     2.0220 C.3   1 <1>   0.0400 
 17 O       -1.8190     6.3990    -0.2400 O.3   1 <1>  -0.6800 
 18 C       -4.7730    -5.2090    -0.5920 C.ar  1 <1>  -0.1520 
 19 C       -5.9210    -3.2880    -1.4820 C.ar  1 <1>  -0.1500 
 20 N       -3.7130    -5.4840     0.2320 N.pl3 1 <1>   0.0330 
 21 C       -1.9580    -4.2690     1.5650 C.3   1 <1>  -0.0600 
 22 C       -5.6430    -6.0640    -1.2730 C.ar  1 <1>  -0.1500 
 23 C       -6.7780    -4.1290    -2.1530 C.ar  1 <1>  -0.1500 
 24 C       -6.6390    -5.5180    -2.0490 C.ar  1 <1>  -0.1500 
 25 H       -3.2390     0.7990    -1.1350 H     1 <1>   0.3700 
 26 H       -0.5280     2.4840     0.6550 H     1 <1>   0.0800 
 27 H       -3.2260    -1.4680    -1.8000 H     1 <1>   0.0800 
 28 H       -1.8160    -1.7800    -0.8220 H     1 <1>   0.0800 
 29 H       -2.7650     2.4250     1.6860 H     1 <1>   0.0800 
 30 H       -3.4780     2.7360     0.1240 H     1 <1>   0.0800 
 31 H       -0.0860     2.8080    -1.5750 H     1 <1>   0.0800 
 32 H       -1.6700     2.3640    -2.1120 H     1 <1>   0.0800 
 33 H       -3.1610    -1.6000     1.2240 H     1 <1>   0.0800 
 34 H       -4.5920    -1.2750     0.2830 H     1 <1>   0.0800 
 35 H       -2.0280     4.6070     1.9400 H     1 <1>   0.0800 
 36 H       -2.5560     4.4530    -1.7970 H     1 <1>   0.0800 
 37 H       -0.9030     4.8980    -2.1380 H     1 <1>   0.0800 
 38 H       -0.4560     5.0440     0.2880 H     1 <1>   0.0800 
 39 H       -5.4020     5.4630     1.8230 H     1 <1>   0.0800 
 40 H       -3.9480     5.4970     2.8100 H     1 <1>   0.0800 
 41 H       -4.6410     3.9510     2.2980 H     1 <1>   0.0800 
 42 H       -2.7910     6.4410    -0.0850 H     1 <1>   0.4000 
 43 H       -6.0210    -2.2220    -1.5550 H     1 <1>   0.1500 
 44 H       -3.3880    -6.4220     0.4800 H     1 <1>   0.2700 
 45 H       -1.6270    -3.2590     1.7290 H     1 <1>   0.0800 
 46 H       -1.1470    -4.8180     1.1220 H     1 <1>   0.0800 
 47 H       -2.2020    -4.7080     2.5160 H     1 <1>   0.0800 
 48 H       -5.5270    -7.1290    -1.1860 H     1 <1>   0.1500 
 49 H       -7.5660    -3.7270    -2.7660 H     1 <1>   0.1500 
 50 H       -7.3220    -6.1550    -2.5830 H     1 <1>   0.1500 
@<TRIPOS>BOND
  1   1   2  2   
  2   2   3  am  
  3   2   4  1   
  4   3   5  1   
  5   3  25  1   
  6   4   6  1   
  7   4   7  1   
  8   4  26  1   
  9   5   8  1   
 10   5  27  1   
 11   5  28  1   
 12   6   9  1   
 13   6  29  1   
 14   6  30  1   
 15   7  10  1   
 16   7  31  1   
 17   7  32  1   
 18   8  11  1   
 19   8  33  1   
 20   8  34  1   
 21   9  12  1   
 22   9  13  1   
 23   9  35  1   
 24  10  13  1   
 25  10  36  1   
 26  10  37  1   
 27  11  14  1   
 28  11  15  2   
 29  12  16  1   
 30  13  17  1   
 31  13  38  1   
 32  14  18  ar  
 33  14  19  ar  
 34  15  20  1   
 35  15  21  1   
 36  16  39  1   
 37  16  40  1   
 38  16  41  1   
 39  17  42  1   
 40  18  20  1   
 41  18  22  ar  
 42  19  23  ar  
 43  19  43  1   
 44  20  44  1   
 45  21  45  1   
 46  21  46  1   
 47  21  47  1   
 48  22  24  ar  
 49  22  48  1   
 50  23  24  ar  
 51  23  49  1   
 52  24  50  1   
@<TRIPOS>SUBSTRUCTURE
  1 ****   3 GROUP 4 **** **** 0

# MOE 2024.06 (io_trps.svl 2023.06)
