@<TRIPOS>MOLECULE
NONAME
42 43 1 0 0 
SMALL
USER_CHARGES


@<TRIPOS>ATOM
  1 S        0.6620     0.8170    -1.2840 S.o2  1 <1>   1.3330 
  2 O        0.7250    -0.5020    -1.8790 O.2   1 <1>  -0.6500 
  3 O       -0.0430     1.8560    -2.0030 O.2   1 <1>  -0.6500 
  4 N       -0.1110     0.6460     0.2170 N.am  1 <1>  -0.8490 
  5 C        2.3360     1.3480    -0.9180 C.3   1 <1>  -0.0550 
  6 C       -0.2460     1.9190     0.9420 C.3   1 <1>   0.1160 
  7 C       -1.4200     0.0100     0.0800 C.3   1 <1>   0.1160 
  8 C        3.2200     0.2790    -0.2360 C.3   1 <1>  -0.0800 
  9 C        4.6580     0.6990     0.0410 C.3   1 <1>   0.2200 
 10 C        2.7680    -0.1530     1.1540 C.3   1 <1>   0.1200 
 11 N        4.7090     2.0820     0.5530 N.am  1 <1>  -0.7300 
 12 C        5.0610    -0.2660     1.1580 C.3   1 <1>   0.1200 
 13 O        3.8820    -0.7700     1.7240 O.3   1 <1>  -0.5600 
 14 C        4.9100     3.1930    -0.2050 C.2   1 <1>   0.5440 
 15 O        5.6270     3.0720    -1.1980 O.2   1 <1>  -0.5700 
 16 C        4.2660     4.4330     0.1570 C.ar  1 <1>   0.0860 
 17 C        3.2110     4.4870     1.1200 C.ar  1 <1>  -0.1710 
 18 C        4.6450     5.6550    -0.4330 C.ar  1 <1>   0.0820 
 19 O        2.7500     3.4710     1.7000 O.3   1 <1>  -0.8290 
 20 C        2.6350     5.7220     1.4520 C.ar  1 <1>  -0.1500 
 21 O        5.6090     5.6790    -1.3710 O.3   1 <1>  -0.5330 
 22 C        4.0590     6.8570    -0.0920 C.ar  1 <1>  -0.1500 
 23 C        3.0470     6.8890     0.8610 C.ar  1 <1>  -0.1500 
 24 H        2.8110     1.6280    -1.8380 H     1 <1>   0.0800 
 25 H        2.2910     2.2310    -0.3170 H     1 <1>   0.0800 
 26 H       -0.7310     1.7600     1.8890 H     1 <1>   0.0800 
 27 H       -0.8180     2.6280     0.3660 H     1 <1>   0.0800 
 28 H        0.7210     2.3440     1.1420 H     1 <1>   0.0800 
 29 H       -1.8700    -0.1240     1.0480 H     1 <1>   0.0800 
 30 H       -1.3080    -0.9580    -0.3800 H     1 <1>   0.0800 
 31 H       -2.0660     0.6140    -0.5350 H     1 <1>   0.0800 
 32 H        3.2370    -0.5980    -0.8590 H     1 <1>   0.0800 
 33 H        5.2940     0.6000    -0.8220 H     1 <1>   0.0800 
 34 H        1.9490    -0.8520     1.1290 H     1 <1>   0.0800 
 35 H        2.5100     0.7000     1.7620 H     1 <1>   0.0800 
 36 H        3.9890     2.3060     1.2780 H     1 <1>   0.3700 
 37 H        5.6390     0.2240     1.9220 H     1 <1>   0.0800 
 38 H        5.6090    -1.1010     0.7590 H     1 <1>   0.0800 
 39 H        1.8550     5.7140     2.1900 H     1 <1>   0.1500 
 40 H        5.8950     4.7480    -1.5600 H     1 <1>   0.4500 
 41 H        4.3860     7.7630    -0.5650 H     1 <1>   0.1500 
 42 H        2.5940     7.8250     1.1290 H     1 <1>   0.1500 
@<TRIPOS>BOND
  1   1   2  2   
  2   1   3  2   
  3   1   4  am  
  4   1   5  1   
  5   4   6  1   
  6   4   7  1   
  7   5   8  1   
  8   5  24  1   
  9   5  25  1   
 10   6  26  1   
 11   6  27  1   
 12   6  28  1   
 13   7  29  1   
 14   7  30  1   
 15   7  31  1   
 16   8   9  1   
 17   8  10  1   
 18   8  32  1   
 19   9  11  1   
 20   9  12  1   
 21   9  33  1   
 22  10  13  1   
 23  10  34  1   
 24  10  35  1   
 25  11  14  am  
 26  11  36  1   
 27  12  13  1   
 28  12  37  1   
 29  12  38  1   
 30  14  15  2   
 31  14  16  1   
 32  16  17  ar  
 33  16  18  ar  
 34  17  19  1   
 35  17  20  ar  
 36  18  21  1   
 37  18  22  ar  
 38  20  23  ar  
 39  20  39  1   
 40  21  40  1   
 41  22  23  ar  
 42  22  41  1   
 43  23  42  1   
@<TRIPOS>SUBSTRUCTURE
  1 ****   5 GROUP 4 **** **** 0

# MOE 2024.06 (io_trps.svl 2023.06)
