@<TRIPOS>MOLECULE
NONAME
52 54 1 0 0 
SMALL
USER_CHARGES


@<TRIPOS>ATOM
  1 S        0.6910    -0.2380     1.4690 S.3   1 <1>  -0.0800 
  2 C        0.6900    -0.6780    -0.2470 C.2   1 <1>  -0.0450 
  3 C        1.3980     1.3240     1.1300 C.2   1 <1>  -0.1400 
  4 C        0.1860    -1.9620    -0.6620 C.2   1 <1>   0.7150 
  5 C        1.2200     0.3500    -0.9600 C.2   1 <1>  -0.1500 
  6 C        1.6200     1.4750    -0.1820 C.2   1 <1>  -0.1810 
  7 C        1.6930     2.3100     2.2360 C.3   1 <1>   0.0200 
  8 O        0.3110    -2.3340    -1.8150 O.2   1 <1>  -0.5700 
  9 N       -0.5190    -2.7810     0.1780 N.am  1 <1>  -0.6600 
 10 C        2.2410     2.7380    -0.7520 C.3   1 <1>   0.0210 
 11 C        1.9930     3.6870     1.6130 C.3   1 <1>  -0.1600 
 12 C       -0.0580    -4.1810     0.3750 C.3   1 <1>   0.3200 
 13 C       -1.8790    -2.3840     0.6740 C.3   1 <1>   0.1400 
 14 C        2.9010     3.5890     0.3630 C.3   1 <1>  -0.0800 
 15 C       -1.1460    -5.2000     0.0910 C.2   1 <1>  -0.3320 
 16 C       -2.7360    -1.7120    -0.4210 C.3   1 <1>   0.1200 
 17 C        3.2690     5.0030    -0.1290 C.3   1 <1>  -0.1600 
 18 N       -1.9990    -5.1270    -0.9480 N.pl3 1 <1>   0.0330 
 19 C       -1.4750    -6.3220     0.7670 C.2   1 <1>   0.0770 
 20 O       -2.6080    -2.3730    -1.6440 O.3   1 <1>  -0.6800 
 21 C        4.2910     5.0020    -1.2760 C.3   1 <1>  -0.1600 
 22 C       -2.7980    -6.2080    -0.8310 C.2   1 <1>   0.0060 
 23 N       -2.5120    -6.9540     0.1850 N.2   1 <1>  -0.5650 
 24 C        4.7050     6.4300    -1.6420 C.3   1 <1>  -0.2400 
 25 C       -3.9230    -6.4930    -1.8010 C.3   1 <1>  -0.0600 
 26 H        1.3430     0.3420    -2.0300 H     1 <1>   0.1500 
 27 H        2.5450     1.9620     2.7930 H     1 <1>   0.0800 
 28 H        0.8530     2.3840     2.9030 H     1 <1>   0.0800 
 29 H        1.4700     3.3050    -1.2430 H     1 <1>   0.0800 
 30 H        2.9790     2.4630    -1.4840 H     1 <1>   0.0800 
 31 H        2.4530     4.3110     2.3590 H     1 <1>   0.0800 
 32 H        1.0620     4.1450     1.3290 H     1 <1>   0.0800 
 33 H        0.2830    -4.2960     1.3890 H     1 <1>   0.0800 
 34 H        0.7780    -4.3780    -0.2760 H     1 <1>   0.0800 
 35 H       -1.7730    -1.7080     1.5040 H     1 <1>   0.0800 
 36 H       -2.4100    -3.2440     1.0430 H     1 <1>   0.0800 
 37 H        3.8080     3.0910     0.6620 H     1 <1>   0.0800 
 38 H       -2.4290    -0.6900    -0.5620 H     1 <1>   0.0800 
 39 H       -3.7750    -1.7230    -0.1410 H     1 <1>   0.0800 
 40 H        3.6860     5.5560     0.6960 H     1 <1>   0.0800 
 41 H        2.3780     5.5170    -0.4450 H     1 <1>   0.0800 
 42 H       -2.0810    -4.3620    -1.6300 H     1 <1>   0.2700 
 43 H       -1.0170    -6.7200     1.6570 H     1 <1>   0.1500 
 44 H       -1.6650    -2.3310    -1.9370 H     1 <1>   0.4000 
 45 H        3.8720     4.5310    -2.1480 H     1 <1>   0.0800 
 46 H        5.1660     4.4460    -0.9820 H     1 <1>   0.0800 
 47 H        3.8480     7.0010    -1.9550 H     1 <1>   0.0800 
 48 H        5.4160     6.4110    -2.4480 H     1 <1>   0.0800 
 49 H        5.1580     6.9190    -0.7980 H     1 <1>   0.0800 
 50 H       -4.6110    -5.6670    -1.8170 H     1 <1>   0.0800 
 51 H       -4.4510    -7.3790    -1.4960 H     1 <1>   0.0800 
 52 H       -3.5280    -6.6470    -2.7870 H     1 <1>   0.0800 
@<TRIPOS>BOND
  1   1   2  1   
  2   1   3  1   
  3   2   4  1   
  4   2   5  2   
  5   3   6  2   
  6   3   7  1   
  7   4   8  2   
  8   4   9  am  
  9   5   6  1   
 10   5  26  1   
 11   6  10  1   
 12   7  11  1   
 13   7  27  1   
 14   7  28  1   
 15   9  12  1   
 16   9  13  1   
 17  10  14  1   
 18  10  29  1   
 19  10  30  1   
 20  11  14  1   
 21  11  31  1   
 22  11  32  1   
 23  12  15  1   
 24  12  33  1   
 25  12  34  1   
 26  13  16  1   
 27  13  35  1   
 28  13  36  1   
 29  14  17  1   
 30  14  37  1   
 31  15  18  1   
 32  15  19  2   
 33  16  20  1   
 34  16  38  1   
 35  16  39  1   
 36  17  21  1   
 37  17  40  1   
 38  17  41  1   
 39  18  22  1   
 40  18  42  1   
 41  19  23  1   
 42  19  43  1   
 43  20  44  1   
 44  21  24  1   
 45  21  45  1   
 46  21  46  1   
 47  22  23  2   
 48  22  25  1   
 49  24  47  1   
 50  24  48  1   
 51  24  49  1   
 52  25  50  1   
 53  25  51  1   
 54  25  52  1   
@<TRIPOS>SUBSTRUCTURE
  1 ****   2 GROUP 4 **** **** 0

# MOE 2024.06 (io_trps.svl 2023.06)
