@<TRIPOS>MOLECULE
NONAME
56 59 1 0 0 
SMALL
USER_CHARGES


@<TRIPOS>ATOM
  1 CL      -1.4240     0.0240     0.0620 Cl    1 <1>  -0.1770 
  2 C       -0.9250    -1.6360    -0.1800 C.ar  1 <1>   0.1770 
  3 C        0.3750    -1.9220    -0.5750 C.ar  1 <1>  -0.1440 
  4 C       -1.8540    -2.6340     0.0330 C.ar  1 <1>  -0.1500 
  5 C        0.7290    -3.2520    -0.7520 C.ar  1 <1>  -0.1500 
  6 C        1.3920    -0.8160    -0.8080 C.3   1 <1>  -0.0960 
  7 C       -1.5010    -3.9630    -0.1470 C.ar  1 <1>   0.1000 
  8 C       -0.1980    -4.2580    -0.5390 C.ar  1 <1>  -0.1500 
  9 N       -2.4440    -4.9620     0.0760 N.pl3 1 <1>  -0.8380 
 10 C       -2.6300    -5.3900     1.4770 C.3   1 <1>   0.2090 
 11 C       -2.5960    -6.0210    -0.9410 C.3   1 <1>   0.2090 
 12 C       -4.0630    -5.8970     1.6130 C.3   1 <1>  -0.1600 
 13 C       -4.0270    -6.5430    -0.8520 C.3   1 <1>  -0.1600 
 14 C       -4.3460    -6.9910     0.5800 C.3   1 <1>   0.4230 
 15 N       -5.7760    -7.3490     0.6840 N.4   1 <1>  -0.9060 
 16 C       -6.1920    -8.5980    -0.0110 C.3   1 <1>   0.4230 
 17 C       -7.7090    -8.7270     0.1090 C.3   1 <1>  -0.0800 
 18 C       -5.7440    -9.7910     0.8260 C.3   1 <1>   0.1200 
 19 C       -7.8900    -9.4390     1.4630 C.3   1 <1>   0.1200 
 20 C       -8.3070    -9.5390    -1.0580 C.3   1 <1>  -0.0170 
 21 O       -6.6010    -9.7350     1.9150 O.3   1 <1>  -0.5600 
 22 C       -9.8170    -9.6470    -0.9270 C.ar  1 <1>  -0.1430 
 23 C      -10.4340   -10.8020    -0.4870 C.ar  1 <1>  -0.1500 
 24 C      -10.6530    -8.5950    -1.2450 C.ar  1 <1>  -0.1500 
 25 C      -11.8150   -10.8430    -0.3770 C.ar  1 <1>   0.1600 
 26 C      -12.0230    -8.7400    -1.1000 C.ar  1 <1>   0.1600 
 27 N      -12.6210    -9.8370    -0.6690 N.ar  1 <1>  -0.6200 
 28 H       -2.8520    -2.3830     0.3340 H     1 <1>   0.1500 
 29 H        1.7280    -3.5100    -1.0560 H     1 <1>   0.1500 
 30 H        2.3410    -1.2200    -1.1090 H     1 <1>   0.0800 
 31 H        1.5320    -0.2500     0.0960 H     1 <1>   0.0800 
 32 H        1.0420    -0.1540    -1.5800 H     1 <1>   0.0800 
 33 H        0.0960    -5.2810    -0.6740 H     1 <1>   0.1500 
 34 H       -1.9190    -6.1620     1.7180 H     1 <1>   0.0800 
 35 H       -2.4650    -4.5550     2.1400 H     1 <1>   0.0800 
 36 H       -2.4090    -5.6110    -1.9210 H     1 <1>   0.0800 
 37 H       -1.8840    -6.8090    -0.7560 H     1 <1>   0.0800 
 38 H       -4.7230    -5.0600     1.4700 H     1 <1>   0.0800 
 39 H       -4.1960    -6.2790     2.6090 H     1 <1>   0.0800 
 40 H       -4.1290    -7.3600    -1.5410 H     1 <1>   0.0800 
 41 H       -4.6860    -5.7480    -1.1530 H     1 <1>   0.0800 
 42 H       -3.7340    -7.8460     0.8210 H     1 <1>   0.0800 
 43 H       -6.3400    -6.5520     0.3740 H     1 <1>   0.4500 
 44 H       -6.0010    -7.5150     1.6770 H     1 <1>   0.4500 
 45 H       -5.8440    -8.6300    -1.0300 H     1 <1>   0.0800 
 46 H       -8.1900    -7.7650     0.1250 H     1 <1>   0.0800 
 47 H       -4.7240    -9.7340     1.1620 H     1 <1>   0.0800 
 48 H       -5.9060   -10.7240     0.3120 H     1 <1>   0.0800 
 49 H       -8.4360   -10.3640     1.3760 H     1 <1>   0.0800 
 50 H       -8.3730    -8.8110     2.1930 H     1 <1>   0.0800 
 51 H       -7.8810   -10.5280    -1.0920 H     1 <1>   0.0800 
 52 H       -8.0810    -9.0580    -1.9940 H     1 <1>   0.0800 
 53 H       -9.8650   -11.6760    -0.2290 H     1 <1>   0.1500 
 54 H      -10.2620    -7.6620    -1.6070 H     1 <1>   0.1500 
 55 H      -12.2800   -11.7510    -0.0320 H     1 <1>   0.1500 
 56 H      -12.6620    -7.9100    -1.3530 H     1 <1>   0.1500 
@<TRIPOS>BOND
  1   1   2  1   
  2   2   3  ar  
  3   2   4  ar  
  4   3   5  ar  
  5   3   6  1   
  6   4   7  ar  
  7   4  28  1   
  8   5   8  ar  
  9   5  29  1   
 10   6  30  1   
 11   6  31  1   
 12   6  32  1   
 13   7   8  ar  
 14   7   9  1   
 15   8  33  1   
 16   9  10  1   
 17   9  11  1   
 18  10  12  1   
 19  10  34  1   
 20  10  35  1   
 21  11  13  1   
 22  11  36  1   
 23  11  37  1   
 24  12  14  1   
 25  12  38  1   
 26  12  39  1   
 27  13  14  1   
 28  13  40  1   
 29  13  41  1   
 30  14  15  1   
 31  14  42  1   
 32  15  16  1   
 33  15  43  1   
 34  15  44  1   
 35  16  17  1   
 36  16  18  1   
 37  16  45  1   
 38  17  19  1   
 39  17  20  1   
 40  17  46  1   
 41  18  21  1   
 42  18  47  1   
 43  18  48  1   
 44  19  21  1   
 45  19  49  1   
 46  19  50  1   
 47  20  22  1   
 48  20  51  1   
 49  20  52  1   
 50  22  23  ar  
 51  22  24  ar  
 52  23  25  ar  
 53  23  53  1   
 54  24  26  ar  
 55  24  54  1   
 56  25  27  ar  
 57  25  55  1   
 58  26  27  ar  
 59  26  56  1   
@<TRIPOS>SUBSTRUCTURE
  1 ****  14 GROUP 4 **** **** 0

# MOE 2024.06 (io_trps.svl 2023.06)
