@<TRIPOS>MOLECULE
NONAME
65 68 1 0 0 
SMALL
USER_CHARGES


@<TRIPOS>ATOM
  1 O        0.2610     0.5150     0.4950 O.2   1 <1>  -0.5700 
  2 C       -0.2430     1.5840     0.2080 C.2   1 <1>   0.5440 
  3 N       -1.5970     1.6410    -0.0480 N.am  1 <1>  -0.6600 
  4 C        0.5920     2.7690     0.1690 C.ar  1 <1>   0.0860 
  5 C       -2.3610     2.9180    -0.2070 C.3   1 <1>   0.1400 
  6 C       -2.4340     0.4010    -0.0170 C.3   1 <1>   0.1400 
  7 C        0.7700     3.4990    -1.0060 C.ar  1 <1>  -0.1500 
  8 C        1.2390     3.2220     1.3160 C.ar  1 <1>  -0.1500 
  9 C       -3.3640     3.1090     0.9510 C.3   1 <1>   0.1440 
 10 C       -3.9200     0.7080     0.2440 C.3   1 <1>  -0.1600 
 11 C        1.5410     4.6460    -1.0270 C.ar  1 <1>  -0.1500 
 12 C        2.0110     4.3690     1.2990 C.ar  1 <1>  -0.1500 
 13 C       -4.3270     4.2030     0.5230 C.ar  1 <1>   0.1670 
 14 C       -4.0790     1.7840     1.3310 C.3   1 <1>  -0.1600 
 15 C       -2.6780     3.7530     2.1850 C.3   1 <1>  -0.1600 
 16 C        2.1630     5.0910     0.1270 C.ar  1 <1>  -0.1430 
 17 N       -5.3050     4.0610    -0.3370 N.ar  1 <1>  -0.6200 
 18 C       -4.0380     5.3890     1.1280 C.ar  1 <1>  -0.1430 
 19 C       -2.8520     5.2750     2.0510 C.3   1 <1>  -0.0170 
 20 C        3.0170     6.3480     0.1060 C.3   1 <1>  -0.0170 
 21 C       -6.0200     5.1630    -0.5750 C.ar  1 <1>   0.7200 
 22 C       -4.8240     6.4700     0.8200 C.ar  1 <1>   0.1600 
 23 C        4.4650     5.9950    -0.2750 C.3   1 <1>  -0.1600 
 24 N       -5.8190     6.3670    -0.0300 N.ar  1 <1>  -0.6200 
 25 N       -7.0650     5.0480    -1.4730 N.pl3 1 <1>  -0.8380 
 26 C        5.4540     7.1730    -0.2420 C.3   1 <1>   0.2800 
 27 C       -7.2380     3.8490    -2.3380 C.3   1 <1>   0.1290 
 28 C       -8.1070     6.1020    -1.6100 C.3   1 <1>   0.1290 
 29 O        5.4450     7.7110     1.0180 O.3   1 <1>  -0.6800 
 30 C        6.8800     6.6950    -0.5040 C.3   1 <1>  -0.2400 
 31 C        5.0810     8.3000    -1.2050 C.3   1 <1>  -0.2400 
 32 H       -2.8990     2.8730    -1.1380 H     1 <1>   0.0800 
 33 H       -1.7100     3.7700    -0.2580 H     1 <1>   0.0800 
 34 H       -2.0710    -0.2420     0.7680 H     1 <1>   0.0800 
 35 H       -2.3250    -0.1240    -0.9500 H     1 <1>   0.0800 
 36 H        0.2940     3.1560    -1.9080 H     1 <1>   0.1500 
 37 H        1.1310     2.6590     2.2260 H     1 <1>   0.1500 
 38 H       -4.4190    -0.1950     0.5460 H     1 <1>   0.0800 
 39 H       -4.3850     1.0420    -0.6670 H     1 <1>   0.0800 
 40 H        1.6580     5.1920    -1.9480 H     1 <1>   0.1500 
 41 H        2.4970     4.6960     2.2020 H     1 <1>   0.1500 
 42 H       -5.1240     1.9680     1.5160 H     1 <1>   0.0800 
 43 H       -3.6540     1.3890     2.2370 H     1 <1>   0.0800 
 44 H       -1.6440     3.4690     2.2730 H     1 <1>   0.0800 
 45 H       -3.1900     3.4450     3.0800 H     1 <1>   0.0800 
 46 H       -1.9860     5.7180     1.5890 H     1 <1>   0.0800 
 47 H       -3.0390     5.7390     3.0040 H     1 <1>   0.0800 
 48 H        2.9910     6.8150     1.0750 H     1 <1>   0.0800 
 49 H        2.6040     7.0450    -0.6010 H     1 <1>   0.0800 
 50 H       -4.6360     7.4270     1.2730 H     1 <1>   0.1500 
 51 H        4.4630     5.5770    -1.2650 H     1 <1>   0.0800 
 52 H        4.8180     5.2250     0.3880 H     1 <1>   0.0800 
 53 H       -6.2830     3.4110    -2.5720 H     1 <1>   0.0800 
 54 H       -7.7190     4.1230    -3.2600 H     1 <1>   0.0800 
 55 H       -7.8400     3.1200    -1.8250 H     1 <1>   0.0800 
 56 H       -8.2420     6.6230    -0.6770 H     1 <1>   0.0800 
 57 H       -9.0480     5.6610    -1.8880 H     1 <1>   0.0800 
 58 H       -7.8070     6.8080    -2.3640 H     1 <1>   0.0800 
 59 H        5.7980     7.0590     1.6490 H     1 <1>   0.4000 
 60 H        7.1620     5.9250     0.1910 H     1 <1>   0.0800 
 61 H        7.5720     7.5150    -0.4220 H     1 <1>   0.0800 
 62 H        6.9540     6.2930    -1.4990 H     1 <1>   0.0800 
 63 H        4.1340     8.7340    -0.9410 H     1 <1>   0.0800 
 64 H        5.0200     7.9240    -2.2100 H     1 <1>   0.0800 
 65 H        5.8270     9.0730    -1.1780 H     1 <1>   0.0800 
@<TRIPOS>BOND
  1   1   2  2   
  2   2   3  am  
  3   2   4  1   
  4   3   5  1   
  5   3   6  1   
  6   4   7  ar  
  7   4   8  ar  
  8   5   9  1   
  9   5  32  1   
 10   5  33  1   
 11   6  10  1   
 12   6  34  1   
 13   6  35  1   
 14   7  11  ar  
 15   7  36  1   
 16   8  12  ar  
 17   8  37  1   
 18   9  13  1   
 19   9  14  1   
 20   9  15  1   
 21  10  14  1   
 22  10  38  1   
 23  10  39  1   
 24  11  16  ar  
 25  11  40  1   
 26  12  16  ar  
 27  12  41  1   
 28  13  17  ar  
 29  13  18  ar  
 30  14  42  1   
 31  14  43  1   
 32  15  19  1   
 33  15  44  1   
 34  15  45  1   
 35  16  20  1   
 36  17  21  ar  
 37  18  19  1   
 38  18  22  ar  
 39  19  46  1   
 40  19  47  1   
 41  20  23  1   
 42  20  48  1   
 43  20  49  1   
 44  21  24  ar  
 45  21  25  1   
 46  22  24  ar  
 47  22  50  1   
 48  23  26  1   
 49  23  51  1   
 50  23  52  1   
 51  25  27  1   
 52  25  28  1   
 53  26  29  1   
 54  26  30  1   
 55  26  31  1   
 56  27  53  1   
 57  27  54  1   
 58  27  55  1   
 59  28  56  1   
 60  28  57  1   
 61  28  58  1   
 62  29  59  1   
 63  30  60  1   
 64  30  61  1   
 65  30  62  1   
 66  31  63  1   
 67  31  64  1   
 68  31  65  1   
@<TRIPOS>SUBSTRUCTURE
  1 ****   5 GROUP 4 **** **** 0

# MOE 2024.06 (io_trps.svl 2023.06)
