@<TRIPOS>MOLECULE
NONAME
50 52 1 0 0 
SMALL
USER_CHARGES


@<TRIPOS>ATOM
  1 O        2.1970    -0.4570    -1.9160 O.2   1 <1>  -0.5700 
  2 C        2.4790    -0.9610    -0.8450 C.2   1 <1>   0.5440 
  3 N        3.0080    -0.1540     0.1430 N.am  1 <1>  -0.6600 
  4 C        2.2710    -2.3850    -0.6520 C.ar  1 <1>   0.0860 
  5 C        3.9140    -0.6630     1.2180 C.3   1 <1>   0.1400 
  6 C        2.9310     1.3290     0.0580 C.3   1 <1>   0.1400 
  7 C        1.6600    -2.8880     0.4980 C.ar  1 <1>  -0.1500 
  8 C        2.6700    -3.3040    -1.6220 C.ar  1 <1>  -0.1500 
  9 C        5.3280    -0.0940     1.0380 C.3   1 <1>   0.2000 
 10 C        4.3280     1.8890    -0.2130 C.3   1 <1>  -0.1600 
 11 C        1.4740    -4.2460     0.6800 C.ar  1 <1>  -0.1500 
 12 C        2.4870    -4.6640    -1.4470 C.ar  1 <1>  -0.1500 
 13 O        6.0770    -0.4440     2.1540 O.3   1 <1>  -0.6800 
 14 C        5.3190     1.4440     0.8670 C.3   1 <1>   0.2200 
 15 C        1.8890    -5.1380    -0.2930 C.ar  1 <1>  -0.1500 
 16 N        6.6610     1.9620     0.4980 N.am  1 <1>  -0.7300 
 17 C        7.7050     2.1190     1.3450 C.2   1 <1>   0.5690 
 18 O        7.6470     1.7630     2.4950 O.2   1 <1>  -0.5700 
 19 C        8.9880     2.7140     0.8260 C.3   1 <1>  -0.0990 
 20 C       10.0580     1.6230     0.7250 C.3   1 <1>   0.0960 
 21 N       11.2720     2.1600     0.0910 N.pl3 1 <1>   0.3140 
 22 N       11.3070     2.4610    -1.2200 N.2   1 <1>  -0.7070 
 23 C       12.4500     2.4280     0.6870 C.2   1 <1>  -0.3020 
 24 C       12.5050     2.9090    -1.4260 C.2   1 <1>   0.1080 
 25 C       13.2720     2.9140    -0.2670 C.2   1 <1>  -0.1500 
 26 C       12.9760     3.3650    -2.7870 C.3   1 <1>  -0.0590 
 27 H        3.5230    -0.3600     2.1740 H     1 <1>   0.0800 
 28 H        3.9740    -1.7360     1.1940 H     1 <1>   0.0800 
 29 H        2.2570     1.6290    -0.7270 H     1 <1>   0.0800 
 30 H        2.5470     1.7160     0.9870 H     1 <1>   0.0800 
 31 H        1.3270    -2.1990     1.2540 H     1 <1>   0.1500 
 32 H        3.1280    -2.9370    -2.5240 H     1 <1>   0.1500 
 33 H        5.7840    -0.5510     0.1780 H     1 <1>   0.0800 
 34 H        4.2730     2.9620    -0.2330 H     1 <1>   0.0800 
 35 H        4.6470     1.5420    -1.1800 H     1 <1>   0.0800 
 36 H        1.0040    -4.6110     1.5770 H     1 <1>   0.1500 
 37 H        2.8060    -5.3530    -2.2100 H     1 <1>   0.1500 
 38 H        6.7310     0.2780     2.3490 H     1 <1>   0.4000 
 39 H        5.0190     1.8840     1.8040 H     1 <1>   0.0800 
 40 H        1.7450    -6.1960    -0.1540 H     1 <1>   0.1500 
 41 H        6.7720     2.2120    -0.4870 H     1 <1>   0.3700 
 42 H        8.8180     3.1530    -0.1410 H     1 <1>   0.0800 
 43 H        9.3130     3.4820     1.5030 H     1 <1>   0.0800 
 44 H        9.7010     0.8090     0.1200 H     1 <1>   0.0800 
 45 H       10.3050     1.2480     1.7010 H     1 <1>   0.0800 
 46 H       12.6350     2.2630     1.7320 H     1 <1>   0.1500 
 47 H       14.2930     3.2390    -0.1790 H     1 <1>   0.1500 
 48 H       13.9960     3.6980    -2.7400 H     1 <1>   0.0800 
 49 H       12.3560     4.1730    -3.1290 H     1 <1>   0.0800 
 50 H       12.9020     2.5500    -3.4830 H     1 <1>   0.0800 
@<TRIPOS>BOND
  1   1   2  2   
  2   2   3  am  
  3   2   4  1   
  4   3   5  1   
  5   3   6  1   
  6   4   7  ar  
  7   4   8  ar  
  8   5   9  1   
  9   5  27  1   
 10   5  28  1   
 11   6  10  1   
 12   6  29  1   
 13   6  30  1   
 14   7  11  ar  
 15   7  31  1   
 16   8  12  ar  
 17   8  32  1   
 18   9  13  1   
 19   9  14  1   
 20   9  33  1   
 21  10  14  1   
 22  10  34  1   
 23  10  35  1   
 24  11  15  ar  
 25  11  36  1   
 26  12  15  ar  
 27  12  37  1   
 28  13  38  1   
 29  14  16  1   
 30  14  39  1   
 31  15  40  1   
 32  16  17  am  
 33  16  41  1   
 34  17  18  2   
 35  17  19  1   
 36  19  20  1   
 37  19  42  1   
 38  19  43  1   
 39  20  21  1   
 40  20  44  1   
 41  20  45  1   
 42  21  22  1   
 43  21  23  1   
 44  22  24  2   
 45  23  25  2   
 46  23  46  1   
 47  24  25  1   
 48  24  26  1   
 49  25  47  1   
 50  26  48  1   
 51  26  49  1   
 52  26  50  1   
@<TRIPOS>SUBSTRUCTURE
  1 ****   9 GROUP 4 **** **** 0

# MOE 2024.06 (io_trps.svl 2023.06)
