@<TRIPOS>MOLECULE
NONAME
55 57 1 0 0 
SMALL
USER_CHARGES


@<TRIPOS>ATOM
  1 CL      -1.0580     0.8390     1.1670 Cl    1 <1>  -0.1770 
  2 C       -2.4420     0.9750     0.1130 C.ar  1 <1>   0.1770 
  3 C       -3.6650     0.4920     0.5390 C.ar  1 <1>  -0.1500 
  4 C       -2.2920     1.5620    -1.1280 C.ar  1 <1>  -0.1500 
  5 C       -4.7700     0.5980    -0.2940 C.ar  1 <1>  -0.1440 
  6 C       -3.3940     1.6680    -1.9600 C.ar  1 <1>  -0.1500 
  7 C       -4.6250     1.1870    -1.5430 C.ar  1 <1>  -0.1500 
  8 C       -6.1270     0.0800     0.1540 C.3   1 <1>  -0.0160 
  9 C       -6.9550     1.2210     0.7470 C.3   1 <1>   0.1400 
 10 N       -8.2750     0.7150     1.2100 N.am  1 <1>  -0.7300 
 11 C       -9.4270     0.8210     0.4880 C.2   1 <1>   0.5690 
 12 O       -9.4440     1.3170    -0.6140 O.2   1 <1>  -0.5700 
 13 C      -10.7690     0.3190     1.0540 C.3   1 <1>   0.4040 
 14 N      -11.9670     0.9740     0.4040 N.4   1 <1>  -0.9590 
 15 C      -13.2430     0.2230     0.6190 C.3   1 <1>   0.3430 
 16 C      -12.0790     2.4150     0.7680 C.3   1 <1>   0.3430 
 17 C      -14.3970     0.8170    -0.2130 C.3   1 <1>   0.0000 
 18 C      -13.1920     3.0650    -0.0540 C.3   1 <1>  -0.1600 
 19 C      -15.6780     0.0110     0.0910 C.3   1 <1>   0.2000 
 20 C      -14.5300     2.3260     0.1000 C.3   1 <1>  -0.1600 
 21 C      -14.1750     0.5430    -1.7120 C.3   1 <1>  -0.1600 
 22 O      -16.7830     0.7430    -0.3440 O.3   1 <1>  -0.5600 
 23 C      -15.5550    -1.2540    -0.7680 C.3   1 <1>  -0.1600 
 24 C      -14.6360    -0.8990    -1.9450 C.3   1 <1>  -0.1600 
 25 C      -18.0020     0.3980     0.2380 C.3   1 <1>   0.0400 
 26 H       -3.7390     0.0410     1.5110 H     1 <1>   0.1500 
 27 H       -1.3300     1.9290    -1.4350 H     1 <1>   0.1500 
 28 H       -3.2940     2.1220    -2.9310 H     1 <1>   0.1500 
 29 H       -5.4730     1.2760    -2.2000 H     1 <1>   0.1500 
 30 H       -5.9930    -0.6960     0.8860 H     1 <1>   0.0800 
 31 H       -6.6440    -0.3370    -0.6930 H     1 <1>   0.0800 
 32 H       -7.0940     1.9850    -0.0010 H     1 <1>   0.0800 
 33 H       -6.4270     1.6620     1.5760 H     1 <1>   0.0800 
 34 H       -8.2480     0.2590     2.1270 H     1 <1>   0.3700 
 35 H      -10.7900     0.4930     2.1150 H     1 <1>   0.0800 
 36 H      -10.8110    -0.7430     0.8860 H     1 <1>   0.0800 
 37 H      -11.7580     0.9710    -0.6090 H     1 <1>   0.4500 
 38 H      -13.1090    -0.8100     0.3420 H     1 <1>   0.0800 
 39 H      -13.5090     0.2600     1.6630 H     1 <1>   0.0800 
 40 H      -12.3040     2.5140     1.8180 H     1 <1>   0.0800 
 41 H      -11.1480     2.9220     0.5670 H     1 <1>   0.0800 
 42 H      -13.3130     4.0860     0.2660 H     1 <1>   0.0800 
 43 H      -12.9010     3.0910    -1.0900 H     1 <1>   0.0800 
 44 H      -15.7900    -0.2000     1.1410 H     1 <1>   0.0800 
 45 H      -15.2610     2.7780    -0.5510 H     1 <1>   0.0800 
 46 H      -14.8890     2.4480     1.1080 H     1 <1>   0.0800 
 47 H      -14.8200     1.1920    -2.2830 H     1 <1>   0.0800 
 48 H      -13.1660     0.7010    -2.0450 H     1 <1>   0.0800 
 49 H      -15.1030    -2.0400    -0.1890 H     1 <1>   0.0800 
 50 H      -16.5130    -1.6010    -1.1140 H     1 <1>   0.0800 
 51 H      -13.7940    -1.5700    -1.9760 H     1 <1>   0.0800 
 52 H      -15.1670    -0.9730    -2.8800 H     1 <1>   0.0800 
 53 H      -18.7670     1.0150    -0.2010 H     1 <1>   0.0800 
 54 H      -17.9560     0.5820     1.2980 H     1 <1>   0.0800 
 55 H      -18.2200    -0.6370     0.0430 H     1 <1>   0.0800 
@<TRIPOS>BOND
  1   1   2  1   
  2   2   3  ar  
  3   2   4  ar  
  4   3   5  ar  
  5   3  26  1   
  6   4   6  ar  
  7   4  27  1   
  8   5   7  ar  
  9   5   8  1   
 10   6   7  ar  
 11   6  28  1   
 12   7  29  1   
 13   8   9  1   
 14   8  30  1   
 15   8  31  1   
 16   9  10  1   
 17   9  32  1   
 18   9  33  1   
 19  10  11  am  
 20  10  34  1   
 21  11  12  2   
 22  11  13  1   
 23  13  14  1   
 24  13  35  1   
 25  13  36  1   
 26  14  15  1   
 27  14  16  1   
 28  14  37  1   
 29  15  17  1   
 30  15  38  1   
 31  15  39  1   
 32  16  18  1   
 33  16  40  1   
 34  16  41  1   
 35  17  19  1   
 36  17  20  1   
 37  17  21  1   
 38  18  20  1   
 39  18  42  1   
 40  18  43  1   
 41  19  22  1   
 42  19  23  1   
 43  19  44  1   
 44  20  45  1   
 45  20  46  1   
 46  21  24  1   
 47  21  47  1   
 48  21  48  1   
 49  22  25  1   
 50  23  24  1   
 51  23  49  1   
 52  23  50  1   
 53  24  51  1   
 54  24  52  1   
 55  25  53  1   
 56  25  54  1   
 57  25  55  1   
@<TRIPOS>SUBSTRUCTURE
  1 ****  11 GROUP 4 **** **** 0

# MOE 2024.06 (io_trps.svl 2023.06)
