@<TRIPOS>MOLECULE
NONAME
36 38 1 0 0 
SMALL
USER_CHARGES


@<TRIPOS>ATOM
  1 F        0.5970     2.2650    -0.4570 F     1 <1>  -0.1900 
  2 C        1.8900     2.3790    -0.2800 C.ar  1 <1>   0.1900 
  3 C        2.7420     1.3810    -0.6800 C.ar  1 <1>   0.1600 
  4 C        2.4170     3.5040     0.3060 C.ar  1 <1>   0.1600 
  5 N        4.0430     1.4910    -0.5040 N.ar  1 <1>  -0.6200 
  6 N        3.7170     3.6330     0.4880 N.ar  1 <1>  -0.6200 
  7 C        4.4720     2.6030     0.0920 C.ar  1 <1>   0.7200 
  8 N        5.8290     2.7230     0.3020 N.pl3 1 <1>  -0.8380 
  9 C        6.3800     3.5090     1.4560 C.3   1 <1>   0.2090 
 10 C        6.8420     1.9290    -0.4600 C.3   1 <1>   0.2090 
 11 C        7.3690     4.6450     1.0580 C.3   1 <1>   0.4230 
 12 C        7.8070     2.8600    -1.2210 C.3   1 <1>  -0.0800 
 13 N        7.2040     5.2240    -0.3400 N.4   1 <1>  -0.9590 
 14 C        8.8350     4.2400     1.3220 C.3   1 <1>   0.1200 
 15 C        9.2190     2.9190    -0.6170 C.3   1 <1>   0.1200 
 16 C        7.1840     4.2400    -1.4830 C.3   1 <1>   0.3430 
 17 C        5.9490     6.0330    -0.4010 C.3   1 <1>   0.2630 
 18 O        9.1710     3.0060     0.7690 O.3   1 <1>  -0.5600 
 19 H        2.3510     0.4930    -1.1450 H     1 <1>   0.1500 
 20 H        1.7600     4.2960     0.6220 H     1 <1>   0.1500 
 21 H        5.5800     3.9480     2.0230 H     1 <1>   0.0800 
 22 H        6.8730     2.8270     2.1280 H     1 <1>   0.0800 
 23 H        7.3790     1.2840     0.2160 H     1 <1>   0.0800 
 24 H        6.3540     1.2910    -1.1770 H     1 <1>   0.0800 
 25 H        7.1820     5.4480     1.7510 H     1 <1>   0.0800 
 26 H        7.9330     2.4140    -2.1910 H     1 <1>   0.0800 
 27 H        8.0000     5.8530    -0.4960 H     1 <1>   0.4500 
 28 H        8.9800     4.1400     2.3840 H     1 <1>   0.0800 
 29 H        9.5230     4.9850     0.9650 H     1 <1>   0.0800 
 30 H        9.8000     3.7350    -1.0110 H     1 <1>   0.0800 
 31 H        9.7380     2.0010    -0.8430 H     1 <1>   0.0800 
 32 H        6.1590     4.0690    -1.7750 H     1 <1>   0.0800 
 33 H        7.6800     4.6860    -2.3300 H     1 <1>   0.0800 
 34 H        5.0910     5.3960    -0.2620 H     1 <1>   0.0800 
 35 H        5.8600     6.5200    -1.3580 H     1 <1>   0.0800 
 36 H        5.9450     6.7860     0.3710 H     1 <1>   0.0800 
@<TRIPOS>BOND
  1   1   2  1   
  2   2   3  ar  
  3   2   4  ar  
  4   3   5  ar  
  5   3  19  1   
  6   4   6  ar  
  7   4  20  1   
  8   5   7  ar  
  9   6   7  ar  
 10   7   8  1   
 11   8   9  1   
 12   8  10  1   
 13   9  11  1   
 14   9  21  1   
 15   9  22  1   
 16  10  12  1   
 17  10  23  1   
 18  10  24  1   
 19  11  13  1   
 20  11  14  1   
 21  11  25  1   
 22  12  15  1   
 23  12  16  1   
 24  12  26  1   
 25  13  16  1   
 26  13  17  1   
 27  13  27  1   
 28  14  18  1   
 29  14  28  1   
 30  14  29  1   
 31  15  18  1   
 32  15  30  1   
 33  15  31  1   
 34  16  32  1   
 35  16  33  1   
 36  17  34  1   
 37  17  35  1   
 38  17  36  1   
@<TRIPOS>SUBSTRUCTURE
  1 ****   8 GROUP 4 **** **** 0

# MOE 2024.06 (io_trps.svl 2023.06)
