@<TRIPOS>MOLECULE
NONAME
56 58 1 0 0 
SMALL
USER_CHARGES


@<TRIPOS>ATOM
  1 O        0.7300     2.1850    -2.2750 O.2   1 <1>  -0.5700 
  2 C        0.6400     3.2510    -1.7240 C.2   1 <1>   0.5690 
  3 N       -0.3570     3.4900    -0.8430 N.am  1 <1>  -0.7300 
  4 C        1.6470     4.3660    -2.0380 C.3   1 <1>   0.1810 
  5 C       -0.5150     4.7650    -0.1110 C.3   1 <1>   0.3640 
  6 O        1.6580     5.4010    -1.0730 O.3   1 <1>  -0.5600 
  7 C       -1.9830     5.1710    -0.1060 C.ar  1 <1>  -0.1440 
  8 C        0.3660     5.8780    -0.7240 C.3   1 <1>   0.2610 
  9 C       -2.7270     5.1870    -1.2780 C.ar  1 <1>  -0.1500 
 10 C       -2.5910     5.5460     1.0850 C.ar  1 <1>  -0.1500 
 11 C        0.4540     7.0900     0.2130 C.2   1 <1>   0.5690 
 12 C       -4.0550     5.5770    -1.2610 C.ar  1 <1>  -0.1500 
 13 C       -3.9190     5.9350     1.1020 C.ar  1 <1>  -0.1500 
 14 O       -0.0240     8.1290    -0.1880 O.2   1 <1>  -0.5700 
 15 N        1.0930     7.0740     1.4400 N.am  1 <1>  -0.6600 
 16 C       -4.6510     5.9520    -0.0710 C.ar  1 <1>  -0.1500 
 17 C        1.0060     8.2660     2.3500 C.3   1 <1>   0.1400 
 18 C        1.8700     5.9270     2.0050 C.3   1 <1>   0.0600 
 19 C        2.0740     9.3440     2.0560 C.3   1 <1>   0.3430 
 20 N        2.1500     9.6880     0.6010 N.4   1 <1>  -0.9590 
 21 C        3.2170     8.9030    -0.0930 C.3   1 <1>   0.4230 
 22 C        2.1600    11.1630     0.3650 C.3   1 <1>   0.2630 
 23 C        4.6240     9.4420     0.1670 C.3   1 <1>  -0.1600 
 24 C        3.0530     8.9780    -1.6090 C.3   1 <1>  -0.1600 
 25 C        4.9620    10.4010    -0.9810 C.3   1 <1>  -0.1600 
 26 C        3.9860    10.0840    -2.1190 C.3   1 <1>  -0.1600 
 27 H       -1.0500     2.7580    -0.6710 H     1 <1>   0.3700 
 28 H        1.4110     4.7960    -2.9950 H     1 <1>   0.0800 
 29 H        2.6360     3.9470    -2.0830 H     1 <1>   0.0800 
 30 H       -0.2080     4.5940     0.9050 H     1 <1>   0.0800 
 31 H       -0.0990     6.2140    -1.6350 H     1 <1>   0.0800 
 32 H       -2.2820     4.8960    -2.2140 H     1 <1>   0.1500 
 33 H       -2.0400     5.5410     2.0090 H     1 <1>   0.1500 
 34 H       -4.6250     5.5890    -2.1740 H     1 <1>   0.1500 
 35 H       -4.3860     6.2240     2.0280 H     1 <1>   0.1500 
 36 H       -5.6830     6.2560    -0.0580 H     1 <1>   0.1500 
 37 H        0.0300     8.7130     2.2510 H     1 <1>   0.0800 
 38 H        1.0980     7.9470     3.3740 H     1 <1>   0.0800 
 39 H        2.8440     6.2610     2.3170 H     1 <1>   0.0800 
 40 H        2.0070     5.1390     1.2870 H     1 <1>   0.0800 
 41 H        1.3540     5.5230     2.8590 H     1 <1>   0.0800 
 42 H        3.0330     8.9970     2.4000 H     1 <1>   0.0800 
 43 H        1.8260    10.2250     2.6240 H     1 <1>   0.0800 
 44 H        1.2620     9.3180     0.1970 H     1 <1>   0.4500 
 45 H        3.1510     7.8730     0.2200 H     1 <1>   0.0800 
 46 H        3.0610    11.6000     0.7620 H     1 <1>   0.0800 
 47 H        1.3100    11.6230     0.8410 H     1 <1>   0.0800 
 48 H        2.1110    11.3700    -0.6910 H     1 <1>   0.0800 
 49 H        4.7340     9.9020     1.1320 H     1 <1>   0.0800 
 50 H        5.3060     8.6100     0.1140 H     1 <1>   0.0800 
 51 H        3.3880     8.0400    -2.0190 H     1 <1>   0.0800 
 52 H        2.0320     9.1260    -1.9120 H     1 <1>   0.0800 
 53 H        4.8420    11.4240    -0.6680 H     1 <1>   0.0800 
 54 H        5.9830    10.2680    -1.3010 H     1 <1>   0.0800 
 55 H        4.5160     9.7520    -2.9970 H     1 <1>   0.0800 
 56 H        3.4230    10.9640    -2.3800 H     1 <1>   0.0800 
@<TRIPOS>BOND
  1   1   2  2   
  2   2   3  am  
  3   2   4  1   
  4   3   5  1   
  5   3  27  1   
  6   4   6  1   
  7   4  28  1   
  8   4  29  1   
  9   5   7  1   
 10   5   8  1   
 11   5  30  1   
 12   6   8  1   
 13   7   9  ar  
 14   7  10  ar  
 15   8  11  1   
 16   8  31  1   
 17   9  12  ar  
 18   9  32  1   
 19  10  13  ar  
 20  10  33  1   
 21  11  14  2   
 22  11  15  am  
 23  12  16  ar  
 24  12  34  1   
 25  13  16  ar  
 26  13  35  1   
 27  15  17  1   
 28  15  18  1   
 29  16  36  1   
 30  17  19  1   
 31  17  37  1   
 32  17  38  1   
 33  18  39  1   
 34  18  40  1   
 35  18  41  1   
 36  19  20  1   
 37  19  42  1   
 38  19  43  1   
 39  20  21  1   
 40  20  22  1   
 41  20  44  1   
 42  21  23  1   
 43  21  24  1   
 44  21  45  1   
 45  22  46  1   
 46  22  47  1   
 47  22  48  1   
 48  23  25  1   
 49  23  49  1   
 50  23  50  1   
 51  24  26  1   
 52  24  51  1   
 53  24  52  1   
 54  25  26  1   
 55  25  53  1   
 56  25  54  1   
 57  26  55  1   
 58  26  56  1   
@<TRIPOS>SUBSTRUCTURE
  1 ****  11 GROUP 4 **** **** 0

# MOE 2024.06 (io_trps.svl 2023.06)
