@<TRIPOS>MOLECULE
NONAME
33 34 1 0 0 
SMALL
USER_CHARGES


@<TRIPOS>ATOM
  1 F        0.4640     0.7480     0.9510 F     1 <1>  -0.3400 
  2 C        1.3860    -0.2100     0.9500 C.3   1 <1>   1.0200 
  3 F        2.5230     0.3790     0.6000 F     1 <1>  -0.3400 
  4 F        1.5360    -0.5860     2.2150 F     1 <1>  -0.3400 
  5 C        1.0390    -1.3860    -0.0070 C.3   1 <1>   0.1100 
  6 N       -0.0930    -2.3080     0.3410 N.3   1 <1>  -0.8100 
  7 C       -0.1300    -3.4610    -0.5920 C.3   1 <1>   0.1100 
  8 C       -1.4100    -1.6240     0.3540 C.3   1 <1>   0.1100 
  9 C       -1.2730    -4.4440    -0.2760 C.3   1 <1>   0.2090 
 10 C       -2.5710    -2.5840     0.6810 C.3   1 <1>   0.2090 
 11 N       -2.5900    -3.7400    -0.2600 N.pl3 1 <1>  -0.8380 
 12 C       -3.7530    -4.4940    -0.3290 C.ar  1 <1>   0.4100 
 13 N       -3.6900    -5.7490     0.0980 N.ar  1 <1>  -0.6200 
 14 C       -4.9430    -3.9350    -0.8270 C.ar  1 <1>   0.1600 
 15 C       -4.8450    -6.3830     0.0130 C.ar  1 <1>   0.1670 
 16 N       -6.1030    -4.5570    -0.9120 N.ar  1 <1>  -0.6200 
 17 C       -6.0130    -5.8040    -0.4750 C.ar  1 <1>   0.1600 
 18 C       -4.8390    -7.8210     0.4890 C.3   1 <1>  -0.0970 
 19 H        1.9320    -1.9800    -0.0750 H     1 <1>   0.0800 
 20 H        0.8610    -0.9660    -0.9810 H     1 <1>   0.0800 
 21 H        0.8030    -3.9960    -0.5350 H     1 <1>   0.0800 
 22 H       -0.2540    -3.1110    -1.6020 H     1 <1>   0.0800 
 23 H       -1.5980    -1.1700    -0.6040 H     1 <1>   0.0800 
 24 H       -1.4070    -0.8490     1.0990 H     1 <1>   0.0800 
 25 H       -1.0980    -4.9000     0.6840 H     1 <1>   0.0800 
 26 H       -1.2920    -5.2230    -1.0180 H     1 <1>   0.0800 
 27 H       -3.5020    -2.0490     0.6270 H     1 <1>   0.0800 
 28 H       -2.4530    -2.9490     1.6870 H     1 <1>   0.0800 
 29 H       -4.8990    -2.9190    -1.1670 H     1 <1>   0.1500 
 30 H       -6.9120    -6.3920    -0.5080 H     1 <1>   0.1500 
 31 H       -4.1350    -8.3880    -0.0930 H     1 <1>   0.0800 
 32 H       -5.8110    -8.2680     0.3930 H     1 <1>   0.0800 
 33 H       -4.5390    -7.8550     1.5210 H     1 <1>   0.0800 
@<TRIPOS>BOND
  1   1   2  1   
  2   2   3  1   
  3   2   4  1   
  4   2   5  1   
  5   5   6  1   
  6   5  19  1   
  7   5  20  1   
  8   6   7  1   
  9   6   8  1   
 10   7   9  1   
 11   7  21  1   
 12   7  22  1   
 13   8  10  1   
 14   8  23  1   
 15   8  24  1   
 16   9  11  1   
 17   9  25  1   
 18   9  26  1   
 19  10  11  1   
 20  10  27  1   
 21  10  28  1   
 22  11  12  1   
 23  12  13  ar  
 24  12  14  ar  
 25  13  15  ar  
 26  14  16  ar  
 27  14  29  1   
 28  15  17  ar  
 29  15  18  1   
 30  16  17  ar  
 31  17  30  1   
 32  18  31  1   
 33  18  32  1   
 34  18  33  1   
@<TRIPOS>SUBSTRUCTURE
  1 ****  11 GROUP 4 **** **** 0

# MOE 2024.06 (io_trps.svl 2023.06)
