@<TRIPOS>MOLECULE
NONAME
54 58 1 0 0 
SMALL
USER_CHARGES


@<TRIPOS>ATOM
  1 O       -1.3450     1.5220     2.4450 O.2   1 <1>  -0.5700 
  2 C       -1.7380     1.3830     1.3040 C.2   1 <1>   0.5440 
  3 N       -1.2370     2.0740     0.2400 N.am  1 <1>  -0.6600 
  4 C       -2.7690     0.4930     0.8540 C.ar  1 <1>   0.0860 
  5 C       -1.9200     1.6750    -1.0180 C.3   1 <1>   0.2840 
  6 C       -0.1530     3.0830     0.2840 C.3   1 <1>   0.1400 
  7 C       -2.9090     0.6340    -0.5150 C.ar  1 <1>  -0.1440 
  8 C       -3.5720    -0.4100     1.5380 C.ar  1 <1>  -0.1500 
  9 C        1.1190     2.5870    -0.4260 C.3   1 <1>  -0.0800 
 10 C       -3.8370    -0.1070    -1.2220 C.ar  1 <1>  -0.1500 
 11 C       -4.5060    -1.1580     0.8390 C.ar  1 <1>  -0.1500 
 12 C        1.6430     1.2710     0.1820 C.3   1 <1>  -0.1600 
 13 C        2.2050     3.6750    -0.3630 C.3   1 <1>  -0.1600 
 14 C       -4.6370    -1.0070    -0.5350 C.ar  1 <1>  -0.1500 
 15 C        2.9480     0.8190    -0.4890 C.3   1 <1>  -0.1600 
 16 C        3.5090     3.2160    -1.0310 C.3   1 <1>  -0.1600 
 17 C        4.0360     1.9100    -0.4050 C.3   1 <1>  -0.0190 
 18 C        5.3660     1.4840    -1.0500 C.2   1 <1>   0.5690 
 19 O        5.3330     0.6220    -1.8990 O.2   1 <1>  -0.5700 
 20 N        6.5570     2.0660    -0.6900 N.am  1 <1>  -0.6600 
 21 C        6.7140     3.1930     0.2990 C.3   1 <1>   0.3210 
 22 C        7.8610     1.5420    -1.2230 C.3   1 <1>   0.1400 
 23 C        7.8440     2.8810     1.2680 C.2   1 <1>   0.0460 
 24 C        8.7210     0.9370    -0.0950 C.3   1 <1>   0.0200 
 25 N        8.0900     3.5580     2.4050 N.2   1 <1>  -0.5650 
 26 C        8.7290     1.8800     1.0940 C.2   1 <1>  -0.3320 
 27 C        9.1160     2.9430     2.9040 C.2   1 <1>   0.0360 
 28 N        9.5550     1.9060     2.1530 N.pl3 1 <1>   0.0330 
 29 H       -1.2190     1.2410    -1.7100 H     1 <1>   0.0800 
 30 H       -2.4250     2.5170    -1.4570 H     1 <1>   0.0800 
 31 H        0.0770     3.3020     1.3140 H     1 <1>   0.0800 
 32 H       -0.5020     3.9900    -0.1760 H     1 <1>   0.0800 
 33 H       -3.4570    -0.5140     2.6030 H     1 <1>   0.1500 
 34 H        0.8850     2.4170    -1.4630 H     1 <1>   0.0800 
 35 H       -3.9400     0.0080    -2.2870 H     1 <1>   0.1500 
 36 H       -5.1320    -1.8590     1.3640 H     1 <1>   0.1500 
 37 H        0.9090     0.4920     0.0660 H     1 <1>   0.0800 
 38 H        1.8080     1.4030     1.2380 H     1 <1>   0.0800 
 39 H        2.4060     3.9220     0.6660 H     1 <1>   0.0800 
 40 H        1.8530     4.5670    -0.8530 H     1 <1>   0.0800 
 41 H       -5.3660    -1.5930    -1.0690 H     1 <1>   0.1500 
 42 H        2.7520     0.5840    -1.5210 H     1 <1>   0.0800 
 43 H        3.3040    -0.0780    -0.0120 H     1 <1>   0.0800 
 44 H        4.2460     3.9930    -0.9390 H     1 <1>   0.0800 
 45 H        3.3360     3.0550    -2.0820 H     1 <1>   0.0800 
 46 H        4.2110     2.0680     0.6420 H     1 <1>   0.0800 
 47 H        5.8210     3.3580     0.8680 H     1 <1>   0.0800 
 48 H        6.9490     4.0990    -0.2280 H     1 <1>   0.0800 
 49 H        8.3960     2.3600    -1.6740 H     1 <1>   0.0800 
 50 H        7.6980     0.8000    -1.9850 H     1 <1>   0.0800 
 51 H        9.7210     0.7800    -0.4580 H     1 <1>   0.0800 
 52 H        8.3100    -0.0130     0.1960 H     1 <1>   0.0800 
 53 H        9.5900     3.2170     3.8300 H     1 <1>   0.1500 
 54 H       10.3420     1.2840     2.3560 H     1 <1>   0.2700 
@<TRIPOS>BOND
  1   1   2  2   
  2   2   3  am  
  3   2   4  1   
  4   3   5  1   
  5   3   6  1   
  6   4   7  ar  
  7   4   8  ar  
  8   5   7  1   
  9   5  29  1   
 10   5  30  1   
 11   6   9  1   
 12   6  31  1   
 13   6  32  1   
 14   7  10  ar  
 15   8  11  ar  
 16   8  33  1   
 17   9  12  1   
 18   9  13  1   
 19   9  34  1   
 20  10  14  ar  
 21  10  35  1   
 22  11  14  ar  
 23  11  36  1   
 24  12  15  1   
 25  12  37  1   
 26  12  38  1   
 27  13  16  1   
 28  13  39  1   
 29  13  40  1   
 30  14  41  1   
 31  15  17  1   
 32  15  42  1   
 33  15  43  1   
 34  16  17  1   
 35  16  44  1   
 36  16  45  1   
 37  17  18  1   
 38  17  46  1   
 39  18  19  2   
 40  18  20  am  
 41  20  21  1   
 42  20  22  1   
 43  21  23  1   
 44  21  47  1   
 45  21  48  1   
 46  22  24  1   
 47  22  49  1   
 48  22  50  1   
 49  23  25  1   
 50  23  26  2   
 51  24  26  1   
 52  24  51  1   
 53  24  52  1   
 54  25  27  2   
 55  26  28  1   
 56  27  28  1   
 57  27  53  1   
 58  28  54  1   
@<TRIPOS>SUBSTRUCTURE
  1 ****  12 GROUP 4 **** **** 0

# MOE 2024.06 (io_trps.svl 2023.06)
