@<TRIPOS>MOLECULE
NONAME
51 53 1 0 0 
SMALL
USER_CHARGES


@<TRIPOS>ATOM
  1 F        0.8630    -1.8230     0.3700 F     1 <1>  -0.1900 
  2 C       -0.1090    -2.5810    -0.0710 C.ar  1 <1>   0.1900 
  3 C       -0.1630    -3.0220    -1.3990 C.ar  1 <1>   0.0820 
  4 C       -1.0870    -2.9220     0.8430 C.ar  1 <1>  -0.1500 
  5 O        0.7360    -2.7530    -2.3900 O.3   1 <1>  -0.3630 
  6 C       -1.2350    -3.8180    -1.7670 C.ar  1 <1>  -0.1500 
  7 C       -2.1440    -3.7160     0.4400 C.ar  1 <1>  -0.1500 
  8 C        1.9150    -2.0100    -2.1770 C.3   1 <1>   0.0400 
  9 C       -2.2420    -4.1870    -0.8720 C.ar  1 <1>   0.0530 
 10 C       -3.3400    -5.0200    -1.3010 C.2   1 <1>   0.0870 
 11 O       -3.7200    -5.0150    -2.5570 O.3   1 <1>  -0.0190 
 12 C       -4.1560    -5.8890    -0.6520 C.2   1 <1>  -0.2330 
 13 N       -4.7320    -5.8110    -2.7860 N.2   1 <1>  -0.4100 
 14 C       -5.0140    -6.3580    -1.6560 C.2   1 <1>   0.3720 
 15 C       -4.1740    -6.2430     0.7300 C.2   1 <1>   1.0330 
 16 N       -6.0750    -7.2770    -1.5450 N.pl3 1 <1>  -0.8210 
 17 O       -3.6550    -7.3030     1.1290 O.co2 1 <1>  -0.9000 
 18 O       -4.7970    -5.5510     1.5490 O.co2 1 <1>  -0.9000 
 19 C       -5.9640    -8.2340    -0.4260 C.3   1 <1>   0.2090 
 20 C       -7.4070    -6.6320    -1.6080 C.3   1 <1>   0.2090 
 21 C       -6.9860    -9.3560    -0.5510 C.3   1 <1>  -0.0800 
 22 C       -8.4870    -7.7110    -1.7560 C.3   1 <1>  -0.1600 
 23 C       -8.4120    -8.7680    -0.6400 C.3   1 <1>  -0.1600 
 24 C       -6.7630   -10.2450     0.6760 C.3   1 <1>   0.3430 
 25 N       -7.7180   -11.3950     0.7260 N.4   1 <1>  -0.9590 
 26 C       -7.6470   -12.0520     2.0650 C.3   1 <1>   0.2630 
 27 C       -7.4550   -12.3800    -0.3690 C.3   1 <1>   0.2630 
 28 H       -1.0250    -2.5720     1.8580 H     1 <1>   0.1500 
 29 H       -1.2870    -4.1670    -2.7830 H     1 <1>   0.1500 
 30 H       -2.9060    -3.9690     1.1570 H     1 <1>   0.1500 
 31 H        2.4580    -1.9710    -3.1040 H     1 <1>   0.0800 
 32 H        2.5090    -2.5020    -1.4270 H     1 <1>   0.0800 
 33 H        1.6510    -1.0140    -1.8680 H     1 <1>   0.0800 
 34 H       -6.1380    -7.7160     0.5030 H     1 <1>   0.0800 
 35 H       -4.9690    -8.6490    -0.4190 H     1 <1>   0.0800 
 36 H       -7.4420    -5.9610    -2.4510 H     1 <1>   0.0800 
 37 H       -7.5660    -6.0560    -0.7110 H     1 <1>   0.0800 
 38 H       -6.7500    -9.8970    -1.4490 H     1 <1>   0.0800 
 39 H       -8.3610    -8.1810    -2.7150 H     1 <1>   0.0800 
 40 H       -9.4540    -7.2400    -1.7480 H     1 <1>   0.0800 
 41 H       -8.6680    -8.2970     0.2950 H     1 <1>   0.0800 
 42 H       -9.1320    -9.5400    -0.8430 H     1 <1>   0.0800 
 43 H       -6.8860    -9.6380     1.5600 H     1 <1>   0.0800 
 44 H       -5.7470   -10.6090     0.6720 H     1 <1>   0.0800 
 45 H       -8.6630   -11.0020     0.6000 H     1 <1>   0.4500 
 46 H       -6.6600   -12.4530     2.2330 H     1 <1>   0.0800 
 47 H       -8.3620   -12.8560     2.1270 H     1 <1>   0.0800 
 48 H       -7.8640   -11.3380     2.8440 H     1 <1>   0.0800 
 49 H       -6.4530   -12.7710    -0.2870 H     1 <1>   0.0800 
 50 H       -7.5620   -11.9090    -1.3320 H     1 <1>   0.0800 
 51 H       -8.1520   -13.2000    -0.3100 H     1 <1>   0.0800 
@<TRIPOS>BOND
  1   1   2  1   
  2   2   3  ar  
  3   2   4  ar  
  4   3   5  1   
  5   3   6  ar  
  6   4   7  ar  
  7   4  28  1   
  8   5   8  1   
  9   6   9  ar  
 10   6  29  1   
 11   7   9  ar  
 12   7  30  1   
 13   8  31  1   
 14   8  32  1   
 15   8  33  1   
 16   9  10  1   
 17  10  11  1   
 18  10  12  2   
 19  11  13  1   
 20  12  14  1   
 21  12  15  1   
 22  13  14  2   
 23  14  16  1   
 24  15  17  ar  
 25  15  18  ar  
 26  16  19  1   
 27  16  20  1   
 28  19  21  1   
 29  19  34  1   
 30  19  35  1   
 31  20  22  1   
 32  20  36  1   
 33  20  37  1   
 34  21  23  1   
 35  21  24  1   
 36  21  38  1   
 37  22  23  1   
 38  22  39  1   
 39  22  40  1   
 40  23  41  1   
 41  23  42  1   
 42  24  25  1   
 43  24  43  1   
 44  24  44  1   
 45  25  26  1   
 46  25  27  1   
 47  25  45  1   
 48  26  46  1   
 49  26  47  1   
 50  26  48  1   
 51  27  49  1   
 52  27  50  1   
 53  27  51  1   
@<TRIPOS>SUBSTRUCTURE
  1 ****  12 GROUP 4 **** **** 0

# MOE 2024.06 (io_trps.svl 2023.06)
