@<TRIPOS>MOLECULE
NONAME
44 47 1 0 0 
SMALL
USER_CHARGES


@<TRIPOS>ATOM
  1 S       -0.2490     0.0530    -1.2890 S.3   1 <1>  -0.0800 
  2 C       -0.4280    -1.6660    -1.6090 C.ar  1 <1>   0.2970 
  3 C       -1.1910    -0.0680     0.1970 C.2   1 <1>  -0.1400 
  4 N        0.0990    -2.2420    -2.6690 N.ar  1 <1>  -0.5670 
  5 C       -1.1690    -2.2720    -0.6220 C.ar  1 <1>   0.0000 
  6 C       -1.5980    -1.3370     0.4050 C.2   1 <1>  -0.1810 
  7 C       -1.3660     1.2400     0.9470 C.3   1 <1>  -0.0600 
  8 C       -0.1560    -3.5330    -2.7150 C.ar  1 <1>   0.4700 
  9 C       -1.3510    -3.6480    -0.8120 C.ar  1 <1>   0.4100 
 10 C       -2.4330    -1.7900     1.5950 C.3   1 <1>  -0.0590 
 11 N       -0.8450    -4.2740    -1.8590 N.ar  1 <1>  -0.6200 
 12 N       -2.0610    -4.4100     0.0770 N.pl3 1 <1>  -0.8690 
 13 C       -2.1820    -5.8880     0.0860 C.3   1 <1>   0.2890 
 14 C       -3.6510    -6.2570    -0.0140 C.3   1 <1>  -0.0800 
 15 C       -1.8230    -6.4130     1.4720 C.3   1 <1>   0.1200 
 16 C       -4.1110    -6.1300     1.4430 C.3   1 <1>   0.1200 
 17 C       -3.8420    -7.6830    -0.5670 C.3   1 <1>  -0.0170 
 18 O       -2.9820    -6.3130     2.2490 O.3   1 <1>  -0.5600 
 19 C       -5.3150    -8.0570    -0.6520 C.ar  1 <1>  -0.1430 
 20 C       -6.1450    -7.5270    -1.6190 C.ar  1 <1>  -0.1500 
 21 C       -5.8970    -8.9450     0.2300 C.ar  1 <1>  -0.1500 
 22 C       -7.4800    -7.8970    -1.6530 C.ar  1 <1>   0.1600 
 23 C       -7.2430    -9.2470     0.1090 C.ar  1 <1>   0.1600 
 24 N       -8.0500    -8.7430    -0.8110 N.ar  1 <1>  -0.6200 
 25 H       -1.9430     1.1060     1.8420 H     1 <1>   0.0800 
 26 H       -1.8690     1.9530     0.3180 H     1 <1>   0.0800 
 27 H       -0.4030     1.6350     1.2150 H     1 <1>   0.0800 
 28 H        0.2500    -4.0580    -3.5630 H     1 <1>   0.1500 
 29 H       -3.3550    -2.2230     1.2520 H     1 <1>   0.0800 
 30 H       -2.6730    -0.9670     2.2400 H     1 <1>   0.0800 
 31 H       -1.8880    -2.5150     2.1720 H     1 <1>   0.0800 
 32 H       -2.3750    -3.9730     0.9440 H     1 <1>   0.4000 
 33 H       -1.5770    -6.3350    -0.6840 H     1 <1>   0.0800 
 34 H       -4.1790    -5.5660    -0.6470 H     1 <1>   0.0800 
 35 H       -1.0280    -5.8510     1.9310 H     1 <1>   0.0800 
 36 H       -1.5520    -7.4530     1.4250 H     1 <1>   0.0800 
 37 H       -4.8590    -6.8510     1.7180 H     1 <1>   0.0800 
 38 H       -4.4860    -5.1400     1.6330 H     1 <1>   0.0800 
 39 H       -3.3270    -8.3960     0.0530 H     1 <1>   0.0800 
 40 H       -3.4150    -7.7420    -1.5530 H     1 <1>   0.0800 
 41 H       -5.7670    -6.8310    -2.3450 H     1 <1>   0.1500 
 42 H       -5.3200    -9.4040     1.0120 H     1 <1>   0.1500 
 43 H       -8.1120    -7.4730    -2.4140 H     1 <1>   0.1500 
 44 H       -7.6800    -9.9410     0.8070 H     1 <1>   0.1500 
@<TRIPOS>BOND
  1   1   2  1   
  2   1   3  1   
  3   2   4  ar  
  4   2   5  ar  
  5   3   6  2   
  6   3   7  1   
  7   4   8  ar  
  8   5   6  1   
  9   5   9  ar  
 10   6  10  1   
 11   7  25  1   
 12   7  26  1   
 13   7  27  1   
 14   8  11  ar  
 15   8  28  1   
 16   9  11  ar  
 17   9  12  1   
 18  10  29  1   
 19  10  30  1   
 20  10  31  1   
 21  12  13  1   
 22  12  32  1   
 23  13  14  1   
 24  13  15  1   
 25  13  33  1   
 26  14  16  1   
 27  14  17  1   
 28  14  34  1   
 29  15  18  1   
 30  15  35  1   
 31  15  36  1   
 32  16  18  1   
 33  16  37  1   
 34  16  38  1   
 35  17  19  1   
 36  17  39  1   
 37  17  40  1   
 38  19  20  ar  
 39  19  21  ar  
 40  20  22  ar  
 41  20  41  1   
 42  21  23  ar  
 43  21  42  1   
 44  22  24  ar  
 45  22  43  1   
 46  23  24  ar  
 47  23  44  1   
@<TRIPOS>SUBSTRUCTURE
  1 ****  12 GROUP 4 **** **** 0

# MOE 2024.06 (io_trps.svl 2023.06)
