@<TRIPOS>MOLECULE
NONAME
41 42 1 0 0 
SMALL
USER_CHARGES


@<TRIPOS>ATOM
  1 CL       1.4670     0.5380    -1.4680 Cl    1 <1>  -0.1770 
  2 C        0.6080     1.6450    -0.4200 C.ar  1 <1>   0.1770 
  3 C        1.2630     2.3710     0.5720 C.ar  1 <1>  -0.1440 
  4 C       -0.7540     1.7690    -0.6260 C.ar  1 <1>  -0.1500 
  5 C        0.5050     3.2380     1.3490 C.ar  1 <1>  -0.1500 
  6 C        2.7640     2.2600     0.8480 C.3   1 <1>   0.3640 
  7 C       -1.4920     2.6330     0.1610 C.ar  1 <1>  -0.1500 
  8 C       -0.8590     3.3680     1.1470 C.ar  1 <1>  -0.1500 
  9 N        3.0620     0.8610     1.2440 N.am  1 <1>  -0.7300 
 10 C        3.6420     2.7700    -0.3330 C.3   1 <1>   0.2610 
 11 C        4.0430     0.1190     0.6870 C.2   1 <1>   0.5690 
 12 O        4.9210     2.1440    -0.3540 O.3   1 <1>  -0.5600 
 13 C        3.8060     4.2960    -0.2640 C.2   1 <1>   0.5690 
 14 O        4.2420    -1.0130     1.0490 O.2   1 <1>  -0.5700 
 15 C        4.8880     0.7360    -0.4280 C.3   1 <1>   0.1810 
 16 O        2.9190     4.9830     0.1880 O.2   1 <1>  -0.5700 
 17 N        4.9620     4.8510    -0.7120 N.am  1 <1>  -0.7300 
 18 C        5.3500     6.2830    -0.6340 C.3   1 <1>   0.1400 
 19 C        6.7040     6.4730     0.0900 C.3   1 <1>   0.2800 
 20 O        7.6490     5.6760    -0.5210 O.3   1 <1>  -0.6800 
 21 C        6.6410     6.0380     1.5550 C.3   1 <1>  -0.2400 
 22 C        7.1990     7.9130    -0.0290 C.3   1 <1>  -0.2400 
 23 H       -1.2300     1.1920    -1.3990 H     1 <1>   0.1500 
 24 H        0.9740     3.8310     2.1180 H     1 <1>   0.1500 
 25 H        2.9960     2.8750     1.7000 H     1 <1>   0.0800 
 26 H       -2.5530     2.7360     0.0060 H     1 <1>   0.1500 
 27 H       -1.4290     4.0470     1.7590 H     1 <1>   0.1500 
 28 H        2.4670     0.4310     1.9520 H     1 <1>   0.3700 
 29 H        3.1650     2.5470    -1.2670 H     1 <1>   0.0800 
 30 H        4.4900     0.4510    -1.3850 H     1 <1>   0.0800 
 31 H        5.8980     0.3780    -0.3490 H     1 <1>   0.0800 
 32 H        5.7420     4.2260    -0.9520 H     1 <1>   0.3700 
 33 H        5.4250     6.6750    -1.6330 H     1 <1>   0.0800 
 34 H        4.5860     6.8390    -0.1190 H     1 <1>   0.0800 
 35 H        8.4980     5.7670    -0.0520 H     1 <1>   0.4000 
 36 H        5.8920     6.6100     2.0730 H     1 <1>   0.0800 
 37 H        7.5850     6.1960     2.0450 H     1 <1>   0.0800 
 38 H        6.3750     4.9990     1.6290 H     1 <1>   0.0800 
 39 H        6.4930     8.5820     0.4320 H     1 <1>   0.0800 
 40 H        7.2980     8.1900    -1.0640 H     1 <1>   0.0800 
 41 H        8.1470     8.0350     0.4620 H     1 <1>   0.0800 
@<TRIPOS>BOND
  1   1   2  1   
  2   2   3  ar  
  3   2   4  ar  
  4   3   5  ar  
  5   3   6  1   
  6   4   7  ar  
  7   4  23  1   
  8   5   8  ar  
  9   5  24  1   
 10   6   9  1   
 11   6  10  1   
 12   6  25  1   
 13   7   8  ar  
 14   7  26  1   
 15   8  27  1   
 16   9  11  am  
 17   9  28  1   
 18  10  12  1   
 19  10  13  1   
 20  10  29  1   
 21  11  14  2   
 22  11  15  1   
 23  12  15  1   
 24  13  16  2   
 25  13  17  am  
 26  15  30  1   
 27  15  31  1   
 28  17  18  1   
 29  17  32  1   
 30  18  19  1   
 31  18  33  1   
 32  18  34  1   
 33  19  20  1   
 34  19  21  1   
 35  19  22  1   
 36  20  35  1   
 37  21  36  1   
 38  21  37  1   
 39  21  38  1   
 40  22  39  1   
 41  22  40  1   
 42  22  41  1   
@<TRIPOS>SUBSTRUCTURE
  1 ****  10 GROUP 4 **** **** 0

# MOE 2024.06 (io_trps.svl 2023.06)
