@<TRIPOS>MOLECULE
NONAME
46 48 1 0 0 
SMALL
USER_CHARGES


@<TRIPOS>ATOM
  1 S       -0.0950    -0.3020     1.3970 S.3   1 <1>  -0.0800 
  2 C       -1.2300    -0.7430     0.1160 C.2   1 <1>  -0.0450 
  3 C       -0.0310     1.3670     0.8720 C.2   1 <1>  -0.1400 
  4 C       -1.6900    -2.1070     0.0370 C.2   1 <1>   0.7150 
  5 C       -1.4900     0.3640    -0.6270 C.2   1 <1>  -0.1500 
  6 C       -0.8200     1.5480    -0.2020 C.2   1 <1>  -0.1500 
  7 C        0.8560     2.3100     1.6570 C.3   1 <1>  -0.0600 
  8 O       -1.0810    -3.0220     0.5660 O.2   1 <1>  -0.5700 
  9 N       -2.8580    -2.4380    -0.6190 N.am  1 <1>  -0.6600 
 10 C       -3.0790    -3.8500    -1.0300 C.3   1 <1>   0.1400 
 11 C       -4.1150    -1.6980    -0.3320 C.3   1 <1>   0.1400 
 12 C       -3.7820    -4.6000     0.1240 C.3   1 <1>   0.4230 
 13 C       -4.8490    -2.4190     0.8090 C.3   1 <1>  -0.1600 
 14 N       -3.8750    -6.1060    -0.0820 N.4   1 <1>  -0.9590 
 15 C       -5.1290    -3.9250     0.5230 C.3   1 <1>   0.0000 
 16 C       -4.8870    -6.7810     0.7950 C.3   1 <1>   0.3430 
 17 C       -4.0420    -6.5590    -1.5010 C.3   1 <1>   0.2630 
 18 C       -5.6690    -4.5870     1.8260 C.3   1 <1>  -0.1600 
 19 C       -6.1640    -4.0720    -0.6290 C.3   1 <1>   0.1200 
 20 C       -5.1030    -5.9960     2.0880 C.3   1 <1>  -0.1600 
 21 O       -7.2970    -3.3100    -0.4010 O.3   1 <1>  -0.6800 
 22 H       -2.1410     0.3860    -1.4830 H     1 <1>   0.1500 
 23 H       -0.9590     2.4810    -0.7210 H     1 <1>   0.1500 
 24 H        0.8110     3.2980     1.2380 H     1 <1>   0.0800 
 25 H        1.8730     1.9640     1.6270 H     1 <1>   0.0800 
 26 H        0.5310     2.3500     2.6810 H     1 <1>   0.0800 
 27 H       -3.6650    -3.8610    -1.9310 H     1 <1>   0.0800 
 28 H       -2.1280    -4.3100    -1.2390 H     1 <1>   0.0800 
 29 H       -3.9010    -0.6850    -0.0330 H     1 <1>   0.0800 
 30 H       -4.7290    -1.6580    -1.2160 H     1 <1>   0.0800 
 31 H       -3.1350    -4.4570     0.9750 H     1 <1>   0.0800 
 32 H       -4.2370    -2.3230     1.6900 H     1 <1>   0.0800 
 33 H       -5.7640    -1.8930     1.0170 H     1 <1>   0.0800 
 34 H       -2.9560    -6.4530     0.2340 H     1 <1>   0.4500 
 35 H       -5.8300    -6.8500     0.2780 H     1 <1>   0.0800 
 36 H       -4.5610    -7.7830     1.0260 H     1 <1>   0.0800 
 37 H       -4.9690    -6.1900    -1.9100 H     1 <1>   0.0800 
 38 H       -4.0520    -7.6370    -1.5500 H     1 <1>   0.0800 
 39 H       -3.2280    -6.2030    -2.1110 H     1 <1>   0.0800 
 40 H       -5.4310    -3.9830     2.6860 H     1 <1>   0.0800 
 41 H       -6.7430    -4.6450     1.7940 H     1 <1>   0.0800 
 42 H       -6.4820    -5.0930    -0.7460 H     1 <1>   0.0800 
 43 H       -5.7600    -3.7340    -1.5660 H     1 <1>   0.0800 
 44 H       -5.7850    -6.5370     2.7220 H     1 <1>   0.0800 
 45 H       -4.1680    -5.9280     2.6190 H     1 <1>   0.0800 
 46 H       -7.7790    -3.5900     0.4020 H     1 <1>   0.4000 
@<TRIPOS>BOND
  1   1   2  1   
  2   1   3  1   
  3   2   4  1   
  4   2   5  2   
  5   3   6  2   
  6   3   7  1   
  7   4   8  2   
  8   4   9  am  
  9   5   6  1   
 10   5  22  1   
 11   6  23  1   
 12   7  24  1   
 13   7  25  1   
 14   7  26  1   
 15   9  10  1   
 16   9  11  1   
 17  10  12  1   
 18  10  27  1   
 19  10  28  1   
 20  11  13  1   
 21  11  29  1   
 22  11  30  1   
 23  12  14  1   
 24  12  15  1   
 25  12  31  1   
 26  13  15  1   
 27  13  32  1   
 28  13  33  1   
 29  14  16  1   
 30  14  17  1   
 31  14  34  1   
 32  15  18  1   
 33  15  19  1   
 34  16  20  1   
 35  16  35  1   
 36  16  36  1   
 37  17  37  1   
 38  17  38  1   
 39  17  39  1   
 40  18  20  1   
 41  18  40  1   
 42  18  41  1   
 43  19  21  1   
 44  19  42  1   
 45  19  43  1   
 46  20  44  1   
 47  20  45  1   
 48  21  46  1   
@<TRIPOS>SUBSTRUCTURE
  1 ****   9 GROUP 4 **** **** 0

# MOE 2024.06 (io_trps.svl 2023.06)
