@<TRIPOS>MOLECULE
NONAME
59 59 1 0 0 
SMALL
USER_CHARGES


@<TRIPOS>ATOM
  1 S        1.4010    -0.6530     0.5330 S.3   1 <1>  -0.4600 
  2 C        2.0530     0.1370    -0.9830 C.3   1 <1>   0.1310 
  3 C       -0.2980    -0.0230     0.6260 C.3   1 <1>  -0.0100 
  4 C        1.9160     1.6570    -0.9320 C.2   1 <1>   0.5690 
  5 O        1.1200     2.1520    -1.6950 O.2   1 <1>  -0.5700 
  6 N        2.6760     2.4210    -0.0730 N.am  1 <1>  -0.6600 
  7 C        2.6070     3.9130    -0.0530 C.3   1 <1>   0.1400 
  8 C        3.8310     1.8840     0.7080 C.3   1 <1>   0.1400 
  9 C        1.2040     4.5090     0.1230 C.3   1 <1>  -0.1600 
 10 C        5.1340     2.2100    -0.0390 C.3   1 <1>  -0.1600 
 11 C        1.2540     5.9680     0.6050 C.3   1 <1>   0.1400 
 12 C        6.3870     2.1950     0.8560 C.3   1 <1>  -0.0990 
 13 N        2.3370     6.7230    -0.0820 N.am  1 <1>  -0.7300 
 14 C        7.4650     3.0380     0.2040 C.2   1 <1>   0.5690 
 15 C        3.5760     6.9270     0.4580 C.2   1 <1>   0.5690 
 16 O        8.1780     2.5420    -0.6310 O.2   1 <1>  -0.5700 
 17 N        7.5210     4.3530     0.5280 N.am  1 <1>  -0.7300 
 18 O        3.7990     6.6270     1.6320 O.2   1 <1>  -0.5700 
 19 C        4.7500     7.4180    -0.4330 C.3   1 <1>   0.2810 
 20 C        8.0620     5.3820    -0.3730 C.3   1 <1>   0.2810 
 21 N        5.9460     6.6520    -0.0740 N.am  1 <1>  -0.7300 
 22 C        5.0360     8.9380    -0.3210 C.3   1 <1>  -0.0800 
 23 C        6.9690     6.3670    -0.8840 C.2   1 <1>   0.5690 
 24 C        9.1660     6.1170     0.3900 C.3   1 <1>  -0.2400 
 25 C        5.4270     9.3950     1.0990 C.3   1 <1>  -0.2400 
 26 C        3.8080     9.7700    -0.7320 C.3   1 <1>  -0.2400 
 27 O        7.0250     6.8440    -2.0110 O.2   1 <1>  -0.5700 
 28 H        3.0800    -0.1550    -1.0870 H     1 <1>   0.0800 
 29 H        1.4860    -0.2560    -1.8070 H     1 <1>   0.0800 
 30 H       -0.7790    -0.4980     1.4620 H     1 <1>   0.0800 
 31 H       -0.7970    -0.2690    -0.2950 H     1 <1>   0.0800 
 32 H       -0.2530     1.0430     0.7650 H     1 <1>   0.0800 
 33 H        3.2160     4.2640     0.7620 H     1 <1>   0.0800 
 34 H        3.0360     4.2860    -0.9680 H     1 <1>   0.0800 
 35 H        3.8300     2.3470     1.6800 H     1 <1>   0.0800 
 36 H        3.7490     0.8230     0.8620 H     1 <1>   0.0800 
 37 H        0.6780     4.4730    -0.8130 H     1 <1>   0.0800 
 38 H        0.6530     3.9280     0.8410 H     1 <1>   0.0800 
 39 H        5.2690     1.5180    -0.8510 H     1 <1>   0.0800 
 40 H        5.0620     3.1920    -0.4710 H     1 <1>   0.0800 
 41 H        1.4310     5.9800     1.6680 H     1 <1>   0.0800 
 42 H        0.3070     6.4490     0.4270 H     1 <1>   0.0800 
 43 H        6.7430     1.1880     0.9820 H     1 <1>   0.0800 
 44 H        6.1670     2.6010     1.8250 H     1 <1>   0.0800 
 45 H        2.1600     6.9460    -1.0640 H     1 <1>   0.3700 
 46 H        6.9910     4.6660     1.3180 H     1 <1>   0.3700 
 47 H        4.4940     7.1970    -1.4700 H     1 <1>   0.0800 
 48 H        8.5070     4.9120    -1.2520 H     1 <1>   0.0800 
 49 H        5.9370     6.2850     0.8620 H     1 <1>   0.3700 
 50 H        5.8580     9.1770    -1.0010 H     1 <1>   0.0800 
 51 H        8.7530     6.6090     1.2710 H     1 <1>   0.0800 
 52 H        9.6160     6.8660    -0.2620 H     1 <1>   0.0800 
 53 H        9.9340     5.4050     0.6950 H     1 <1>   0.0800 
 54 H        4.6170     9.2030     1.8050 H     1 <1>   0.0800 
 55 H        5.6470    10.4630     1.0980 H     1 <1>   0.0800 
 56 H        6.3190     8.8650     1.4320 H     1 <1>   0.0800 
 57 H        2.9800     9.6120    -0.0380 H     1 <1>   0.0800 
 58 H        3.4920     9.4940    -1.7390 H     1 <1>   0.0800 
 59 H        4.0640    10.8310    -0.7340 H     1 <1>   0.0800 
@<TRIPOS>BOND
  1   1   2  1   
  2   1   3  1   
  3   2   4  1   
  4   2  28  1   
  5   2  29  1   
  6   3  30  1   
  7   3  31  1   
  8   3  32  1   
  9   4   5  2   
 10   4   6  am  
 11   6   7  1   
 12   6   8  1   
 13   7   9  1   
 14   7  33  1   
 15   7  34  1   
 16   8  10  1   
 17   8  35  1   
 18   8  36  1   
 19   9  11  1   
 20   9  37  1   
 21   9  38  1   
 22  10  12  1   
 23  10  39  1   
 24  10  40  1   
 25  11  13  1   
 26  11  41  1   
 27  11  42  1   
 28  12  14  1   
 29  12  43  1   
 30  12  44  1   
 31  13  15  am  
 32  13  45  1   
 33  14  16  2   
 34  14  17  am  
 35  15  18  2   
 36  15  19  1   
 37  17  20  1   
 38  17  46  1   
 39  19  21  1   
 40  19  22  1   
 41  19  47  1   
 42  20  23  1   
 43  20  24  1   
 44  20  48  1   
 45  21  23  am  
 46  21  49  1   
 47  22  25  1   
 48  22  26  1   
 49  22  50  1   
 50  23  27  2   
 51  24  51  1   
 52  24  52  1   
 53  24  53  1   
 54  25  54  1   
 55  25  55  1   
 56  25  56  1   
 57  26  57  1   
 58  26  58  1   
 59  26  59  1   
@<TRIPOS>SUBSTRUCTURE
  1 ****   7 GROUP 4 **** **** 0

# MOE 2024.06 (io_trps.svl 2023.06)
