@<TRIPOS>MOLECULE
NONAME
46 47 1 0 0 
SMALL
USER_CHARGES


@<TRIPOS>ATOM
  1 F        0.3840    -0.6140     0.7180 F     1 <1>  -0.1900 
  2 C        0.1780    -1.8400     0.3270 C.ar  1 <1>   0.1900 
  3 C        1.0390    -2.8320     0.7540 C.ar  1 <1>  -0.1500 
  4 C       -0.8950    -2.1040    -0.5000 C.ar  1 <1>  -0.1500 
  5 C        0.8200    -4.1380     0.3450 C.ar  1 <1>  -0.1440 
  6 C       -1.1070    -3.4100    -0.9040 C.ar  1 <1>  -0.1500 
  7 C       -0.2660    -4.4470    -0.4880 C.ar  1 <1>   0.0860 
  8 C        1.7710    -5.2350     0.8070 C.3   1 <1>  -0.0960 
  9 C       -0.5530    -5.8030    -0.9140 C.2   1 <1>   0.5440 
 10 O        0.0960    -6.2930    -1.8170 O.2   1 <1>  -0.5700 
 11 N       -1.5510    -6.5480    -0.3170 N.am  1 <1>  -0.6600 
 12 C       -1.9680    -7.8760    -0.8710 C.3   1 <1>   0.1400 
 13 C       -2.2810    -6.1070     0.9040 C.3   1 <1>   0.1400 
 14 C       -3.4920    -7.9220    -1.0850 C.3   1 <1>   0.2000 
 15 C       -3.7900    -6.1240     0.6340 C.3   1 <1>  -0.1600 
 16 O       -3.8520    -9.1920    -1.5250 O.3   1 <1>  -0.6800 
 17 C       -4.3090    -7.5140     0.1770 C.3   1 <1>   0.0000 
 18 C       -4.0910    -8.5700     1.3000 C.3   1 <1>   0.1200 
 19 C       -5.8350    -7.4440    -0.1280 C.3   1 <1>  -0.1600 
 20 O       -4.7170    -8.2020     2.4840 O.3   1 <1>  -0.6800 
 21 C       -6.2710    -6.5390    -1.2980 C.3   1 <1>  -0.1600 
 22 C       -7.7940    -6.5470    -1.4470 C.3   1 <1>  -0.2400 
 23 H        1.8640    -2.5730     1.3930 H     1 <1>   0.1500 
 24 H       -1.5410    -1.3060    -0.8190 H     1 <1>   0.1500 
 25 H       -1.9330    -3.6420    -1.5530 H     1 <1>   0.1500 
 26 H        2.5420    -4.8390     1.4430 H     1 <1>   0.0800 
 27 H        2.2380    -5.6960    -0.0460 H     1 <1>   0.0800 
 28 H        1.2320    -5.9890     1.3530 H     1 <1>   0.0800 
 29 H       -1.4890    -8.0530    -1.8180 H     1 <1>   0.0800 
 30 H       -1.6570    -8.6460    -0.1900 H     1 <1>   0.0800 
 31 H       -2.0320    -6.7650     1.7190 H     1 <1>   0.0800 
 32 H       -1.9860    -5.1140     1.1940 H     1 <1>   0.0800 
 33 H       -3.7120    -7.2450    -1.8910 H     1 <1>   0.0800 
 34 H       -4.3130    -5.7970     1.5140 H     1 <1>   0.0800 
 35 H       -3.9810    -5.3920    -0.1290 H     1 <1>   0.0800 
 36 H       -3.6740    -9.8670    -0.8440 H     1 <1>   0.4000 
 37 H       -3.0490    -8.7130     1.5190 H     1 <1>   0.0800 
 38 H       -4.5070    -9.5190     1.0090 H     1 <1>   0.0800 
 39 H       -6.1860    -8.4400    -0.3370 H     1 <1>   0.0800 
 40 H       -6.3510    -7.1160     0.7580 H     1 <1>   0.0800 
 41 H       -4.4390    -7.3110     2.7640 H     1 <1>   0.4000 
 42 H       -5.9500    -5.5260    -1.1370 H     1 <1>   0.0800 
 43 H       -5.8400    -6.8900    -2.2190 H     1 <1>   0.0800 
 44 H       -8.2640    -6.1790    -0.5520 H     1 <1>   0.0800 
 45 H       -8.1480    -7.5450    -1.6390 H     1 <1>   0.0800 
 46 H       -8.0870    -5.9180    -2.2700 H     1 <1>   0.0800 
@<TRIPOS>BOND
  1   1   2  1   
  2   2   3  ar  
  3   2   4  ar  
  4   3   5  ar  
  5   3  23  1   
  6   4   6  ar  
  7   4  24  1   
  8   5   7  ar  
  9   5   8  1   
 10   6   7  ar  
 11   6  25  1   
 12   7   9  1   
 13   8  26  1   
 14   8  27  1   
 15   8  28  1   
 16   9  10  2   
 17   9  11  am  
 18  11  12  1   
 19  11  13  1   
 20  12  14  1   
 21  12  29  1   
 22  12  30  1   
 23  13  15  1   
 24  13  31  1   
 25  13  32  1   
 26  14  16  1   
 27  14  17  1   
 28  14  33  1   
 29  15  17  1   
 30  15  34  1   
 31  15  35  1   
 32  16  36  1   
 33  17  18  1   
 34  17  19  1   
 35  18  20  1   
 36  18  37  1   
 37  18  38  1   
 38  19  21  1   
 39  19  39  1   
 40  19  40  1   
 41  20  41  1   
 42  21  22  1   
 43  21  42  1   
 44  21  43  1   
 45  22  44  1   
 46  22  45  1   
 47  22  46  1   
@<TRIPOS>SUBSTRUCTURE
  1 ****  11 GROUP 4 **** **** 0

# MOE 2024.06 (io_trps.svl 2023.06)
