@<TRIPOS>MOLECULE
NONAME
47 49 1 0 0 
SMALL
USER_CHARGES


@<TRIPOS>ATOM
  1 S       -0.5250     0.0810    -0.1170 S.3   1 <1>  -0.0800 
  2 C        1.0600    -0.5640     0.2980 C.2   1 <1>   0.3250 
  3 C       -1.1100    -1.5280    -0.3900 C.2   1 <1>  -0.1100 
  4 N        1.0980    -1.8490     0.2260 N.2   1 <1>  -0.5650 
  5 C        2.1260     0.3420     0.6640 C.ar  1 <1>   0.0530 
  6 C       -0.1110    -2.3940    -0.1580 C.2   1 <1>   0.0460 
  7 C        2.0060     1.7270     0.7140 C.ar  1 <1>  -0.1500 
  8 C        3.3860    -0.1340     1.0010 C.ar  1 <1>  -0.1500 
  9 C       -0.1530    -3.9100    -0.2700 C.3   1 <1>   0.0210 
 10 C        3.0840     2.5130     1.0760 C.ar  1 <1>   0.1600 
 11 C        4.4010     0.7350     1.3500 C.ar  1 <1>   0.1600 
 12 C       -1.5470    -4.4450    -0.6040 C.3   1 <1>   0.1400 
 13 N        4.2810     2.0510     1.3960 N.ar  1 <1>  -0.6200 
 14 N       -1.5160    -5.9210    -0.6980 N.am  1 <1>  -0.7300 
 15 C       -1.8520    -6.6630    -1.7850 C.2   1 <1>   0.5690 
 16 O       -2.2170    -6.1580    -2.8210 O.2   1 <1>  -0.5700 
 17 C       -1.7570    -8.1850    -1.6850 C.3   1 <1>   0.2010 
 18 N       -2.6630    -8.7630    -0.6310 N.am  1 <1>  -0.6600 
 19 C       -2.2950    -8.7190     0.6850 C.2   1 <1>   0.5690 
 20 C       -4.0160    -9.1600    -1.0970 C.3   1 <1>   0.1400 
 21 O       -1.2500    -8.2180     1.0320 O.2   1 <1>  -0.5700 
 22 C       -3.2110    -9.2680     1.7630 C.3   1 <1>  -0.0990 
 23 C       -5.0900    -8.2270    -0.5260 C.3   1 <1>  -0.1600 
 24 C       -4.4570    -8.3950     1.9780 C.3   1 <1>  -0.1600 
 25 C       -5.5340    -8.5880     0.9010 C.3   1 <1>  -0.1600 
 26 H       -2.1330    -1.6450    -0.6960 H     1 <1>   0.1500 
 27 H        1.0770     2.2070     0.4730 H     1 <1>   0.1500 
 28 H        3.5730    -1.1930     0.9900 H     1 <1>   0.1500 
 29 H        0.1720    -4.3290     0.6650 H     1 <1>   0.0800 
 30 H        0.5350    -4.2130    -1.0380 H     1 <1>   0.0800 
 31 H        2.9570     3.5820     1.1050 H     1 <1>   0.1500 
 32 H        5.3650     0.3280     1.6050 H     1 <1>   0.1500 
 33 H       -1.8790    -4.0310    -1.5410 H     1 <1>   0.0800 
 34 H       -2.2450    -4.1580     0.1640 H     1 <1>   0.0800 
 35 H       -1.2730    -6.4440     0.1590 H     1 <1>   0.3700 
 36 H       -0.7390    -8.4410    -1.4520 H     1 <1>   0.0800 
 37 H       -1.9850    -8.6140    -2.6430 H     1 <1>   0.0800 
 38 H       -4.2150   -10.1800    -0.8150 H     1 <1>   0.0800 
 39 H       -4.0530    -9.1080    -2.1720 H     1 <1>   0.0800 
 40 H       -2.6520    -9.3000     2.6810 H     1 <1>   0.0800 
 41 H       -3.4890   -10.2780     1.5230 H     1 <1>   0.0800 
 42 H       -5.9550    -8.3030    -1.1610 H     1 <1>   0.0800 
 43 H       -4.7520    -7.2060    -0.5730 H     1 <1>   0.0800 
 44 H       -4.1650    -7.3590     2.0200 H     1 <1>   0.0800 
 45 H       -4.8890    -8.6470     2.9320 H     1 <1>   0.0800 
 46 H       -5.8780    -9.6090     0.9200 H     1 <1>   0.0800 
 47 H       -6.3770    -7.9690     1.1580 H     1 <1>   0.0800 
@<TRIPOS>BOND
  1   1   2  1   
  2   1   3  1   
  3   2   4  2   
  4   2   5  1   
  5   3   6  2   
  6   3  26  1   
  7   4   6  1   
  8   5   7  ar  
  9   5   8  ar  
 10   6   9  1   
 11   7  10  ar  
 12   7  27  1   
 13   8  11  ar  
 14   8  28  1   
 15   9  12  1   
 16   9  29  1   
 17   9  30  1   
 18  10  13  ar  
 19  10  31  1   
 20  11  13  ar  
 21  11  32  1   
 22  12  14  1   
 23  12  33  1   
 24  12  34  1   
 25  14  15  am  
 26  14  35  1   
 27  15  16  2   
 28  15  17  1   
 29  17  18  1   
 30  17  36  1   
 31  17  37  1   
 32  18  19  am  
 33  18  20  1   
 34  19  21  2   
 35  19  22  1   
 36  20  23  1   
 37  20  38  1   
 38  20  39  1   
 39  22  24  1   
 40  22  40  1   
 41  22  41  1   
 42  23  25  1   
 43  23  42  1   
 44  23  43  1   
 45  24  25  1   
 46  24  44  1   
 47  24  45  1   
 48  25  46  1   
 49  25  47  1   
@<TRIPOS>SUBSTRUCTURE
  1 ****   9 GROUP 4 **** **** 0

# MOE 2024.06 (io_trps.svl 2023.06)
