@<TRIPOS>MOLECULE
NONAME
53 55 1 0 0 
SMALL
USER_CHARGES


@<TRIPOS>ATOM
  1 O       -0.2660     0.1720    -0.9870 O.2   1 <1>  -0.5700 
  2 C       -0.1810     1.3370    -0.6790 C.2   1 <1>   0.5690 
  3 N       -1.2840     2.0950    -0.3770 N.am  1 <1>  -0.6600 
  4 C        1.2140     1.9730    -0.6620 C.3   1 <1>   0.1810 
  5 C       -1.1430     3.5320     0.0250 C.3   1 <1>   0.3640 
  6 C       -2.6480     1.5020    -0.2570 C.3   1 <1>   0.0600 
  7 O        1.2760     3.1880     0.0460 O.3   1 <1>  -0.5600 
  8 C       -2.2060     4.3930    -0.6760 C.ar  1 <1>  -0.1430 
  9 C        0.2550     4.1020    -0.2980 C.3   1 <1>   0.2610 
 10 C       -3.0680     5.2370     0.0260 C.ar  1 <1>  -0.1430 
 11 C       -2.2970     4.3400    -2.0630 C.ar  1 <1>  -0.1500 
 12 C        0.4150     5.4500     0.4130 C.2   1 <1>   0.5690 
 13 C       -3.9790     6.0160    -0.6720 C.ar  1 <1>  -0.1500 
 14 C       -3.0560     5.3420     1.5460 C.3   1 <1>  -0.0960 
 15 C       -3.2090     5.1190    -2.7490 C.ar  1 <1>  -0.1500 
 16 O        0.4670     5.4910     1.6210 O.2   1 <1>  -0.5700 
 17 N        0.4280     6.5880    -0.3370 N.am  1 <1>  -0.7300 
 18 C       -4.0500     5.9620    -2.0510 C.ar  1 <1>  -0.1500 
 19 C        0.4030     7.9570     0.2020 C.3   1 <1>   0.2200 
 20 C       -1.0320     8.4830     0.0480 C.3   1 <1>  -0.1600 
 21 C        1.4750     8.7820    -0.5220 C.3   1 <1>  -0.1600 
 22 C       -1.2190    10.0090     0.0870 C.3   1 <1>  -0.1600 
 23 C        2.0090     9.9320     0.3480 C.3   1 <1>  -0.1600 
 24 C       -0.3330    10.7390     1.1050 C.3   1 <1>  -0.1600 
 25 C        1.0420    11.1100     0.5290 C.3   1 <1>  -0.1600 
 26 H        1.5340     2.1530    -1.6720 H     1 <1>   0.0800 
 27 H        1.9050     1.2930    -0.1980 H     1 <1>   0.0800 
 28 H       -1.2700     3.5770     1.0910 H     1 <1>   0.0800 
 29 H       -3.0700     1.7460     0.7020 H     1 <1>   0.0800 
 30 H       -2.6080     0.4300    -0.3520 H     1 <1>   0.0800 
 31 H       -3.2860     1.8900    -1.0310 H     1 <1>   0.0800 
 32 H        0.3330     4.2750    -1.3550 H     1 <1>   0.0800 
 33 H       -1.6560     3.6800    -2.6220 H     1 <1>   0.1500 
 34 H       -4.6460     6.6750    -0.1440 H     1 <1>   0.1500 
 35 H       -3.8300     6.0000     1.8950 H     1 <1>   0.0800 
 36 H       -2.1150     5.7300     1.8900 H     1 <1>   0.0800 
 37 H       -3.2200     4.3750     1.9880 H     1 <1>   0.0800 
 38 H       -3.2670     5.0660    -3.8220 H     1 <1>   0.1500 
 39 H        0.3020     6.5390    -1.3480 H     1 <1>   0.3700 
 40 H       -4.7630     6.5720    -2.5790 H     1 <1>   0.1500 
 41 H        0.6500     7.9210     1.2510 H     1 <1>   0.0800 
 42 H       -1.4510     8.1290    -0.8780 H     1 <1>   0.0800 
 43 H       -1.6130     8.0530     0.8440 H     1 <1>   0.0800 
 44 H        2.3120     8.1400    -0.7350 H     1 <1>   0.0800 
 45 H        1.1000     9.1600    -1.4570 H     1 <1>   0.0800 
 46 H       -1.0480    10.4160    -0.8950 H     1 <1>   0.0800 
 47 H       -2.2510    10.2050     0.3250 H     1 <1>   0.0800 
 48 H        2.2860     9.5470     1.3150 H     1 <1>   0.0800 
 49 H        2.9090    10.3100    -0.1070 H     1 <1>   0.0800 
 50 H       -0.8280    11.6570     1.3730 H     1 <1>   0.0800 
 51 H       -0.2280    10.1610     2.0080 H     1 <1>   0.0800 
 52 H        1.5070    11.8160     1.1960 H     1 <1>   0.0800 
 53 H        0.9120    11.6110    -0.4150 H     1 <1>   0.0800 
@<TRIPOS>BOND
  1   1   2  2   
  2   2   3  am  
  3   2   4  1   
  4   3   5  1   
  5   3   6  1   
  6   4   7  1   
  7   4  26  1   
  8   4  27  1   
  9   5   8  1   
 10   5   9  1   
 11   5  28  1   
 12   6  29  1   
 13   6  30  1   
 14   6  31  1   
 15   7   9  1   
 16   8  10  ar  
 17   8  11  ar  
 18   9  12  1   
 19   9  32  1   
 20  10  13  ar  
 21  10  14  1   
 22  11  15  ar  
 23  11  33  1   
 24  12  16  2   
 25  12  17  am  
 26  13  18  ar  
 27  13  34  1   
 28  14  35  1   
 29  14  36  1   
 30  14  37  1   
 31  15  18  ar  
 32  15  38  1   
 33  17  19  1   
 34  17  39  1   
 35  18  40  1   
 36  19  20  1   
 37  19  21  1   
 38  19  41  1   
 39  20  22  1   
 40  20  42  1   
 41  20  43  1   
 42  21  23  1   
 43  21  44  1   
 44  21  45  1   
 45  22  24  1   
 46  22  46  1   
 47  22  47  1   
 48  23  25  1   
 49  23  48  1   
 50  23  49  1   
 51  24  25  1   
 52  24  50  1   
 53  24  51  1   
 54  25  52  1   
 55  25  53  1   
@<TRIPOS>SUBSTRUCTURE
  1 ****  12 GROUP 4 **** **** 0

# MOE 2024.06 (io_trps.svl 2023.06)
