@<TRIPOS>MOLECULE
NONAME
39 41 1 0 0 
SMALL
USER_CHARGES


@<TRIPOS>ATOM
  1 O       -0.6850     0.1230     0.0710 O.2   1 <1>  -0.5700 
  2 C       -1.3790     0.9290     0.6760 C.2   1 <1>   0.7160 
  3 N       -2.4660     0.4150     1.3570 N.am  1 <1>  -0.6600 
  4 C       -1.0680     2.3570     0.6210 C.2   1 <1>   0.2030 
  5 C       -2.5430    -1.0240     1.7490 C.3   1 <1>   0.1400 
  6 C       -3.7850     1.1000     1.3430 C.3   1 <1>   0.1400 
  7 N       -1.4840     3.2970     1.4620 N.2   1 <1>  -0.7070 
  8 C       -0.2500     2.9430    -0.3580 C.2   1 <1>  -0.1810 
  9 C       -3.4290    -1.7970     0.7580 C.3   1 <1>   0.2000 
 10 C       -4.7100     0.3800     0.3540 C.3   1 <1>  -0.1600 
 11 N       -0.9400     4.4460     1.0290 N.pl3 1 <1>   0.3000 
 12 C       -0.1870     4.2490    -0.0660 C.2   1 <1>  -0.3320 
 13 C        0.4720     2.3330    -1.5510 C.3   1 <1>   0.3010 
 14 O       -2.7970    -1.8060    -0.4760 O.3   1 <1>  -0.6800 
 15 C       -4.8200    -1.1390     0.6310 C.3   1 <1>  -0.0800 
 16 C        0.6120     5.2290    -0.8990 C.3   1 <1>   0.0200 
 17 O        0.8860     3.3590    -2.4250 O.3   1 <1>  -0.5600 
 18 C       -5.6640    -1.8500    -0.4400 C.3   1 <1>   0.1200 
 19 C        1.5610     4.4320    -1.8180 C.3   1 <1>   0.1200 
 20 O       -6.9650    -1.3700    -0.4070 O.3   1 <1>  -0.6800 
 21 H       -1.5600    -1.4640     1.7810 H     1 <1>   0.0800 
 22 H       -2.9640    -1.0930     2.7360 H     1 <1>   0.0800 
 23 H       -4.2050     1.0780     2.3340 H     1 <1>   0.0800 
 24 H       -3.6840     2.1290     1.0470 H     1 <1>   0.0800 
 25 H       -3.5290    -2.8210     1.0720 H     1 <1>   0.0800 
 26 H       -5.6850     0.8310     0.4010 H     1 <1>   0.0800 
 27 H       -4.3350     0.5370    -0.6430 H     1 <1>   0.0800 
 28 H       -1.0980     5.3450     1.5000 H     1 <1>   0.2700 
 29 H       -0.1830     1.6790    -2.1000 H     1 <1>   0.0800 
 30 H        1.3380     1.7810    -1.2300 H     1 <1>   0.0800 
 31 H       -2.1240    -1.0830    -0.4870 H     1 <1>   0.4000 
 32 H       -5.3100    -1.2700     1.5790 H     1 <1>   0.0800 
 33 H        1.1880     5.8830    -0.2700 H     1 <1>   0.0800 
 34 H       -0.0520     5.8250    -1.4990 H     1 <1>   0.0800 
 35 H       -5.6920    -2.9130    -0.2710 H     1 <1>   0.0800 
 36 H       -5.2650    -1.6640    -1.4230 H     1 <1>   0.0800 
 37 H        2.3860     4.0330    -1.2540 H     1 <1>   0.0800 
 38 H        1.9450     5.0640    -2.5990 H     1 <1>   0.0800 
 39 H       -7.3950    -1.5920     0.4400 H     1 <1>   0.4000 
@<TRIPOS>BOND
  1   1   2  2   
  2   2   3  am  
  3   2   4  1   
  4   3   5  1   
  5   3   6  1   
  6   4   7  2   
  7   4   8  1   
  8   5   9  1   
  9   5  21  1   
 10   5  22  1   
 11   6  10  1   
 12   6  23  1   
 13   6  24  1   
 14   7  11  1   
 15   8  12  2   
 16   8  13  1   
 17   9  14  1   
 18   9  15  1   
 19   9  25  1   
 20  10  15  1   
 21  10  26  1   
 22  10  27  1   
 23  11  12  1   
 24  11  28  1   
 25  12  16  1   
 26  13  17  1   
 27  13  29  1   
 28  13  30  1   
 29  14  31  1   
 30  15  18  1   
 31  15  32  1   
 32  16  19  1   
 33  16  33  1   
 34  16  34  1   
 35  17  19  1   
 36  18  20  1   
 37  18  35  1   
 38  18  36  1   
 39  19  37  1   
 40  19  38  1   
 41  20  39  1   
@<TRIPOS>SUBSTRUCTURE
  1 ****   2 GROUP 4 **** **** 0

# MOE 2024.06 (io_trps.svl 2023.06)
