@<TRIPOS>MOLECULE
NONAME
54 56 1 0 0 
SMALL
USER_CHARGES


@<TRIPOS>ATOM
  1 F       -0.7160    -0.0130     0.7200 F     1 <1>  -0.1900 
  2 C       -1.9630     0.3730     0.6190 C.ar  1 <1>   0.1900 
  3 C       -2.3180     1.7230     0.5300 C.ar  1 <1>   0.0830 
  4 C       -2.9160    -0.6270     0.6060 C.ar  1 <1>  -0.1500 
  5 O       -1.4760     2.7960     0.5330 O.3   1 <1>  -0.3630 
  6 C       -3.6660     2.0270     0.4280 C.ar  1 <1>  -0.1500 
  7 C       -4.2520    -0.2880     0.5040 C.ar  1 <1>  -0.1500 
  8 C       -0.0720     2.6720     0.5890 C.3   1 <1>   0.0400 
  9 C       -4.6620     1.0460     0.4110 C.ar  1 <1>   0.0530 
 10 C       -6.0550     1.4150     0.3060 C.2   1 <1>   0.0870 
 11 O       -6.4390     2.6270     0.6180 O.3   1 <1>  -0.0190 
 12 C       -7.1740     0.7390    -0.0670 C.2   1 <1>  -0.0860 
 13 N       -7.7250     2.8110     0.4780 N.2   1 <1>  -0.4100 
 14 C       -8.1940     1.6890     0.0540 C.2   1 <1>   0.3720 
 15 C       -7.3340    -0.6130    -0.4960 C.2   1 <1>   0.7160 
 16 N       -9.5520     1.4700    -0.2380 N.pl3 1 <1>  -0.8210 
 17 O       -6.8600    -0.9450    -1.5680 O.2   1 <1>  -0.5700 
 18 N       -7.9660    -1.5660     0.2780 N.am  1 <1>  -0.6600 
 19 C      -10.5030     2.5340     0.1890 C.3   1 <1>   0.1290 
 20 C       -9.8440     0.9240    -1.5950 C.3   1 <1>   0.1290 
 21 C       -8.1990    -2.9560    -0.2070 C.3   1 <1>   0.1400 
 22 C       -8.5530    -1.2810     1.6190 C.3   1 <1>   0.1400 
 23 C       -9.7050    -3.2520    -0.2630 C.3   1 <1>  -0.0800 
 24 C      -10.0570    -1.5700     1.5990 C.3   1 <1>  -0.1600 
 25 C      -10.3610    -2.9920     1.1070 C.3   1 <1>  -0.1600 
 26 C       -9.9320    -4.6920    -0.7430 C.3   1 <1>   0.1200 
 27 O      -11.2990    -4.9250    -0.8560 O.3   1 <1>  -0.5600 
 28 C      -11.6220    -6.2060    -1.2890 C.3   1 <1>   0.0400 
 29 H       -2.6120    -1.6560     0.6740 H     1 <1>   0.1500 
 30 H       -3.9440     3.0630     0.3570 H     1 <1>   0.1500 
 31 H       -4.9800    -1.0780     0.5000 H     1 <1>   0.1500 
 32 H        0.3520     3.6590     0.5560 H     1 <1>   0.0800 
 33 H        0.2640     2.1020    -0.2590 H     1 <1>   0.0800 
 34 H        0.2010     2.1900     1.5110 H     1 <1>   0.0800 
 35 H      -10.3050     2.8150     1.2090 H     1 <1>   0.0800 
 36 H      -11.5140     2.1720     0.1230 H     1 <1>   0.0800 
 37 H      -10.3910     3.4010    -0.4400 H     1 <1>   0.0800 
 38 H       -9.0040     1.0800    -2.2520 H     1 <1>   0.0800 
 39 H      -10.7060     1.4040    -2.0250 H     1 <1>   0.0800 
 40 H      -10.0360    -0.1320    -1.5230 H     1 <1>   0.0800 
 41 H       -7.7160    -3.6420     0.4670 H     1 <1>   0.0800 
 42 H       -7.7710    -3.0950    -1.1850 H     1 <1>   0.0800 
 43 H       -8.3900    -0.2590     1.9110 H     1 <1>   0.0800 
 44 H       -8.0740    -1.9120     2.3480 H     1 <1>   0.0800 
 45 H      -10.1400    -2.5940    -0.9950 H     1 <1>   0.0800 
 46 H      -10.5390    -0.8540     0.9560 H     1 <1>   0.0800 
 47 H      -10.4570    -1.4360     2.5880 H     1 <1>   0.0800 
 48 H       -9.9950    -3.7050     1.8250 H     1 <1>   0.0800 
 49 H      -11.4280    -3.1200     1.0290 H     1 <1>   0.0800 
 50 H       -9.5210    -5.3950    -0.0380 H     1 <1>   0.0800 
 51 H       -9.4810    -4.8400    -1.7100 H     1 <1>   0.0800 
 52 H      -12.6940    -6.2800    -1.3420 H     1 <1>   0.0800 
 53 H      -11.2430    -6.9260    -0.5840 H     1 <1>   0.0800 
 54 H      -11.1990    -6.3690    -2.2650 H     1 <1>   0.0800 
@<TRIPOS>BOND
  1   1   2  1   
  2   2   3  ar  
  3   2   4  ar  
  4   3   5  1   
  5   3   6  ar  
  6   4   7  ar  
  7   4  29  1   
  8   5   8  1   
  9   6   9  ar  
 10   6  30  1   
 11   7   9  ar  
 12   7  31  1   
 13   8  32  1   
 14   8  33  1   
 15   8  34  1   
 16   9  10  1   
 17  10  11  1   
 18  10  12  2   
 19  11  13  1   
 20  12  14  1   
 21  12  15  1   
 22  13  14  2   
 23  14  16  1   
 24  15  17  2   
 25  15  18  am  
 26  16  19  1   
 27  16  20  1   
 28  18  21  1   
 29  18  22  1   
 30  19  35  1   
 31  19  36  1   
 32  19  37  1   
 33  20  38  1   
 34  20  39  1   
 35  20  40  1   
 36  21  23  1   
 37  21  41  1   
 38  21  42  1   
 39  22  24  1   
 40  22  43  1   
 41  22  44  1   
 42  23  25  1   
 43  23  26  1   
 44  23  45  1   
 45  24  25  1   
 46  24  46  1   
 47  24  47  1   
 48  25  48  1   
 49  25  49  1   
 50  26  27  1   
 51  26  50  1   
 52  26  51  1   
 53  27  28  1   
 54  28  52  1   
 55  28  53  1   
 56  28  54  1   
@<TRIPOS>SUBSTRUCTURE
  1 ****  15 GROUP 4 **** **** 0

# MOE 2024.06 (io_trps.svl 2023.06)
