@<TRIPOS>MOLECULE
NONAME
53 55 1 0 0 
SMALL
USER_CHARGES


@<TRIPOS>ATOM
  1 O        0.7740     0.8990    -1.1150 O.3   1 <1>  -0.5600 
  2 C        0.9250     1.9520    -0.2280 C.3   1 <1>   0.2000 
  3 C       -0.1300    -0.0360    -0.6170 C.3   1 <1>   0.1200 
  4 C       -0.4560     2.1190     0.3920 C.3   1 <1>  -0.1600 
  5 C        1.4410     3.1700    -1.0000 C.3   1 <1>  -0.1600 
  6 C       -0.9900     0.6970     0.4110 C.3   1 <1>  -0.1600 
  7 C        1.6660     4.3900    -0.0920 C.3   1 <1>  -0.1600 
  8 C        2.2250     5.5750    -0.8810 C.3   1 <1>   0.2090 
  9 N        2.4360     6.7190     0.0390 N.pl3 1 <1>  -0.8380 
 10 C        3.7080     7.2610     0.1180 C.ar  1 <1>   0.4100 
 11 C        1.2710     7.6410     0.1550 C.3   1 <1>   0.1290 
 12 N        3.8700     8.5130    -0.2000 N.ar  1 <1>  -0.6200 
 13 C        4.7740     6.4410     0.5290 C.ar  1 <1>  -0.1500 
 14 C        5.1210     9.0430    -0.1430 C.ar  1 <1>   0.3100 
 15 C        6.0430     6.9230     0.6010 C.ar  1 <1>  -0.1430 
 16 C        5.3200    10.4100    -0.4890 C.ar  1 <1>   0.0830 
 17 C        6.2470     8.2770     0.2500 C.ar  1 <1>   0.0000 
 18 C        7.1890     6.0260     1.0480 C.3   1 <1>  -0.0970 
 19 O        4.2220    11.1320    -0.8610 O.3   1 <1>  -0.3630 
 20 C        6.5770    10.9750    -0.4480 C.ar  1 <1>  -0.1500 
 21 C        7.5120     8.8950     0.2770 C.ar  1 <1>  -0.1500 
 22 C        4.2850    12.4890    -1.2370 C.3   1 <1>   0.0400 
 23 C        7.6850    10.2090    -0.0620 C.ar  1 <1>   0.0830 
 24 O        8.9490    10.7020    -0.0020 O.3   1 <1>  -0.3620 
 25 C        9.2420    12.0400    -0.3390 C.3   1 <1>   0.0400 
 26 H        1.6370     1.6430     0.5200 H     1 <1>   0.0800 
 27 H        0.4280    -0.8370    -0.1640 H     1 <1>   0.0800 
 28 H       -0.7140    -0.4110    -1.4390 H     1 <1>   0.0800 
 29 H       -1.0680     2.7340    -0.2440 H     1 <1>   0.0800 
 30 H       -0.4050     2.5560     1.3730 H     1 <1>   0.0800 
 31 H        0.7360     3.4200    -1.7730 H     1 <1>   0.0800 
 32 H        2.3720     2.9010    -1.4660 H     1 <1>   0.0800 
 33 H       -0.8530     0.2470     1.3790 H     1 <1>   0.0800 
 34 H       -2.0320     0.6570     0.1500 H     1 <1>   0.0800 
 35 H        2.3610     4.1340     0.6880 H     1 <1>   0.0800 
 36 H        0.7360     4.6820     0.3610 H     1 <1>   0.0800 
 37 H        1.5400     5.8590    -1.6620 H     1 <1>   0.0800 
 38 H        3.1570     5.3000    -1.3450 H     1 <1>   0.0800 
 39 H        0.3840     7.0910     0.4110 H     1 <1>   0.0800 
 40 H        1.1200     8.1560    -0.7780 H     1 <1>   0.0800 
 41 H        1.4610     8.3710     0.9230 H     1 <1>   0.0800 
 42 H        4.5390     5.4290     0.7890 H     1 <1>   0.1500 
 43 H        6.8340     5.0380     1.2790 H     1 <1>   0.0800 
 44 H        7.6520     6.4330     1.9300 H     1 <1>   0.0800 
 45 H        7.9230     5.9480     0.2670 H     1 <1>   0.0800 
 46 H        6.7210    12.0010    -0.7090 H     1 <1>   0.1500 
 47 H        8.3760     8.3300     0.5700 H     1 <1>   0.1500 
 48 H        3.2900    12.8090    -1.4850 H     1 <1>   0.0800 
 49 H        4.9230    12.5830    -2.0980 H     1 <1>   0.0800 
 50 H        4.6590    13.0640    -0.4090 H     1 <1>   0.0800 
 51 H       10.3000    12.1910    -0.2180 H     1 <1>   0.0800 
 52 H        8.7030    12.6930     0.3250 H     1 <1>   0.0800 
 53 H        8.9630    12.2120    -1.3630 H     1 <1>   0.0800 
@<TRIPOS>BOND
  1   1   2  1   
  2   1   3  1   
  3   2   4  1   
  4   2   5  1   
  5   2  26  1   
  6   3   6  1   
  7   3  27  1   
  8   3  28  1   
  9   4   6  1   
 10   4  29  1   
 11   4  30  1   
 12   5   7  1   
 13   5  31  1   
 14   5  32  1   
 15   6  33  1   
 16   6  34  1   
 17   7   8  1   
 18   7  35  1   
 19   7  36  1   
 20   8   9  1   
 21   8  37  1   
 22   8  38  1   
 23   9  10  1   
 24   9  11  1   
 25  10  12  ar  
 26  10  13  ar  
 27  11  39  1   
 28  11  40  1   
 29  11  41  1   
 30  12  14  ar  
 31  13  15  ar  
 32  13  42  1   
 33  14  16  ar  
 34  14  17  ar  
 35  15  17  ar  
 36  15  18  1   
 37  16  19  1   
 38  16  20  ar  
 39  17  21  ar  
 40  18  43  1   
 41  18  44  1   
 42  18  45  1   
 43  19  22  1   
 44  20  23  ar  
 45  20  46  1   
 46  21  23  ar  
 47  21  47  1   
 48  22  48  1   
 49  22  49  1   
 50  22  50  1   
 51  23  24  1   
 52  24  25  1   
 53  25  51  1   
 54  25  52  1   
 55  25  53  1   
@<TRIPOS>SUBSTRUCTURE
  1 ****  10 GROUP 4 **** **** 0

# MOE 2024.06 (io_trps.svl 2023.06)
