@<TRIPOS>MOLECULE
NONAME
41 42 1 0 0 
SMALL
USER_CHARGES


@<TRIPOS>ATOM
  1 CL       0.5530    -0.3000    -2.3290 Cl    1 <1>  -0.1770 
  2 C        1.2510    -1.1900    -0.9870 C.ar  1 <1>   0.1770 
  3 C        0.9670    -2.5360    -0.7930 C.ar  1 <1>   0.4100 
  4 C        2.0930    -0.5700    -0.1060 C.ar  1 <1>   0.1600 
  5 N        1.5020    -3.1900     0.2230 N.ar  1 <1>  -0.6200 
  6 N        0.1240    -3.2320    -1.6330 N.pl3 1 <1>  -0.8690 
  7 N        2.6350    -1.2170     0.9130 N.ar  1 <1>  -0.6200 
  8 C        2.3030    -2.4950     1.0110 C.ar  1 <1>   0.4770 
  9 C        0.0280    -4.7140    -1.6860 C.3   1 <1>   0.2090 
 10 C        2.9140    -3.2440     2.1700 C.3   1 <1>  -0.0970 
 11 C       -1.0700    -5.1810    -0.7330 C.3   1 <1>  -0.0990 
 12 C       -1.2700    -6.6870    -0.7650 C.2   1 <1>   0.5690 
 13 O       -0.6580    -7.3260    -1.5910 O.2   1 <1>  -0.5700 
 14 N       -2.1320    -7.2890     0.1180 N.am  1 <1>  -0.6600 
 15 C       -2.9420    -6.5810     1.1500 C.3   1 <1>   0.1400 
 16 C       -2.3440    -8.7650     0.1010 C.3   1 <1>   0.1400 
 17 C       -4.4300    -6.8690     0.9270 C.3   1 <1>  -0.1600 
 18 C       -3.8270    -9.0720    -0.1290 C.3   1 <1>  -0.1600 
 19 C       -4.7180    -8.3780     0.9120 C.3   1 <1>  -0.0800 
 20 C       -6.1990    -8.6440     0.6200 C.3   1 <1>  -0.2400 
 21 H        2.3300     0.4710    -0.2320 H     1 <1>   0.1500 
 22 H       -0.2100    -2.7430    -2.4680 H     1 <1>   0.4000 
 23 H        0.9700    -5.1570    -1.4050 H     1 <1>   0.0800 
 24 H       -0.2000    -5.0220    -2.6920 H     1 <1>   0.0800 
 25 H        2.7620    -4.3020     2.0580 H     1 <1>   0.0800 
 26 H        2.4580    -2.9180     3.0850 H     1 <1>   0.0800 
 27 H        3.9690    -3.0470     2.2120 H     1 <1>   0.0800 
 28 H       -1.9950    -4.7080    -1.0010 H     1 <1>   0.0800 
 29 H       -0.7940    -4.8920     0.2630 H     1 <1>   0.0800 
 30 H       -2.7800    -5.5190     1.1210 H     1 <1>   0.0800 
 31 H       -2.6470    -6.9340     2.1240 H     1 <1>   0.0800 
 32 H       -2.0260    -9.1740     1.0440 H     1 <1>   0.0800 
 33 H       -1.7580    -9.2280    -0.6750 H     1 <1>   0.0800 
 34 H       -4.7300    -6.4280    -0.0080 H     1 <1>   0.0800 
 35 H       -4.9990    -6.4000     1.7090 H     1 <1>   0.0800 
 36 H       -3.9740   -10.1370    -0.0830 H     1 <1>   0.0800 
 37 H       -4.0930    -8.7470    -1.1200 H     1 <1>   0.0800 
 38 H       -4.4860    -8.7820     1.8840 H     1 <1>   0.0800 
 39 H       -6.4710    -8.2570    -0.3470 H     1 <1>   0.0800 
 40 H       -6.8170    -8.1740     1.3640 H     1 <1>   0.0800 
 41 H       -6.3980    -9.7010     0.6330 H     1 <1>   0.0800 
@<TRIPOS>BOND
  1   1   2  1   
  2   2   3  ar  
  3   2   4  ar  
  4   3   5  ar  
  5   3   6  1   
  6   4   7  ar  
  7   4  21  1   
  8   5   8  ar  
  9   6   9  1   
 10   6  22  1   
 11   7   8  ar  
 12   8  10  1   
 13   9  11  1   
 14   9  23  1   
 15   9  24  1   
 16  10  25  1   
 17  10  26  1   
 18  10  27  1   
 19  11  12  1   
 20  11  28  1   
 21  11  29  1   
 22  12  13  2   
 23  12  14  am  
 24  14  15  1   
 25  14  16  1   
 26  15  17  1   
 27  15  30  1   
 28  15  31  1   
 29  16  18  1   
 30  16  32  1   
 31  16  33  1   
 32  17  19  1   
 33  17  34  1   
 34  17  35  1   
 35  18  19  1   
 36  18  36  1   
 37  18  37  1   
 38  19  20  1   
 39  19  38  1   
 40  20  39  1   
 41  20  40  1   
 42  20  41  1   
@<TRIPOS>SUBSTRUCTURE
  1 ****  11 GROUP 4 **** **** 0

# MOE 2024.06 (io_trps.svl 2023.06)
