@<TRIPOS>MOLECULE
NONAME
49 51 1 0 0 
SMALL
USER_CHARGES


@<TRIPOS>ATOM
  1 N       -0.2670    -1.0560    -1.7830 N.2   1 <1>  -0.5650 
  2 C        0.9250    -0.9080    -1.3070 C.2   1 <1>   0.0360 
  3 C       -0.5670    -2.3290    -1.4840 C.2   1 <1>   0.0770 
  4 N        1.4310    -2.0150    -0.7110 N.pl3 1 <1>   0.0480 
  5 C        0.4440    -2.9340    -0.8190 C.2   1 <1>  -0.3320 
  6 C        2.7650    -2.1580    -0.0670 C.3   1 <1>   0.1760 
  7 C        0.5230    -4.3500    -0.2790 C.3   1 <1>   0.2900 
  8 C        2.7340    -1.5370     1.3330 C.3   1 <1>  -0.2400 
  9 C        3.8680    -1.5270    -0.9260 C.3   1 <1>  -0.2400 
 10 N       -0.8290    -4.9060    -0.1650 N.3   1 <1>  -0.6890 
 11 C       -1.5850    -4.3130     0.9770 C.3   1 <1>   0.2100 
 12 C       -0.8760    -6.1910     0.5810 C.3   1 <1>   0.2100 
 13 C       -2.2720    -5.7090     1.1000 C.3   1 <1>   0.4720 
 14 N       -3.4430    -5.8790     0.1530 N.4   1 <1>  -0.9280 
 15 C       -4.7660    -5.4950     0.7370 C.3   1 <1>   0.4230 
 16 C       -3.4840    -7.2560    -0.4250 C.3   1 <1>   0.3430 
 17 C       -5.8500    -5.5660    -0.3480 C.3   1 <1>  -0.1600 
 18 C       -4.7550    -4.0890     1.3380 C.3   1 <1>  -0.2400 
 19 C       -4.5410    -7.3470    -1.5250 C.3   1 <1>  -0.1600 
 20 C       -5.9240    -6.9450    -1.0080 C.3   1 <1>  -0.1600 
 21 H        1.4810     0.0110    -1.3700 H     1 <1>   0.1500 
 22 H       -1.5140    -2.7530    -1.7690 H     1 <1>   0.1500 
 23 H        2.9790    -3.2080     0.0250 H     1 <1>   0.0800 
 24 H        1.0070    -4.3480     0.6840 H     1 <1>   0.0800 
 25 H        1.1040    -4.9560    -0.9540 H     1 <1>   0.0800 
 26 H        2.5350    -0.4810     1.2740 H     1 <1>   0.0800 
 27 H        3.6830    -1.6770     1.8200 H     1 <1>   0.0800 
 28 H        1.9740    -2.0050     1.9320 H     1 <1>   0.0800 
 29 H        3.7450    -0.4610    -0.9940 H     1 <1>   0.0800 
 30 H        3.8550    -1.9500    -1.9150 H     1 <1>   0.0800 
 31 H        4.8300    -1.7250    -0.4890 H     1 <1>   0.0800 
 32 H       -2.2170    -3.5050     0.6630 H     1 <1>   0.0000 
 33 H       -0.9510    -4.0710     1.8140 H     1 <1>   0.0000 
 34 H       -0.1300    -6.2420     1.3570 H     1 <1>   0.0000 
 35 H       -0.8700    -7.0450    -0.0690 H     1 <1>   0.0000 
 36 H       -2.5000    -6.0180     2.1050 H     1 <1>   0.0000 
 37 H       -3.2320    -5.2360    -0.6230 H     1 <1>   0.4500 
 38 H       -5.0200    -6.1980     1.5160 H     1 <1>   0.0800 
 39 H       -3.7100    -7.9700     0.3510 H     1 <1>   0.0800 
 40 H       -2.5310    -7.5110    -0.8560 H     1 <1>   0.0800 
 41 H       -5.6610    -4.8160    -1.0980 H     1 <1>   0.0800 
 42 H       -6.8080    -5.3430     0.0900 H     1 <1>   0.0800 
 43 H       -4.4740    -3.3550     0.6050 H     1 <1>   0.0800 
 44 H       -4.1060    -4.0290     2.1920 H     1 <1>   0.0800 
 45 H       -5.7430    -3.8420     1.6850 H     1 <1>   0.0800 
 46 H       -4.5780    -8.3570    -1.8950 H     1 <1>   0.0800 
 47 H       -4.2560    -6.7140    -2.3480 H     1 <1>   0.0800 
 48 H       -6.6290    -6.9260    -1.8230 H     1 <1>   0.0800 
 49 H       -6.2690    -7.6730    -0.2920 H     1 <1>   0.0800 
@<TRIPOS>BOND
  1   1   2  2   
  2   1   3  1   
  3   2   4  1   
  4   2  21  1   
  5   3   5  2   
  6   3  22  1   
  7   4   5  1   
  8   4   6  1   
  9   5   7  1   
 10   6   8  1   
 11   6   9  1   
 12   6  23  1   
 13   7  10  1   
 14   7  24  1   
 15   7  25  1   
 16   8  26  1   
 17   8  27  1   
 18   8  28  1   
 19   9  29  1   
 20   9  30  1   
 21   9  31  1   
 22  10  11  1   
 23  10  12  1   
 24  11  13  1   
 25  11  32  1   
 26  11  33  1   
 27  12  13  1   
 28  12  34  1   
 29  12  35  1   
 30  13  14  1   
 31  13  36  1   
 32  14  15  1   
 33  14  16  1   
 34  14  37  1   
 35  15  17  1   
 36  15  18  1   
 37  15  38  1   
 38  16  19  1   
 39  16  39  1   
 40  16  40  1   
 41  17  20  1   
 42  17  41  1   
 43  17  42  1   
 44  18  43  1   
 45  18  44  1   
 46  18  45  1   
 47  19  20  1   
 48  19  46  1   
 49  19  47  1   
 50  20  48  1   
 51  20  49  1   
@<TRIPOS>SUBSTRUCTURE
  1 ****  10 GROUP 4 **** **** 0

# MOE 2024.06 (io_trps.svl 2023.06)
