@<TRIPOS>MOLECULE
NONAME
41 42 1 0 0 
SMALL
USER_CHARGES


@<TRIPOS>ATOM
  1 O        1.8580    -0.9400    -1.7590 O.co2 1 <1>  -0.9000 
  2 C        2.8330    -1.1390    -1.0380 C.2   1 <1>   0.9060 
  3 O        3.6830    -2.0030    -1.2270 O.co2 1 <1>  -0.9000 
  4 C        3.1000    -0.1330     0.0170 C.3   1 <1>  -0.2660 
  5 C        3.6530     1.0100    -0.7900 C.3   1 <1>   0.3430 
  6 N        3.9830     2.1410     0.1080 N.4   1 <1>  -0.9590 
  7 C        4.1430     3.3990    -0.7010 C.3   1 <1>   0.3430 
  8 C        5.2350     1.8460     0.8980 C.3   1 <1>   0.3430 
  9 C        4.5710     4.6050     0.1600 C.3   1 <1>   0.2090 
 10 C        5.6880     3.0460     1.7590 C.3   1 <1>   0.2090 
 11 N        5.8110     4.2900     0.9300 N.pl3 1 <1>  -0.8380 
 12 C        7.0140     4.5320     0.2380 C.ar  1 <1>   0.4100 
 13 N        7.7180     3.4440    -0.0360 N.ar  1 <1>  -0.6200 
 14 C        7.4170     5.8520    -0.1830 C.ar  1 <1>   0.4100 
 15 C        8.8270     3.7050    -0.7150 C.ar  1 <1>   0.1600 
 16 N        8.5220     6.0700    -0.8770 N.ar  1 <1>  -0.6200 
 17 N        6.6610     7.0000     0.1140 N.pl3 1 <1>  -0.8380 
 18 C        9.2130     4.9670    -1.1200 C.ar  1 <1>   0.1600 
 19 C        6.5810     7.3690     1.5530 C.3   1 <1>   0.1290 
 20 C        6.7710     8.1870    -0.7830 C.3   1 <1>   0.1290 
 21 H        3.8070    -0.5440     0.7100 H     1 <1>   0.0800 
 22 H        2.1740     0.1170     0.4970 H     1 <1>   0.0800 
 23 H        2.9060     1.3070    -1.5110 H     1 <1>   0.0800 
 24 H        4.5280     0.6840    -1.3310 H     1 <1>   0.0800 
 25 H        3.1970     2.2560     0.7560 H     1 <1>   0.4500 
 26 H        3.2190     3.6300    -1.2030 H     1 <1>   0.0800 
 27 H        4.8990     3.2440    -1.4530 H     1 <1>   0.0800 
 28 H        6.0360     1.6030     0.2200 H     1 <1>   0.0800 
 29 H        5.0770     0.9930     1.5360 H     1 <1>   0.0800 
 30 H        3.7830     4.8720     0.8420 H     1 <1>   0.0800 
 31 H        4.7370     5.4490    -0.4870 H     1 <1>   0.0800 
 32 H        6.6350     2.8200     2.2180 H     1 <1>   0.0800 
 33 H        4.9790     3.2150     2.5500 H     1 <1>   0.0800 
 34 H        9.4570     2.8680    -0.9620 H     1 <1>   0.1500 
 35 H       10.1300     5.0820    -1.6700 H     1 <1>   0.1500 
 36 H        6.6660     6.4950     2.1740 H     1 <1>   0.0800 
 37 H        5.6370     7.8450     1.7540 H     1 <1>   0.0800 
 38 H        7.3800     8.0450     1.8030 H     1 <1>   0.0800 
 39 H        6.7710     7.8700    -1.8120 H     1 <1>   0.0800 
 40 H        7.6890     8.7130    -0.5840 H     1 <1>   0.0800 
 41 H        5.9380     8.8490    -0.6240 H     1 <1>   0.0800 
@<TRIPOS>BOND
  1   1   2  ar  
  2   2   3  ar  
  3   2   4  1   
  4   4   5  1   
  5   4  21  1   
  6   4  22  1   
  7   5   6  1   
  8   5  23  1   
  9   5  24  1   
 10   6   7  1   
 11   6   8  1   
 12   6  25  1   
 13   7   9  1   
 14   7  26  1   
 15   7  27  1   
 16   8  10  1   
 17   8  28  1   
 18   8  29  1   
 19   9  11  1   
 20   9  30  1   
 21   9  31  1   
 22  10  11  1   
 23  10  32  1   
 24  10  33  1   
 25  11  12  1   
 26  12  13  ar  
 27  12  14  ar  
 28  13  15  ar  
 29  14  16  ar  
 30  14  17  1   
 31  15  18  ar  
 32  15  34  1   
 33  16  18  ar  
 34  17  19  1   
 35  17  20  1   
 36  18  35  1   
 37  19  36  1   
 38  19  37  1   
 39  19  38  1   
 40  20  39  1   
 41  20  40  1   
 42  20  41  1   
@<TRIPOS>SUBSTRUCTURE
  1 ****  11 GROUP 4 **** **** 0

# MOE 2024.06 (io_trps.svl 2023.06)
