@<TRIPOS>MOLECULE
NONAME
58 60 1 0 0 
SMALL
USER_CHARGES


@<TRIPOS>ATOM
  1 O       -1.4550     0.7750     2.0660 O.2   1 <1>  -0.5700 
  2 C       -2.3330     1.3300     1.4480 C.2   1 <1>   0.5690 
  3 N       -3.3840     0.6330     0.9110 N.am  1 <1>  -0.6600 
  4 C       -2.1510     2.8270     1.2470 C.3   1 <1>  -0.0190 
  5 C       -3.4050    -0.8550     1.0060 C.3   1 <1>   0.3200 
  6 C       -4.5460     1.2360     0.1750 C.3   1 <1>   0.1400 
  7 C       -0.8990     2.9740     0.3860 C.3   1 <1>   0.3430 
  8 C       -2.0040     3.6000     2.5730 C.3   1 <1>  -0.1600 
  9 C       -2.9430    -1.4570    -0.3090 C.2   1 <1>  -0.3320 
 10 C       -4.3130     1.3850    -1.3420 C.3   1 <1>   0.1200 
 11 N       -0.5790     4.4170     0.1390 N.4   1 <1>  -0.9590 
 12 C       -1.6030     5.0580     2.3030 C.3   1 <1>  -0.1600 
 13 N       -3.3900    -2.6160    -0.8330 N.pl3 1 <1>   0.0480 
 14 C       -2.0240    -0.9790    -1.1780 C.2   1 <1>   0.0770 
 15 O       -3.1800     2.1480    -1.6290 O.3   1 <1>  -0.6800 
 16 C        0.5220     4.5440    -0.8560 C.3   1 <1>   0.4230 
 17 C       -0.3530     5.1480     1.4240 C.3   1 <1>   0.3430 
 18 C       -2.7210    -2.7450    -2.0020 C.2   1 <1>   0.0360 
 19 C       -4.3720    -3.5590    -0.2680 C.3   1 <1>   0.0160 
 20 N       -1.8970    -1.7790    -2.2490 N.2   1 <1>  -0.5650 
 21 C        1.8890     4.1200    -0.2890 C.3   1 <1>  -0.1600 
 22 C        0.5720     5.9770    -1.4020 C.3   1 <1>  -0.1600 
 23 C        2.9820     4.2510    -1.3600 C.3   1 <1>  -0.1600 
 24 C        1.6640     6.1130    -2.4740 C.3   1 <1>  -0.1600 
 25 C        3.0310     5.6740    -1.9330 C.3   1 <1>  -0.1600 
 26 H       -2.9730     3.2440     0.7060 H     1 <1>   0.0800 
 27 H       -4.4050    -1.1780     1.2360 H     1 <1>   0.0800 
 28 H       -2.7640    -1.2000     1.8000 H     1 <1>   0.0800 
 29 H       -4.8000     2.1920     0.5950 H     1 <1>   0.0800 
 30 H       -5.4100     0.6100     0.3190 H     1 <1>   0.0800 
 31 H       -1.0580     2.4640    -0.5510 H     1 <1>   0.0800 
 32 H       -0.0740     2.4950     0.8900 H     1 <1>   0.0800 
 33 H       -1.2480     3.1320     3.1830 H     1 <1>   0.0800 
 34 H       -2.9310     3.5650     3.1200 H     1 <1>   0.0800 
 35 H       -5.1610     1.8680    -1.7970 H     1 <1>   0.0800 
 36 H       -4.1950     0.4160    -1.7960 H     1 <1>   0.0800 
 37 H       -1.4150     4.8200    -0.3000 H     1 <1>   0.4500 
 38 H       -1.4070     5.5490     3.2410 H     1 <1>   0.0800 
 39 H       -2.4140     5.5830     1.8290 H     1 <1>   0.0800 
 40 H       -1.4420    -0.0790    -1.0830 H     1 <1>   0.1500 
 41 H       -2.9470     2.0140    -2.5720 H     1 <1>   0.4000 
 42 H        0.3020     3.8940    -1.6880 H     1 <1>   0.0800 
 43 H       -0.1270     6.1840     1.2290 H     1 <1>   0.0800 
 44 H        0.4820     4.7120     1.9490 H     1 <1>   0.0800 
 45 H       -2.8720    -3.5850    -2.6560 H     1 <1>   0.1500 
 46 H       -4.0540    -3.8570     0.7140 H     1 <1>   0.0800 
 47 H       -4.4400    -4.4280    -0.8970 H     1 <1>   0.0800 
 48 H       -5.3330    -3.0830    -0.2110 H     1 <1>   0.0800 
 49 H        1.8580     3.0970     0.0400 H     1 <1>   0.0800 
 50 H        2.1640     4.7430     0.5430 H     1 <1>   0.0800 
 51 H        0.7890     6.6740    -0.6120 H     1 <1>   0.0800 
 52 H       -0.3750     6.2350    -1.8410 H     1 <1>   0.0800 
 53 H        2.7930     3.5530    -2.1590 H     1 <1>   0.0800 
 54 H        3.9390     4.0040    -0.9330 H     1 <1>   0.0800 
 55 H        1.7230     7.1370    -2.8040 H     1 <1>   0.0800 
 56 H        1.4100     5.5100    -3.3300 H     1 <1>   0.0800 
 57 H        3.7610     5.7170    -2.7250 H     1 <1>   0.0800 
 58 H        3.3500     6.3590    -1.1640 H     1 <1>   0.0800 
@<TRIPOS>BOND
  1   1   2  2   
  2   2   3  am  
  3   2   4  1   
  4   3   5  1   
  5   3   6  1   
  6   4   7  1   
  7   4   8  1   
  8   4  26  1   
  9   5   9  1   
 10   5  27  1   
 11   5  28  1   
 12   6  10  1   
 13   6  29  1   
 14   6  30  1   
 15   7  11  1   
 16   7  31  1   
 17   7  32  1   
 18   8  12  1   
 19   8  33  1   
 20   8  34  1   
 21   9  13  1   
 22   9  14  2   
 23  10  15  1   
 24  10  35  1   
 25  10  36  1   
 26  11  16  1   
 27  11  17  1   
 28  11  37  1   
 29  12  17  1   
 30  12  38  1   
 31  12  39  1   
 32  13  18  1   
 33  13  19  1   
 34  14  20  1   
 35  14  40  1   
 36  15  41  1   
 37  16  21  1   
 38  16  22  1   
 39  16  42  1   
 40  17  43  1   
 41  17  44  1   
 42  18  20  2   
 43  18  45  1   
 44  19  46  1   
 45  19  47  1   
 46  19  48  1   
 47  21  23  1   
 48  21  49  1   
 49  21  50  1   
 50  22  24  1   
 51  22  51  1   
 52  22  52  1   
 53  23  25  1   
 54  23  53  1   
 55  23  54  1   
 56  24  25  1   
 57  24  55  1   
 58  24  56  1   
 59  25  57  1   
 60  25  58  1   
@<TRIPOS>SUBSTRUCTURE
  1 ****   7 GROUP 4 **** **** 0

# MOE 2024.06 (io_trps.svl 2023.06)
