@<TRIPOS>MOLECULE
NONAME
49 52 1 0 0 
SMALL
USER_CHARGES


@<TRIPOS>ATOM
  1 S       -0.8740     0.5290    -0.9890 S.3   1 <1>  -0.0800 
  2 C       -0.0160     0.6280     0.5530 C.ar  1 <1>   0.0400 
  3 C       -0.4960    -1.1890    -1.1550 C.2   1 <1>  -0.1400 
  4 C        0.5160    -0.6110     0.8790 C.ar  1 <1>   0.0000 
  5 C        0.1300     1.7490     1.3480 C.ar  1 <1>  -0.1500 
  6 C        0.2300    -1.6180    -0.1070 C.2   1 <1>  -0.1500 
  7 C       -1.0080    -1.9020    -2.3880 C.3   1 <1>   0.5230 
  8 C        1.2300    -0.7220     2.0680 C.ar  1 <1>  -0.1500 
  9 C        0.8420     1.6180     2.5260 C.ar  1 <1>  -0.1500 
 10 N       -2.3790    -2.3900    -2.0940 N.4   1 <1>  -0.9590 
 11 C        1.3890     0.3880     2.8820 C.ar  1 <1>  -0.1500 
 12 C       -2.7180    -3.6360    -2.8450 C.3   1 <1>   0.3430 
 13 C       -3.4180    -1.3280    -2.1930 C.3   1 <1>   0.3430 
 14 C       -4.0140    -4.3120    -2.3330 C.3   1 <1>   0.1400 
 15 C       -4.3490    -1.3910    -0.9770 C.3   1 <1>  -0.1600 
 16 N       -4.4380    -3.8840    -0.9520 N.am  1 <1>  -0.6600 
 17 C       -5.2460    -2.6350    -0.9010 C.3   1 <1>   0.1400 
 18 C       -3.7440    -4.3030     0.1640 C.2   1 <1>   0.7030 
 19 O       -2.5300    -4.2370     0.1000 O.2   1 <1>  -0.5700 
 20 C       -4.3860    -4.7440     1.3980 C.2   1 <1>   0.2770 
 21 N       -5.6730    -5.2630     1.6040 N.pl3 1 <1>  -0.7640 
 22 C       -3.7970    -4.7400     2.6230 C.2   1 <1>   0.2000 
 23 C       -5.8020    -5.5340     2.8980 C.cat 1 <1>   0.6500 
 24 C       -6.6950    -5.5440     0.5540 C.3   1 <1>   0.2740 
 25 N       -4.6880    -5.2220     3.5390 N.pl3 1 <1>  -0.7000 
 26 H       -0.2970     2.6920     1.0540 H     1 <1>   0.1500 
 27 H        0.6000    -2.6180     0.0440 H     1 <1>   0.1500 
 28 H       -0.3590    -2.7390    -2.5890 H     1 <1>   0.0800 
 29 H       -1.0000    -1.2440    -3.2420 H     1 <1>   0.0800 
 30 H        1.6600    -1.6670     2.3500 H     1 <1>   0.1500 
 31 H        0.9780     2.4700     3.1720 H     1 <1>   0.1500 
 32 H       -2.3400    -2.6900    -1.1020 H     1 <1>   0.4500 
 33 H        1.9430     0.3030     3.8010 H     1 <1>   0.1500 
 34 H       -1.9130    -4.3430    -2.7250 H     1 <1>   0.0800 
 35 H       -2.8110    -3.4290    -3.8990 H     1 <1>   0.0800 
 36 H       -3.9840    -1.4390    -3.1040 H     1 <1>   0.0800 
 37 H       -2.9500    -0.3580    -2.2140 H     1 <1>   0.0800 
 38 H       -3.8660    -5.3790    -2.3430 H     1 <1>   0.0800 
 39 H       -4.8100    -4.1050    -3.0290 H     1 <1>   0.0800 
 40 H       -4.9920    -0.5290    -1.0170 H     1 <1>   0.0800 
 41 H       -3.7690    -1.2940    -0.0760 H     1 <1>   0.0800 
 42 H       -5.9540    -2.6280    -1.7130 H     1 <1>   0.0800 
 43 H       -5.8080    -2.6040     0.0190 H     1 <1>   0.0800 
 44 H       -2.7960    -4.4220     2.8750 H     1 <1>   0.1500 
 45 H       -6.6840    -5.9550     3.3650 H     1 <1>   0.1500 
 46 H       -6.2480    -6.0890    -0.2600 H     1 <1>   0.0800 
 47 H       -7.1050    -4.6220     0.1780 H     1 <1>   0.0800 
 48 H       -7.4990    -6.1350     0.9600 H     1 <1>   0.0800 
 49 H       -4.5160    -5.3350     4.5450 H     1 <1>   0.4500 
@<TRIPOS>BOND
  1   1   2  1   
  2   1   3  1   
  3   2   4  ar  
  4   2   5  ar  
  5   3   6  2   
  6   3   7  1   
  7   4   6  1   
  8   4   8  ar  
  9   5   9  ar  
 10   5  26  1   
 11   6  27  1   
 12   7  10  1   
 13   7  28  1   
 14   7  29  1   
 15   8  11  ar  
 16   8  30  1   
 17   9  11  ar  
 18   9  31  1   
 19  10  12  1   
 20  10  13  1   
 21  10  32  1   
 22  11  33  1   
 23  12  14  1   
 24  12  34  1   
 25  12  35  1   
 26  13  15  1   
 27  13  36  1   
 28  13  37  1   
 29  14  16  1   
 30  14  38  1   
 31  14  39  1   
 32  15  17  1   
 33  15  40  1   
 34  15  41  1   
 35  16  17  1   
 36  16  18  am  
 37  17  42  1   
 38  17  43  1   
 39  18  19  2   
 40  18  20  1   
 41  20  21  1   
 42  20  22  2   
 43  21  23  ar  
 44  21  24  1   
 45  22  25  1   
 46  22  44  1   
 47  23  25  ar  
 48  23  45  1   
 49  24  46  1   
 50  24  47  1   
 51  24  48  1   
 52  25  49  1   
@<TRIPOS>SUBSTRUCTURE
  1 ****  19 GROUP 4 **** **** 0

# MOE 2024.06 (io_trps.svl 2023.06)
