@<TRIPOS>MOLECULE
NONAME
44 46 1 0 0 
SMALL
USER_CHARGES


@<TRIPOS>ATOM
  1 CL       0.0650    -0.4020    -1.7580 Cl    1 <1>  -0.1770 
  2 C        1.3340    -1.2640    -0.9220 C.ar  1 <1>   0.1770 
  3 C        1.0590    -2.0610     0.1850 C.ar  1 <1>  -0.0090 
  4 C        2.6160    -1.1110    -1.4190 C.ar  1 <1>  -0.1500 
  5 S       -0.6250    -2.2530     0.8170 S.o2  1 <1>   1.4470 
  6 C        2.1300    -2.7150     0.7960 C.ar  1 <1>  -0.1500 
  7 C        3.6420    -1.7770    -0.7840 C.ar  1 <1>   0.1900 
  8 O       -1.1940    -0.9480     1.0720 O.2   1 <1>  -0.6500 
  9 O       -0.6040    -3.2130     1.9020 O.2   1 <1>  -0.6500 
 10 N       -1.4570    -2.9690    -0.4800 N.am  1 <1>  -0.8490 
 11 C        3.4240    -2.5790     0.3180 C.ar  1 <1>  -0.1500 
 12 F        4.8570    -1.6470    -1.2400 F     1 <1>  -0.1900 
 13 C       -2.9050    -2.7820    -0.4120 C.3   1 <1>   0.1960 
 14 C       -1.2720    -4.4160    -0.5790 C.3   1 <1>   0.1960 
 15 C       -3.4210    -3.9220     0.4690 C.3   1 <1>  -0.0800 
 16 C       -2.4690    -5.0800     0.1200 C.3   1 <1>  -0.0800 
 17 C       -4.9390    -4.2460     0.3820 C.3   1 <1>   0.2800 
 18 C       -3.1270    -6.1420    -0.7760 C.3   1 <1>  -0.1600 
 19 O       -5.3870    -4.0630    -0.9130 O.3   1 <1>  -0.6800 
 20 C       -5.1670    -5.7260     0.7420 C.3   1 <1>  -0.1600 
 21 C       -5.8120    -3.3570     1.2980 C.3   1 <1>  -0.1600 
 22 C       -4.4020    -6.7270    -0.1490 C.3   1 <1>  -0.1600 
 23 C       -5.7540    -1.8420     1.0410 C.3   1 <1>  -0.2400 
 24 H        2.8070    -0.4910    -2.2760 H     1 <1>   0.1500 
 25 H        1.9510    -3.3370     1.6590 H     1 <1>   0.1500 
 26 H        4.2500    -3.0830     0.7900 H     1 <1>   0.1500 
 27 H       -3.1710    -1.8090    -0.0400 H     1 <1>   0.0800 
 28 H       -3.3010    -2.8770    -1.4090 H     1 <1>   0.0800 
 29 H       -1.2660    -4.6800    -1.6230 H     1 <1>   0.0800 
 30 H       -0.3370    -4.7330    -0.1480 H     1 <1>   0.0800 
 31 H       -3.2170    -3.6530     1.4900 H     1 <1>   0.0800 
 32 H       -2.1330    -5.5510     1.0280 H     1 <1>   0.0800 
 33 H       -3.3910    -5.6840    -1.7150 H     1 <1>   0.0800 
 34 H       -2.4320    -6.9360    -0.9890 H     1 <1>   0.0800 
 35 H       -6.3270    -4.3120    -0.9650 H     1 <1>   0.4000 
 36 H       -4.8330    -5.8660     1.7550 H     1 <1>   0.0800 
 37 H       -6.2160    -5.9610     0.7280 H     1 <1>   0.0800 
 38 H       -6.8360    -3.6750     1.2100 H     1 <1>   0.0800 
 39 H       -5.5240    -3.5310     2.3200 H     1 <1>   0.0800 
 40 H       -4.1490    -7.5900     0.4430 H     1 <1>   0.0800 
 41 H       -5.0470    -7.0610    -0.9440 H     1 <1>   0.0800 
 42 H       -5.9110    -1.6210    -0.0010 H     1 <1>   0.0800 
 43 H       -4.8060    -1.4390     1.3470 H     1 <1>   0.0800 
 44 H       -6.5190    -1.3470     1.6110 H     1 <1>   0.0800 
@<TRIPOS>BOND
  1   1   2  1   
  2   2   3  ar  
  3   2   4  ar  
  4   3   5  1   
  5   3   6  ar  
  6   4   7  ar  
  7   4  24  1   
  8   5   8  2   
  9   5   9  2   
 10   5  10  am  
 11   6  11  ar  
 12   6  25  1   
 13   7  11  ar  
 14   7  12  1   
 15  10  13  1   
 16  10  14  1   
 17  11  26  1   
 18  13  15  1   
 19  13  27  1   
 20  13  28  1   
 21  14  16  1   
 22  14  29  1   
 23  14  30  1   
 24  15  16  1   
 25  15  17  1   
 26  15  31  1   
 27  16  18  1   
 28  16  32  1   
 29  17  19  1   
 30  17  20  1   
 31  17  21  1   
 32  18  22  1   
 33  18  33  1   
 34  18  34  1   
 35  19  35  1   
 36  20  22  1   
 37  20  36  1   
 38  20  37  1   
 39  21  23  1   
 40  21  38  1   
 41  21  39  1   
 42  22  40  1   
 43  22  41  1   
 44  23  42  1   
 45  23  43  1   
 46  23  44  1   
@<TRIPOS>SUBSTRUCTURE
  1 ****  10 GROUP 4 **** **** 0

# MOE 2024.06 (io_trps.svl 2023.06)
