@<TRIPOS>MOLECULE
NONAME
54 56 1 0 0 
SMALL
USER_CHARGES


@<TRIPOS>ATOM
  1 O        0.4630    -0.4210     2.0790 O.2   1 <1>  -0.5700 
  2 C        1.0640    -0.3660     1.0230 C.2   1 <1>   0.5440 
  3 N        1.5230     0.8430     0.5910 N.am  1 <1>  -0.7300 
  4 C        1.3400    -1.5510     0.2440 C.ar  1 <1>   0.0860 
  5 C        1.3010     2.1420     1.2580 C.3   1 <1>   0.2200 
  6 C        0.3260    -2.2720    -0.3980 C.ar  1 <1>   0.0830 
  7 C        2.6540    -2.0000     0.1090 C.ar  1 <1>  -0.1500 
  8 C        0.8790     3.1730     0.2240 C.3   1 <1>   0.1200 
  9 C        2.6340     2.7040     1.7020 C.3   1 <1>  -0.1600 
 10 O       -0.9440    -1.8190    -0.2740 O.3   1 <1>  -0.3630 
 11 C        0.6370    -3.4070    -1.1440 C.ar  1 <1>  -0.1500 
 12 C        2.9580    -3.1260    -0.6320 C.ar  1 <1>  -0.1500 
 13 O        2.0610     3.5540    -0.4090 O.3   1 <1>  -0.5600 
 14 C        3.1390     3.4900     0.4800 C.3   1 <1>   0.2800 
 15 C       -2.0640    -2.6040    -0.6230 C.3   1 <1>   0.1200 
 16 C        1.9470    -3.8320    -1.2590 C.ar  1 <1>  -0.1500 
 17 C        4.2910     2.7620    -0.2370 C.3   1 <1>  -0.1600 
 18 C        3.5510     4.9300     0.8410 C.3   1 <1>  -0.1600 
 19 C       -3.3180    -1.9020    -0.1140 C.3   1 <1>   0.1200 
 20 C        4.8280     3.5470    -1.4460 C.3   1 <1>  -0.1600 
 21 C        4.0890     5.7130    -0.3680 C.3   1 <1>  -0.1600 
 22 O       -4.4250    -2.6610    -0.4870 O.3   1 <1>  -0.5600 
 23 C        5.2480     4.9660    -1.0420 C.3   1 <1>  -0.1600 
 24 C       -5.6330    -2.1430    -0.0430 C.3   1 <1>   0.1200 
 25 C       -6.7380    -3.0700    -0.5360 C.3   1 <1>  -0.2400 
 26 H        1.9610     0.9230    -0.3290 H     1 <1>   0.3700 
 27 H        0.5920     2.0480     2.0630 H     1 <1>   0.0800 
 28 H        3.4410    -1.4560     0.6010 H     1 <1>   0.1500 
 29 H        0.4630     4.0430     0.7000 H     1 <1>   0.0800 
 30 H        0.1880     2.7780    -0.4990 H     1 <1>   0.0800 
 31 H        3.3150     1.9380     2.0270 H     1 <1>   0.0800 
 32 H        2.4720     3.3740     2.5260 H     1 <1>   0.0800 
 33 H       -0.1280    -3.9690    -1.6450 H     1 <1>   0.1500 
 34 H        3.9790    -3.4570    -0.7200 H     1 <1>   0.1500 
 35 H       -1.9660    -3.5670    -0.1550 H     1 <1>   0.0800 
 36 H       -2.0940    -2.6970    -1.6940 H     1 <1>   0.0800 
 37 H        2.1820    -4.7100    -1.8360 H     1 <1>   0.1500 
 38 H        3.9640     1.7900    -0.5550 H     1 <1>   0.0800 
 39 H        5.0970     2.6210     0.4610 H     1 <1>   0.0800 
 40 H        4.3180     4.8900     1.5930 H     1 <1>   0.0800 
 41 H        2.7090     5.4510     1.2610 H     1 <1>   0.0800 
 42 H       -3.4040    -0.9250    -0.5570 H     1 <1>   0.0800 
 43 H       -3.2900    -1.8310     0.9600 H     1 <1>   0.0800 
 44 H        4.0590     3.6060    -2.1980 H     1 <1>   0.0800 
 45 H        5.6680     3.0280    -1.8720 H     1 <1>   0.0800 
 46 H        4.4210     6.6860    -0.0510 H     1 <1>   0.0800 
 47 H        3.2940     5.8510    -1.0820 H     1 <1>   0.0800 
 48 H        5.5640     5.5090    -1.9160 H     1 <1>   0.0800 
 49 H        6.0830     4.9150    -0.3650 H     1 <1>   0.0800 
 50 H       -5.7590    -1.1530    -0.4490 H     1 <1>   0.0800 
 51 H       -5.6220    -2.1040     1.0330 H     1 <1>   0.0800 
 52 H       -6.7310    -3.1130    -1.6100 H     1 <1>   0.0800 
 53 H       -7.6940    -2.7020    -0.2110 H     1 <1>   0.0800 
 54 H       -6.5950    -4.0580    -0.1360 H     1 <1>   0.0800 
@<TRIPOS>BOND
  1   1   2  2   
  2   2   3  am  
  3   2   4  1   
  4   3   5  1   
  5   3  26  1   
  6   4   6  ar  
  7   4   7  ar  
  8   5   8  1   
  9   5   9  1   
 10   5  27  1   
 11   6  10  1   
 12   6  11  ar  
 13   7  12  ar  
 14   7  28  1   
 15   8  13  1   
 16   8  29  1   
 17   8  30  1   
 18   9  14  1   
 19   9  31  1   
 20   9  32  1   
 21  10  15  1   
 22  11  16  ar  
 23  11  33  1   
 24  12  16  ar  
 25  12  34  1   
 26  13  14  1   
 27  14  17  1   
 28  14  18  1   
 29  15  19  1   
 30  15  35  1   
 31  15  36  1   
 32  16  37  1   
 33  17  20  1   
 34  17  38  1   
 35  17  39  1   
 36  18  21  1   
 37  18  40  1   
 38  18  41  1   
 39  19  22  1   
 40  19  42  1   
 41  19  43  1   
 42  20  23  1   
 43  20  44  1   
 44  20  45  1   
 45  21  23  1   
 46  21  46  1   
 47  21  47  1   
 48  22  24  1   
 49  23  48  1   
 50  23  49  1   
 51  24  25  1   
 52  24  50  1   
 53  24  51  1   
 54  25  52  1   
 55  25  53  1   
 56  25  54  1   
@<TRIPOS>SUBSTRUCTURE
  1 ****   3 GROUP 4 **** **** 0

# MOE 2024.06 (io_trps.svl 2023.06)
