@<TRIPOS>MOLECULE
NONAME
54 58 1 0 0 
SMALL
USER_CHARGES


@<TRIPOS>ATOM
  1 O       -0.3220    -0.3880    -0.4890 O.2   1 <1>  -0.5700 
  2 C       -1.1050     0.5320    -0.5070 C.2   1 <1>   0.5690 
  3 N       -2.4180     0.3150    -0.8670 N.am  1 <1>  -0.6600 
  4 C       -0.5790     1.9030    -0.0750 C.3   1 <1>   0.1810 
  5 C       -3.5240     1.3120    -0.6890 C.3   1 <1>   0.1400 
  6 C       -2.8360    -0.9730    -1.4970 C.3   1 <1>   0.1400 
  7 O       -1.1240     2.9520    -0.8630 O.3   1 <1>  -0.3620 
  8 C       -4.8960     0.6620    -0.3770 C.3   1 <1>   0.4230 
  9 C       -3.9540    -1.6660    -0.6930 C.3   1 <1>   0.3430 
 10 C       -0.8680     4.2500    -0.5760 C.ar  1 <1>   0.0820 
 11 N       -4.7580    -0.7350     0.1910 N.4   1 <1>  -0.9590 
 12 C       -5.8410     0.6550    -1.5990 C.3   1 <1>   0.1200 
 13 C       -0.0410     4.6770     0.4370 C.ar  1 <1>  -0.1500 
 14 C       -1.5110     5.1940    -1.3860 C.ar  1 <1>  -0.1500 
 15 C       -6.1180    -1.2750     0.5190 C.3   1 <1>   0.5180 
 16 O       -7.0830     0.1160    -1.2390 O.3   1 <1>  -0.5600 
 17 C        0.1600     6.0500     0.6850 C.ar  1 <1>   0.0000 
 18 C       -1.3330     6.5310    -1.1660 C.ar  1 <1>  -0.1500 
 19 C       -5.9750    -2.6880     1.1180 C.3   1 <1>  -0.1950 
 20 C       -7.0550    -1.1870    -0.7150 C.3   1 <1>   0.1200 
 21 C       -0.5000     6.9960    -0.1290 C.ar  1 <1>   0.0000 
 22 C        0.9980     6.5170     1.7200 C.ar  1 <1>  -0.1500 
 23 C       -5.9260    -3.9610     0.3230 C.3   1 <1>  -0.2000 
 24 C       -7.1150    -3.6590     1.1900 C.3   1 <1>  -0.2000 
 25 C       -0.3000     8.3670     0.1250 C.ar  1 <1>  -0.1500 
 26 C        1.1740     7.8550     1.9430 C.ar  1 <1>  -0.1500 
 27 C        0.5170     8.7910     1.1370 C.ar  1 <1>  -0.1500 
 28 H        0.4900     1.9250    -0.1870 H     1 <1>   0.0800 
 29 H       -0.8400     2.0740     0.9530 H     1 <1>   0.0800 
 30 H       -3.2790     1.9680     0.1280 H     1 <1>   0.0800 
 31 H       -3.5940     1.9260    -1.5710 H     1 <1>   0.0800 
 32 H       -3.1880    -0.7710    -2.4930 H     1 <1>   0.0800 
 33 H       -2.0030    -1.6490    -1.5950 H     1 <1>   0.0800 
 34 H       -5.3740     1.2900     0.3570 H     1 <1>   0.0800 
 35 H       -3.5060    -2.4310    -0.0800 H     1 <1>   0.0800 
 36 H       -4.6040    -2.1660    -1.3910 H     1 <1>   0.0800 
 37 H       -4.2260    -0.6480     1.0650 H     1 <1>   0.4500 
 38 H       -5.4380     0.0840    -2.4170 H     1 <1>   0.0800 
 39 H       -6.0150     1.6610    -1.9400 H     1 <1>   0.0800 
 40 H        0.4820     3.9890     1.0710 H     1 <1>   0.1500 
 41 H       -2.1420     4.8440    -2.1820 H     1 <1>   0.1500 
 42 H       -6.5580    -0.6520     1.2810 H     1 <1>   0.0800 
 43 H       -1.8270     7.2550    -1.7890 H     1 <1>   0.1500 
 44 H       -5.3760    -2.6530     2.0130 H     1 <1>   0.1000 
 45 H       -8.0610    -1.4370    -0.4310 H     1 <1>   0.0800 
 46 H       -6.7470    -1.8600    -1.4940 H     1 <1>   0.0800 
 47 H        1.5030     5.7970     2.3370 H     1 <1>   0.1500 
 48 H       -6.0950    -3.9800    -0.7410 H     1 <1>   0.1000 
 49 H       -5.2670    -4.7530     0.6380 H     1 <1>   0.1000 
 50 H       -7.2480    -4.2400     2.0890 H     1 <1>   0.1000 
 51 H       -8.0550    -3.4650     0.7020 H     1 <1>   0.1000 
 52 H       -0.8060     9.0830    -0.4980 H     1 <1>   0.1500 
 53 H        1.8140     8.2060     2.7340 H     1 <1>   0.1500 
 54 H        0.6650     9.8400     1.3250 H     1 <1>   0.1500 
@<TRIPOS>BOND
  1   1   2  2   
  2   2   3  am  
  3   2   4  1   
  4   3   5  1   
  5   3   6  1   
  6   4   7  1   
  7   4  28  1   
  8   4  29  1   
  9   5   8  1   
 10   5  30  1   
 11   5  31  1   
 12   6   9  1   
 13   6  32  1   
 14   6  33  1   
 15   7  10  1   
 16   8  11  1   
 17   8  12  1   
 18   8  34  1   
 19   9  11  1   
 20   9  35  1   
 21   9  36  1   
 22  10  13  ar  
 23  10  14  ar  
 24  11  15  1   
 25  11  37  1   
 26  12  16  1   
 27  12  38  1   
 28  12  39  1   
 29  13  17  ar  
 30  13  40  1   
 31  14  18  ar  
 32  14  41  1   
 33  15  19  1   
 34  15  20  1   
 35  15  42  1   
 36  16  20  1   
 37  17  21  ar  
 38  17  22  ar  
 39  18  21  ar  
 40  18  43  1   
 41  19  23  1   
 42  19  24  1   
 43  19  44  1   
 44  20  45  1   
 45  20  46  1   
 46  21  25  ar  
 47  22  26  ar  
 48  22  47  1   
 49  23  24  1   
 50  23  48  1   
 51  23  49  1   
 52  24  50  1   
 53  24  51  1   
 54  25  27  ar  
 55  25  52  1   
 56  26  27  ar  
 57  26  53  1   
 58  27  54  1   
@<TRIPOS>SUBSTRUCTURE
  1 ****   5 GROUP 4 **** **** 0

# MOE 2024.06 (io_trps.svl 2023.06)
