@<TRIPOS>MOLECULE
NONAME
56 60 1 0 0 
SMALL
USER_CHARGES


@<TRIPOS>ATOM
  1 S        0.0900     1.5160     0.3960 S.3   1 <1>  -0.0800 
  2 C        0.7820     2.0320    -1.1250 C.2   1 <1>   0.2280 
  3 C        1.6910     1.4670     1.0760 C.2   1 <1>  -0.1100 
  4 N        2.0500     2.1570    -1.1150 N.2   1 <1>  -0.5650 
  5 C        2.5760     1.8290     0.1340 C.2   1 <1>   0.0460 
  6 C        4.0850     1.9160     0.3150 C.3   1 <1>   0.3210 
  7 N        4.5290     3.2220    -0.2080 N.am  1 <1>  -0.7300 
  8 C        5.2900     4.1210     0.4550 C.2   1 <1>   0.5690 
  9 O        5.8130     3.8440     1.5070 O.2   1 <1>  -0.5700 
 10 C        5.5330     5.5180    -0.1290 C.3   1 <1>   0.0610 
 11 C        5.5460     6.5720     1.0110 C.3   1 <1>   0.4230 
 12 C        4.3800     6.0740    -1.0190 C.3   1 <1>  -0.1600 
 13 C        6.8760     5.4330    -0.9180 C.3   1 <1>  -0.1600 
 14 N        5.2450     7.8030     0.2520 N.4   1 <1>  -0.9590 
 15 C        4.2870     6.4780     1.9040 C.3   1 <1>  -0.1600 
 16 C        3.9560     7.3580    -0.2960 C.3   1 <1>   0.4230 
 17 C        7.4900     6.7240    -1.4880 C.3   1 <1>  -0.2400 
 18 C        5.2340     9.1020     0.9860 C.3   1 <1>   0.4860 
 19 C        3.1750     6.9750     0.9680 C.3   1 <1>  -0.1600 
 20 C        4.9180    10.1880    -0.0220 C.ar  1 <1>  -0.1430 
 21 C        5.9220    10.6460    -0.9120 C.ar  1 <1>   0.0000 
 22 C        3.6440    10.6960    -0.0850 C.ar  1 <1>  -0.1500 
 23 C        5.5590    11.5640    -1.9260 C.ar  1 <1>   0.3100 
 24 C        7.2770    10.2560    -0.8560 C.ar  1 <1>  -0.1500 
 25 C        3.3050    11.6410    -1.0560 C.ar  1 <1>  -0.1500 
 26 N        6.4270    11.9970    -2.8720 N.ar  1 <1>  -0.6200 
 27 C        4.2450    12.0520    -1.9590 C.ar  1 <1>  -0.1500 
 28 C        8.1330    10.7300    -1.8040 C.ar  1 <1>  -0.1500 
 29 C        7.6560    11.5930    -2.7980 C.ar  1 <1>   0.1600 
 30 H        0.0980     2.2020    -1.9380 H     1 <1>   0.1500 
 31 H        1.7920     1.1700     2.1040 H     1 <1>   0.1500 
 32 H        4.5590     1.1300    -0.2470 H     1 <1>   0.0800 
 33 H        4.3480     1.8090     1.3540 H     1 <1>   0.0800 
 34 H        4.0540     3.4420    -1.0880 H     1 <1>   0.3700 
 35 H        6.4750     6.5950     1.5600 H     1 <1>   0.0800 
 36 H        3.5400     5.4080    -1.1090 H     1 <1>   0.0800 
 37 H        4.7120     6.3080    -2.0140 H     1 <1>   0.0800 
 38 H        7.6160     4.9840    -0.2750 H     1 <1>   0.0800 
 39 H        6.7360     4.7450    -1.7360 H     1 <1>   0.0800 
 40 H        5.9030     7.8850    -0.5320 H     1 <1>   0.4500 
 41 H        4.0850     5.4900     2.2760 H     1 <1>   0.0800 
 42 H        4.3910     7.1220     2.7600 H     1 <1>   0.0800 
 43 H        3.4620     8.0790    -0.9300 H     1 <1>   0.0800 
 44 H        7.8200     7.3720    -0.6970 H     1 <1>   0.0800 
 45 H        6.8140     7.2450    -2.1410 H     1 <1>   0.0800 
 46 H        8.3600     6.4670    -2.0690 H     1 <1>   0.0800 
 47 H        4.4850     9.0950     1.7610 H     1 <1>   0.0800 
 48 H        6.1920     9.2880     1.4410 H     1 <1>   0.0800 
 49 H        2.6670     7.8290     1.3810 H     1 <1>   0.0800 
 50 H        2.4430     6.2100     0.7680 H     1 <1>   0.0800 
 51 H        2.8710    10.3810     0.5970 H     1 <1>   0.1500 
 52 H        7.6450     9.6140    -0.0800 H     1 <1>   0.1500 
 53 H        2.3020    12.0360    -1.0900 H     1 <1>   0.1500 
 54 H        4.0030    12.7690    -2.7230 H     1 <1>   0.1500 
 55 H        9.1760    10.4650    -1.8110 H     1 <1>   0.1500 
 56 H        8.3520    11.9440    -3.5420 H     1 <1>   0.1500 
@<TRIPOS>BOND
  1   1   2  1   
  2   1   3  1   
  3   2   4  2   
  4   2  30  1   
  5   3   5  2   
  6   3  31  1   
  7   4   5  1   
  8   5   6  1   
  9   6   7  1   
 10   6  32  1   
 11   6  33  1   
 12   7   8  am  
 13   7  34  1   
 14   8   9  2   
 15   8  10  1   
 16  10  11  1   
 17  10  12  1   
 18  10  13  1   
 19  11  14  1   
 20  11  15  1   
 21  11  35  1   
 22  12  16  1   
 23  12  36  1   
 24  12  37  1   
 25  13  17  1   
 26  13  38  1   
 27  13  39  1   
 28  14  16  1   
 29  14  18  1   
 30  14  40  1   
 31  15  19  1   
 32  15  41  1   
 33  15  42  1   
 34  16  19  1   
 35  16  43  1   
 36  17  44  1   
 37  17  45  1   
 38  17  46  1   
 39  18  20  1   
 40  18  47  1   
 41  18  48  1   
 42  19  49  1   
 43  19  50  1   
 44  20  21  ar  
 45  20  22  ar  
 46  21  23  ar  
 47  21  24  ar  
 48  22  25  ar  
 49  22  51  1   
 50  23  26  ar  
 51  23  27  ar  
 52  24  28  ar  
 53  24  52  1   
 54  25  27  ar  
 55  25  53  1   
 56  26  29  ar  
 57  27  54  1   
 58  28  29  ar  
 59  28  55  1   
 60  29  56  1   
@<TRIPOS>SUBSTRUCTURE
  1 ****  16 GROUP 4 **** **** 0

# MOE 2024.06 (io_trps.svl 2023.06)
