@<TRIPOS>MOLECULE
NONAME
61 64 1 0 0 
SMALL
USER_CHARGES


@<TRIPOS>ATOM
  1 O        1.1640    -1.1730     1.6540 O.2   1 <1>  -0.5700 
  2 C        1.1800    -1.4090     0.4720 C.2   1 <1>   0.5690 
  3 N        1.2310    -0.4620    -0.5120 N.am  1 <1>  -0.5470 
  4 C        1.1280    -2.8600     0.0440 C.3   1 <1>  -0.0990 
  5 C        1.2790     0.9420    -0.4660 C.ar  1 <1>   0.1170 
  6 C       -0.3140    -3.3870     0.0560 C.3   1 <1>  -0.0990 
  7 C        1.0320     1.6850     0.6850 C.ar  1 <1>  -0.1500 
  8 C        1.5780     1.6280    -1.6370 C.ar  1 <1>  -0.1500 
  9 C       -0.3710    -4.8180    -0.4260 C.2   1 <1>   0.5690 
 10 C        1.0870     3.0700     0.6750 C.ar  1 <1>  -0.1440 
 11 C        1.6330     3.0090    -1.6600 C.ar  1 <1>  -0.1500 
 12 O       -0.3290    -5.0340    -1.6110 O.2   1 <1>  -0.5700 
 13 N       -0.4680    -5.8150     0.4840 N.am  1 <1>  -0.7300 
 14 C        1.3880     3.7300    -0.5060 C.ar  1 <1>  -0.1500 
 15 C        0.8170     3.8570     1.9470 C.3   1 <1>  -0.0170 
 16 C       -0.4900    -7.2620     0.1630 C.3   1 <1>   0.2200 
 17 C       -0.6670     4.2130     2.0530 C.3   1 <1>  -0.2400 
 18 C       -1.8950    -7.8400     0.2790 C.3   1 <1>  -0.0800 
 19 C        0.2120    -8.0180     1.2820 C.3   1 <1>   0.1200 
 20 C       -2.0240    -8.1000     1.7860 C.3   1 <1>   0.1200 
 21 C       -3.0170    -6.9660    -0.3210 C.3   1 <1>  -0.0160 
 22 O       -0.7270    -8.0940     2.3110 O.3   1 <1>  -0.5600 
 23 C       -4.4290    -7.5630    -0.3240 C.ar  1 <1>  -0.1440 
 24 C       -5.5310    -6.7480    -0.6860 C.ar  1 <1>   0.0000 
 25 C       -4.7030    -8.8630     0.0000 C.ar  1 <1>  -0.1500 
 26 C       -6.8250    -7.3230    -0.6500 C.ar  1 <1>   0.3100 
 27 C       -5.4240    -5.3950    -1.0890 C.ar  1 <1>  -0.1500 
 28 C       -6.0210    -9.3350    -0.0060 C.ar  1 <1>   0.1600 
 29 N       -7.0530    -8.6150    -0.3080 N.ar  1 <1>  -0.6200 
 30 C       -7.9340    -6.5300    -0.9880 C.ar  1 <1>  -0.1500 
 31 C       -6.5240    -4.6500    -1.4150 C.ar  1 <1>  -0.1500 
 32 C       -7.7980    -5.2210    -1.3620 C.ar  1 <1>  -0.1500 
 33 H        1.2610    -0.8390    -1.4560 H     1 <1>   0.3700 
 34 H        1.5490    -2.9660    -0.9400 H     1 <1>   0.0800 
 35 H        1.7290    -3.4380     0.7230 H     1 <1>   0.0800 
 36 H       -0.9270    -2.7870    -0.5920 H     1 <1>   0.0800 
 37 H       -0.7180    -3.3200     1.0500 H     1 <1>   0.0800 
 38 H        0.7900     1.1850     1.6030 H     1 <1>   0.1500 
 39 H        1.7730     1.0820    -2.5420 H     1 <1>   0.1500 
 40 H        1.8670     3.5260    -2.5740 H     1 <1>   0.1500 
 41 H       -0.5250    -5.6130     1.4860 H     1 <1>   0.3700 
 42 H        1.4310     4.8050    -0.5280 H     1 <1>   0.1500 
 43 H        1.1110     3.2740     2.8030 H     1 <1>   0.0800 
 44 H        1.4070     4.7570     1.9480 H     1 <1>   0.0800 
 45 H       -0.0420    -7.4450    -0.8000 H     1 <1>   0.0800 
 46 H       -1.2610     3.3170     2.0710 H     1 <1>   0.0800 
 47 H       -0.9670     4.8090     1.2100 H     1 <1>   0.0800 
 48 H       -0.8510     4.7690     2.9550 H     1 <1>   0.0800 
 49 H       -1.8890    -8.7880    -0.2290 H     1 <1>   0.0800 
 50 H        1.0990    -7.5210     1.6330 H     1 <1>   0.0800 
 51 H        0.4500    -9.0220     0.9760 H     1 <1>   0.0800 
 52 H       -2.4770    -9.0530     1.9980 H     1 <1>   0.0800 
 53 H       -2.5780    -7.3190     2.2770 H     1 <1>   0.0800 
 54 H       -2.7520    -6.7260    -1.3370 H     1 <1>   0.0800 
 55 H       -3.0530    -6.0440     0.2310 H     1 <1>   0.0800 
 56 H       -3.9430    -9.5700     0.2670 H     1 <1>   0.1500 
 57 H       -4.4560    -4.9340    -1.1480 H     1 <1>   0.1500 
 58 H       -6.1870   -10.3650     0.2600 H     1 <1>   0.1500 
 59 H       -8.9020    -6.9930    -0.9430 H     1 <1>   0.1500 
 60 H       -6.4250    -3.6220    -1.7180 H     1 <1>   0.1500 
 61 H       -8.6570    -4.6260    -1.6190 H     1 <1>   0.1500 
@<TRIPOS>BOND
  1   1   2  2   
  2   2   3  am  
  3   2   4  1   
  4   3   5  1   
  5   3  33  1   
  6   4   6  1   
  7   4  34  1   
  8   4  35  1   
  9   5   7  ar  
 10   5   8  ar  
 11   6   9  1   
 12   6  36  1   
 13   6  37  1   
 14   7  10  ar  
 15   7  38  1   
 16   8  11  ar  
 17   8  39  1   
 18   9  12  2   
 19   9  13  am  
 20  10  14  ar  
 21  10  15  1   
 22  11  14  ar  
 23  11  40  1   
 24  13  16  1   
 25  13  41  1   
 26  14  42  1   
 27  15  17  1   
 28  15  43  1   
 29  15  44  1   
 30  16  18  1   
 31  16  19  1   
 32  16  45  1   
 33  17  46  1   
 34  17  47  1   
 35  17  48  1   
 36  18  20  1   
 37  18  21  1   
 38  18  49  1   
 39  19  22  1   
 40  19  50  1   
 41  19  51  1   
 42  20  22  1   
 43  20  52  1   
 44  20  53  1   
 45  21  23  1   
 46  21  54  1   
 47  21  55  1   
 48  23  24  ar  
 49  23  25  ar  
 50  24  26  ar  
 51  24  27  ar  
 52  25  28  ar  
 53  25  56  1   
 54  26  29  ar  
 55  26  30  ar  
 56  27  31  ar  
 57  27  57  1   
 58  28  29  ar  
 59  28  58  1   
 60  30  32  ar  
 61  30  59  1   
 62  31  32  ar  
 63  31  60  1   
 64  32  61  1   
@<TRIPOS>SUBSTRUCTURE
  1 ****   6 GROUP 4 **** **** 0

# MOE 2024.06 (io_trps.svl 2023.06)
