@<TRIPOS>MOLECULE
NONAME
39 41 1 0 0 
SMALL
USER_CHARGES


@<TRIPOS>ATOM
  1 CL       0.4590    -0.6280     0.7880 Cl    1 <1>  -0.1770 
  2 C       -0.5230    -1.9930     0.3270 C.ar  1 <1>   0.1770 
  3 C        0.0240    -2.9920    -0.4550 C.ar  1 <1>  -0.1500 
  4 C       -1.8370    -2.0620     0.7480 C.ar  1 <1>  -0.1500 
  5 C       -0.7600    -4.0730    -0.8170 C.ar  1 <1>  -0.1500 
  6 C       -2.6110    -3.1470     0.3770 C.ar  1 <1>  -0.1500 
  7 C       -2.0940    -4.1800    -0.4100 C.ar  1 <1>   0.0530 
  8 C       -2.8940    -5.3170    -0.8010 C.2   1 <1>   0.0870 
  9 O       -2.5690    -6.0240    -1.8590 O.3   1 <1>  -0.0190 
 10 C       -4.0110    -5.8850    -0.2840 C.2   1 <1>  -0.2330 
 11 N       -3.3940    -7.0130    -2.0830 N.2   1 <1>  -0.4100 
 12 C       -4.2750    -6.9480    -1.1470 C.2   1 <1>   0.3720 
 13 C       -4.7750    -5.5380     0.8650 C.2   1 <1>   1.0330 
 14 N       -5.3400    -7.8490    -1.0640 N.pl3 1 <1>  -0.8210 
 15 O       -4.5440    -6.0670     1.9660 O.co2 1 <1>  -0.9000 
 16 O       -5.6840    -4.6940     0.7830 O.co2 1 <1>  -0.9000 
 17 C       -5.3110    -8.6850     0.1650 C.3   1 <1>   0.2090 
 18 C       -6.6650    -7.2100    -1.2550 C.3   1 <1>   0.2090 
 19 C       -6.3330    -9.8260     0.0520 C.3   1 <1>  -0.0800 
 20 C       -7.7210    -8.3040    -1.4320 C.3   1 <1>  -0.1600 
 21 C       -7.7440    -9.2620    -0.2310 C.3   1 <1>  -0.1600 
 22 C       -6.2830   -10.6590     1.3400 C.3   1 <1>   0.1200 
 23 O       -7.1720   -11.7180     1.2540 O.3   1 <1>  -0.6800 
 24 H        1.0480    -2.9210    -0.7720 H     1 <1>   0.1500 
 25 H       -2.2510    -1.2790     1.3570 H     1 <1>   0.1500 
 26 H       -0.3340    -4.8530    -1.4230 H     1 <1>   0.1500 
 27 H       -3.6360    -3.1880     0.7040 H     1 <1>   0.1500 
 28 H       -5.5500    -8.0810     1.0240 H     1 <1>   0.0800 
 29 H       -4.3200    -9.0830     0.2980 H     1 <1>   0.0800 
 30 H       -6.6340    -6.5770    -2.1260 H     1 <1>   0.0800 
 31 H       -6.9090    -6.6000    -0.4010 H     1 <1>   0.0800 
 32 H       -6.0230   -10.4510    -0.7680 H     1 <1>   0.0800 
 33 H       -7.4980    -8.8500    -2.3320 H     1 <1>   0.0800 
 34 H       -8.6850    -7.8450    -1.5510 H     1 <1>   0.0800 
 35 H       -8.0910    -8.7240     0.6350 H     1 <1>   0.0800 
 36 H       -8.4330   -10.0620    -0.4350 H     1 <1>   0.0800 
 37 H       -6.5510   -10.0600     2.1950 H     1 <1>   0.0800 
 38 H       -5.2980   -11.0670     1.4920 H     1 <1>   0.0800 
 39 H       -8.0670   -11.3800     1.0610 H     1 <1>   0.4000 
@<TRIPOS>BOND
  1   1   2  1   
  2   2   3  ar  
  3   2   4  ar  
  4   3   5  ar  
  5   3  24  1   
  6   4   6  ar  
  7   4  25  1   
  8   5   7  ar  
  9   5  26  1   
 10   6   7  ar  
 11   6  27  1   
 12   7   8  1   
 13   8   9  1   
 14   8  10  2   
 15   9  11  1   
 16  10  12  1   
 17  10  13  1   
 18  11  12  2   
 19  12  14  1   
 20  13  15  ar  
 21  13  16  ar  
 22  14  17  1   
 23  14  18  1   
 24  17  19  1   
 25  17  28  1   
 26  17  29  1   
 27  18  20  1   
 28  18  30  1   
 29  18  31  1   
 30  19  21  1   
 31  19  22  1   
 32  19  32  1   
 33  20  21  1   
 34  20  33  1   
 35  20  34  1   
 36  21  35  1   
 37  21  36  1   
 38  22  23  1   
 39  22  37  1   
 40  22  38  1   
 41  23  39  1   
@<TRIPOS>SUBSTRUCTURE
  1 ****  10 GROUP 4 **** **** 0

# MOE 2024.06 (io_trps.svl 2023.06)
