@<TRIPOS>MOLECULE
NONAME
50 54 1 0 0 
SMALL
USER_CHARGES


@<TRIPOS>ATOM
  1 O        1.3740    -2.9230     4.3210 O.2   1 <1>  -0.5700 
  2 C        0.9290    -3.0740     3.2010 C.2   1 <1>   0.7160 
  3 N        0.0830    -4.1150     2.9750 N.am  1 <1>  -0.4900 
  4 C        1.2100    -2.2520     2.0840 C.2   1 <1>  -0.0860 
  5 C       -0.4730    -4.3440     1.7330 C.2   1 <1>   0.4490 
  6 C        0.6360    -2.5430     0.8860 C.2   1 <1>  -0.0260 
  7 C        1.9810    -1.1180     1.8400 C.2   1 <1>   0.1390 
  8 N       -0.2260    -3.6070     0.7000 N.2   1 <1>  -0.5760 
  9 C       -1.4570    -5.5200     1.5830 C.3   1 <1>   0.4040 
 10 N        1.0780    -1.6110     0.0070 N.pl3 1 <1>   0.3140 
 11 N        1.9060    -0.7280     0.6050 N.2   1 <1>  -0.7070 
 12 N       -2.4550    -5.3000     0.4730 N.4   1 <1>  -0.9590 
 13 C        0.7550    -1.4980    -1.4200 C.3   1 <1>   0.0160 
 14 C       -3.3480    -4.1300     0.7810 C.3   1 <1>   0.3430 
 15 C       -3.2470    -6.5190     0.1380 C.3   1 <1>   0.3430 
 16 C       -4.2520    -3.7700    -0.4060 C.3   1 <1>   0.1430 
 17 C       -4.1500    -6.2360    -1.0690 C.3   1 <1>  -0.1600 
 18 C       -5.1690    -2.6600     0.0420 C.ar  1 <1>   0.1670 
 19 C       -5.0560    -5.0080    -0.8530 C.3   1 <1>  -0.1600 
 20 C       -3.4790    -3.1110    -1.5830 C.3   1 <1>  -0.1600 
 21 N       -5.8270    -2.6600     1.1740 N.ar  1 <1>  -0.6200 
 22 C       -5.2030    -1.6330    -0.8520 C.ar  1 <1>  -0.1430 
 23 C       -4.3260    -1.9090    -2.0480 C.3   1 <1>  -0.0170 
 24 C       -6.5350    -1.5560     1.3750 C.ar  1 <1>   0.7200 
 25 C       -5.9840    -0.5460    -0.5410 C.ar  1 <1>   0.1600 
 26 N       -6.6610    -0.5010     0.5840 N.ar  1 <1>  -0.6200 
 27 N       -7.2200    -1.5040     2.5160 N.pl3 1 <1>  -0.9000 
 28 H       -0.0900    -4.6850     3.8010 H     1 <1>   0.3700 
 29 H        2.5730    -0.6200     2.5910 H     1 <1>   0.1500 
 30 H       -1.9820    -5.6600     2.5120 H     1 <1>   0.0800 
 31 H       -0.8850    -6.4100     1.3820 H     1 <1>   0.0800 
 32 H       -1.8970    -5.0250    -0.3510 H     1 <1>   0.4500 
 33 H        0.3710    -2.4340    -1.7780 H     1 <1>   0.0800 
 34 H        1.6480    -1.2420    -1.9590 H     1 <1>   0.0800 
 35 H        0.0230    -0.7240    -1.5510 H     1 <1>   0.0800 
 36 H       -2.7590    -3.2630     1.0370 H     1 <1>   0.0800 
 37 H       -3.9750    -4.3630     1.6270 H     1 <1>   0.0800 
 38 H       -3.8590    -6.7990     0.9810 H     1 <1>   0.0800 
 39 H       -2.5880    -7.3410    -0.0920 H     1 <1>   0.0800 
 40 H       -4.7670    -7.0990    -1.2490 H     1 <1>   0.0800 
 41 H       -3.5390    -6.1000    -1.9440 H     1 <1>   0.0800 
 42 H       -5.6060    -4.7880    -1.7530 H     1 <1>   0.0800 
 43 H       -5.7810    -5.2430    -0.0910 H     1 <1>   0.0800 
 44 H       -3.2920    -3.7880    -2.3970 H     1 <1>   0.0800 
 45 H       -2.5350    -2.7330    -1.2290 H     1 <1>   0.0800 
 46 H       -4.9400    -2.1740    -2.8920 H     1 <1>   0.0800 
 47 H       -3.7120    -1.0600    -2.2970 H     1 <1>   0.0800 
 48 H       -6.0520     0.2920    -1.2140 H     1 <1>   0.1500 
 49 H       -7.9290    -0.7750     2.5480 H     1 <1>   0.4000 
 50 H       -7.4820    -2.3960     2.9230 H     1 <1>   0.4000 
@<TRIPOS>BOND
  1   1   2  2   
  2   2   3  am  
  3   2   4  1   
  4   3   5  1   
  5   3  28  1   
  6   4   6  2   
  7   4   7  1   
  8   5   8  2   
  9   5   9  1   
 10   6   8  1   
 11   6  10  1   
 12   7  11  2   
 13   7  29  1   
 14   9  12  1   
 15   9  30  1   
 16   9  31  1   
 17  10  11  1   
 18  10  13  1   
 19  12  14  1   
 20  12  15  1   
 21  12  32  1   
 22  13  33  1   
 23  13  34  1   
 24  13  35  1   
 25  14  16  1   
 26  14  36  1   
 27  14  37  1   
 28  15  17  1   
 29  15  38  1   
 30  15  39  1   
 31  16  18  1   
 32  16  19  1   
 33  16  20  1   
 34  17  19  1   
 35  17  40  1   
 36  17  41  1   
 37  18  21  ar  
 38  18  22  ar  
 39  19  42  1   
 40  19  43  1   
 41  20  23  1   
 42  20  44  1   
 43  20  45  1   
 44  21  24  ar  
 45  22  23  1   
 46  22  25  ar  
 47  23  46  1   
 48  23  47  1   
 49  24  26  ar  
 50  24  27  1   
 51  25  26  ar  
 52  25  48  1   
 53  27  49  1   
 54  27  50  1   
@<TRIPOS>SUBSTRUCTURE
  1 ****  14 GROUP 4 **** **** 0

# MOE 2024.06 (io_trps.svl 2023.06)
