@<TRIPOS>MOLECULE
NONAME
28 29 1 0 0 
SMALL
USER_CHARGES


@<TRIPOS>ATOM
  1 F       -0.4080    -0.1400     0.3060 F     1 <1>  -0.1900 
  2 C       -1.4970    -0.8210     0.0440 C.ar  1 <1>   0.1900 
  3 C       -2.7160    -0.1540    -0.0520 C.ar  1 <1>   0.0820 
  4 C       -1.3820    -2.1860    -0.1270 C.ar  1 <1>  -0.1500 
  5 O       -2.7450     1.1960     0.1300 O.3   1 <1>  -0.3630 
  6 C       -3.8510    -0.9130    -0.3320 C.ar  1 <1>  -0.1500 
  7 C       -2.5190    -2.9270    -0.4030 C.ar  1 <1>  -0.0320 
  8 C       -3.9440     1.9290     0.0360 C.3   1 <1>   0.1200 
  9 C       -3.7450    -2.2860    -0.5060 C.ar  1 <1>  -0.1500 
 10 C       -2.4100    -4.4270    -0.5990 C.3   1 <1>  -0.0680 
 11 C       -3.6180     3.3980     0.2850 C.3   1 <1>  -0.2400 
 12 C       -1.8040    -5.2620     0.4900 C.3   1 <1>  -0.2470 
 13 C       -3.2700    -5.3750     0.1790 C.3   1 <1>  -0.2000 
 14 C       -0.7850    -6.3230     0.1160 C.2   1 <1>   0.9470 
 15 O        0.3570    -5.9540    -0.1750 O.co2 1 <1>  -0.9000 
 16 O       -1.1260    -7.5100     0.1120 O.co2 1 <1>  -0.9000 
 17 H       -0.4240    -2.6720    -0.0470 H     1 <1>   0.1500 
 18 H       -4.8200    -0.4610    -0.4200 H     1 <1>   0.1500 
 19 H       -4.3510     1.7920    -0.9510 H     1 <1>   0.0800 
 20 H       -4.6290     1.5600     0.7800 H     1 <1>   0.0800 
 21 H       -4.6220    -2.8690    -0.7230 H     1 <1>   0.1500 
 22 H       -2.1480    -4.6980    -1.6080 H     1 <1>   0.1000 
 23 H       -2.9200     3.7510    -0.4520 H     1 <1>   0.0800 
 24 H       -3.1950     3.5200     1.2660 H     1 <1>   0.0800 
 25 H       -4.5140     3.9870     0.2200 H     1 <1>   0.0800 
 26 H       -1.5240    -4.7740     1.4020 H     1 <1>   0.1000 
 27 H       -3.6010    -6.2910    -0.2790 H     1 <1>   0.1000 
 28 H       -3.9670    -4.9940     0.9040 H     1 <1>   0.1000 
@<TRIPOS>BOND
  1   1   2  1   
  2   2   3  ar  
  3   2   4  ar  
  4   3   5  1   
  5   3   6  ar  
  6   4   7  ar  
  7   4  17  1   
  8   5   8  1   
  9   6   9  ar  
 10   6  18  1   
 11   7   9  ar  
 12   7  10  1   
 13   8  11  1   
 14   8  19  1   
 15   8  20  1   
 16   9  21  1   
 17  10  12  1   
 18  10  13  1   
 19  10  22  1   
 20  11  23  1   
 21  11  24  1   
 22  11  25  1   
 23  12  13  1   
 24  12  14  1   
 25  12  26  1   
 26  13  27  1   
 27  13  28  1   
 28  14  15  ar  
 29  14  16  ar  
@<TRIPOS>SUBSTRUCTURE
  1 ****   7 GROUP 4 **** **** 0

# MOE 2024.06 (io_trps.svl 2023.06)
