@<TRIPOS>MOLECULE
NONAME
47 49 1 0 0 
SMALL
USER_CHARGES


@<TRIPOS>ATOM
  1 F       -1.1970     0.1040    -0.2280 F     1 <1>  -0.1900 
  2 C       -0.8890    -1.1650    -0.3520 C.ar  1 <1>   0.1900 
  3 C       -1.9160    -2.1130    -0.2970 C.ar  1 <1>   0.1170 
  4 C        0.4440    -1.4870    -0.5350 C.ar  1 <1>  -0.1500 
  5 N       -3.2470    -1.6930    -0.1110 N.am  1 <1>  -0.5470 
  6 C       -1.5480    -3.4480    -0.4480 C.ar  1 <1>  -0.1500 
  7 C        0.7910    -2.8210    -0.6770 C.ar  1 <1>  -0.1500 
  8 C       -4.3790    -2.3530     0.2750 C.2   1 <1>   0.6900 
  9 C       -0.2150    -3.7710    -0.6310 C.ar  1 <1>   0.1900 
 10 O       -4.3330    -3.5190     0.6200 O.2   1 <1>  -0.5700 
 11 N       -5.5670    -1.6670     0.2920 N.am  1 <1>  -0.6600 
 12 F        0.1130    -5.0270    -0.7710 F     1 <1>  -0.1900 
 13 C       -6.7680    -2.2660     0.9450 C.3   1 <1>   0.1400 
 14 C       -5.7640    -0.3510    -0.3880 C.3   1 <1>   0.1400 
 15 C       -7.6420    -1.1630     1.5500 C.3   1 <1>  -0.1600 
 16 C       -7.2350    -0.1500    -0.7570 C.3   1 <1>  -0.1600 
 17 C       -8.1390    -0.1420     0.4960 C.3   1 <1>   0.2800 
 18 O       -7.9400     1.1310     1.0770 O.3   1 <1>  -0.5600 
 19 C       -9.6440    -0.3890     0.1560 C.3   1 <1>   0.2000 
 20 C       -9.0290     1.9920     1.2490 C.3   1 <1>   0.1200 
 21 O       -9.8470    -1.5970    -0.5230 O.3   1 <1>  -0.6800 
 22 C      -10.3310     0.8050    -0.5710 C.3   1 <1>   0.2800 
 23 C       -9.7590     2.1500    -0.0870 C.3   1 <1>  -0.1600 
 24 O      -11.6660     0.7710    -0.2130 O.3   1 <1>  -0.6800 
 25 C      -10.3280     0.7380    -2.1060 C.3   1 <1>  -0.2400 
 26 H        1.1900    -0.7130    -0.5660 H     1 <1>   0.1500 
 27 H       -3.3790    -0.6860    -0.1360 H     1 <1>   0.3700 
 28 H       -2.2800    -4.2340    -0.4270 H     1 <1>   0.1500 
 29 H        1.8140    -3.1230    -0.8210 H     1 <1>   0.1500 
 30 H       -7.3290    -2.8220     0.2120 H     1 <1>   0.0800 
 31 H       -6.4620    -2.9470     1.7210 H     1 <1>   0.0800 
 32 H       -5.4500     0.4390     0.2730 H     1 <1>   0.0800 
 33 H       -5.1690    -0.3120    -1.2850 H     1 <1>   0.0800 
 34 H       -7.0600    -0.6640     2.3040 H     1 <1>   0.0800 
 35 H       -8.4740    -1.6280     2.0440 H     1 <1>   0.0800 
 36 H       -7.5210    -0.9430    -1.4240 H     1 <1>   0.0800 
 37 H       -7.3410     0.7750    -1.2890 H     1 <1>   0.0800 
 38 H      -10.1470    -0.5060     1.1010 H     1 <1>   0.0800 
 39 H       -9.6760     1.5910     2.0120 H     1 <1>   0.0800 
 40 H       -8.6440     2.9400     1.5850 H     1 <1>   0.0800 
 41 H      -10.8070    -1.6980    -0.6810 H     1 <1>   0.4000 
 42 H       -9.0430     2.5250    -0.7960 H     1 <1>   0.0800 
 43 H      -10.5350     2.8880     0.0040 H     1 <1>   0.0800 
 44 H      -12.1560     1.4540    -0.7090 H     1 <1>   0.4000 
 45 H       -9.3230     0.6920    -2.4790 H     1 <1>   0.0800 
 46 H      -10.7970     1.6090    -2.5260 H     1 <1>   0.0800 
 47 H      -10.8470    -0.1390    -2.4520 H     1 <1>   0.0800 
@<TRIPOS>BOND
  1   1   2  1   
  2   2   3  ar  
  3   2   4  ar  
  4   3   5  1   
  5   3   6  ar  
  6   4   7  ar  
  7   4  26  1   
  8   5   8  am  
  9   5  27  1   
 10   6   9  ar  
 11   6  28  1   
 12   7   9  ar  
 13   7  29  1   
 14   8  10  2   
 15   8  11  am  
 16   9  12  1   
 17  11  13  1   
 18  11  14  1   
 19  13  15  1   
 20  13  30  1   
 21  13  31  1   
 22  14  16  1   
 23  14  32  1   
 24  14  33  1   
 25  15  17  1   
 26  15  34  1   
 27  15  35  1   
 28  16  17  1   
 29  16  36  1   
 30  16  37  1   
 31  17  18  1   
 32  17  19  1   
 33  18  20  1   
 34  19  21  1   
 35  19  22  1   
 36  19  38  1   
 37  20  23  1   
 38  20  39  1   
 39  20  40  1   
 40  21  41  1   
 41  22  23  1   
 42  22  24  1   
 43  22  25  1   
 44  23  42  1   
 45  23  43  1   
 46  24  44  1   
 47  25  45  1   
 48  25  46  1   
 49  25  47  1   
@<TRIPOS>SUBSTRUCTURE
  1 ****  11 GROUP 4 **** **** 0

# MOE 2024.06 (io_trps.svl 2023.06)
