@<TRIPOS>MOLECULE
NONAME
50 53 1 0 0 
SMALL
USER_CHARGES


@<TRIPOS>ATOM
  1 S       -5.2230    -3.5040     2.9580 S.3   1 <1>  -0.2420 
  2 C       -4.8710    -2.4530     1.5840 C.2   1 <1>   0.6510 
  3 C       -4.3230    -2.4510     4.0660 C.2   1 <1>  -0.0490 
  4 N       -5.2980    -2.6900     0.3850 N.2   1 <1>  -0.6210 
  5 N       -4.1210    -1.3910     2.0080 N.am  1 <1>  -0.2290 
  6 C       -3.8250    -1.4070     3.3890 C.2   1 <1>  -0.0410 
  7 C       -4.9460    -1.7700    -0.5680 C.2   1 <1>   0.0330 
  8 C       -3.7700    -0.4490     1.0730 C.2   1 <1>   0.6160 
  9 C       -4.2060    -0.6720    -0.2570 C.2   1 <1>  -0.1360 
 10 C       -5.4410    -2.0500    -1.9890 C.3   1 <1>   0.4810 
 11 O       -3.1230     0.5360     1.3860 O.2   1 <1>  -0.5700 
 12 N       -6.8600    -2.4880    -1.9320 N.4   1 <1>  -0.9590 
 13 C       -7.3130    -3.2430    -3.1420 C.3   1 <1>   0.3430 
 14 C       -7.8190    -1.4580    -1.4470 C.3   1 <1>   0.3430 
 15 C       -8.6320    -4.0030    -2.8830 C.3   1 <1>   0.1400 
 16 C       -8.6870    -2.0330    -0.3190 C.3   1 <1>  -0.1600 
 17 N       -8.8650    -4.2530    -1.4210 N.am  1 <1>  -0.6600 
 18 C       -9.6240    -3.1800    -0.7230 C.3   1 <1>   0.1400 
 19 C       -8.0830    -5.1650    -0.7420 C.2   1 <1>   0.5440 
 20 O       -7.0100    -5.4490    -1.2410 O.2   1 <1>  -0.5700 
 21 C       -8.4470    -5.7060     0.5530 C.ar  1 <1>   0.0860 
 22 C       -9.7420    -6.0560     0.8970 C.ar  1 <1>  -0.1500 
 23 C       -7.5040    -5.9100     1.5490 C.ar  1 <1>  -0.1500 
 24 C      -10.0300    -6.5310     2.1630 C.ar  1 <1>   0.3930 
 25 C       -7.8840    -6.3930     2.7850 C.ar  1 <1>   0.1600 
 26 O      -11.3190    -6.8320     2.4210 O.3   1 <1>  -0.3630 
 27 N       -9.1250    -6.6990     3.1210 N.ar  1 <1>  -0.6200 
 28 C      -11.7070    -7.3400     3.6830 C.3   1 <1>   0.0400 
 29 H       -4.2770    -2.7460     5.1000 H     1 <1>   0.1500 
 30 H       -3.2340    -0.6000     3.7930 H     1 <1>   0.1500 
 31 H       -3.9120     0.0700    -0.9770 H     1 <1>   0.1500 
 32 H       -4.8410    -2.8440    -2.4040 H     1 <1>   0.0800 
 33 H       -5.3370    -1.1760    -2.6090 H     1 <1>   0.0800 
 34 H       -6.8420    -3.2180    -1.1900 H     1 <1>   0.4500 
 35 H       -6.5630    -3.9770    -3.3930 H     1 <1>   0.0800 
 36 H       -7.4270    -2.5840    -3.9860 H     1 <1>   0.0800 
 37 H       -8.4400    -1.1150    -2.2580 H     1 <1>   0.0800 
 38 H       -7.2750    -0.6120    -1.0590 H     1 <1>   0.0800 
 39 H       -8.5970    -4.9470    -3.4010 H     1 <1>   0.0800 
 40 H       -9.4560    -3.4470    -3.2940 H     1 <1>   0.0800 
 41 H       -9.2960    -1.2360     0.0690 H     1 <1>   0.0800 
 42 H       -8.0590    -2.3560     0.4920 H     1 <1>   0.0800 
 43 H      -10.4030    -2.8120    -1.3710 H     1 <1>   0.0800 
 44 H      -10.1030    -3.5720     0.1570 H     1 <1>   0.0800 
 45 H      -10.5400    -5.9660     0.1850 H     1 <1>   0.1500 
 46 H       -6.4690    -5.6910     1.3550 H     1 <1>   0.1500 
 47 H       -7.1280    -6.5340     3.5400 H     1 <1>   0.1500 
 48 H      -12.7680    -7.5120     3.6680 H     1 <1>   0.0800 
 49 H      -11.4590    -6.6170     4.4400 H     1 <1>   0.0800 
 50 H      -11.1850    -8.2640     3.8610 H     1 <1>   0.0800 
@<TRIPOS>BOND
  1   1   2  1   
  2   1   3  1   
  3   2   4  2   
  4   2   5  1   
  5   3   6  2   
  6   3  29  1   
  7   4   7  1   
  8   5   6  1   
  9   5   8  am  
 10   6  30  1   
 11   7   9  2   
 12   7  10  1   
 13   8   9  1   
 14   8  11  2   
 15   9  31  1   
 16  10  12  1   
 17  10  32  1   
 18  10  33  1   
 19  12  13  1   
 20  12  14  1   
 21  12  34  1   
 22  13  15  1   
 23  13  35  1   
 24  13  36  1   
 25  14  16  1   
 26  14  37  1   
 27  14  38  1   
 28  15  17  1   
 29  15  39  1   
 30  15  40  1   
 31  16  18  1   
 32  16  41  1   
 33  16  42  1   
 34  17  18  1   
 35  17  19  am  
 36  18  43  1   
 37  18  44  1   
 38  19  20  2   
 39  19  21  1   
 40  21  22  ar  
 41  21  23  ar  
 42  22  24  ar  
 43  22  45  1   
 44  23  25  ar  
 45  23  46  1   
 46  24  26  1   
 47  24  27  ar  
 48  25  27  ar  
 49  25  47  1   
 50  26  28  1   
 51  28  48  1   
 52  28  49  1   
 53  28  50  1   
@<TRIPOS>SUBSTRUCTURE
  1 ****   4 GROUP 4 **** **** 0

# MOE 2024.06 (io_trps.svl 2023.06)
