@<TRIPOS>MOLECULE
NONAME
39 41 1 0 0 
SMALL
USER_CHARGES


@<TRIPOS>ATOM
  1 O       -0.0770     0.6040    -0.4610 O.3   1 <1>  -0.2800 
  2 C        0.1270     1.6510     0.2740 C.2   1 <1>   0.2980 
  3 C       -0.9170    -0.0970     0.2250 C.2   1 <1>   0.2980 
  4 N       -0.5460     1.6060     1.3650 N.2   1 <1>  -0.3380 
  5 C        1.0980     2.7220    -0.2320 C.3   1 <1>   0.2900 
  6 N       -1.2310     0.4610     1.3290 N.2   1 <1>  -0.3380 
  7 C       -1.4130    -1.4190    -0.3100 C.3   1 <1>  -0.0600 
  8 N        0.9280     4.0780     0.3550 N.3   1 <1>  -0.8100 
  9 C        2.0650     4.9530    -0.0070 C.3   1 <1>   0.1100 
 10 C       -0.3730     4.6590    -0.0280 C.3   1 <1>   0.0300 
 11 C        2.0640     6.3120     0.7220 C.3   1 <1>   0.2000 
 12 O        1.2440     7.2330     0.0320 O.3   1 <1>  -0.2170 
 13 C        3.4200     7.0090     0.7350 C.3   1 <1>  -0.0990 
 14 N        1.8660     8.3420    -0.2970 N.2   1 <1>  -0.5130 
 15 C        3.0820     8.3110     0.0610 C.2   1 <1>   0.3030 
 16 C        4.0730     9.3520    -0.1260 C.ar  1 <1>   0.0860 
 17 C        5.3980     9.2220     0.3010 C.ar  1 <1>  -0.1500 
 18 C        3.7280    10.5500    -0.7560 C.ar  1 <1>  -0.1500 
 19 C        6.3240    10.2310     0.1090 C.ar  1 <1>  -0.1500 
 20 C        4.6480    11.5630    -0.9520 C.ar  1 <1>  -0.1500 
 21 C        5.9520    11.4060    -0.5190 C.ar  1 <1>  -0.1500 
 22 H        0.9990     2.7900    -1.3010 H     1 <1>   0.0800 
 23 H        2.0910     2.3700    -0.0160 H     1 <1>   0.0800 
 24 H       -1.9140    -1.2650    -1.2470 H     1 <1>   0.0800 
 25 H       -2.1010    -1.8600     0.3880 H     1 <1>   0.0800 
 26 H       -0.5830    -2.0850    -0.4550 H     1 <1>   0.0800 
 27 H        2.0910     5.1190    -1.0720 H     1 <1>   0.0800 
 28 H        2.9690     4.4400     0.2710 H     1 <1>   0.0800 
 29 H       -1.1740     3.9770     0.1980 H     1 <1>   0.0800 
 30 H       -0.3920     4.8880    -1.0800 H     1 <1>   0.0800 
 31 H       -0.5550     5.5620     0.5280 H     1 <1>   0.0800 
 32 H        1.6800     6.2070     1.7210 H     1 <1>   0.0800 
 33 H        4.1590     6.4670     0.1750 H     1 <1>   0.0800 
 34 H        3.7530     7.1630     1.7450 H     1 <1>   0.0800 
 35 H        5.7230     8.3240     0.7920 H     1 <1>   0.1500 
 36 H        2.7160    10.6870    -1.0990 H     1 <1>   0.1500 
 37 H        7.3390    10.1060     0.4470 H     1 <1>   0.1500 
 38 H        4.3500    12.4750    -1.4410 H     1 <1>   0.1500 
 39 H        6.6710    12.1930    -0.6690 H     1 <1>   0.1500 
@<TRIPOS>BOND
  1   1   2  1   
  2   1   3  1   
  3   2   4  2   
  4   2   5  1   
  5   3   6  2   
  6   3   7  1   
  7   4   6  1   
  8   5   8  1   
  9   5  22  1   
 10   5  23  1   
 11   7  24  1   
 12   7  25  1   
 13   7  26  1   
 14   8   9  1   
 15   8  10  1   
 16   9  11  1   
 17   9  27  1   
 18   9  28  1   
 19  10  29  1   
 20  10  30  1   
 21  10  31  1   
 22  11  12  1   
 23  11  13  1   
 24  11  32  1   
 25  12  14  1   
 26  13  15  1   
 27  13  33  1   
 28  13  34  1   
 29  14  15  2   
 30  15  16  1   
 31  16  17  ar  
 32  16  18  ar  
 33  17  19  ar  
 34  17  35  1   
 35  18  20  ar  
 36  18  36  1   
 37  19  21  ar  
 38  19  37  1   
 39  20  21  ar  
 40  20  38  1   
 41  21  39  1   
@<TRIPOS>SUBSTRUCTURE
  1 ****   9 GROUP 4 **** **** 0

# MOE 2024.06 (io_trps.svl 2023.06)
