@<TRIPOS>MOLECULE
NONAME
47 49 1 0 0 
SMALL
USER_CHARGES


@<TRIPOS>ATOM
  1 O        0.3170    -0.0270     0.7050 O.3   1 <1>  -0.5600 
  2 C        1.3210     0.6660     0.0400 C.3   1 <1>   0.1200 
  3 C        0.2090    -1.3620     0.3030 C.3   1 <1>   0.1200 
  4 C        2.6750     0.0130     0.3550 C.3   1 <1>   0.1900 
  5 C        1.5300    -2.1430     0.5330 C.3   1 <1>   0.1900 
  6 N        2.6900    -1.4150    -0.0660 N.3   1 <1>  -0.8100 
  7 C        3.8060     0.8040    -0.3320 C.3   1 <1>   0.3430 
  8 C        1.4210    -3.5650    -0.0610 C.3   1 <1>  -0.1600 
  9 C        4.0040    -2.0250     0.2460 C.3   1 <1>   0.1100 
 10 N        5.1600     0.1970    -0.0710 N.4   1 <1>  -0.9590 
 11 C        0.2020    -4.3630     0.4320 C.3   1 <1>  -0.1600 
 12 C        5.1650    -1.2610    -0.4260 C.3   1 <1>   0.3430 
 13 C        6.2420     0.9440    -0.7650 C.3   1 <1>   0.4860 
 14 C        0.2530    -5.8090    -0.0710 C.3   1 <1>  -0.2400 
 15 C        6.2520     2.3670    -0.2430 C.ar  1 <1>  -0.1440 
 16 C        5.7600     3.4010    -1.0270 C.ar  1 <1>  -0.1500 
 17 C        6.7410     2.6460     1.0260 C.ar  1 <1>  -0.1500 
 18 C        5.7440     4.6960    -0.5420 C.ar  1 <1>  -0.1500 
 19 C        6.7230     3.9420     1.5100 C.ar  1 <1>  -0.1500 
 20 C        6.2230     4.9670     0.7270 C.ar  1 <1>  -0.1500 
 21 H        1.1130     0.6500    -1.0160 H     1 <1>   0.0800 
 22 H        1.2950     1.6830     0.3900 H     1 <1>   0.0800 
 23 H       -0.5890    -1.7970     0.8780 H     1 <1>   0.0800 
 24 H       -0.0670    -1.3850    -0.7370 H     1 <1>   0.0800 
 25 H        2.8180     0.0740     1.4210 H     1 <1>   0.0800 
 26 H        1.6750    -2.2270     1.5980 H     1 <1>   0.0800 
 27 H        3.7870     1.8210     0.0250 H     1 <1>   0.0800 
 28 H        3.6120     0.8190    -1.3920 H     1 <1>   0.0800 
 29 H        1.3820    -3.4950    -1.1350 H     1 <1>   0.0800 
 30 H        2.2900    -4.1320     0.2100 H     1 <1>   0.0800 
 31 H        4.1530    -2.0580     1.3120 H     1 <1>   0.0800 
 32 H        4.0390    -3.0340    -0.1230 H     1 <1>   0.0800 
 33 H        5.3320     0.2890     0.9370 H     1 <1>   0.4500 
 34 H        0.1780    -4.3680     1.5090 H     1 <1>   0.0800 
 35 H       -0.7110    -3.9160     0.0770 H     1 <1>   0.0800 
 36 H        5.0630    -1.3740    -1.4930 H     1 <1>   0.0800 
 37 H        6.0990    -1.7090    -0.1310 H     1 <1>   0.0800 
 38 H        7.1980     0.4860    -0.5700 H     1 <1>   0.0800 
 39 H        6.0730     0.9440    -1.8300 H     1 <1>   0.0800 
 40 H        1.1330    -6.3080     0.2950 H     1 <1>   0.0800 
 41 H        0.2630    -5.8340    -1.1470 H     1 <1>   0.0800 
 42 H       -0.6110    -6.3490     0.2730 H     1 <1>   0.0800 
 43 H        5.3880     3.2170    -2.0210 H     1 <1>   0.1500 
 44 H        7.1450     1.8680     1.6530 H     1 <1>   0.1500 
 45 H        5.3630     5.5000    -1.1500 H     1 <1>   0.1500 
 46 H        7.1020     4.1600     2.4940 H     1 <1>   0.1500 
 47 H        6.2100     5.9760     1.1040 H     1 <1>   0.1500 
@<TRIPOS>BOND
  1   1   2  1   
  2   1   3  1   
  3   2   4  1   
  4   2  21  1   
  5   2  22  1   
  6   3   5  1   
  7   3  23  1   
  8   3  24  1   
  9   4   6  1   
 10   4   7  1   
 11   4  25  1   
 12   5   6  1   
 13   5   8  1   
 14   5  26  1   
 15   6   9  1   
 16   7  10  1   
 17   7  27  1   
 18   7  28  1   
 19   8  11  1   
 20   8  29  1   
 21   8  30  1   
 22   9  12  1   
 23   9  31  1   
 24   9  32  1   
 25  10  12  1   
 26  10  13  1   
 27  10  33  1   
 28  11  14  1   
 29  11  34  1   
 30  11  35  1   
 31  12  36  1   
 32  12  37  1   
 33  13  15  1   
 34  13  38  1   
 35  13  39  1   
 36  14  40  1   
 37  14  41  1   
 38  14  42  1   
 39  15  16  ar  
 40  15  17  ar  
 41  16  18  ar  
 42  16  43  1   
 43  17  19  ar  
 44  17  44  1   
 45  18  20  ar  
 46  18  45  1   
 47  19  20  ar  
 48  19  46  1   
 49  20  47  1   
@<TRIPOS>SUBSTRUCTURE
  1 ****   7 GROUP 4 **** **** 0

# MOE 2024.06 (io_trps.svl 2023.06)
