@<TRIPOS>MOLECULE
NONAME
48 51 1 0 0 
SMALL
USER_CHARGES


@<TRIPOS>ATOM
  1 O        0.1150     0.9210     0.6260 O.2   1 <1>  -0.5700 
  2 C        0.0900     2.0720     0.2730 C.2   1 <1>   0.5690 
  3 N       -0.6820     2.9750     0.9190 N.am  1 <1>  -0.7300 
  4 C        0.9130     2.5250    -0.9390 C.3   1 <1>   0.1810 
  5 C       -0.7770     4.4000     0.5260 C.3   1 <1>   0.3640 
  6 O        1.0630     3.9280    -1.0080 O.3   1 <1>  -0.5600 
  7 C       -2.2380     4.8350     0.5700 C.ar  1 <1>  -0.1440 
  8 C       -0.1520     4.6490    -0.8680 C.3   1 <1>   0.2610 
  9 C       -2.5780     6.0440     1.1600 C.ar  1 <1>  -0.1500 
 10 C       -3.2420     4.0460     0.0210 C.ar  1 <1>  -0.1500 
 11 C        0.0480     6.1510    -1.0890 C.2   1 <1>   0.5690 
 12 C       -3.8980     6.4570     1.2040 C.ar  1 <1>  -0.1500 
 13 C       -4.5630     4.4590     0.0660 C.ar  1 <1>  -0.1500 
 14 O       -0.5950     6.6930    -1.9600 O.2   1 <1>  -0.5700 
 15 N        0.9000     6.8650    -0.2970 N.am  1 <1>  -0.5100 
 16 C       -4.8910     5.6650     0.6580 C.ar  1 <1>  -0.1500 
 17 C        2.2270     6.4330     0.2540 C.3   1 <1>   0.2250 
 18 C        1.4700     8.2110    -0.6280 C.3   1 <1>   0.2250 
 19 C        2.5910     7.9330     0.4090 C.3   1 <1>   0.2100 
 20 N        3.9530     8.2860    -0.0440 N.3   1 <1>  -0.7500 
 21 C        4.1120     9.7510    -0.1460 C.3   1 <1>   0.1100 
 22 C        4.9750     7.7460     0.8750 C.3   1 <1>   0.1100 
 23 C        5.5530    10.1280    -0.5360 C.3   1 <1>   0.1200 
 24 C        6.3890     8.1840     0.4530 C.3   1 <1>   0.1200 
 25 O        6.4620     9.5780     0.3730 O.3   1 <1>  -0.5600 
 26 H       -1.2540     2.6660     1.7070 H     1 <1>   0.3700 
 27 H        0.4360     2.1900    -1.8420 H     1 <1>   0.0800 
 28 H        1.8950     2.0920    -0.8840 H     1 <1>   0.0800 
 29 H       -0.2290     4.9720     1.2530 H     1 <1>   0.0800 
 30 H       -0.8270     4.2970    -1.6260 H     1 <1>   0.0800 
 31 H       -1.8200     6.6790     1.5860 H     1 <1>   0.1500 
 32 H       -3.0050     3.1050    -0.4450 H     1 <1>   0.1500 
 33 H       -4.1530     7.3970     1.6620 H     1 <1>   0.1500 
 34 H       -5.3340     3.8420    -0.3610 H     1 <1>   0.1500 
 35 H       -5.9180     5.9860     0.6920 H     1 <1>   0.1500 
 36 H        2.1190     5.9110     1.1880 H     1 <1>   0.0000 
 37 H        2.8070     5.9140    -0.4900 H     1 <1>   0.0000 
 38 H        1.8090     8.2490    -1.6490 H     1 <1>   0.0000 
 39 H        0.8020     9.0040    -0.3440 H     1 <1>   0.0000 
 40 H        2.3650     8.3230     1.3870 H     1 <1>   0.0000 
 41 H        3.4400    10.1370    -0.8920 H     1 <1>   0.0800 
 42 H        3.8740    10.2160     0.7960 H     1 <1>   0.0800 
 43 H        4.7890     8.0900     1.8780 H     1 <1>   0.0800 
 44 H        4.9300     6.6710     0.8720 H     1 <1>   0.0800 
 45 H        5.6770    11.1960    -0.5200 H     1 <1>   0.0800 
 46 H        5.7850     9.7640    -1.5220 H     1 <1>   0.0800 
 47 H        6.6440     7.7680    -0.5060 H     1 <1>   0.0800 
 48 H        7.1130     7.8580     1.1780 H     1 <1>   0.0800 
@<TRIPOS>BOND
  1   1   2  2   
  2   2   3  am  
  3   2   4  1   
  4   3   5  1   
  5   3  26  1   
  6   4   6  1   
  7   4  27  1   
  8   4  28  1   
  9   5   7  1   
 10   5   8  1   
 11   5  29  1   
 12   6   8  1   
 13   7   9  ar  
 14   7  10  ar  
 15   8  11  1   
 16   8  30  1   
 17   9  12  ar  
 18   9  31  1   
 19  10  13  ar  
 20  10  32  1   
 21  11  14  2   
 22  11  15  am  
 23  12  16  ar  
 24  12  33  1   
 25  13  16  ar  
 26  13  34  1   
 27  15  17  1   
 28  15  18  1   
 29  16  35  1   
 30  17  19  1   
 31  17  36  1   
 32  17  37  1   
 33  18  19  1   
 34  18  38  1   
 35  18  39  1   
 36  19  20  1   
 37  19  40  1   
 38  20  21  1   
 39  20  22  1   
 40  21  23  1   
 41  21  41  1   
 42  21  42  1   
 43  22  24  1   
 44  22  43  1   
 45  22  44  1   
 46  23  25  1   
 47  23  45  1   
 48  23  46  1   
 49  24  25  1   
 50  24  47  1   
 51  24  48  1   
@<TRIPOS>SUBSTRUCTURE
  1 ****  15 GROUP 4 **** **** 0

# MOE 2024.06 (io_trps.svl 2023.06)
