@<TRIPOS>MOLECULE
NONAME
50 51 1 0 0 
SMALL
USER_CHARGES


@<TRIPOS>ATOM
  1 S       -0.5470     0.0760    -0.3310 S.o2  1 <1>   1.3330 
  2 O       -1.1850     0.0340     0.9650 O.2   1 <1>  -0.6500 
  3 O       -0.9590     1.0680    -1.2980 O.2   1 <1>  -0.6500 
  4 N       -0.7100    -1.4590    -1.0390 N.am  1 <1>  -0.8490 
  5 C        1.2300     0.2230    -0.1300 C.3   1 <1>  -0.0550 
  6 C       -0.7380    -2.5510    -0.0600 C.3   1 <1>   0.1160 
  7 C       -1.8820    -1.5450    -1.9150 C.3   1 <1>   0.1160 
  8 C        1.6830     1.5900     0.4250 C.3   1 <1>  -0.0800 
  9 C        3.1940     1.7330     0.3620 C.3   1 <1>   0.2200 
 10 C        1.4110     1.7170     1.9290 C.3   1 <1>   0.1200 
 11 N        3.5510     3.1690     0.3780 N.am  1 <1>  -0.7300 
 12 C        3.6200     1.0950     1.6790 C.3   1 <1>   0.1200 
 13 O        2.5940     1.3640     2.5870 O.3   1 <1>  -0.5600 
 14 C        4.3210     3.8140    -0.5410 C.2   1 <1>   0.7160 
 15 O        4.7090     3.1890    -1.5100 O.2   1 <1>  -0.5700 
 16 C        4.6560     5.2020    -0.3260 C.2   1 <1>  -0.0860 
 17 C        5.4940     6.0220    -1.0970 C.2   1 <1>   0.1080 
 18 C        4.2460     6.0420     0.6690 C.2   1 <1>  -0.3020 
 19 N        5.5880     7.2250    -0.6300 N.2   1 <1>  -0.7070 
 20 C        6.2370     5.6060    -2.3490 C.3   1 <1>  -0.0590 
 21 N        4.8140     7.2390     0.4640 N.pl3 1 <1>   0.3140 
 22 C        4.6520     8.4530     1.2860 C.3   1 <1>   0.0960 
 23 C        3.3630     9.1990     0.9120 C.3   1 <1>  -0.1600 
 24 C        3.1800    10.4600     1.7630 C.3   1 <1>  -0.2400 
 25 H        1.5830    -0.5610     0.5100 H     1 <1>   0.0800 
 26 H        1.6790     0.0840    -1.0950 H     1 <1>   0.0800 
 27 H       -0.7480    -3.5010    -0.5660 H     1 <1>   0.0800 
 28 H       -1.6160    -2.4770     0.5630 H     1 <1>   0.0800 
 29 H        0.1340    -2.5110     0.5690 H     1 <1>   0.0800 
 30 H       -1.9460    -2.5240    -2.3580 H     1 <1>   0.0800 
 31 H       -1.8020    -0.8230    -2.7110 H     1 <1>   0.0800 
 32 H       -2.7830    -1.3470    -1.3580 H     1 <1>   0.0800 
 33 H        1.1950     2.3720    -0.1320 H     1 <1>   0.0800 
 34 H        3.6350     1.2400    -0.4890 H     1 <1>   0.0800 
 35 H        0.6190     1.0810     2.2820 H     1 <1>   0.0800 
 36 H        1.1880     2.7370     2.1910 H     1 <1>   0.0800 
 37 H        3.3080     3.6640     1.2350 H     1 <1>   0.3700 
 38 H        4.5480     1.4910     2.0520 H     1 <1>   0.0800 
 39 H        3.6950     0.0270     1.5780 H     1 <1>   0.0800 
 40 H        3.5880     5.8480     1.4930 H     1 <1>   0.1500 
 41 H        6.8870     4.7790    -2.1300 H     1 <1>   0.0800 
 42 H        6.8270     6.4250    -2.7160 H     1 <1>   0.0800 
 43 H        5.5360     5.3130    -3.1080 H     1 <1>   0.0800 
 44 H        4.6330     8.1650     2.3200 H     1 <1>   0.0800 
 45 H        5.5050     9.0850     1.1200 H     1 <1>   0.0800 
 46 H        3.4070     9.4770    -0.1280 H     1 <1>   0.0800 
 47 H        2.5150     8.5500     1.0540 H     1 <1>   0.0800 
 48 H        4.0070    11.1340     1.6190 H     1 <1>   0.0800 
 49 H        3.1150    10.2070     2.8070 H     1 <1>   0.0800 
 50 H        2.2750    10.9670     1.4780 H     1 <1>   0.0800 
@<TRIPOS>BOND
  1   1   2  2   
  2   1   3  2   
  3   1   4  am  
  4   1   5  1   
  5   4   6  1   
  6   4   7  1   
  7   5   8  1   
  8   5  25  1   
  9   5  26  1   
 10   6  27  1   
 11   6  28  1   
 12   6  29  1   
 13   7  30  1   
 14   7  31  1   
 15   7  32  1   
 16   8   9  1   
 17   8  10  1   
 18   8  33  1   
 19   9  11  1   
 20   9  12  1   
 21   9  34  1   
 22  10  13  1   
 23  10  35  1   
 24  10  36  1   
 25  11  14  am  
 26  11  37  1   
 27  12  13  1   
 28  12  38  1   
 29  12  39  1   
 30  14  15  2   
 31  14  16  1   
 32  16  17  1   
 33  16  18  2   
 34  17  19  2   
 35  17  20  1   
 36  18  21  1   
 37  18  40  1   
 38  19  21  1   
 39  20  41  1   
 40  20  42  1   
 41  20  43  1   
 42  21  22  1   
 43  22  23  1   
 44  22  44  1   
 45  22  45  1   
 46  23  24  1   
 47  23  46  1   
 48  23  47  1   
 49  24  48  1   
 50  24  49  1   
 51  24  50  1   
@<TRIPOS>SUBSTRUCTURE
  1 ****  11 GROUP 4 **** **** 0

# MOE 2024.06 (io_trps.svl 2023.06)
