@<TRIPOS>MOLECULE
NONAME
47 49 1 0 0 
SMALL
USER_CHARGES


@<TRIPOS>ATOM
  1 S       -0.2400     0.0510    -1.0820 S.3   1 <1>  -0.0800 
  2 C       -0.2960     1.4170     0.0080 C.2   1 <1>   0.4620 
  3 C       -1.1540    -0.9030     0.0700 C.2   1 <1>  -0.0450 
  4 N       -0.9210     1.1910     1.1040 N.2   1 <1>  -0.5650 
  5 N        0.2950     2.5730    -0.3550 N.pl3 1 <1>  -0.8840 
  6 C       -1.4960    -2.2640    -0.2310 C.2   1 <1>   0.7150 
  7 C       -1.3840    -0.0970     1.1330 C.2   1 <1>   0.0770 
  8 O       -0.8860    -2.8870    -1.0820 O.2   1 <1>  -0.5700 
  9 N       -2.5260    -2.9010     0.4260 N.am  1 <1>  -0.6600 
 10 C       -2.6280    -4.3940     0.4350 C.3   1 <1>   0.1400 
 11 C       -3.8440    -2.2380     0.6660 C.3   1 <1>   0.1400 
 12 C       -3.7650    -4.8730    -0.4830 C.3   1 <1>   0.3430 
 13 C       -4.9330    -2.8250    -0.2650 C.3   1 <1>   0.2000 
 14 O       -4.9600    -4.2240    -0.1330 O.3   1 <1>  -0.5600 
 15 C       -3.9500    -6.3830    -0.3650 C.ar  1 <1>  -0.1430 
 16 C       -6.3660    -2.2600    -0.0270 C.3   1 <1>   0.0000 
 17 C       -4.7820    -6.9380     0.5970 C.ar  1 <1>  -0.1500 
 18 C       -3.2610    -7.2250    -1.2270 C.ar  1 <1>  -0.1500 
 19 C       -7.3300    -2.8570    -1.0690 C.3   1 <1>  -0.2400 
 20 C       -6.3900    -0.7300    -0.1940 C.3   1 <1>  -0.2400 
 21 C       -6.9020    -2.6050     1.3760 C.3   1 <1>  -0.2400 
 22 C       -4.9230    -8.3120     0.6980 C.ar  1 <1>  -0.1500 
 23 C       -3.4010    -8.5990    -1.1280 C.ar  1 <1>  -0.1500 
 24 C       -4.2320    -9.1430    -0.1650 C.ar  1 <1>  -0.1500 
 25 H        0.8090     2.6820    -1.2300 H     1 <1>   0.4000 
 26 H        0.2940     3.3710     0.2810 H     1 <1>   0.4000 
 27 H       -1.9130    -0.4120     2.0160 H     1 <1>   0.1500 
 28 H       -1.7030    -4.8410     0.1150 H     1 <1>   0.0800 
 29 H       -2.8230    -4.7320     1.4370 H     1 <1>   0.0800 
 30 H       -4.1250    -2.3830     1.6940 H     1 <1>   0.0800 
 31 H       -3.7640    -1.1820     0.4860 H     1 <1>   0.0800 
 32 H       -3.5370    -4.6210    -1.5050 H     1 <1>   0.0800 
 33 H       -4.6580    -2.6050    -1.2830 H     1 <1>   0.0800 
 34 H       -5.3270    -6.2990     1.2710 H     1 <1>   0.1500 
 35 H       -2.6110    -6.8160    -1.9810 H     1 <1>   0.1500 
 36 H       -8.3230    -2.4600    -0.9460 H     1 <1>   0.0800 
 37 H       -7.3850    -3.9270    -0.9660 H     1 <1>   0.0800 
 38 H       -6.9960    -2.6330    -2.0670 H     1 <1>   0.0800 
 39 H       -7.4000    -0.3620    -0.1310 H     1 <1>   0.0800 
 40 H       -5.9910    -0.4480    -1.1530 H     1 <1>   0.0800 
 41 H       -5.8190    -0.2410     0.5740 H     1 <1>   0.0800 
 42 H       -7.9140    -2.2590     1.4880 H     1 <1>   0.0800 
 43 H       -6.3090    -2.1480     2.1460 H     1 <1>   0.0800 
 44 H       -6.8960    -3.6710     1.5290 H     1 <1>   0.0800 
 45 H       -5.5720    -8.7310     1.4460 H     1 <1>   0.1500 
 46 H       -2.8640    -9.2440    -1.8000 H     1 <1>   0.1500 
 47 H       -4.3410   -10.2110    -0.0880 H     1 <1>   0.1500 
@<TRIPOS>BOND
  1   1   2  1   
  2   1   3  1   
  3   2   4  2   
  4   2   5  1   
  5   3   6  1   
  6   3   7  2   
  7   4   7  1   
  8   5  25  1   
  9   5  26  1   
 10   6   8  2   
 11   6   9  am  
 12   7  27  1   
 13   9  10  1   
 14   9  11  1   
 15  10  12  1   
 16  10  28  1   
 17  10  29  1   
 18  11  13  1   
 19  11  30  1   
 20  11  31  1   
 21  12  14  1   
 22  12  15  1   
 23  12  32  1   
 24  13  14  1   
 25  13  16  1   
 26  13  33  1   
 27  15  17  ar  
 28  15  18  ar  
 29  16  19  1   
 30  16  20  1   
 31  16  21  1   
 32  17  22  ar  
 33  17  34  1   
 34  18  23  ar  
 35  18  35  1   
 36  19  36  1   
 37  19  37  1   
 38  19  38  1   
 39  20  39  1   
 40  20  40  1   
 41  20  41  1   
 42  21  42  1   
 43  21  43  1   
 44  21  44  1   
 45  22  24  ar  
 46  22  45  1   
 47  23  24  ar  
 48  23  46  1   
 49  24  47  1   
@<TRIPOS>SUBSTRUCTURE
  1 ****   9 GROUP 4 **** **** 0

# MOE 2024.06 (io_trps.svl 2023.06)
