@<TRIPOS>MOLECULE
NONAME
43 45 1 0 0 
SMALL
USER_CHARGES


@<TRIPOS>ATOM
  1 S        0.3170     0.4900     0.8880 S.3   1 <1>  -0.3320 
  2 C        0.1680    -1.2800     0.6840 C.ar  1 <1>   0.4120 
  3 C        0.8870     1.0700    -0.7700 C.3   1 <1>   0.2140 
  4 N        0.4810    -1.7630    -0.5080 N.ar  1 <1>  -0.6200 
  5 C       -0.2590    -2.0180     1.7740 C.ar  1 <1>  -0.1500 
  6 C        1.0580     2.5800    -0.7180 C.ar  1 <1>  -0.1440 
  7 C        0.3560    -3.0770    -0.6120 C.ar  1 <1>   0.1600 
  8 C       -0.3820    -3.3840     1.6420 C.ar  1 <1>  -0.1500 
  9 C        2.1340     3.1390    -0.0490 C.ar  1 <1>  -0.1500 
 10 C        0.1450     3.4140    -1.3420 C.ar  1 <1>  -0.1500 
 11 C       -0.0620    -3.9170     0.4090 C.ar  1 <1>  -0.1500 
 12 C        2.2930     4.5120    -0.0050 C.ar  1 <1>  -0.1500 
 13 C        0.3100     4.7860    -1.2940 C.ar  1 <1>  -0.1500 
 14 C        1.3820     5.3720    -0.6220 C.ar  1 <1>   0.0860 
 15 C        1.5300     6.8160    -0.5720 C.2   1 <1>   0.5440 
 16 O        1.1000     7.5190    -1.4660 O.2   1 <1>  -0.5700 
 17 N        2.1500     7.4180     0.4880 N.am  1 <1>  -0.7300 
 18 C        2.3140     8.8820     0.6600 C.3   1 <1>   0.1400 
 19 C        3.6280     9.3550     0.0220 C.3   1 <1>  -0.0800 
 20 C        4.8440     8.7940     0.7460 C.3   1 <1>   0.1200 
 21 C        3.8310    10.8500     0.2270 C.3   1 <1>  -0.1600 
 22 O        5.0280     9.6370     1.8350 O.3   1 <1>  -0.5600 
 23 C        4.6700    10.9420     1.5010 C.3   1 <1>   0.1200 
 24 H        0.1420     0.7720    -1.4860 H     1 <1>   0.0800 
 25 H        1.8180     0.5740    -0.9810 H     1 <1>   0.0800 
 26 H       -0.4880    -1.5220     2.6990 H     1 <1>   0.1500 
 27 H        0.6010    -3.5130    -1.5660 H     1 <1>   0.1500 
 28 H       -0.7100    -4.0040     2.4590 H     1 <1>   0.1500 
 29 H        2.8500     2.5010     0.4410 H     1 <1>   0.1500 
 30 H       -0.6980     2.9990    -1.8660 H     1 <1>   0.1500 
 31 H       -0.1350    -4.9760     0.2390 H     1 <1>   0.1500 
 32 H        3.1430     4.9200     0.5110 H     1 <1>   0.1500 
 33 H       -0.4040     5.4250    -1.7860 H     1 <1>   0.1500 
 34 H        2.4310     6.8500     1.2880 H     1 <1>   0.3700 
 35 H        2.3020     9.1200     1.7100 H     1 <1>   0.0800 
 36 H        1.4860     9.3870     0.1910 H     1 <1>   0.0800 
 37 H        3.6310     9.0980    -1.0230 H     1 <1>   0.0800 
 38 H        5.7220     8.8550     0.1270 H     1 <1>   0.0800 
 39 H        4.7110     7.7850     1.0940 H     1 <1>   0.0800 
 40 H        2.9070    11.3950     0.3150 H     1 <1>   0.0800 
 41 H        4.3930    11.2630    -0.5920 H     1 <1>   0.0800 
 42 H        4.1090    11.3530     2.3220 H     1 <1>   0.0800 
 43 H        5.5680    11.5140     1.3450 H     1 <1>   0.0800 
@<TRIPOS>BOND
  1   1   2  1   
  2   1   3  1   
  3   2   4  ar  
  4   2   5  ar  
  5   3   6  1   
  6   3  24  1   
  7   3  25  1   
  8   4   7  ar  
  9   5   8  ar  
 10   5  26  1   
 11   6   9  ar  
 12   6  10  ar  
 13   7  11  ar  
 14   7  27  1   
 15   8  11  ar  
 16   8  28  1   
 17   9  12  ar  
 18   9  29  1   
 19  10  13  ar  
 20  10  30  1   
 21  11  31  1   
 22  12  14  ar  
 23  12  32  1   
 24  13  14  ar  
 25  13  33  1   
 26  14  15  1   
 27  15  16  2   
 28  15  17  am  
 29  17  18  1   
 30  17  34  1   
 31  18  19  1   
 32  18  35  1   
 33  18  36  1   
 34  19  20  1   
 35  19  21  1   
 36  19  37  1   
 37  20  22  1   
 38  20  38  1   
 39  20  39  1   
 40  21  23  1   
 41  21  40  1   
 42  21  41  1   
 43  22  23  1   
 44  23  42  1   
 45  23  43  1   
@<TRIPOS>SUBSTRUCTURE
  1 ****  12 GROUP 4 **** **** 0

# MOE 2024.06 (io_trps.svl 2023.06)
