@<TRIPOS>MOLECULE
NONAME
38 40 1 0 0 
SMALL
USER_CHARGES


@<TRIPOS>ATOM
  1 S        0.0420     0.8550    -2.0550 S.3   1 <1>  -0.0800 
  2 C        0.0220     2.0810    -0.8040 C.2   1 <1>  -0.1400 
  3 C        1.6330     1.3870    -2.5770 C.2   1 <1>  -0.1100 
  4 C        1.1460     2.8080    -0.7980 C.2   1 <1>  -0.1810 
  5 C       -1.1420     2.2690     0.1300 C.3   1 <1>   0.0200 
  6 C        2.0710     2.4150    -1.8230 C.2   1 <1>  -0.1500 
  7 C        1.3550     3.9280     0.2240 C.3   1 <1>   0.4610 
  8 C       -1.0030     3.6690     0.7500 C.3   1 <1>   0.1200 
  9 O        0.3150     3.9040     1.1870 O.3   1 <1>  -0.5600 
 10 C        2.6550     3.7000     1.0050 C.3   1 <1>  -0.1600 
 11 C        1.3730     5.3040    -0.4580 C.3   1 <1>  -0.1600 
 12 C        2.9370     4.8440     1.9810 C.3   1 <1>   0.1400 
 13 C        1.6680     6.4230     0.5410 C.3   1 <1>   0.1400 
 14 N        2.9570     6.1270     1.2260 N.am  1 <1>  -0.6600 
 15 C        4.1080     6.8700     1.1020 C.2   1 <1>   0.5690 
 16 O        5.1430     6.5280     1.6270 O.2   1 <1>  -0.5700 
 17 C        4.1450     8.1630     0.2920 C.3   1 <1>   0.1310 
 18 S        4.0590     7.8320    -1.5060 S.3   1 <1>  -0.4600 
 19 C        5.4480     6.6970    -1.7790 C.3   1 <1>  -0.0100 
 20 H        2.0780     0.8670    -3.4060 H     1 <1>   0.1500 
 21 H       -1.1240     1.5160     0.8970 H     1 <1>   0.0800 
 22 H       -2.0710     2.1980    -0.4060 H     1 <1>   0.0800 
 23 H        3.0140     2.9160    -1.9470 H     1 <1>   0.1500 
 24 H       -1.6530     3.7630     1.6020 H     1 <1>   0.0800 
 25 H       -1.2650     4.4240     0.0310 H     1 <1>   0.0800 
 26 H        3.4820     3.6250     0.3250 H     1 <1>   0.0800 
 27 H        2.5870     2.7700     1.5400 H     1 <1>   0.0800 
 28 H        0.4390     5.4850    -0.9540 H     1 <1>   0.0800 
 29 H        2.1380     5.3140    -1.2140 H     1 <1>   0.0800 
 30 H        3.8780     4.6750     2.4770 H     1 <1>   0.0800 
 31 H        2.1680     4.8870     2.7340 H     1 <1>   0.0800 
 32 H        0.8830     6.4720     1.2770 H     1 <1>   0.0800 
 33 H        1.7000     7.3650     0.0270 H     1 <1>   0.0800 
 34 H        5.0680     8.6830     0.4700 H     1 <1>   0.0800 
 35 H        3.3210     8.8010     0.5470 H     1 <1>   0.0800 
 36 H        5.5130     6.5050    -2.8360 H     1 <1>   0.0800 
 37 H        5.2500     5.7890    -1.2370 H     1 <1>   0.0800 
 38 H        6.3430     7.1710    -1.4190 H     1 <1>   0.0800 
@<TRIPOS>BOND
  1   1   2  1   
  2   1   3  1   
  3   2   4  2   
  4   2   5  1   
  5   3   6  2   
  6   3  20  1   
  7   4   6  1   
  8   4   7  1   
  9   5   8  1   
 10   5  21  1   
 11   5  22  1   
 12   6  23  1   
 13   7   9  1   
 14   7  10  1   
 15   7  11  1   
 16   8   9  1   
 17   8  24  1   
 18   8  25  1   
 19  10  12  1   
 20  10  26  1   
 21  10  27  1   
 22  11  13  1   
 23  11  28  1   
 24  11  29  1   
 25  12  14  1   
 26  12  30  1   
 27  12  31  1   
 28  13  14  1   
 29  13  32  1   
 30  13  33  1   
 31  14  15  am  
 32  15  16  2   
 33  15  17  1   
 34  17  18  1   
 35  17  34  1   
 36  17  35  1   
 37  18  19  1   
 38  19  36  1   
 39  19  37  1   
 40  19  38  1   
@<TRIPOS>SUBSTRUCTURE
  1 ****   7 GROUP 4 **** **** 0

# MOE 2024.06 (io_trps.svl 2023.06)
