@<TRIPOS>MOLECULE
NONAME
63 67 1 0 0 
SMALL
USER_CHARGES


@<TRIPOS>ATOM
  1 S        0.2980     0.0310    -0.7550 S.3   1 <1>  -0.2860 
  2 C       -0.3840     1.3470     0.2550 C.2   1 <1>   0.2420 
  3 C        1.7500    -0.5780     0.2110 C.3   1 <1>   0.1500 
  4 N        0.0830     1.6480     1.4140 N.2   1 <1>  -0.5650 
  5 N       -1.4440     2.0810    -0.1720 N.pl3 1 <1>   0.0480 
  6 C        2.9320     0.3650    -0.0450 C.3   1 <1>  -0.1600 
  7 C        2.0510    -2.0100    -0.2450 C.3   1 <1>  -0.1600 
  8 C       -0.7170     2.6760     1.8080 C.ar  1 <1>   0.2270 
  9 C       -1.6690     2.9630     0.8420 C.ar  1 <1>  -0.1520 
 10 C       -2.2250     1.9260    -1.4180 C.3   1 <1>   0.1570 
 11 C        4.2110    -0.1670     0.6180 C.3   1 <1>  -0.1600 
 12 C        3.3300    -2.5390     0.4200 C.3   1 <1>  -0.1600 
 13 C       -0.6830     3.4090     2.9930 C.ar  1 <1>  -0.1500 
 14 C       -2.6020     3.9860     1.0350 C.ar  1 <1>  -0.1500 
 15 C       -3.7040     1.7300    -1.1260 C.2   1 <1>   0.5690 
 16 C        4.5180    -1.6010     0.1630 C.3   1 <1>  -0.1600 
 17 C       -1.6010     4.4170     3.1890 C.ar  1 <1>  -0.1500 
 18 C       -2.5600     4.7040     2.2100 C.ar  1 <1>  -0.1500 
 19 O       -4.4480     2.5870    -1.5450 O.2   1 <1>  -0.5700 
 20 N       -4.1710     0.6370    -0.4290 N.am  1 <1>  -0.6600 
 21 C       -5.6080     0.5880    -0.0140 C.3   1 <1>   0.2200 
 22 C       -3.2830    -0.4850     0.0130 C.3   1 <1>   0.0600 
 23 C       -5.8200     0.3400     1.4780 C.3   1 <1>  -0.1600 
 24 C       -6.3960    -0.5170    -0.7110 C.3   1 <1>  -0.1600 
 25 C       -7.2580    -0.1860     1.5770 C.3   1 <1>  -0.0800 
 26 C       -7.6200    -0.7430     0.1870 C.3   1 <1>  -0.0800 
 27 C       -8.2890     0.9090     1.8860 C.3   1 <1>  -0.1600 
 28 C       -8.8660     0.0270    -0.2760 C.3   1 <1>  -0.1600 
 29 C       -9.4800     0.5700     1.0040 C.3   1 <1>   0.2000 
 30 O      -10.2130     1.7040     0.7370 O.3   1 <1>  -0.6800 
 31 H        1.4720    -0.5670     1.2510 H     1 <1>   0.0800 
 32 H        3.0930     0.4560    -1.1050 H     1 <1>   0.0800 
 33 H        2.7040     1.3410     0.3460 H     1 <1>   0.0800 
 34 H        1.2220    -2.6480     0.0060 H     1 <1>   0.0800 
 35 H        2.1770    -2.0240    -1.3130 H     1 <1>   0.0800 
 36 H       -2.1000     2.8160    -2.0060 H     1 <1>   0.0800 
 37 H       -1.8640     1.0940    -1.9870 H     1 <1>   0.0800 
 38 H        5.0380     0.4760     0.3730 H     1 <1>   0.0800 
 39 H        4.0880    -0.1510     1.6880 H     1 <1>   0.0800 
 40 H        3.1700    -2.6270     1.4820 H     1 <1>   0.0800 
 41 H        3.5560    -3.5200     0.0390 H     1 <1>   0.0800 
 42 H        0.0640     3.1680     3.7260 H     1 <1>   0.1500 
 43 H       -3.3390     4.2050     0.2810 H     1 <1>   0.1500 
 44 H        5.3850    -1.9660     0.6870 H     1 <1>   0.0800 
 45 H        4.7480    -1.5980    -0.8890 H     1 <1>   0.0800 
 46 H       -1.5880     4.9930     4.0980 H     1 <1>   0.1500 
 47 H       -3.2670     5.4960     2.3840 H     1 <1>   0.1500 
 48 H       -6.0900     1.5230    -0.2490 H     1 <1>   0.0800 
 49 H       -3.8500    -1.3820     0.1800 H     1 <1>   0.0800 
 50 H       -2.7900    -0.2150     0.9320 H     1 <1>   0.0800 
 51 H       -2.5430    -0.6990    -0.7360 H     1 <1>   0.0800 
 52 H       -5.1600    -0.4250     1.8400 H     1 <1>   0.0800 
 53 H       -5.6670     1.2360     2.0520 H     1 <1>   0.0800 
 54 H       -6.6640    -0.2340    -1.7130 H     1 <1>   0.0800 
 55 H       -5.8240    -1.4250    -0.7460 H     1 <1>   0.0800 
 56 H       -7.3270    -0.9650     2.3170 H     1 <1>   0.0800 
 57 H       -7.8490    -1.7930     0.2570 H     1 <1>   0.0800 
 58 H       -7.8990     1.8740     1.6130 H     1 <1>   0.0800 
 59 H       -8.5610     0.9110     2.9260 H     1 <1>   0.0800 
 60 H       -9.5540    -0.6150    -0.7970 H     1 <1>   0.0800 
 61 H       -8.5810     0.8440    -0.9160 H     1 <1>   0.0800 
 62 H      -10.1170    -0.1620     1.4730 H     1 <1>   0.0800 
 63 H       -9.6480     2.3680     0.3010 H     1 <1>   0.4000 
@<TRIPOS>BOND
  1   1   2  1   
  2   1   3  1   
  3   2   4  2   
  4   2   5  1   
  5   3   6  1   
  6   3   7  1   
  7   3  31  1   
  8   4   8  1   
  9   5   9  1   
 10   5  10  1   
 11   6  11  1   
 12   6  32  1   
 13   6  33  1   
 14   7  12  1   
 15   7  34  1   
 16   7  35  1   
 17   8   9  ar  
 18   8  13  ar  
 19   9  14  ar  
 20  10  15  1   
 21  10  36  1   
 22  10  37  1   
 23  11  16  1   
 24  11  38  1   
 25  11  39  1   
 26  12  16  1   
 27  12  40  1   
 28  12  41  1   
 29  13  17  ar  
 30  13  42  1   
 31  14  18  ar  
 32  14  43  1   
 33  15  19  2   
 34  15  20  am  
 35  16  44  1   
 36  16  45  1   
 37  17  18  ar  
 38  17  46  1   
 39  18  47  1   
 40  20  21  1   
 41  20  22  1   
 42  21  23  1   
 43  21  24  1   
 44  21  48  1   
 45  22  49  1   
 46  22  50  1   
 47  22  51  1   
 48  23  25  1   
 49  23  52  1   
 50  23  53  1   
 51  24  26  1   
 52  24  54  1   
 53  24  55  1   
 54  25  26  1   
 55  25  27  1   
 56  25  56  1   
 57  26  28  1   
 58  26  57  1   
 59  27  29  1   
 60  27  58  1   
 61  27  59  1   
 62  28  29  1   
 63  28  60  1   
 64  28  61  1   
 65  29  30  1   
 66  29  62  1   
 67  30  63  1   
@<TRIPOS>SUBSTRUCTURE
  1 ****  22 GROUP 4 **** **** 0

# MOE 2024.06 (io_trps.svl 2023.06)
