@<TRIPOS>MOLECULE
NONAME
46 48 1 0 0 
SMALL
USER_CHARGES


@<TRIPOS>ATOM
  1 O        0.1700     0.1040    -1.2820 O.2   1 <1>  -0.5700 
  2 C       -0.7810     0.7990    -1.0080 C.2   1 <1>   0.5690 
  3 N       -2.0130     0.2560    -0.7520 N.am  1 <1>  -0.6600 
  4 C       -0.5700     2.3160    -0.9920 C.3   1 <1>   0.1810 
  5 C       -3.2280     1.0010    -0.3380 C.3   1 <1>   0.1400 
  6 C       -2.2550    -1.2060    -0.7130 C.3   1 <1>   0.1400 
  7 O       -0.8600     2.8820     0.2630 O.3   1 <1>  -0.5600 
  8 C       -4.2850    -0.0750    -0.0810 C.3   1 <1>   0.2000 
  9 C       -3.5090    -1.3700     0.1480 C.3   1 <1>  -0.0800 
 10 C       -0.6390     4.2710     0.3310 C.3   1 <1>   0.1810 
 11 O       -5.0530     0.2220     1.0340 O.3   1 <1>  -0.6800 
 12 C       -4.3320    -2.6250    -0.1830 C.3   1 <1>  -0.0170 
 13 C       -0.9280     4.8230     1.7270 C.2   1 <1>   0.5690 
 14 C       -3.5220    -3.8900     0.0440 C.ar  1 <1>   0.1660 
 15 O       -1.0280     6.0120     1.8880 O.2   1 <1>  -0.5700 
 16 N       -1.0620     3.9810     2.7710 N.am  1 <1>  -0.8000 
 17 N       -2.8080    -4.3280    -0.9470 N.ar  1 <1>  -0.6200 
 18 C       -3.5730    -4.5130     1.3010 C.ar  1 <1>  -0.1500 
 19 C       -2.0660    -5.4460    -0.7460 C.ar  1 <1>   0.3100 
 20 C       -2.8430    -5.6390     1.5290 C.ar  1 <1>  -0.1500 
 21 C       -2.0520    -6.1420     0.4830 C.ar  1 <1>   0.0000 
 22 C       -1.2760    -5.9350    -1.7990 C.ar  1 <1>  -0.1500 
 23 C       -1.2530    -7.2960     0.6080 C.ar  1 <1>  -0.1500 
 24 C       -0.5050    -7.0580    -1.6570 C.ar  1 <1>  -0.1500 
 25 C       -0.4950    -7.7460    -0.4390 C.ar  1 <1>  -0.1500 
 26 H       -1.2060     2.7680    -1.7300 H     1 <1>   0.0800 
 27 H        0.4580     2.5250    -1.2300 H     1 <1>   0.0800 
 28 H       -3.0200     1.5540     0.5610 H     1 <1>   0.0800 
 29 H       -3.5450     1.6670    -1.1220 H     1 <1>   0.0800 
 30 H       -2.4260    -1.5610    -1.7150 H     1 <1>   0.0800 
 31 H       -1.4130    -1.7310    -0.2920 H     1 <1>   0.0800 
 32 H       -4.9380    -0.1550    -0.9340 H     1 <1>   0.0800 
 33 H       -3.1830    -1.4180     1.1720 H     1 <1>   0.0800 
 34 H        0.3880     4.4710     0.0840 H     1 <1>   0.0800 
 35 H       -1.2830     4.7590    -0.3780 H     1 <1>   0.0800 
 36 H       -4.4860     0.2950     1.8250 H     1 <1>   0.4000 
 37 H       -4.6510    -2.5950    -1.2110 H     1 <1>   0.0800 
 38 H       -5.2160    -2.6490     0.4290 H     1 <1>   0.0800 
 39 H       -1.2470     4.3360     3.7090 H     1 <1>   0.3700 
 40 H       -0.9860     2.9700     2.6420 H     1 <1>   0.3700 
 41 H       -4.1900    -4.0890     2.0730 H     1 <1>   0.1500 
 42 H       -2.8570    -6.1450     2.4780 H     1 <1>   0.1500 
 43 H       -1.2960    -5.3910    -2.7250 H     1 <1>   0.1500 
 44 H       -1.2490    -7.8190     1.5470 H     1 <1>   0.1500 
 45 H        0.0960    -7.4210    -2.4720 H     1 <1>   0.1500 
 46 H        0.1150    -8.6270    -0.3410 H     1 <1>   0.1500 
@<TRIPOS>BOND
  1   1   2  2   
  2   2   3  am  
  3   2   4  1   
  4   3   5  1   
  5   3   6  1   
  6   4   7  1   
  7   4  26  1   
  8   4  27  1   
  9   5   8  1   
 10   5  28  1   
 11   5  29  1   
 12   6   9  1   
 13   6  30  1   
 14   6  31  1   
 15   7  10  1   
 16   8   9  1   
 17   8  11  1   
 18   8  32  1   
 19   9  12  1   
 20   9  33  1   
 21  10  13  1   
 22  10  34  1   
 23  10  35  1   
 24  11  36  1   
 25  12  14  1   
 26  12  37  1   
 27  12  38  1   
 28  13  15  2   
 29  13  16  am  
 30  14  17  ar  
 31  14  18  ar  
 32  16  39  1   
 33  16  40  1   
 34  17  19  ar  
 35  18  20  ar  
 36  18  41  1   
 37  19  21  ar  
 38  19  22  ar  
 39  20  21  ar  
 40  20  42  1   
 41  21  23  ar  
 42  22  24  ar  
 43  22  43  1   
 44  23  25  ar  
 45  23  44  1   
 46  24  25  ar  
 47  24  45  1   
 48  25  46  1   
@<TRIPOS>SUBSTRUCTURE
  1 ****   6 GROUP 4 **** **** 0

# MOE 2024.06 (io_trps.svl 2023.06)
