@<TRIPOS>MOLECULE
NONAME
37 39 1 0 0 
SMALL
USER_CHARGES


@<TRIPOS>ATOM
  1 O       -1.3860    -0.3450    -0.1340 O.2   1 <1>  -0.5700 
  2 C       -2.1840     0.4990     0.2070 C.2   1 <1>   0.6300 
  3 N       -3.2720     0.1760     0.9710 N.am  1 <1>  -0.6600 
  4 C       -1.9750     1.9300    -0.2750 C.3   1 <1>  -0.1000 
  5 C       -3.4240    -1.2100     1.5020 C.3   1 <1>   0.3200 
  6 C       -4.4480     1.0730     1.1730 C.3   1 <1>   0.1400 
  7 C       -0.6140     2.5490    -0.2770 C.3   1 <1>  -0.1520 
  8 C       -1.6350     3.0410     0.6960 C.3   1 <1>  -0.2000 
  9 C       -4.0290    -2.1150     0.4440 C.2   1 <1>   0.0060 
 10 C       -5.4520     0.9200     0.0250 C.3   1 <1>   0.1200 
 11 C        0.7730     2.0710     0.2140 C.3   1 <1>   0.0760 
 12 C        0.1020     3.5390    -1.2240 C.3   1 <1>   0.0760 
 13 N       -5.1910    -2.6830     0.5210 N.2   1 <1>  -0.5650 
 14 N       -3.3670    -2.3890    -0.6990 N.pl3 1 <1>   0.0330 
 15 O       -6.5100     1.7950     0.2270 O.3   1 <1>  -0.6800 
 16 C        1.3080     3.4570    -0.2460 C.3   1 <1>   0.0000 
 17 C       -5.2890    -3.3680    -0.6360 C.2   1 <1>   0.0770 
 18 C       -4.1840    -3.1990    -1.3950 C.2   1 <1>  -0.3020 
 19 H       -2.6050     2.1620    -1.1140 H     1 <1>   0.1000 
 20 H       -4.0530    -1.2070     2.3740 H     1 <1>   0.0800 
 21 H       -2.4620    -1.5960     1.7910 H     1 <1>   0.0800 
 22 H       -4.1250     2.0980     1.2230 H     1 <1>   0.0800 
 23 H       -4.9270     0.8300     2.1050 H     1 <1>   0.0800 
 24 H       -1.5190     2.7960     1.7380 H     1 <1>   0.1000 
 25 H       -2.0860     4.0060     0.5450 H     1 <1>   0.1000 
 26 H       -5.8470    -0.0810    -0.0260 H     1 <1>   0.0800 
 27 H       -4.9920     1.1760    -0.9130 H     1 <1>   0.0800 
 28 H        1.1620     1.2610    -0.3800 H     1 <1>   0.0000 
 29 H        0.8350     1.9000     1.2740 H     1 <1>   0.0000 
 30 H       -0.3570     4.5100    -1.2820 H     1 <1>   0.0000 
 31 H        0.3170     3.1040    -2.1840 H     1 <1>   0.0000 
 32 H       -2.4420    -2.0100    -0.9490 H     1 <1>   0.2700 
 33 H       -7.1430     1.4250     0.8740 H     1 <1>   0.4000 
 34 H        2.2630     3.4130    -0.7370 H     1 <1>   0.0000 
 35 H        1.2600     4.1980     0.5340 H     1 <1>   0.0000 
 36 H       -6.1620    -3.9560    -0.8650 H     1 <1>   0.1500 
 37 H       -3.9410    -3.5980    -2.3630 H     1 <1>   0.1500 
@<TRIPOS>BOND
  1   1   2  2   
  2   2   3  am  
  3   2   4  1   
  4   3   5  1   
  5   3   6  1   
  6   4   7  1   
  7   4   8  1   
  8   4  19  1   
  9   5   9  1   
 10   5  20  1   
 11   5  21  1   
 12   6  10  1   
 13   6  22  1   
 14   6  23  1   
 15   7   8  1   
 16   7  11  1   
 17   7  12  1   
 18   8  24  1   
 19   8  25  1   
 20   9  13  2   
 21   9  14  1   
 22  10  15  1   
 23  10  26  1   
 24  10  27  1   
 25  11  16  1   
 26  11  28  1   
 27  11  29  1   
 28  12  16  1   
 29  12  30  1   
 30  12  31  1   
 31  13  17  1   
 32  14  18  1   
 33  14  32  1   
 34  15  33  1   
 35  16  34  1   
 36  16  35  1   
 37  17  18  2   
 38  17  36  1   
 39  18  37  1   
@<TRIPOS>SUBSTRUCTURE
  1 ****   2 GROUP 4 **** **** 0

# MOE 2024.06 (io_trps.svl 2023.06)
