@<TRIPOS>MOLECULE
NONAME
37 37 1 0 0 
SMALL
USER_CHARGES


@<TRIPOS>ATOM
  1 F        0.2680    -0.2830     0.2750 F     1 <1>  -0.1900 
  2 C        1.2800     0.5210     0.0730 C.ar  1 <1>   0.1900 
  3 C        2.5590    -0.0100    -0.0390 C.ar  1 <1>  -0.1440 
  4 C        1.0110     1.8720    -0.0210 C.ar  1 <1>  -0.1500 
  5 C        3.5940     0.8910    -0.2550 C.ar  1 <1>  -0.1500 
  6 C        2.7670    -1.5260     0.0790 C.3   1 <1>  -0.0160 
  7 C        2.0540     2.7650    -0.2350 C.ar  1 <1>   0.1170 
  8 C        3.3420     2.2500    -0.3520 C.ar  1 <1>  -0.1500 
  9 C        4.2190    -2.0080    -0.0600 C.3   1 <1>  -0.2660 
 10 N        1.8730     4.1530    -0.3500 N.am  1 <1>  -0.5470 
 11 C        4.3030    -3.5070     0.0700 C.2   1 <1>   0.9060 
 12 C        0.8230     4.9700    -0.0660 C.2   1 <1>   0.7800 
 13 O        4.4730    -3.9910     1.1920 O.co2 1 <1>  -0.9000 
 14 O        4.1940    -4.1920    -0.9490 O.co2 1 <1>  -0.9000 
 15 O       -0.2320     4.5870     0.3940 O.2   1 <1>  -0.5700 
 16 O        1.0460     6.2560    -0.3310 O.3   1 <1>  -0.4300 
 17 C        0.1550     7.3350    -0.1390 C.3   1 <1>   0.2800 
 18 C       -1.0930     7.1540    -1.0110 C.3   1 <1>  -0.2400 
 19 C        0.9200     8.5740    -0.6060 C.3   1 <1>  -0.2400 
 20 C       -0.1860     7.4830     1.3490 C.3   1 <1>  -0.2400 
 21 H       -0.0040     2.2050     0.0720 H     1 <1>   0.1500 
 22 H        4.6080     0.5460    -0.3510 H     1 <1>   0.1500 
 23 H        2.1780    -2.0160    -0.6780 H     1 <1>   0.0800 
 24 H        2.3950    -1.8540     1.0350 H     1 <1>   0.0800 
 25 H        4.1660     2.9190    -0.5180 H     1 <1>   0.1500 
 26 H        4.8310    -1.5780     0.7090 H     1 <1>   0.0800 
 27 H        4.6120    -1.7410    -1.0210 H     1 <1>   0.0800 
 28 H        2.6750     4.6800    -0.6830 H     1 <1>   0.3700 
 29 H       -0.8140     6.9830    -2.0340 H     1 <1>   0.0800 
 30 H       -1.7020     8.0380    -0.9670 H     1 <1>   0.0800 
 31 H       -1.6930     6.3320    -0.6650 H     1 <1>   0.0800 
 32 H        1.1900     8.4780    -1.6420 H     1 <1>   0.0800 
 33 H        1.8120     8.7050    -0.0210 H     1 <1>   0.0800 
 34 H        0.3110     9.4530    -0.4950 H     1 <1>   0.0800 
 35 H       -0.7860     6.6610     1.6940 H     1 <1>   0.0800 
 36 H       -0.7520     8.3840     1.5070 H     1 <1>   0.0800 
 37 H        0.7120     7.5380     1.9360 H     1 <1>   0.0800 
@<TRIPOS>BOND
  1   1   2  1   
  2   2   3  ar  
  3   2   4  ar  
  4   3   5  ar  
  5   3   6  1   
  6   4   7  ar  
  7   4  21  1   
  8   5   8  ar  
  9   5  22  1   
 10   6   9  1   
 11   6  23  1   
 12   6  24  1   
 13   7   8  ar  
 14   7  10  1   
 15   8  25  1   
 16   9  11  1   
 17   9  26  1   
 18   9  27  1   
 19  10  12  am  
 20  10  28  1   
 21  11  13  ar  
 22  11  14  ar  
 23  12  15  2   
 24  12  16  1   
 25  16  17  1   
 26  17  18  1   
 27  17  19  1   
 28  17  20  1   
 29  18  29  1   
 30  18  30  1   
 31  18  31  1   
 32  19  32  1   
 33  19  33  1   
 34  19  34  1   
 35  20  35  1   
 36  20  36  1   
 37  20  37  1   
@<TRIPOS>SUBSTRUCTURE
  1 ****   7 GROUP 4 **** **** 0

# MOE 2024.06 (io_trps.svl 2023.06)
