@<TRIPOS>MOLECULE
NONAME
51 52 1 0 0 
SMALL
USER_CHARGES


@<TRIPOS>ATOM
  1 O       -1.9260     0.2790     2.1610 O.2   1 <1>  -0.5700 
  2 C       -2.1040     0.6670     1.0310 C.2   1 <1>   0.5690 
  3 N       -2.3830    -0.1970     0.0060 N.am  1 <1>  -0.6600 
  4 C       -2.0030     2.1670     0.7890 C.3   1 <1>  -0.0990 
  5 C       -2.3570    -1.6820     0.2460 C.3   1 <1>   0.3640 
  6 C       -2.7740     0.2370    -1.3730 C.3   1 <1>   0.1400 
  7 C       -0.6540     2.6060     0.1810 C.3   1 <1>  -0.0800 
  8 C       -1.0070    -2.3040    -0.1590 C.ar  1 <1>  -0.1440 
  9 C       -3.5510    -2.4020    -0.4600 C.3   1 <1>   0.2000 
 10 C       -3.1100    -0.9490    -2.2890 C.3   1 <1>   0.1200 
 11 C        0.5220     2.2540     1.1010 C.3   1 <1>  -0.2400 
 12 C       -0.6640     4.1150    -0.0910 C.3   1 <1>  -0.2400 
 13 C       -0.7790    -3.6360     0.1660 C.ar  1 <1>  -0.1500 
 14 C        0.0020    -1.6050    -0.8170 C.ar  1 <1>  -0.1500 
 15 O       -4.0150    -1.7860    -1.6430 O.3   1 <1>  -0.5600 
 16 C       -4.7610    -2.5140     0.4760 C.3   1 <1>   0.1200 
 17 C        0.4020    -4.2710    -0.1770 C.ar  1 <1>   0.0820 
 18 C        1.1960    -2.2240    -1.1480 C.ar  1 <1>  -0.1500 
 19 O       -4.5150    -3.4600     1.4680 O.3   1 <1>  -0.6800 
 20 O        0.5140    -5.5860     0.1360 O.3   1 <1>  -0.3630 
 21 C        1.4110    -3.5500    -0.8220 C.ar  1 <1>   0.0820 
 22 C        0.6570    -6.4840    -0.9430 C.3   1 <1>   0.0400 
 23 O        2.6150    -4.0860    -1.1380 O.3   1 <1>  -0.3630 
 24 C        3.4490    -4.4150    -0.0480 C.3   1 <1>   0.0400 
 25 H       -2.8120     2.4790     0.1570 H     1 <1>   0.0800 
 26 H       -2.1380     2.6630     1.7330 H     1 <1>   0.0800 
 27 H       -2.4540    -1.8660     1.3030 H     1 <1>   0.0800 
 28 H       -3.6420     0.8700    -1.3100 H     1 <1>   0.0800 
 29 H       -1.9780     0.8040    -1.8180 H     1 <1>   0.0800 
 30 H       -0.5060     2.0980    -0.7560 H     1 <1>   0.0800 
 31 H       -3.2560    -3.3970    -0.7400 H     1 <1>   0.0800 
 32 H       -2.2300    -1.5140    -2.5460 H     1 <1>   0.0800 
 33 H       -3.5710    -0.6000    -3.1960 H     1 <1>   0.0800 
 34 H        0.4020     2.7190     2.0640 H     1 <1>   0.0800 
 35 H        1.4490     2.5880     0.6710 H     1 <1>   0.0800 
 36 H        0.5860     1.1900     1.2460 H     1 <1>   0.0800 
 37 H       -0.7960     4.6640     0.8260 H     1 <1>   0.0800 
 38 H       -1.4640     4.3720    -0.7630 H     1 <1>   0.0800 
 39 H        0.2650     4.4200    -0.5400 H     1 <1>   0.0800 
 40 H       -1.5240    -4.2040     0.6950 H     1 <1>   0.1500 
 41 H       -0.1170    -0.5690    -1.0710 H     1 <1>   0.1500 
 42 H       -5.6360    -2.8220    -0.0680 H     1 <1>   0.0800 
 43 H       -4.9470    -1.5690     0.9570 H     1 <1>   0.0800 
 44 H        1.9710    -1.6760    -1.6520 H     1 <1>   0.1500 
 45 H       -4.6220    -4.3670     1.1180 H     1 <1>   0.4000 
 46 H        0.5720    -7.4850    -0.5610 H     1 <1>   0.0800 
 47 H        1.6220    -6.3480    -1.3960 H     1 <1>   0.0800 
 48 H       -0.1220    -6.2950    -1.6600 H     1 <1>   0.0800 
 49 H        4.3930    -4.7530    -0.4360 H     1 <1>   0.0800 
 50 H        2.9880    -5.1950     0.5300 H     1 <1>   0.0800 
 51 H        3.5910    -3.5370     0.5570 H     1 <1>   0.0800 
@<TRIPOS>BOND
  1   1   2  2   
  2   2   3  am  
  3   2   4  1   
  4   3   5  1   
  5   3   6  1   
  6   4   7  1   
  7   4  25  1   
  8   4  26  1   
  9   5   8  1   
 10   5   9  1   
 11   5  27  1   
 12   6  10  1   
 13   6  28  1   
 14   6  29  1   
 15   7  11  1   
 16   7  12  1   
 17   7  30  1   
 18   8  13  ar  
 19   8  14  ar  
 20   9  15  1   
 21   9  16  1   
 22   9  31  1   
 23  10  15  1   
 24  10  32  1   
 25  10  33  1   
 26  11  34  1   
 27  11  35  1   
 28  11  36  1   
 29  12  37  1   
 30  12  38  1   
 31  12  39  1   
 32  13  17  ar  
 33  13  40  1   
 34  14  18  ar  
 35  14  41  1   
 36  16  19  1   
 37  16  42  1   
 38  16  43  1   
 39  17  20  1   
 40  17  21  ar  
 41  18  21  ar  
 42  18  44  1   
 43  19  45  1   
 44  20  22  1   
 45  21  23  1   
 46  22  46  1   
 47  22  47  1   
 48  22  48  1   
 49  23  24  1   
 50  24  49  1   
 51  24  50  1   
 52  24  51  1   
@<TRIPOS>SUBSTRUCTURE
  1 ****   8 GROUP 4 **** **** 0

# MOE 2024.06 (io_trps.svl 2023.06)
