@<TRIPOS>MOLECULE
NONAME
47 49 1 0 0 
SMALL
USER_CHARGES


@<TRIPOS>ATOM
  1 O        0.1960     1.2130     0.5550 O.2   1 <1>  -0.5700 
  2 C       -0.0540     2.3840     0.3880 C.2   1 <1>   0.5690 
  3 N       -1.1510     2.9880     0.9400 N.am  1 <1>  -0.6600 
  4 C        0.8810     3.2030    -0.4990 C.3   1 <1>   0.1810 
  5 C       -1.4740     4.4270     0.6630 C.3   1 <1>   0.3640 
  6 C       -2.0760     2.2720     1.8660 C.3   1 <1>   0.0600 
  7 O        0.8410     4.5740    -0.1970 O.3   1 <1>  -0.5600 
  8 C       -2.9150     4.5650     0.1370 C.ar  1 <1>  -0.1440 
  9 C       -0.4550     5.1580    -0.2560 C.3   1 <1>   0.2610 
 10 C       -3.4420     3.8570    -0.9500 C.ar  1 <1>  -0.1440 
 11 C       -3.7370     5.4630     0.8080 C.ar  1 <1>  -0.1500 
 12 C       -0.3680     6.6420     0.1270 C.2   1 <1>   0.5690 
 13 C       -4.7630     4.0640    -1.3230 C.ar  1 <1>  -0.1500 
 14 C       -2.6500     2.8420    -1.7660 C.3   1 <1>  -0.0960 
 15 C       -5.0500     5.6620     0.4260 C.ar  1 <1>  -0.1500 
 16 O       -1.3580     7.3340     0.1070 O.2   1 <1>  -0.5700 
 17 N        0.8330     7.1630     0.4850 N.am  1 <1>  -0.7300 
 18 C       -5.5660     4.9590    -0.6420 C.ar  1 <1>  -0.1500 
 19 C        1.1100     8.5790     0.7660 C.3   1 <1>   0.3210 
 20 C        2.4270     8.9350     0.1140 C.2   1 <1>  -0.1810 
 21 C        2.6670     8.9830    -1.2540 C.2   1 <1>   0.1390 
 22 C        3.6090     9.2670     0.6770 C.2   1 <1>  -0.3020 
 23 N        3.8920     9.3150    -1.5260 N.2   1 <1>  -0.7070 
 24 N        4.4750     9.4930    -0.3300 N.pl3 1 <1>   0.3140 
 25 C        5.8850     9.8810    -0.2170 C.3   1 <1>   0.0160 
 26 H        0.6190     3.0680    -1.5320 H     1 <1>   0.0800 
 27 H        1.8910     2.8660    -0.3520 H     1 <1>   0.0800 
 28 H       -1.4270     4.9260     1.6160 H     1 <1>   0.0800 
 29 H       -2.1870     2.8310     2.7780 H     1 <1>   0.0800 
 30 H       -1.6940     1.2950     2.1060 H     1 <1>   0.0800 
 31 H       -3.0420     2.1580     1.4040 H     1 <1>   0.0800 
 32 H       -0.7880     5.1090    -1.2750 H     1 <1>   0.0800 
 33 H       -3.3580     6.0330     1.6390 H     1 <1>   0.1500 
 34 H       -5.1840     3.5240    -2.1520 H     1 <1>   0.1500 
 35 H       -3.1820     2.5660    -2.6580 H     1 <1>   0.0800 
 36 H       -2.4910     1.9480    -1.1890 H     1 <1>   0.0800 
 37 H       -1.7030     3.2430    -2.0670 H     1 <1>   0.0800 
 38 H       -5.6670     6.3650     0.9580 H     1 <1>   0.1500 
 39 H        1.6550     6.5530     0.4360 H     1 <1>   0.3700 
 40 H       -6.5870     5.1080    -0.9450 H     1 <1>   0.1500 
 41 H        0.3220     9.2010     0.3740 H     1 <1>   0.0800 
 42 H        1.1720     8.7260     1.8300 H     1 <1>   0.0800 
 43 H        1.9290     8.7690    -2.0090 H     1 <1>   0.1500 
 44 H        3.8780     9.3530     1.7140 H     1 <1>   0.1500 
 45 H        6.1220    10.0890     0.8090 H     1 <1>   0.0800 
 46 H        6.0520    10.7560    -0.8160 H     1 <1>   0.0800 
 47 H        6.4960     9.0760    -0.5790 H     1 <1>   0.0800 
@<TRIPOS>BOND
  1   1   2  2   
  2   2   3  am  
  3   2   4  1   
  4   3   5  1   
  5   3   6  1   
  6   4   7  1   
  7   4  26  1   
  8   4  27  1   
  9   5   8  1   
 10   5   9  1   
 11   5  28  1   
 12   6  29  1   
 13   6  30  1   
 14   6  31  1   
 15   7   9  1   
 16   8  10  ar  
 17   8  11  ar  
 18   9  12  1   
 19   9  32  1   
 20  10  13  ar  
 21  10  14  1   
 22  11  15  ar  
 23  11  33  1   
 24  12  16  2   
 25  12  17  am  
 26  13  18  ar  
 27  13  34  1   
 28  14  35  1   
 29  14  36  1   
 30  14  37  1   
 31  15  18  ar  
 32  15  38  1   
 33  17  19  1   
 34  17  39  1   
 35  18  40  1   
 36  19  20  1   
 37  19  41  1   
 38  19  42  1   
 39  20  21  1   
 40  20  22  2   
 41  21  23  2   
 42  21  43  1   
 43  22  24  1   
 44  22  44  1   
 45  23  24  1   
 46  24  25  1   
 47  25  45  1   
 48  25  46  1   
 49  25  47  1   
@<TRIPOS>SUBSTRUCTURE
  1 ****   9 GROUP 4 **** **** 0

# MOE 2024.06 (io_trps.svl 2023.06)
