@<TRIPOS>MOLECULE
NONAME
45 48 1 0 0 
SMALL
USER_CHARGES


@<TRIPOS>ATOM
  1 S        0.7190     1.4230     2.9250 S.3   1 <1>  -0.0800 
  2 C        0.2160     1.4600     1.2180 C.2   1 <1>  -0.0450 
  3 C       -0.7930     0.6910     3.4430 C.2   1 <1>  -0.1100 
  4 C       -1.0350     0.9330     1.1320 C.2   1 <1>   0.0620 
  5 C        1.1270     2.0010     0.2520 C.2   1 <1>   0.7150 
  6 C       -1.5920     0.4980     2.3800 C.2   1 <1>   0.0620 
  7 O       -1.7380     0.7960    -0.0140 O.3   1 <1>  -0.3420 
  8 O        2.3110     2.1750     0.5120 O.2   1 <1>  -0.5700 
  9 N        0.7210     2.4560    -0.9830 N.am  1 <1>  -0.6600 
 10 O       -2.8270    -0.0640     2.4380 O.3   1 <1>  -0.3420 
 11 C       -3.1060     0.4360     0.0850 C.3   1 <1>   0.1200 
 12 C        1.5840     2.2530    -2.1970 C.3   1 <1>   0.1400 
 13 C       -0.3020     3.5300    -1.0850 C.3   1 <1>   0.1400 
 14 C       -3.3220    -0.5800     1.2180 C.3   1 <1>   0.1200 
 15 C        2.5410     3.4370    -2.4680 C.3   1 <1>   0.3430 
 16 C        0.2690     4.8660    -0.5760 C.3   1 <1>  -0.1600 
 17 N        2.5860     4.3430    -1.2860 N.4   1 <1>  -0.9590 
 18 C        1.5220     5.3830    -1.2960 C.3   1 <1>   0.3430 
 19 C        3.9270     4.8700    -0.9270 C.3   1 <1>   0.5230 
 20 C        3.8650     5.3560     0.5090 C.2   1 <1>   0.0070 
 21 N        3.8370     6.6080     0.8320 N.2   1 <1>  -0.5650 
 22 N        3.7910     4.5180     1.5720 N.pl3 1 <1>   0.0330 
 23 C        3.7560     6.5920     2.1770 C.2   1 <1>   0.0770 
 24 C        3.7220     5.3260     2.6430 C.2   1 <1>  -0.3020 
 25 H       -0.9260     0.4750     4.4870 H     1 <1>   0.1500 
 26 H       -3.4090     0.0210    -0.8590 H     1 <1>   0.0800 
 27 H       -3.6750     1.3290     0.2760 H     1 <1>   0.0800 
 28 H        0.9620     2.0810    -3.0590 H     1 <1>   0.0800 
 29 H        2.1730     1.3620    -2.0560 H     1 <1>   0.0800 
 30 H       -1.1620     3.2650    -0.4940 H     1 <1>   0.0800 
 31 H       -0.6300     3.6270    -2.1070 H     1 <1>   0.0800 
 32 H       -4.3690    -0.7890     1.3490 H     1 <1>   0.0800 
 33 H       -2.8040    -1.4980     1.0050 H     1 <1>   0.0800 
 34 H        2.2130     3.9810    -3.3390 H     1 <1>   0.0800 
 35 H        3.5220     3.0420    -2.6760 H     1 <1>   0.0800 
 36 H        0.4780     4.7890     0.4770 H     1 <1>   0.0800 
 37 H       -0.4970     5.6140    -0.6750 H     1 <1>   0.0800 
 38 H        2.3410     3.7160    -0.4970 H     1 <1>   0.4500 
 39 H        1.8680     6.2690    -0.7850 H     1 <1>   0.0800 
 40 H        1.2820     5.6570    -2.3110 H     1 <1>   0.0800 
 41 H        4.1950     5.6890    -1.5740 H     1 <1>   0.0800 
 42 H        4.6720     4.0980    -1.0100 H     1 <1>   0.0800 
 43 H        3.7490     3.4880     1.5710 H     1 <1>   0.2700 
 44 H        3.7240     7.5070     2.7490 H     1 <1>   0.1500 
 45 H        3.6540     4.9660     3.6550 H     1 <1>   0.1500 
@<TRIPOS>BOND
  1   1   2  1   
  2   1   3  1   
  3   2   4  2   
  4   2   5  1   
  5   3   6  2   
  6   3  25  1   
  7   4   6  1   
  8   4   7  1   
  9   5   8  2   
 10   5   9  am  
 11   6  10  1   
 12   7  11  1   
 13   9  12  1   
 14   9  13  1   
 15  10  14  1   
 16  11  14  1   
 17  11  26  1   
 18  11  27  1   
 19  12  15  1   
 20  12  28  1   
 21  12  29  1   
 22  13  16  1   
 23  13  30  1   
 24  13  31  1   
 25  14  32  1   
 26  14  33  1   
 27  15  17  1   
 28  15  34  1   
 29  15  35  1   
 30  16  18  1   
 31  16  36  1   
 32  16  37  1   
 33  17  18  1   
 34  17  19  1   
 35  17  38  1   
 36  18  39  1   
 37  18  40  1   
 38  19  20  1   
 39  19  41  1   
 40  19  42  1   
 41  20  21  2   
 42  20  22  1   
 43  21  23  1   
 44  22  24  1   
 45  22  43  1   
 46  23  24  2   
 47  23  44  1   
 48  24  45  1   
@<TRIPOS>SUBSTRUCTURE
  1 ****   5 GROUP 4 **** **** 0

# MOE 2024.06 (io_trps.svl 2023.06)
