@<TRIPOS>MOLECULE
NONAME
45 47 1 0 0 
SMALL
USER_CHARGES


@<TRIPOS>ATOM
  1 S       -1.5700    -0.3090    -0.1890 S.3   1 <1>  -0.4600 
  2 C       -2.8800    -1.4710    -0.7190 C.3   1 <1>   0.1310 
  3 C       -0.6880     0.0600    -1.7280 C.3   1 <1>  -0.0100 
  4 C       -3.6400    -2.0570     0.4690 C.2   1 <1>   0.5690 
  5 O       -3.4800    -3.2350     0.6990 O.2   1 <1>  -0.5700 
  6 N       -4.5140    -1.3010     1.2100 N.am  1 <1>  -0.6600 
  7 C       -5.2960    -1.9200     2.3190 C.3   1 <1>   0.1400 
  8 C       -4.8840     0.1090     0.9130 C.3   1 <1>   0.1400 
  9 C       -6.5440    -2.6620     1.8070 C.3   1 <1>   0.1400 
 10 C       -6.1660     0.1840     0.0740 C.3   1 <1>  -0.1600 
 11 N       -7.1930    -2.0150     0.6160 N.am  1 <1>  -0.6600 
 12 C       -7.3760    -0.5380     0.6850 C.3   1 <1>   0.1400 
 13 C       -7.5410    -2.7140    -0.5230 C.2   1 <1>   0.5440 
 14 O       -8.0090    -2.1080    -1.4690 O.2   1 <1>  -0.5700 
 15 C       -7.3760    -4.1470    -0.6230 C.ar  1 <1>   0.0860 
 16 C       -8.4740    -5.0300    -0.4860 C.ar  1 <1>   0.0000 
 17 C       -6.1490    -4.7170    -0.8400 C.ar  1 <1>  -0.1500 
 18 C       -8.2230    -6.4190    -0.5530 C.ar  1 <1>   0.3100 
 19 C       -9.8030    -4.5990    -0.2820 C.ar  1 <1>  -0.1500 
 20 C       -6.0060    -6.1030    -0.8930 C.ar  1 <1>   0.1600 
 21 N       -6.9870    -6.9390    -0.7540 N.ar  1 <1>  -0.6200 
 22 C       -9.2990    -7.3080    -0.4030 C.ar  1 <1>  -0.1500 
 23 C      -10.8310    -5.4910    -0.1400 C.ar  1 <1>  -0.1500 
 24 C      -10.5780    -6.8640    -0.2000 C.ar  1 <1>  -0.1500 
 25 H       -2.3960    -2.2590    -1.2640 H     1 <1>   0.0800 
 26 H       -3.5460    -0.9370    -1.3700 H     1 <1>   0.0800 
 27 H        0.1050     0.7480    -1.4930 H     1 <1>   0.0800 
 28 H       -1.3850     0.5010    -2.4170 H     1 <1>   0.0800 
 29 H       -0.2900    -0.8620    -2.1140 H     1 <1>   0.0800 
 30 H       -5.5950    -1.1600     3.0190 H     1 <1>   0.0800 
 31 H       -4.6710    -2.6140     2.8560 H     1 <1>   0.0800 
 32 H       -4.0870     0.6050     0.3890 H     1 <1>   0.0800 
 33 H       -5.0250     0.6390     1.8390 H     1 <1>   0.0800 
 34 H       -7.2620    -2.7320     2.6040 H     1 <1>   0.0800 
 35 H       -6.2420    -3.6660     1.5700 H     1 <1>   0.0800 
 36 H       -5.9820    -0.2050    -0.9110 H     1 <1>   0.0800 
 37 H       -6.4220     1.2210    -0.0420 H     1 <1>   0.0800 
 38 H       -8.2610    -0.2680     0.1330 H     1 <1>   0.0800 
 39 H       -7.5240    -0.2310     1.7060 H     1 <1>   0.0800 
 40 H       -5.2770    -4.1020    -0.9630 H     1 <1>   0.1500 
 41 H      -10.0110    -3.5430    -0.2420 H     1 <1>   0.1500 
 42 H       -5.0180    -6.5020    -1.0560 H     1 <1>   0.1500 
 43 H       -9.0820    -8.3590    -0.4550 H     1 <1>   0.1500 
 44 H      -11.8400    -5.1500     0.0140 H     1 <1>   0.1500 
 45 H      -11.3940    -7.5570    -0.0870 H     1 <1>   0.1500 
@<TRIPOS>BOND
  1   1   2  1   
  2   1   3  1   
  3   2   4  1   
  4   2  25  1   
  5   2  26  1   
  6   3  27  1   
  7   3  28  1   
  8   3  29  1   
  9   4   5  2   
 10   4   6  am  
 11   6   7  1   
 12   6   8  1   
 13   7   9  1   
 14   7  30  1   
 15   7  31  1   
 16   8  10  1   
 17   8  32  1   
 18   8  33  1   
 19   9  11  1   
 20   9  34  1   
 21   9  35  1   
 22  10  12  1   
 23  10  36  1   
 24  10  37  1   
 25  11  12  1   
 26  11  13  am  
 27  12  38  1   
 28  12  39  1   
 29  13  14  2   
 30  13  15  1   
 31  15  16  ar  
 32  15  17  ar  
 33  16  18  ar  
 34  16  19  ar  
 35  17  20  ar  
 36  17  40  1   
 37  18  21  ar  
 38  18  22  ar  
 39  19  23  ar  
 40  19  41  1   
 41  20  21  ar  
 42  20  42  1   
 43  22  24  ar  
 44  22  43  1   
 45  23  24  ar  
 46  23  44  1   
 47  24  45  1   
@<TRIPOS>SUBSTRUCTURE
  1 ****  13 GROUP 4 **** **** 0

# MOE 2024.06 (io_trps.svl 2023.06)
