@<TRIPOS>MOLECULE
NONAME
41 43 1 0 0 
SMALL
USER_CHARGES


@<TRIPOS>ATOM
  1 F       -1.3500    -1.2610     1.8920 F     1 <1>  -0.3400 
  2 C       -1.1610    -1.4650     0.5890 C.3   1 <1>   1.2010 
  3 F        0.1580    -1.5350     0.4180 F     1 <1>  -0.3400 
  4 F       -1.5410    -0.3370    -0.0100 F     1 <1>  -0.3400 
  5 C       -1.9030    -2.7290     0.0580 C.2   1 <1>   0.3350 
  6 N       -2.7980    -2.7310    -0.8620 N.2   1 <1>  -0.4100 
  7 N       -1.6650    -3.9630     0.5270 N.2   1 <1>  -0.5650 
  8 O       -3.1920    -3.9550    -1.0310 O.3   1 <1>  -0.0190 
  9 C       -2.4880    -4.6440    -0.1690 C.2   1 <1>   0.2980 
 10 C       -2.6890    -6.1570    -0.0950 C.3   1 <1>   0.2900 
 11 N       -4.0000    -6.5570     0.4670 N.3   1 <1>  -0.8100 
 12 C       -5.1620    -6.1880    -0.3700 C.3   1 <1>   0.1100 
 13 C       -4.1020    -7.9950     0.7550 C.3   1 <1>   0.1100 
 14 C       -6.1140    -7.3910    -0.3890 C.3   1 <1>   0.2000 
 15 C       -5.1570    -8.5620    -0.1970 C.3   1 <1>  -0.0800 
 16 O       -7.0010    -7.3450     0.6930 O.3   1 <1>  -0.5600 
 17 C       -5.8180    -9.8520     0.3220 C.3   1 <1>   0.0200 
 18 C       -8.1160    -6.5290     0.5180 C.3   1 <1>   0.0400 
 19 C       -4.8690   -11.0390     0.3470 C.2   1 <1>  -0.0400 
 20 O       -5.2640   -12.1470     0.9140 O.3   1 <1>  -0.0190 
 21 C       -3.6230   -11.2410    -0.1140 C.2   1 <1>  -0.1500 
 22 N       -4.3530   -13.0760     0.8610 N.2   1 <1>  -0.4100 
 23 C       -3.3520   -12.5570     0.2470 C.2   1 <1>   0.1080 
 24 C       -2.0610   -13.2900    -0.0410 C.3   1 <1>  -0.0590 
 25 H       -1.9120    -6.5530     0.5360 H     1 <1>   0.0800 
 26 H       -2.5670    -6.5800    -1.0760 H     1 <1>   0.0800 
 27 H       -5.6360    -5.3020     0.0120 H     1 <1>   0.0800 
 28 H       -4.8390    -6.0020    -1.3800 H     1 <1>   0.0800 
 29 H       -3.1570    -8.5010     0.6580 H     1 <1>   0.0800 
 30 H       -4.4460    -8.1030     1.7710 H     1 <1>   0.0800 
 31 H       -6.6750    -7.4690    -1.3050 H     1 <1>   0.0800 
 32 H       -4.6870    -8.7640    -1.1420 H     1 <1>   0.0800 
 33 H       -6.6570   -10.1010    -0.3040 H     1 <1>   0.0800 
 34 H       -6.1930    -9.6920     1.3180 H     1 <1>   0.0800 
 35 H       -8.7200    -6.5970     1.4050 H     1 <1>   0.0800 
 36 H       -8.6810    -6.8740    -0.3310 H     1 <1>   0.0800 
 37 H       -7.8010    -5.5100     0.3770 H     1 <1>   0.0800 
 38 H       -2.9600   -10.5810    -0.6410 H     1 <1>   0.1500 
 39 H       -1.2270   -12.7200     0.3250 H     1 <1>   0.0800 
 40 H       -1.9550   -13.4380    -1.1000 H     1 <1>   0.0800 
 41 H       -2.0680   -14.2490     0.4450 H     1 <1>   0.0800 
@<TRIPOS>BOND
  1   1   2  1   
  2   2   3  1   
  3   2   4  1   
  4   2   5  1   
  5   5   6  2   
  6   5   7  1   
  7   6   8  1   
  8   7   9  2   
  9   8   9  1   
 10   9  10  1   
 11  10  11  1   
 12  10  25  1   
 13  10  26  1   
 14  11  12  1   
 15  11  13  1   
 16  12  14  1   
 17  12  27  1   
 18  12  28  1   
 19  13  15  1   
 20  13  29  1   
 21  13  30  1   
 22  14  15  1   
 23  14  16  1   
 24  14  31  1   
 25  15  17  1   
 26  15  32  1   
 27  16  18  1   
 28  17  19  1   
 29  17  33  1   
 30  17  34  1   
 31  18  35  1   
 32  18  36  1   
 33  18  37  1   
 34  19  20  1   
 35  19  21  2   
 36  20  22  1   
 37  21  23  1   
 38  21  38  1   
 39  22  23  2   
 40  23  24  1   
 41  24  39  1   
 42  24  40  1   
 43  24  41  1   
@<TRIPOS>SUBSTRUCTURE
  1 ****  11 GROUP 4 **** **** 0

# MOE 2024.06 (io_trps.svl 2023.06)
