@<TRIPOS>MOLECULE
NONAME
49 51 1 0 0 
SMALL
USER_CHARGES


@<TRIPOS>ATOM
  1 O       -1.8150     0.8960     2.8130 O.2   1 <1>  -0.5700 
  2 C       -2.0350     1.3990     1.7230 C.2   1 <1>   0.7670 
  3 N       -1.8860     2.7540     1.5810 N.2   1 <1>  -0.6610 
  4 C       -2.4380     0.6000     0.6220 C.2   1 <1>  -0.1360 
  5 C       -2.1240     3.2680     0.4300 C.2   1 <1>   0.4390 
  6 C       -2.6790     1.1770    -0.5750 C.2   1 <1>  -0.0380 
  7 N       -2.5150     2.5320    -0.6530 N.pl3 1 <1>  -0.5500 
  8 C       -1.9840     4.7620     0.2010 C.3   1 <1>  -0.0990 
  9 C       -3.1140     0.4370    -1.8240 C.3   1 <1>  -0.1020 
 10 C       -1.4070     5.5010     1.4090 C.3   1 <1>   0.2090 
 11 N       -1.2770     6.9470     1.0810 N.pl3 1 <1>  -0.8690 
 12 C       -0.1840     7.5570     0.5730 C.ar  1 <1>   0.4100 
 13 N        0.8390     6.7900     0.2570 N.ar  1 <1>  -0.6200 
 14 C       -0.1550     8.9600     0.3940 C.ar  1 <1>  -0.1430 
 15 C        1.9360     7.3610    -0.2110 C.ar  1 <1>   0.7710 
 16 C        0.9870     9.5190    -0.0880 C.ar  1 <1>   0.2180 
 17 C       -1.3760     9.8130     0.7480 C.3   1 <1>  -0.0170 
 18 N        2.0140     8.6890    -0.3870 N.ar  1 <1>  -0.1790 
 19 N        3.0140     6.5870    -0.5250 N.pl3 1 <1>  -0.8380 
 20 C        1.1730    11.0160    -0.3180 C.3   1 <1>  -0.0170 
 21 C       -1.2940    11.2320     0.1660 C.3   1 <1>  -0.1600 
 22 C        4.3880     7.0560    -0.8940 C.3   1 <1>   0.1290 
 23 C        2.9380     5.0890    -0.4430 C.3   1 <1>   0.1290 
 24 C        0.0920    11.8440     0.3910 C.3   1 <1>  -0.1600 
 25 H       -2.5340    -0.4520     0.8020 H     1 <1>   0.1500 
 26 H       -2.6890     3.0170    -1.5370 H     1 <1>   0.4000 
 27 H       -2.9520     5.1650    -0.0280 H     1 <1>   0.0800 
 28 H       -1.3310     4.9180    -0.6370 H     1 <1>   0.0800 
 29 H       -4.0690     0.8020    -2.1560 H     1 <1>   0.0800 
 30 H       -3.2020    -0.6160    -1.6250 H     1 <1>   0.0800 
 31 H       -2.3920     0.5770    -2.6070 H     1 <1>   0.0800 
 32 H       -0.4440     5.0890     1.6650 H     1 <1>   0.0800 
 33 H       -2.0530     5.3810     2.2630 H     1 <1>   0.0800 
 34 H       -2.0920     7.5010     1.3520 H     1 <1>   0.4000 
 35 H       -1.4540     9.8730     1.8200 H     1 <1>   0.0800 
 36 H       -2.2730     9.3490     0.3760 H     1 <1>   0.0800 
 37 H        2.8850     9.0200    -0.7730 H     1 <1>   0.4570 
 38 H        1.1260    11.2120    -1.3750 H     1 <1>   0.0800 
 39 H        2.1370    11.3330     0.0400 H     1 <1>   0.0800 
 40 H       -2.0450    11.8510     0.6280 H     1 <1>   0.0800 
 41 H       -1.5050    11.1990    -0.8900 H     1 <1>   0.0800 
 42 H        4.5490     8.0850    -0.6320 H     1 <1>   0.0800 
 43 H        4.5450     6.9280    -1.9530 H     1 <1>   0.0800 
 44 H        5.1240     6.4680    -0.3700 H     1 <1>   0.0800 
 45 H        1.9280     4.7370    -0.5700 H     1 <1>   0.0800 
 46 H        3.2970     4.7580     0.5170 H     1 <1>   0.0800 
 47 H        3.5400     4.6410    -1.2150 H     1 <1>   0.0800 
 48 H        0.1090    12.8550     0.0210 H     1 <1>   0.0800 
 49 H        0.2960    11.8780     1.4480 H     1 <1>   0.0800 
@<TRIPOS>BOND
  1   1   2  2   
  2   2   3  1   
  3   2   4  1   
  4   3   5  2   
  5   4   6  2   
  6   4  25  1   
  7   5   7  1   
  8   5   8  1   
  9   6   7  1   
 10   6   9  1   
 11   7  26  1   
 12   8  10  1   
 13   8  27  1   
 14   8  28  1   
 15   9  29  1   
 16   9  30  1   
 17   9  31  1   
 18  10  11  1   
 19  10  32  1   
 20  10  33  1   
 21  11  12  1   
 22  11  34  1   
 23  12  13  ar  
 24  12  14  ar  
 25  13  15  ar  
 26  14  16  ar  
 27  14  17  1   
 28  15  18  ar  
 29  15  19  1   
 30  16  18  ar  
 31  16  20  1   
 32  17  21  1   
 33  17  35  1   
 34  17  36  1   
 35  18  37  1   
 36  19  22  1   
 37  19  23  1   
 38  20  24  1   
 39  20  38  1   
 40  20  39  1   
 41  21  24  1   
 42  21  40  1   
 43  21  41  1   
 44  22  42  1   
 45  22  43  1   
 46  22  44  1   
 47  23  45  1   
 48  23  46  1   
 49  23  47  1   
 50  24  48  1   
 51  24  49  1   
@<TRIPOS>SUBSTRUCTURE
  1 ****  13 GROUP 4 **** **** 0

# MOE 2024.06 (io_trps.svl 2023.06)
