@<TRIPOS>MOLECULE
NONAME
50 52 1 0 0 
SMALL
USER_CHARGES


@<TRIPOS>ATOM
  1 S        0.8130     0.8500    -1.0020 S.o2  1 <1>   1.3330 
  2 O        1.0320    -0.5420    -1.3240 O.2   1 <1>  -0.6500 
  3 O        0.6470     1.8000    -2.0790 O.2   1 <1>  -0.6500 
  4 N        2.0970     1.3500    -0.0140 N.am  1 <1>  -0.8490 
  5 C       -0.6330     0.9450     0.0690 C.3   1 <1>  -0.0550 
  6 C        2.6870     0.2790     0.7930 C.3   1 <1>   0.1160 
  7 C        3.1480     2.0670    -0.7430 C.3   1 <1>   0.1160 
  8 C       -1.0600     2.3100     0.6660 C.3   1 <1>  -0.0800 
  9 C       -1.2430     3.4360    -0.3640 C.3   1 <1>   0.2000 
 10 C       -0.0990     2.8760     1.7250 C.3   1 <1>   0.1400 
 11 O       -2.3390     4.1850     0.0340 O.3   1 <1>  -0.6800 
 12 C       -0.0010     4.3180    -0.2320 C.3   1 <1>   0.1400 
 13 N        0.4180     4.1510     1.1790 N.am  1 <1>  -0.6600 
 14 C        1.1940     5.0200     1.9110 C.2   1 <1>   0.6160 
 15 O        1.3940     4.7600     3.0840 O.2   1 <1>  -0.5700 
 16 C        1.6840     6.2610     1.3760 C.2   1 <1>   0.0290 
 17 C        2.6360     6.2300     0.3040 C.2   1 <1>   0.6160 
 18 C        1.2750     7.4620     1.8720 C.2   1 <1>  -0.1780 
 19 O        3.0780     5.1750    -0.1250 O.2   1 <1>  -0.5700 
 20 N        3.0660     7.4300    -0.2590 N.am  1 <1>  -0.4770 
 21 C        1.7420     8.6940     1.3370 C.ar  1 <1>   0.0280 
 22 C        2.6470     8.6710     0.2590 C.ar  1 <1>   0.1170 
 23 C        4.0050     7.3970    -1.4230 C.3   1 <1>   0.0600 
 24 C        1.3200     9.9190     1.8600 C.ar  1 <1>  -0.1500 
 25 C        3.0940     9.8970    -0.2510 C.ar  1 <1>  -0.1500 
 26 C        1.7750    11.1080     1.3380 C.ar  1 <1>  -0.1500 
 27 C        2.6670    11.0960     0.2770 C.ar  1 <1>  -0.1500 
 28 H       -1.4670     0.5760    -0.4970 H     1 <1>   0.0800 
 29 H       -0.4930     0.2590     0.8810 H     1 <1>   0.0800 
 30 H        3.4150     0.6880     1.4720 H     1 <1>   0.0800 
 31 H        3.1670    -0.4480     0.1580 H     1 <1>   0.0800 
 32 H        1.9230    -0.2160     1.3680 H     1 <1>   0.0800 
 33 H        3.8840     2.4470    -0.0560 H     1 <1>   0.0800 
 34 H        2.7310     2.9050    -1.2740 H     1 <1>   0.0800 
 35 H        3.6240     1.4130    -1.4540 H     1 <1>   0.0800 
 36 H       -2.0030     2.1230     1.1510 H     1 <1>   0.0800 
 37 H       -1.4180     3.0950    -1.3700 H     1 <1>   0.0800 
 38 H        0.7190     2.2110     1.9410 H     1 <1>   0.0800 
 39 H       -0.6260     3.0760     2.6430 H     1 <1>   0.0800 
 40 H       -2.1320     4.6120     0.8890 H     1 <1>   0.4000 
 41 H       -0.2150     5.3440    -0.4740 H     1 <1>   0.0800 
 42 H        0.7840     3.9600    -0.8730 H     1 <1>   0.0800 
 43 H        0.5810     7.5030     2.6930 H     1 <1>   0.1500 
 44 H        3.5860     7.9560    -2.2410 H     1 <1>   0.0800 
 45 H        4.1850     6.3940    -1.7670 H     1 <1>   0.0800 
 46 H        4.9470     7.8310    -1.1370 H     1 <1>   0.0800 
 47 H        0.6300     9.9280     2.6850 H     1 <1>   0.1500 
 48 H        3.7870     9.9260    -1.0700 H     1 <1>   0.1500 
 49 H        1.4440    12.0470     1.7480 H     1 <1>   0.1500 
 50 H        3.0220    12.0270    -0.1300 H     1 <1>   0.1500 
@<TRIPOS>BOND
  1   1   2  2   
  2   1   3  2   
  3   1   4  am  
  4   1   5  1   
  5   4   6  1   
  6   4   7  1   
  7   5   8  1   
  8   5  28  1   
  9   5  29  1   
 10   6  30  1   
 11   6  31  1   
 12   6  32  1   
 13   7  33  1   
 14   7  34  1   
 15   7  35  1   
 16   8   9  1   
 17   8  10  1   
 18   8  36  1   
 19   9  11  1   
 20   9  12  1   
 21   9  37  1   
 22  10  13  1   
 23  10  38  1   
 24  10  39  1   
 25  11  40  1   
 26  12  13  1   
 27  12  41  1   
 28  12  42  1   
 29  13  14  am  
 30  14  15  2   
 31  14  16  1   
 32  16  17  1   
 33  16  18  2   
 34  17  19  2   
 35  17  20  am  
 36  18  21  1   
 37  18  43  1   
 38  20  22  1   
 39  20  23  1   
 40  21  22  ar  
 41  21  24  ar  
 42  22  25  ar  
 43  23  44  1   
 44  23  45  1   
 45  23  46  1   
 46  24  26  ar  
 47  24  47  1   
 48  25  27  ar  
 49  25  48  1   
 50  26  27  ar  
 51  26  49  1   
 52  27  50  1   
@<TRIPOS>SUBSTRUCTURE
  1 ****  14 GROUP 4 **** **** 0

# MOE 2024.06 (io_trps.svl 2023.06)
