@<TRIPOS>MOLECULE
NONAME
47 49 1 0 0 
SMALL
USER_CHARGES


@<TRIPOS>ATOM
  1 CL      -1.2960     0.5630     1.9060 Cl    1 <1>  -0.1770 
  2 C       -1.8540     1.0760     0.3160 C.ar  1 <1>   0.1770 
  3 C       -1.3980     2.3010    -0.2510 C.ar  1 <1>   0.4100 
  4 C       -2.7620     0.3180    -0.3600 C.ar  1 <1>   0.2170 
  5 N       -1.8890     2.7390    -1.4010 N.ar  1 <1>  -0.6200 
  6 N       -0.4480     3.0910     0.3280 N.pl3 1 <1>  -0.8380 
  7 N       -3.2000     0.8040    -1.5500 N.ar  1 <1>  -0.1790 
  8 C       -3.3380    -1.0140     0.1090 C.3   1 <1>  -0.0970 
  9 C       -2.7700     1.9860    -2.0260 C.ar  1 <1>   0.7710 
 10 C        0.8170     2.5680     0.9120 C.3   1 <1>   0.2090 
 11 C       -0.6060     4.5690     0.4190 C.3   1 <1>   0.2090 
 12 N       -3.2380     2.4480    -3.1810 N.pl3 1 <1>  -0.9000 
 13 C        2.0110     3.2530     0.2410 C.3   1 <1>  -0.1600 
 14 C        0.5820     5.2630    -0.2530 C.3   1 <1>  -0.1600 
 15 C        1.9290     4.7880     0.3310 C.3   1 <1>  -0.0800 
 16 C        3.1390     5.4050    -0.3940 C.3   1 <1>   0.3430 
 17 N        3.1650     6.8930    -0.2820 N.4   1 <1>  -0.9590 
 18 C        4.2000     7.5120    -1.1450 C.3   1 <1>   0.3430 
 19 C        3.4260     7.4010     1.0880 C.3   1 <1>   0.3430 
 20 C        4.3840     8.9090    -0.5700 C.3   1 <1>  -0.1600 
 21 C        3.8880     8.8360     0.8770 C.3   1 <1>  -0.1600 
 22 H       -3.8780     0.3010    -2.1150 H     1 <1>   0.4570 
 23 H       -2.9140    -1.3250     1.0470 H     1 <1>   0.0800 
 24 H       -3.1340    -1.7850    -0.6120 H     1 <1>   0.0800 
 25 H       -4.4030    -0.9350     0.2430 H     1 <1>   0.0800 
 26 H        0.8950     1.5060     0.7520 H     1 <1>   0.0800 
 27 H        0.8250     2.7540     1.9730 H     1 <1>   0.0800 
 28 H       -0.6570     4.8510     1.4580 H     1 <1>   0.0800 
 29 H       -1.5250     4.8810    -0.0500 H     1 <1>   0.0800 
 30 H       -3.9190     2.0290    -3.8180 H     1 <1>   0.4000 
 31 H       -2.8820     3.3530    -3.5060 H     1 <1>   0.4000 
 32 H        2.0390     2.9420    -0.7890 H     1 <1>   0.0800 
 33 H        2.9130     2.9030     0.7130 H     1 <1>   0.0800 
 34 H        0.4640     6.3230    -0.1220 H     1 <1>   0.0800 
 35 H        0.5390     5.0510    -1.3080 H     1 <1>   0.0800 
 36 H        1.9720     5.0510     1.3740 H     1 <1>   0.0800 
 37 H        3.0920     5.1250    -1.4350 H     1 <1>   0.0800 
 38 H        4.0480     4.9960     0.0170 H     1 <1>   0.0800 
 39 H        2.2550     7.2640    -0.5860 H     1 <1>   0.4500 
 40 H        3.8960     7.5420    -2.1800 H     1 <1>   0.0800 
 41 H        5.1250     6.9630    -1.0580 H     1 <1>   0.0800 
 42 H        4.2210     6.8310     1.5430 H     1 <1>   0.0800 
 43 H        2.5470     7.3520     1.7100 H     1 <1>   0.0800 
 44 H        3.7980     9.6160    -1.1330 H     1 <1>   0.0800 
 45 H        5.4180     9.2050    -0.6250 H     1 <1>   0.0800 
 46 H        4.6650     9.0870     1.5800 H     1 <1>   0.0800 
 47 H        3.0630     9.5110     1.0270 H     1 <1>   0.0800 
@<TRIPOS>BOND
  1   1   2  1   
  2   2   3  ar  
  3   2   4  ar  
  4   3   5  ar  
  5   3   6  1   
  6   4   7  ar  
  7   4   8  1   
  8   5   9  ar  
  9   6  10  1   
 10   6  11  1   
 11   7   9  ar  
 12   7  22  1   
 13   8  23  1   
 14   8  24  1   
 15   8  25  1   
 16   9  12  1   
 17  10  13  1   
 18  10  26  1   
 19  10  27  1   
 20  11  14  1   
 21  11  28  1   
 22  11  29  1   
 23  12  30  1   
 24  12  31  1   
 25  13  15  1   
 26  13  32  1   
 27  13  33  1   
 28  14  15  1   
 29  14  34  1   
 30  14  35  1   
 31  15  16  1   
 32  15  36  1   
 33  16  17  1   
 34  16  37  1   
 35  16  38  1   
 36  17  18  1   
 37  17  19  1   
 38  17  39  1   
 39  18  20  1   
 40  18  40  1   
 41  18  41  1   
 42  19  21  1   
 43  19  42  1   
 44  19  43  1   
 45  20  21  1   
 46  20  44  1   
 47  20  45  1   
 48  21  46  1   
 49  21  47  1   
@<TRIPOS>SUBSTRUCTURE
  1 ****   6 GROUP 4 **** **** 0

# MOE 2024.06 (io_trps.svl 2023.06)
