@<TRIPOS>MOLECULE
NONAME
49 51 1 0 0 
SMALL
USER_CHARGES


@<TRIPOS>ATOM
  1 O       -3.6420     2.0270    -1.9360 O.2   1 <1>  -0.5700 
  2 C       -2.5240     2.0670    -1.4810 C.2   1 <1>   0.5690 
  3 N       -2.1720     1.7350    -0.2200 N.am  1 <1>  -0.6600 
  4 C       -1.3200     2.4760    -2.2810 C.3   1 <1>  -0.0990 
  5 C       -0.7240     1.8310     0.0190 C.3   1 <1>   0.1400 
  6 C       -3.1000     1.2430     0.8170 C.3   1 <1>   0.1400 
  7 C       -0.1880     2.5300    -1.2390 C.3   1 <1>  -0.1600 
  8 C       -3.1520    -0.2830     0.7590 C.3   1 <1>  -0.1600 
  9 C       -4.2480    -0.8430     1.6780 C.3   1 <1>  -0.0990 
 10 C       -4.3560    -2.3530     1.5600 C.2   1 <1>   0.5690 
 11 O       -3.7620    -3.0220     2.3700 O.2   1 <1>  -0.5700 
 12 N       -5.0980    -2.9190     0.5590 N.am  1 <1>  -0.6600 
 13 C       -5.8950    -2.2080    -0.4730 C.3   1 <1>   0.1400 
 14 C       -5.2000    -4.3860     0.3780 C.3   1 <1>   0.1400 
 15 C       -6.5190    -3.3120    -1.3300 C.3   1 <1>   0.2000 
 16 C       -6.4390    -4.5900    -0.4950 C.3   1 <1>  -0.0800 
 17 O       -7.8430    -3.0330    -1.6340 O.3   1 <1>  -0.6800 
 18 C       -6.3970    -5.8590    -1.3630 C.3   1 <1>  -0.0170 
 19 C       -6.3320    -7.1180    -0.5170 C.ar  1 <1>   0.1670 
 20 N       -5.1280    -7.4930    -0.1130 N.ar  1 <1>  -0.6200 
 21 C       -7.5000    -7.8000    -0.2100 C.ar  1 <1>  -0.1500 
 22 C       -5.0870    -8.5870     0.6300 C.ar  1 <1>   0.1600 
 23 C       -7.4420    -8.9400     0.5640 C.ar  1 <1>  -0.1500 
 24 C       -6.1940    -9.3360     0.9910 C.ar  1 <1>  -0.1500 
 25 H       -1.1280     1.7280    -3.0280 H     1 <1>   0.0800 
 26 H       -1.4840     3.4300    -2.7470 H     1 <1>   0.0800 
 27 H       -0.5210     2.4070     0.9060 H     1 <1>   0.0800 
 28 H       -0.3100     0.8420     0.1180 H     1 <1>   0.0800 
 29 H       -2.7780     1.5790     1.7870 H     1 <1>   0.0800 
 30 H       -4.0800     1.6480     0.6220 H     1 <1>   0.0800 
 31 H        0.0350     3.5550    -0.9990 H     1 <1>   0.0800 
 32 H        0.7100     2.0570    -1.5960 H     1 <1>   0.0800 
 33 H       -3.3510    -0.5850    -0.2540 H     1 <1>   0.0800 
 34 H       -2.2000    -0.6910     1.0540 H     1 <1>   0.0800 
 35 H       -5.1960    -0.3960     1.4470 H     1 <1>   0.0800 
 36 H       -4.0160    -0.6010     2.7000 H     1 <1>   0.0800 
 37 H       -6.6560    -1.6160     0.0040 H     1 <1>   0.0800 
 38 H       -5.2600    -1.5820    -1.0750 H     1 <1>   0.0800 
 39 H       -4.3140    -4.7410    -0.1210 H     1 <1>   0.0800 
 40 H       -5.2950    -4.8910     1.3250 H     1 <1>   0.0800 
 41 H       -5.9710    -3.4090    -2.2520 H     1 <1>   0.0800 
 42 H       -7.2850    -4.6410     0.1680 H     1 <1>   0.0800 
 43 H       -8.3670    -2.9500    -0.8140 H     1 <1>   0.4000 
 44 H       -5.5400    -5.8320    -2.0140 H     1 <1>   0.0800 
 45 H       -7.2730    -5.8900    -1.9850 H     1 <1>   0.0800 
 46 H       -8.4480    -7.4440    -0.5700 H     1 <1>   0.1500 
 47 H       -4.1160    -8.9050     0.9700 H     1 <1>   0.1500 
 48 H       -8.3290    -9.4940     0.8210 H     1 <1>   0.1500 
 49 H       -6.0760   -10.2150     1.5980 H     1 <1>   0.1500 
@<TRIPOS>BOND
  1   1   2  2   
  2   2   3  am  
  3   2   4  1   
  4   3   5  1   
  5   3   6  1   
  6   4   7  1   
  7   4  25  1   
  8   4  26  1   
  9   5   7  1   
 10   5  27  1   
 11   5  28  1   
 12   6   8  1   
 13   6  29  1   
 14   6  30  1   
 15   7  31  1   
 16   7  32  1   
 17   8   9  1   
 18   8  33  1   
 19   8  34  1   
 20   9  10  1   
 21   9  35  1   
 22   9  36  1   
 23  10  11  2   
 24  10  12  am  
 25  12  13  1   
 26  12  14  1   
 27  13  15  1   
 28  13  37  1   
 29  13  38  1   
 30  14  16  1   
 31  14  39  1   
 32  14  40  1   
 33  15  16  1   
 34  15  17  1   
 35  15  41  1   
 36  16  18  1   
 37  16  42  1   
 38  17  43  1   
 39  18  19  1   
 40  18  44  1   
 41  18  45  1   
 42  19  20  ar  
 43  19  21  ar  
 44  20  22  ar  
 45  21  23  ar  
 46  21  46  1   
 47  22  24  ar  
 48  22  47  1   
 49  23  24  ar  
 50  23  48  1   
 51  24  49  1   
@<TRIPOS>SUBSTRUCTURE
  1 ****  12 GROUP 4 **** **** 0

# MOE 2024.06 (io_trps.svl 2023.06)
