@<TRIPOS>MOLECULE
NONAME
48 51 1 0 0 
SMALL
USER_CHARGES


@<TRIPOS>ATOM
  1 S        3.4950    -1.6440     0.4540 S.3   1 <1>  -0.0800 
  2 C        1.7720    -1.4880     0.2340 C.2   1 <1>   0.1980 
  3 C        3.6340     0.0820     0.3170 C.2   1 <1>  -0.1100 
  4 N        1.3670    -0.2900     0.0760 N.2   1 <1>  -0.5650 
  5 C        0.9460    -2.7680     0.2600 C.3   1 <1>   0.5230 
  6 C        2.4170     0.6330     0.1240 C.2   1 <1>   0.1730 
  7 N       -0.4900    -2.4640    -0.0640 N.4   1 <1>  -0.9590 
  8 C        2.1290     2.0490    -0.0240 C.ar  1 <1>   0.0540 
  9 C       -0.6770    -2.1410    -1.5190 C.3   1 <1>   0.3430 
 10 C       -1.3780    -3.6150     0.2620 C.3   1 <1>   0.3430 
 11 C        1.0300     2.5000    -0.7530 C.ar  1 <1>  -0.1500 
 12 C        2.9490     3.0140     0.5610 C.ar  1 <1>  -0.1500 
 13 C       -1.7700    -3.0920    -2.0330 C.3   1 <1>   0.2000 
 14 C       -1.7110    -4.2800    -1.0770 C.3   1 <1>  -0.0800 
 15 C        0.7600     3.8490    -0.8960 C.ar  1 <1>  -0.1500 
 16 C        2.6860     4.3650     0.4230 C.ar  1 <1>  -0.1500 
 17 O       -3.0150    -2.4860    -1.9220 O.3   1 <1>  -0.6800 
 18 C       -0.6380    -5.2930    -1.5370 C.3   1 <1>   0.0210 
 19 C        1.5890     4.7850    -0.3070 C.ar  1 <1>  -0.1500 
 20 C       -0.1240    -6.1620    -0.4060 C.2   1 <1>   0.1080 
 21 N        0.7990    -5.7660     0.4190 N.2   1 <1>  -0.7070 
 22 C       -0.5620    -7.4520    -0.1330 C.2   1 <1>  -0.1500 
 23 N        0.9900    -6.8260     1.2400 N.pl3 1 <1>   0.3000 
 24 C        0.1690    -7.8490     0.9280 C.2   1 <1>  -0.3320 
 25 C        0.1400    -9.1750     1.6690 C.3   1 <1>  -0.0600 
 26 H        4.6140     0.5160     0.3940 H     1 <1>   0.1500 
 27 H        1.0150    -3.2040     1.2420 H     1 <1>   0.0800 
 28 H        1.3480    -3.4760    -0.4450 H     1 <1>   0.0800 
 29 H       -0.7210    -1.6250     0.4910 H     1 <1>   0.4500 
 30 H       -0.9590    -1.1120    -1.6680 H     1 <1>   0.0800 
 31 H        0.2390    -2.3310    -2.0540 H     1 <1>   0.0800 
 32 H       -0.9240    -4.2960     0.9620 H     1 <1>   0.0800 
 33 H       -2.2910    -3.2450     0.6990 H     1 <1>   0.0800 
 34 H        0.3770     1.7850    -1.2190 H     1 <1>   0.1500 
 35 H        3.8030     2.7100     1.1390 H     1 <1>   0.1500 
 36 H       -1.6280    -3.3630    -3.0660 H     1 <1>   0.0800 
 37 H       -2.6560    -4.7920    -1.0150 H     1 <1>   0.0800 
 38 H       -0.0950     4.1730    -1.4650 H     1 <1>   0.1500 
 39 H        3.3320     5.0920     0.8840 H     1 <1>   0.1500 
 40 H       -3.2150    -2.1700    -1.0200 H     1 <1>   0.4000 
 41 H        0.2110    -4.7910    -1.9650 H     1 <1>   0.0800 
 42 H       -1.0490    -5.9240    -2.3060 H     1 <1>   0.0800 
 43 H        1.3820     5.8360    -0.4160 H     1 <1>   0.1500 
 44 H       -1.3180    -8.0000    -0.6690 H     1 <1>   0.1500 
 45 H        1.6890    -6.8340     1.9950 H     1 <1>   0.2700 
 46 H       -0.5940    -9.8290     1.2310 H     1 <1>   0.0800 
 47 H       -0.1150    -9.0220     2.7030 H     1 <1>   0.0800 
 48 H        1.1000    -9.6560     1.6120 H     1 <1>   0.0800 
@<TRIPOS>BOND
  1   1   2  1   
  2   1   3  1   
  3   2   4  2   
  4   2   5  1   
  5   3   6  2   
  6   3  26  1   
  7   4   6  1   
  8   5   7  1   
  9   5  27  1   
 10   5  28  1   
 11   6   8  1   
 12   7   9  1   
 13   7  10  1   
 14   7  29  1   
 15   8  11  ar  
 16   8  12  ar  
 17   9  13  1   
 18   9  30  1   
 19   9  31  1   
 20  10  14  1   
 21  10  32  1   
 22  10  33  1   
 23  11  15  ar  
 24  11  34  1   
 25  12  16  ar  
 26  12  35  1   
 27  13  14  1   
 28  13  17  1   
 29  13  36  1   
 30  14  18  1   
 31  14  37  1   
 32  15  19  ar  
 33  15  38  1   
 34  16  19  ar  
 35  16  39  1   
 36  17  40  1   
 37  18  20  1   
 38  18  41  1   
 39  18  42  1   
 40  19  43  1   
 41  20  21  2   
 42  20  22  1   
 43  21  23  1   
 44  22  24  2   
 45  22  44  1   
 46  23  24  1   
 47  23  45  1   
 48  24  25  1   
 49  25  46  1   
 50  25  47  1   
 51  25  48  1   
@<TRIPOS>SUBSTRUCTURE
  1 ****   5 GROUP 4 **** **** 0

# MOE 2024.06 (io_trps.svl 2023.06)
