@<TRIPOS>MOLECULE
NONAME
46 48 1 0 0 
SMALL
USER_CHARGES


@<TRIPOS>ATOM
  1 O       -1.1150     0.2450    -2.8280 O.2   1 <1>  -0.5700 
  2 C       -1.6310     0.9890    -2.0260 C.2   1 <1>   0.5690 
  3 N       -2.5200     0.5200    -1.0930 N.am  1 <1>  -0.6600 
  4 C       -1.2930     2.4750    -2.1210 C.3   1 <1>   0.1810 
  5 C       -3.1640     1.3140    -0.0160 C.3   1 <1>   0.1400 
  6 C       -2.8630    -0.9160    -0.9630 C.3   1 <1>   0.1400 
  7 O       -0.7920     2.9810    -0.8920 O.3   1 <1>  -0.3620 
  8 C       -4.0120     0.3080     0.7620 C.3   1 <1>   0.2000 
  9 C       -3.4100    -1.0630     0.4590 C.3   1 <1>  -0.0800 
 10 C       -0.5720     4.3070    -0.7180 C.ar  1 <1>   0.0820 
 11 O       -3.9720     0.5490     2.1260 O.3   1 <1>  -0.6800 
 12 C       -4.4260    -2.2050     0.6320 C.3   1 <1>  -0.0170 
 13 C       -0.2830     4.7280     0.5680 C.ar  1 <1>  -0.1500 
 14 C       -0.6270     5.2410    -1.7500 C.ar  1 <1>  -0.1500 
 15 C       -3.8040    -3.5640     0.3530 C.ar  1 <1>   0.1670 
 16 C       -0.0570     6.0650     0.8430 C.ar  1 <1>   0.0820 
 17 C       -0.4010     6.5810    -1.4810 C.ar  1 <1>  -0.1500 
 18 N       -3.7290    -3.9300    -0.9160 N.ar  1 <1>  -0.6200 
 19 C       -3.3470    -4.3520     1.4090 C.ar  1 <1>   0.1600 
 20 O        0.2150     6.3870     2.1330 O.3   1 <1>  -0.3620 
 21 C       -0.1170     6.9960    -0.1910 C.ar  1 <1>  -0.1500 
 22 C       -3.1680    -5.1200    -1.0590 C.ar  1 <1>   0.1600 
 23 N       -2.7860    -5.5420     1.2690 N.ar  1 <1>  -0.6200 
 24 C        0.4580     7.7210     2.5220 C.3   1 <1>   0.0400 
 25 C       -2.7120    -5.8990    -0.0020 C.ar  1 <1>   0.1600 
 26 H       -2.1810     3.0210    -2.3780 H     1 <1>   0.0800 
 27 H       -0.5410     2.6210    -2.8730 H     1 <1>   0.0800 
 28 H       -2.4050     1.7410     0.6160 H     1 <1>   0.0800 
 29 H       -3.7790     2.0910    -0.4370 H     1 <1>   0.0800 
 30 H       -3.6150    -1.1650    -1.6930 H     1 <1>   0.0800 
 31 H       -1.9980    -1.5390    -1.1210 H     1 <1>   0.0800 
 32 H       -5.0370     0.3660     0.4370 H     1 <1>   0.0800 
 33 H       -2.5660    -1.2330     1.1040 H     1 <1>   0.0800 
 34 H       -3.0470     0.5590     2.4420 H     1 <1>   0.4000 
 35 H       -5.2600    -2.0610    -0.0330 H     1 <1>   0.0800 
 36 H       -4.8100    -2.1860     1.6370 H     1 <1>   0.0800 
 37 H       -0.2320     4.0100     1.3650 H     1 <1>   0.1500 
 38 H       -0.8380     4.9510    -2.7610 H     1 <1>   0.1500 
 39 H       -0.4430     7.3020    -2.2780 H     1 <1>   0.1500 
 40 H       -3.4470    -3.9810     2.4130 H     1 <1>   0.1500 
 41 H        0.0530     8.0400    -0.0120 H     1 <1>   0.1500 
 42 H       -3.0640    -5.4970    -2.0600 H     1 <1>   0.1500 
 43 H        0.6470     7.7310     3.5800 H     1 <1>   0.0800 
 44 H       -0.4110     8.3130     2.3000 H     1 <1>   0.0800 
 45 H        1.3210     8.0860     1.9930 H     1 <1>   0.0800 
 46 H       -2.2690    -6.8540    -0.2190 H     1 <1>   0.1500 
@<TRIPOS>BOND
  1   1   2  2   
  2   2   3  am  
  3   2   4  1   
  4   3   5  1   
  5   3   6  1   
  6   4   7  1   
  7   4  26  1   
  8   4  27  1   
  9   5   8  1   
 10   5  28  1   
 11   5  29  1   
 12   6   9  1   
 13   6  30  1   
 14   6  31  1   
 15   7  10  1   
 16   8   9  1   
 17   8  11  1   
 18   8  32  1   
 19   9  12  1   
 20   9  33  1   
 21  10  13  ar  
 22  10  14  ar  
 23  11  34  1   
 24  12  15  1   
 25  12  35  1   
 26  12  36  1   
 27  13  16  ar  
 28  13  37  1   
 29  14  17  ar  
 30  14  38  1   
 31  15  18  ar  
 32  15  19  ar  
 33  16  20  1   
 34  16  21  ar  
 35  17  21  ar  
 36  17  39  1   
 37  18  22  ar  
 38  19  23  ar  
 39  19  40  1   
 40  20  24  1   
 41  21  41  1   
 42  22  25  ar  
 43  22  42  1   
 44  23  25  ar  
 45  24  43  1   
 46  24  44  1   
 47  24  45  1   
 48  25  46  1   
@<TRIPOS>SUBSTRUCTURE
  1 ****   3 GROUP 4 **** **** 0

# MOE 2024.06 (io_trps.svl 2023.06)
