@<TRIPOS>MOLECULE
NONAME
51 52 1 0 0 
SMALL
USER_CHARGES


@<TRIPOS>ATOM
  1 O        3.2970    -1.3010     1.9370 O.co2 1 <1>  -0.9000 
  2 C        2.2520    -0.9680     1.3630 C.2   1 <1>   0.9060 
  3 O        1.2190    -1.6270     1.4640 O.co2 1 <1>  -0.9000 
  4 C        2.3140     0.2630     0.4370 C.3   1 <1>  -0.1060 
  5 C        3.4140    -0.1450    -0.5850 C.3   1 <1>   0.2000 
  6 C        2.7640     1.4880     1.2950 C.3   1 <1>  -0.1600 
  7 C        0.9150     0.5260    -0.2240 C.3   1 <1>  -0.1600 
  8 O        3.2750     0.5210    -1.8050 O.3   1 <1>  -0.6800 
  9 C        4.8130     0.1700    -0.0100 C.3   1 <1>   0.3430 
 10 C        3.7470     2.3820     0.5430 C.3   1 <1>   0.3430 
 11 C        0.6720     1.8880    -0.9140 C.3   1 <1>  -0.1600 
 12 N        5.0210     1.6500     0.2260 N.4   1 <1>  -0.9590 
 13 C       -0.7000     1.9050    -1.5930 C.3   1 <1>  -0.2400 
 14 C        5.6800     2.2570    -0.9560 C.3   1 <1>   0.4860 
 15 C        5.9840     3.7130    -0.6640 C.ar  1 <1>  -0.1430 
 16 C        7.0540     4.0660     0.1430 C.ar  1 <1>  -0.1500 
 17 C        5.1800     4.7090    -1.1940 C.ar  1 <1>  -0.1500 
 18 C        7.3180     5.3960     0.4260 C.ar  1 <1>   0.0820 
 19 C        5.4280     6.0420    -0.9150 C.ar  1 <1>   0.0820 
 20 O        8.3850     5.6380     1.2260 O.3   1 <1>  -0.3620 
 21 C        6.5010     6.3910    -0.1020 C.ar  1 <1>  -0.1500 
 22 O        4.5730     6.9360    -1.4690 O.3   1 <1>  -0.3630 
 23 C        8.8000     6.9530     1.5270 C.3   1 <1>   0.0400 
 24 C        4.7580     8.3270    -1.3150 C.3   1 <1>   0.0400 
 25 H        3.3430    -1.2000    -0.7950 H     1 <1>   0.0800 
 26 H        3.2460     1.1670     2.2030 H     1 <1>   0.0800 
 27 H        1.9090     2.0590     1.6080 H     1 <1>   0.0800 
 28 H        0.7100    -0.2750    -0.9140 H     1 <1>   0.0800 
 29 H        0.1700     0.4410     0.5500 H     1 <1>   0.0800 
 30 H        2.3620     0.3720    -2.1290 H     1 <1>   0.4000 
 31 H        5.5630    -0.2180    -0.6760 H     1 <1>   0.0800 
 32 H        4.9220    -0.3510     0.9250 H     1 <1>   0.0800 
 33 H        3.9660     3.2630     1.1230 H     1 <1>   0.0800 
 34 H        3.2770     2.6940    -0.3760 H     1 <1>   0.0800 
 35 H        0.6920     2.6790    -0.1850 H     1 <1>   0.0800 
 36 H        1.4160     2.1080    -1.6540 H     1 <1>   0.0800 
 37 H        5.6420     1.7510     1.0340 H     1 <1>   0.4500 
 38 H       -1.4780     1.7250    -0.8700 H     1 <1>   0.0800 
 39 H       -0.7560     1.1460    -2.3530 H     1 <1>   0.0800 
 40 H       -0.8760     2.8620    -2.0510 H     1 <1>   0.0800 
 41 H        6.5960     1.7350    -1.1780 H     1 <1>   0.0800 
 42 H        5.0310     2.1820    -1.8140 H     1 <1>   0.0800 
 43 H        7.7050     3.3200     0.5650 H     1 <1>   0.1500 
 44 H        4.3460     4.4700    -1.8320 H     1 <1>   0.1500 
 45 H        6.6970     7.4200     0.1170 H     1 <1>   0.1500 
 46 H        9.6770     6.8930     2.1460 H     1 <1>   0.0800 
 47 H        8.0130     7.4560     2.0590 H     1 <1>   0.0800 
 48 H        9.0350     7.4640     0.6100 H     1 <1>   0.0800 
 49 H        3.9800     8.8290    -1.8620 H     1 <1>   0.0800 
 50 H        5.7180     8.5990    -1.7150 H     1 <1>   0.0800 
 51 H        4.6880     8.5760    -0.2710 H     1 <1>   0.0800 
@<TRIPOS>BOND
  1   1   2  ar  
  2   2   3  ar  
  3   2   4  1   
  4   4   5  1   
  5   4   6  1   
  6   4   7  1   
  7   5   8  1   
  8   5   9  1   
  9   5  25  1   
 10   6  10  1   
 11   6  26  1   
 12   6  27  1   
 13   7  11  1   
 14   7  28  1   
 15   7  29  1   
 16   8  30  1   
 17   9  12  1   
 18   9  31  1   
 19   9  32  1   
 20  10  12  1   
 21  10  33  1   
 22  10  34  1   
 23  11  13  1   
 24  11  35  1   
 25  11  36  1   
 26  12  14  1   
 27  12  37  1   
 28  13  38  1   
 29  13  39  1   
 30  13  40  1   
 31  14  15  1   
 32  14  41  1   
 33  14  42  1   
 34  15  16  ar  
 35  15  17  ar  
 36  16  18  ar  
 37  16  43  1   
 38  17  19  ar  
 39  17  44  1   
 40  18  20  1   
 41  18  21  ar  
 42  19  21  ar  
 43  19  22  1   
 44  20  23  1   
 45  21  45  1   
 46  22  24  1   
 47  23  46  1   
 48  23  47  1   
 49  23  48  1   
 50  24  49  1   
 51  24  50  1   
 52  24  51  1   
@<TRIPOS>SUBSTRUCTURE
  1 ****  10 GROUP 4 **** **** 0

# MOE 2024.06 (io_trps.svl 2023.06)
