@<TRIPOS>MOLECULE
NONAME
54 56 1 0 0 
SMALL
USER_CHARGES


@<TRIPOS>ATOM
  1 O       -0.3270     1.1920    -0.5650 O.2   1 <1>  -0.5700 
  2 C       -0.5600     2.3720    -0.4450 C.2   1 <1>   0.5690 
  3 N       -1.5620     2.8770     0.3460 N.am  1 <1>  -0.6600 
  4 C        0.3120     3.3450    -1.2320 C.3   1 <1>   0.1810 
  5 C       -1.7970     4.3590     0.4240 C.3   1 <1>   0.3640 
  6 C       -2.4300     2.0610     1.2390 C.3   1 <1>   0.2200 
  7 O        0.4900     4.5540    -0.5420 O.3   1 <1>  -0.5600 
  8 C       -3.1750     4.6800    -0.1640 C.ar  1 <1>  -0.1440 
  9 C       -0.7200     5.2450    -0.2660 C.3   1 <1>   0.2610 
 10 C       -1.5890     1.4020     2.3320 C.3   1 <1>  -0.2400 
 11 C       -3.2430     1.0350     0.4470 C.3   1 <1>  -0.2400 
 12 C       -3.5840     4.1420    -1.3780 C.ar  1 <1>  -0.1500 
 13 C       -4.0350     5.5300     0.5160 C.ar  1 <1>  -0.1500 
 14 C       -0.4350     6.4820     0.5980 C.2   1 <1>   0.5690 
 15 C       -4.8300     4.4440    -1.8980 C.ar  1 <1>  -0.1500 
 16 C       -5.2820     5.8340    -0.0030 C.ar  1 <1>  -0.1500 
 17 O       -1.3510     7.1650     0.9920 O.2   1 <1>  -0.5700 
 18 N        0.8480     6.7870     0.9140 N.am  1 <1>  -0.7300 
 19 C       -5.6810     5.2910    -1.2110 C.ar  1 <1>  -0.1500 
 20 C        1.2950     7.9760     1.6560 C.3   1 <1>   0.2840 
 21 C        2.5870     8.4670     1.0290 C.ar  1 <1>  -0.1440 
 22 C        3.8100     8.1830     1.6160 C.ar  1 <1>  -0.1500 
 23 C        2.5520     9.2030    -0.1450 C.ar  1 <1>  -0.1500 
 24 C        4.9830     8.6350     1.0370 C.ar  1 <1>  -0.1500 
 25 C        3.7250     9.6550    -0.7240 C.ar  1 <1>  -0.1500 
 26 C        4.9490     9.3720    -0.1360 C.ar  1 <1>  -0.1440 
 27 C        6.2380     9.8700    -0.7630 C.3   1 <1>   0.2630 
 28 O        6.6850    10.9270     0.0010 O.3   1 <1>  -0.6800 
 29 H       -0.1340     3.5500    -2.1880 H     1 <1>   0.0800 
 30 H        1.2830     2.9090    -1.3840 H     1 <1>   0.0800 
 31 H       -1.8090     4.6200     1.4680 H     1 <1>   0.0800 
 32 H       -3.1360     2.7150     1.7250 H     1 <1>   0.0800 
 33 H       -1.1030     5.5950    -1.2080 H     1 <1>   0.0800 
 34 H       -0.9120     0.6810     1.9100 H     1 <1>   0.0800 
 35 H       -2.2300     0.8930     3.0280 H     1 <1>   0.0800 
 36 H       -1.0260     2.1460     2.8660 H     1 <1>   0.0800 
 37 H       -2.6070     0.2930     0.0010 H     1 <1>   0.0800 
 38 H       -3.8120     1.5250    -0.3210 H     1 <1>   0.0800 
 39 H       -3.9290     0.5340     1.1040 H     1 <1>   0.0800 
 40 H       -2.9390     3.4760    -1.9240 H     1 <1>   0.1500 
 41 H       -3.7390     5.9710     1.4530 H     1 <1>   0.1500 
 42 H       -5.1400     4.0190    -2.8380 H     1 <1>   0.1500 
 43 H       -5.9390     6.4960     0.5320 H     1 <1>   0.1500 
 44 H        1.5920     6.1960     0.5300 H     1 <1>   0.3700 
 45 H       -6.6500     5.5270    -1.6140 H     1 <1>   0.1500 
 46 H        0.5440     8.7460     1.6100 H     1 <1>   0.0800 
 47 H        1.4530     7.7140     2.6870 H     1 <1>   0.0800 
 48 H        3.8570     7.6100     2.5250 H     1 <1>   0.1500 
 49 H        1.6070     9.4250    -0.6110 H     1 <1>   0.1500 
 50 H        5.9290     8.4150     1.5030 H     1 <1>   0.1500 
 51 H        3.6790    10.2270    -1.6340 H     1 <1>   0.1500 
 52 H        6.0760    10.2220    -1.7660 H     1 <1>   0.0800 
 53 H        6.9970     9.1070    -0.7670 H     1 <1>   0.0800 
 54 H        5.9070    11.3560     0.4100 H     1 <1>   0.4000 
@<TRIPOS>BOND
  1   1   2  2   
  2   2   3  am  
  3   2   4  1   
  4   3   5  1   
  5   3   6  1   
  6   4   7  1   
  7   4  29  1   
  8   4  30  1   
  9   5   8  1   
 10   5   9  1   
 11   5  31  1   
 12   6  10  1   
 13   6  11  1   
 14   6  32  1   
 15   7   9  1   
 16   8  12  ar  
 17   8  13  ar  
 18   9  14  1   
 19   9  33  1   
 20  10  34  1   
 21  10  35  1   
 22  10  36  1   
 23  11  37  1   
 24  11  38  1   
 25  11  39  1   
 26  12  15  ar  
 27  12  40  1   
 28  13  16  ar  
 29  13  41  1   
 30  14  17  2   
 31  14  18  am  
 32  15  19  ar  
 33  15  42  1   
 34  16  19  ar  
 35  16  43  1   
 36  18  20  1   
 37  18  44  1   
 38  19  45  1   
 39  20  21  1   
 40  20  46  1   
 41  20  47  1   
 42  21  22  ar  
 43  21  23  ar  
 44  22  24  ar  
 45  22  48  1   
 46  23  25  ar  
 47  23  49  1   
 48  24  26  ar  
 49  24  50  1   
 50  25  26  ar  
 51  25  51  1   
 52  26  27  1   
 53  27  28  1   
 54  27  52  1   
 55  27  53  1   
 56  28  54  1   
@<TRIPOS>SUBSTRUCTURE
  1 ****   9 GROUP 4 **** **** 0

# MOE 2024.06 (io_trps.svl 2023.06)
