@<TRIPOS>MOLECULE
NONAME
45 48 1 0 0 
SMALL
USER_CHARGES


@<TRIPOS>ATOM
  1 O       -0.8240     0.5980     1.2490 O.2   1 <1>  -0.5700 
  2 C       -1.7900     1.1070     0.7120 C.2   1 <1>   0.7160 
  3 N       -3.0390     0.5570     0.9170 N.am  1 <1>  -0.6600 
  4 C       -1.5900     2.2670    -0.1250 C.2   1 <1>  -0.0860 
  5 C       -4.1610     0.6680    -0.0560 C.3   1 <1>   0.1400 
  6 C       -3.2990    -0.3980     2.0310 C.3   1 <1>   0.1400 
  7 C       -0.5280     2.5430    -0.9280 C.2   1 <1>  -0.0100 
  8 C       -2.4310     3.3910    -0.2760 C.2   1 <1>  -0.1500 
  9 C       -4.4630    -0.7120    -0.6480 C.3   1 <1>  -0.1600 
 10 C       -3.5940    -1.7880     1.4630 C.3   1 <1>  -0.1600 
 11 O       -0.6730     3.6930    -1.5410 O.3   1 <1>  -0.2800 
 12 C       -1.8160     4.2140    -1.1510 C.2   1 <1>  -0.0100 
 13 C       -4.7460    -1.7640     0.4430 C.3   1 <1>   0.4240 
 14 O       -5.8470    -1.2870     1.1870 O.3   1 <1>  -0.5600 
 15 C       -5.0190    -3.1790    -0.1460 C.ar  1 <1>  -0.1430 
 16 C       -7.1230    -1.5590     0.7090 C.3   1 <1>   0.1200 
 17 C       -4.0520    -3.8830    -0.8770 C.ar  1 <1>   0.0830 
 18 C       -6.2610    -3.7830     0.0480 C.ar  1 <1>  -0.1430 
 19 C       -7.3540    -3.0580     0.8060 C.3   1 <1>  -0.0170 
 20 O       -2.8430    -3.3040    -1.0980 O.3   1 <1>  -0.3630 
 21 C       -4.3340    -5.1550    -1.3720 C.ar  1 <1>  -0.1500 
 22 C       -6.5290    -5.0490    -0.4460 C.ar  1 <1>  -0.1500 
 23 C       -1.7490    -4.0030    -1.6490 C.3   1 <1>   0.0400 
 24 C       -5.5660    -5.7360    -1.1550 C.ar  1 <1>  -0.1500 
 25 H       -3.9130     1.3380    -0.8580 H     1 <1>   0.0800 
 26 H       -5.0310     1.0510     0.4510 H     1 <1>   0.0800 
 27 H       -4.1420    -0.0480     2.6030 H     1 <1>   0.0800 
 28 H       -2.4520    -0.4500     2.6940 H     1 <1>   0.0800 
 29 H        0.3600     1.9590    -1.1020 H     1 <1>   0.1500 
 30 H       -3.3680     3.5310     0.2310 H     1 <1>   0.1500 
 31 H       -3.6130    -1.0040    -1.2320 H     1 <1>   0.0800 
 32 H       -5.2940    -0.6510    -1.3230 H     1 <1>   0.0800 
 33 H       -3.8470    -2.4620     2.2600 H     1 <1>   0.0800 
 34 H       -2.6900    -2.1500     1.0160 H     1 <1>   0.0800 
 35 H       -2.1100     5.1720    -1.5420 H     1 <1>   0.1500 
 36 H       -7.2070    -1.2150    -0.3070 H     1 <1>   0.0800 
 37 H       -7.8280    -1.0270     1.3240 H     1 <1>   0.0800 
 38 H       -8.3170    -3.2940     0.3920 H     1 <1>   0.0800 
 39 H       -7.3430    -3.3580     1.8380 H     1 <1>   0.0800 
 40 H       -3.6100    -5.7110    -1.9340 H     1 <1>   0.1500 
 41 H       -7.4890    -5.5050    -0.2810 H     1 <1>   0.1500 
 42 H       -0.8950    -3.3500    -1.6330 H     1 <1>   0.0800 
 43 H       -1.9820    -4.2740    -2.6630 H     1 <1>   0.0800 
 44 H       -1.5530    -4.8740    -1.0490 H     1 <1>   0.0800 
 45 H       -5.7770    -6.7190    -1.5380 H     1 <1>   0.1500 
@<TRIPOS>BOND
  1   1   2  2   
  2   2   3  am  
  3   2   4  1   
  4   3   5  1   
  5   3   6  1   
  6   4   7  2   
  7   4   8  1   
  8   5   9  1   
  9   5  25  1   
 10   5  26  1   
 11   6  10  1   
 12   6  27  1   
 13   6  28  1   
 14   7  11  1   
 15   7  29  1   
 16   8  12  2   
 17   8  30  1   
 18   9  13  1   
 19   9  31  1   
 20   9  32  1   
 21  10  13  1   
 22  10  33  1   
 23  10  34  1   
 24  11  12  1   
 25  12  35  1   
 26  13  14  1   
 27  13  15  1   
 28  14  16  1   
 29  15  17  ar  
 30  15  18  ar  
 31  16  19  1   
 32  16  36  1   
 33  16  37  1   
 34  17  20  1   
 35  17  21  ar  
 36  18  19  1   
 37  18  22  ar  
 38  19  38  1   
 39  19  39  1   
 40  20  23  1   
 41  21  24  ar  
 42  21  40  1   
 43  22  24  ar  
 44  22  41  1   
 45  23  42  1   
 46  23  43  1   
 47  23  44  1   
 48  24  45  1   
@<TRIPOS>SUBSTRUCTURE
  1 ****   9 GROUP 4 **** **** 0

# MOE 2024.06 (io_trps.svl 2023.06)
