@<TRIPOS>MOLECULE
NONAME
54 57 1 0 0 
SMALL
USER_CHARGES


@<TRIPOS>ATOM
  1 F       -1.6740     1.7590     0.9600 F     1 <1>  -0.1900 
  2 C       -1.0580     2.7460     0.3670 C.ar  1 <1>   0.1900 
  3 C       -1.8010     3.6420    -0.3790 C.ar  1 <1>  -0.1500 
  4 C        0.3110     2.8570     0.5080 C.ar  1 <1>  -0.1500 
  5 C       -1.1500     4.6910    -1.0100 C.ar  1 <1>  -0.1440 
  6 C        0.9570     3.9070    -0.1230 C.ar  1 <1>  -0.1500 
  7 C        0.2280     4.8170    -0.8750 C.ar  1 <1>  -0.1500 
  8 C       -1.9390     5.6950    -1.8310 C.3   1 <1>   0.2840 
  9 N       -2.4170     6.7450    -0.9250 N.am  1 <1>  -0.7300 
 10 C       -3.4610     7.5570    -1.1950 C.2   1 <1>   0.6900 
 11 O       -3.9700     7.5210    -2.2990 O.2   1 <1>  -0.5700 
 12 N       -3.8970     8.3980    -0.2080 N.am  1 <1>  -0.6600 
 13 C       -5.3460     8.7050     0.0910 C.3   1 <1>   0.2200 
 14 C       -2.8970     9.2310     0.5320 C.3   1 <1>   0.1400 
 15 C       -5.5410    10.1680     0.6030 C.3   1 <1>   0.1380 
 16 C       -6.3800     8.2530    -0.9580 C.3   1 <1>  -0.1600 
 17 C       -3.3870     9.6390     1.9330 C.3   1 <1>  -0.1600 
 18 C       -4.9850    11.3180    -0.2960 C.2   1 <1>  -0.2760 
 19 C       -7.0510    10.4220     0.8260 C.3   1 <1>   0.1200 
 20 C       -4.8390    10.1720     1.9870 C.3   1 <1>  -0.1600 
 21 C       -7.7920     8.6550    -0.5360 C.3   1 <1>   0.1200 
 22 C       -4.4010    12.4440     0.1440 C.2   1 <1>  -0.2880 
 23 C       -5.1520    11.1580    -1.8080 C.3   1 <1>  -0.0220 
 24 O       -7.8210    10.0200    -0.2720 O.3   1 <1>  -0.5600 
 25 C       -3.9330    13.5790    -0.7580 C.3   1 <1>   0.2580 
 26 C       -4.3830    12.2200    -2.6060 C.3   1 <1>   0.1200 
 27 O       -4.5240    13.4740    -2.0160 O.3   1 <1>  -0.5600 
 28 H       -2.8660     3.5160    -0.4580 H     1 <1>   0.1500 
 29 H        0.8540     2.1390     1.0960 H     1 <1>   0.1500 
 30 H        2.0240     4.0180    -0.0290 H     1 <1>   0.1500 
 31 H        0.7420     5.6310    -1.3590 H     1 <1>   0.1500 
 32 H       -2.7770     5.2150    -2.3090 H     1 <1>   0.0800 
 33 H       -1.3190     6.1360    -2.5930 H     1 <1>   0.0800 
 34 H       -2.1580     6.6240     0.0510 H     1 <1>   0.3700 
 35 H       -5.5800     8.0800     0.9360 H     1 <1>   0.0800 
 36 H       -1.9630     8.7050     0.6250 H     1 <1>   0.0800 
 37 H       -2.7020    10.1160    -0.0490 H     1 <1>   0.0800 
 38 H       -6.3440     7.1840    -1.0570 H     1 <1>   0.0800 
 39 H       -6.1950     8.6710    -1.9260 H     1 <1>   0.0800 
 40 H       -3.3020     8.7840     2.5810 H     1 <1>   0.0800 
 41 H       -2.7200    10.3910     2.3170 H     1 <1>   0.0800 
 42 H       -7.2250    11.4730     0.9760 H     1 <1>   0.0800 
 43 H       -7.4130     9.8910     1.6880 H     1 <1>   0.0800 
 44 H       -4.8720    11.1420     2.4440 H     1 <1>   0.0800 
 45 H       -5.3850     9.5270     2.6530 H     1 <1>   0.0800 
 46 H       -8.1090     8.1250     0.3450 H     1 <1>   0.0800 
 47 H       -8.4910     8.4610    -1.3320 H     1 <1>   0.0800 
 48 H       -4.2120    12.6800     1.1720 H     1 <1>   0.1500 
 49 H       -6.1940    11.2010    -2.0680 H     1 <1>   0.0800 
 50 H       -4.7550    10.2160    -2.1300 H     1 <1>   0.0800 
 51 H       -2.8630    13.5640    -0.8750 H     1 <1>   0.0800 
 52 H       -4.2310    14.5270    -0.3480 H     1 <1>   0.0800 
 53 H       -4.7620    12.2800    -3.6110 H     1 <1>   0.0800 
 54 H       -3.3340    11.9790    -2.6410 H     1 <1>   0.0800 
@<TRIPOS>BOND
  1   1   2  1   
  2   2   3  ar  
  3   2   4  ar  
  4   3   5  ar  
  5   3  28  1   
  6   4   6  ar  
  7   4  29  1   
  8   5   7  ar  
  9   5   8  1   
 10   6   7  ar  
 11   6  30  1   
 12   7  31  1   
 13   8   9  1   
 14   8  32  1   
 15   8  33  1   
 16   9  10  am  
 17   9  34  1   
 18  10  11  2   
 19  10  12  am  
 20  12  13  1   
 21  12  14  1   
 22  13  15  1   
 23  13  16  1   
 24  13  35  1   
 25  14  17  1   
 26  14  36  1   
 27  14  37  1   
 28  15  18  1   
 29  15  19  1   
 30  15  20  1   
 31  16  21  1   
 32  16  38  1   
 33  16  39  1   
 34  17  20  1   
 35  17  40  1   
 36  17  41  1   
 37  18  22  2   
 38  18  23  1   
 39  19  24  1   
 40  19  42  1   
 41  19  43  1   
 42  20  44  1   
 43  20  45  1   
 44  21  24  1   
 45  21  46  1   
 46  21  47  1   
 47  22  25  1   
 48  22  48  1   
 49  23  26  1   
 50  23  49  1   
 51  23  50  1   
 52  25  27  1   
 53  25  51  1   
 54  25  52  1   
 55  26  27  1   
 56  26  53  1   
 57  26  54  1   
@<TRIPOS>SUBSTRUCTURE
  1 ****  12 GROUP 4 **** **** 0

# MOE 2024.06 (io_trps.svl 2023.06)
