@<TRIPOS>MOLECULE
NONAME
51 54 1 0 0 
SMALL
USER_CHARGES


@<TRIPOS>ATOM
  1 S        0.2060    -0.7130     2.1500 S.o2  1 <1>   1.5000 
  2 O       -0.6140    -1.7230     2.7860 O.2   1 <1>  -0.6500 
  3 O        0.6660     0.4000     2.9540 O.2   1 <1>  -0.6500 
  4 N       -0.7220    -0.0550     0.8890 N.am  1 <1>  -0.8490 
  5 C        1.5960    -1.5570     1.3190 C.2   1 <1>   0.0780 
  6 C       -2.0460     0.3660     1.3750 C.3   1 <1>   0.1960 
  7 C       -0.0420     1.0700     0.2340 C.3   1 <1>   0.1960 
  8 O        2.5590    -0.8690     0.7180 O.3   1 <1>  -0.2800 
  9 C        1.8450    -2.8770     1.1630 C.2   1 <1>  -0.1500 
 10 C       -2.9670     0.7790     0.2100 C.3   1 <1>   0.0000 
 11 C       -0.8410     1.5420    -0.9850 C.3   1 <1>  -0.1600 
 12 C        3.4310    -1.7030     0.1640 C.2   1 <1>   0.1410 
 13 C        3.0250    -2.9750     0.4220 C.2   1 <1>  -0.1500 
 14 C       -4.3630     1.1620     0.7380 C.3   1 <1>   0.2000 
 15 C       -2.2850     1.9110    -0.6070 C.3   1 <1>  -0.1600 
 16 C       -3.3180    -0.4150    -0.6980 C.3   1 <1>  -0.1600 
 17 C        4.5650    -1.1820    -0.5710 C.2   1 <1>   0.2880 
 18 O       -4.4330     2.4650     1.1930 O.3   1 <1>  -0.6800 
 19 C       -5.3350     0.9520    -0.4220 C.3   1 <1>  -0.1600 
 20 C       -4.6590    -0.0650    -1.3520 C.3   1 <1>  -0.1600 
 21 N        4.5390    -0.0430    -1.2210 N.2   1 <1>  -0.7070 
 22 C        5.8250    -1.7930    -0.7010 C.2   1 <1>  -0.1810 
 23 N        5.7560     0.0810    -1.7680 N.pl3 1 <1>   0.3000 
 24 C        6.5550    -0.9630    -1.4750 C.2   1 <1>  -0.3320 
 25 C        6.2580    -3.1090    -0.0770 C.3   1 <1>  -0.0590 
 26 C        7.9860    -1.0610    -1.9790 C.3   1 <1>  -0.0600 
 27 H       -2.5110    -0.4460     1.9090 H     1 <1>   0.0800 
 28 H       -1.9370     1.1900     2.0620 H     1 <1>   0.0800 
 29 H        0.0790     1.8850     0.9300 H     1 <1>   0.0800 
 30 H        0.9370     0.7710    -0.1000 H     1 <1>   0.0800 
 31 H        1.2570    -3.7030     1.5260 H     1 <1>   0.1500 
 32 H       -0.3520     2.3990    -1.4120 H     1 <1>   0.0800 
 33 H       -0.8290     0.7660    -1.7280 H     1 <1>   0.0800 
 34 H        3.4890    -3.8930     0.1160 H     1 <1>   0.1500 
 35 H       -4.6380     0.5130     1.5530 H     1 <1>   0.0800 
 36 H       -2.8470     2.1370    -1.4960 H     1 <1>   0.0800 
 37 H       -2.2370     2.8050    -0.0110 H     1 <1>   0.0800 
 38 H       -2.5600    -0.6340    -1.4280 H     1 <1>   0.0800 
 39 H       -3.4520    -1.2950    -0.0910 H     1 <1>   0.0800 
 40 H       -4.2570     3.0780     0.4550 H     1 <1>   0.4000 
 41 H       -6.2730     0.5730    -0.0550 H     1 <1>   0.0800 
 42 H       -5.5060     1.8700    -0.9570 H     1 <1>   0.0800 
 43 H       -5.2640    -0.9460    -1.4810 H     1 <1>   0.0800 
 44 H       -4.4900     0.3830    -2.3170 H     1 <1>   0.0800 
 45 H        6.0150     0.8940    -2.3390 H     1 <1>   0.2700 
 46 H        5.9420    -3.1510     0.9500 H     1 <1>   0.0800 
 47 H        7.3270    -3.2110    -0.1010 H     1 <1>   0.0800 
 48 H        5.8230    -3.9310    -0.6150 H     1 <1>   0.0800 
 49 H        8.4370    -1.9900    -1.6820 H     1 <1>   0.0800 
 50 H        8.5750    -0.2550    -1.5790 H     1 <1>   0.0800 
 51 H        8.0040    -1.0070    -3.0530 H     1 <1>   0.0800 
@<TRIPOS>BOND
  1   1   2  2   
  2   1   3  2   
  3   1   4  am  
  4   1   5  1   
  5   4   6  1   
  6   4   7  1   
  7   5   8  1   
  8   5   9  2   
  9   6  10  1   
 10   6  27  1   
 11   6  28  1   
 12   7  11  1   
 13   7  29  1   
 14   7  30  1   
 15   8  12  1   
 16   9  13  1   
 17   9  31  1   
 18  10  14  1   
 19  10  15  1   
 20  10  16  1   
 21  11  15  1   
 22  11  32  1   
 23  11  33  1   
 24  12  13  2   
 25  12  17  1   
 26  13  34  1   
 27  14  18  1   
 28  14  19  1   
 29  14  35  1   
 30  15  36  1   
 31  15  37  1   
 32  16  20  1   
 33  16  38  1   
 34  16  39  1   
 35  17  21  2   
 36  17  22  1   
 37  18  40  1   
 38  19  20  1   
 39  19  41  1   
 40  19  42  1   
 41  20  43  1   
 42  20  44  1   
 43  21  23  1   
 44  22  24  2   
 45  22  25  1   
 46  23  24  1   
 47  23  45  1   
 48  24  26  1   
 49  25  46  1   
 50  25  47  1   
 51  25  48  1   
 52  26  49  1   
 53  26  50  1   
 54  26  51  1   
@<TRIPOS>SUBSTRUCTURE
  1 ****   7 GROUP 4 **** **** 0

# MOE 2024.06 (io_trps.svl 2023.06)
