@<TRIPOS>MOLECULE
NONAME
35 36 1 0 0 
SMALL
USER_CHARGES


@<TRIPOS>ATOM
  1 S       -3.3860     1.7240    -1.0110 S.3   1 <1>  -0.0800 
  2 C       -2.2310     0.7370    -0.1270 C.2   1 <1>  -0.1400 
  3 C       -2.3890     1.6860    -2.4500 C.2   1 <1>  -0.1100 
  4 C       -1.1780     0.4250    -0.9110 C.2   1 <1>  -0.1810 
  5 C       -2.6070     0.3750     1.3000 C.3   1 <1>   0.3890 
  6 C       -1.2720     0.9690    -2.2330 C.2   1 <1>  -0.1500 
  7 C        0.0380    -0.4050    -0.5330 C.3   1 <1>  -0.0590 
  8 N       -3.7480    -0.6140     1.3550 N.pl3 1 <1>  -0.8380 
  9 C       -3.9580    -1.6690     0.5020 C.ar  1 <1>   0.4610 
 10 C       -4.5980    -0.4250     2.5750 C.3   1 <1>   0.1290 
 11 N       -3.5960    -1.5830    -0.7870 N.ar  1 <1>  -0.1790 
 12 C       -4.5520    -2.8620     0.8590 C.ar  1 <1>  -0.1500 
 13 C       -3.7920    -2.5730    -1.6730 C.ar  1 <1>   0.7710 
 14 C       -4.7280    -3.8470    -0.0920 C.ar  1 <1>   0.3930 
 15 N       -4.3510    -3.7150    -1.3620 N.ar  1 <1>  -0.6200 
 16 N       -3.4060    -2.4120    -2.9390 N.pl3 1 <1>  -0.9000 
 17 O       -5.3040    -4.9830     0.2970 O.3   1 <1>  -0.3630 
 18 C       -5.5430    -6.0700    -0.5770 C.3   1 <1>   0.0400 
 19 H       -2.7430     2.2230    -3.3150 H     1 <1>   0.1500 
 20 H       -2.8790     1.2820     1.8150 H     1 <1>   0.0800 
 21 H       -1.7570    -0.0450     1.8100 H     1 <1>   0.0800 
 22 H       -0.4900     0.8090    -2.9580 H     1 <1>   0.1500 
 23 H       -0.0290    -0.7680     0.4760 H     1 <1>   0.0800 
 24 H        0.9270     0.1960    -0.6160 H     1 <1>   0.0800 
 25 H        0.1350    -1.2480    -1.1940 H     1 <1>   0.0800 
 26 H       -4.8560     0.6150     2.6910 H     1 <1>   0.0800 
 27 H       -4.0640    -0.7510     3.4520 H     1 <1>   0.0800 
 28 H       -5.5170    -0.9800     2.4980 H     1 <1>   0.0800 
 29 H       -3.1640    -0.7170    -1.0990 H     1 <1>   0.4570 
 30 H       -4.8730    -3.0490     1.8650 H     1 <1>   0.1500 
 31 H       -3.5740    -3.1810    -3.5950 H     1 <1>   0.4000 
 32 H       -2.9810    -1.5830    -3.3580 H     1 <1>   0.4000 
 33 H       -6.0160    -6.8570    -0.0170 H     1 <1>   0.0800 
 34 H       -4.6040    -6.4140    -0.9730 H     1 <1>   0.0800 
 35 H       -6.1900    -5.7440    -1.3720 H     1 <1>   0.0800 
@<TRIPOS>BOND
  1   1   2  1   
  2   1   3  1   
  3   2   4  2   
  4   2   5  1   
  5   3   6  2   
  6   3  19  1   
  7   4   6  1   
  8   4   7  1   
  9   5   8  1   
 10   5  20  1   
 11   5  21  1   
 12   6  22  1   
 13   7  23  1   
 14   7  24  1   
 15   7  25  1   
 16   8   9  1   
 17   8  10  1   
 18   9  11  ar  
 19   9  12  ar  
 20  10  26  1   
 21  10  27  1   
 22  10  28  1   
 23  11  13  ar  
 24  11  29  1   
 25  12  14  ar  
 26  12  30  1   
 27  13  15  ar  
 28  13  16  1   
 29  14  15  ar  
 30  14  17  1   
 31  16  31  1   
 32  16  32  1   
 33  17  18  1   
 34  18  33  1   
 35  18  34  1   
 36  18  35  1   
@<TRIPOS>SUBSTRUCTURE
  1 ****  11 GROUP 4 **** **** 0

# MOE 2024.06 (io_trps.svl 2023.06)
