@<TRIPOS>MOLECULE
NONAME
42 43 1 0 0 
SMALL
USER_CHARGES


@<TRIPOS>ATOM
  1 S       -0.5880     0.0770     0.7590 S.o2  1 <1>   1.0900 
  2 O       -1.8080     0.6330     0.2230 O.2   1 <1>  -0.6500 
  3 O       -0.2160     0.3360     2.1280 O.2   1 <1>  -0.6500 
  4 C       -0.6520    -1.6980     0.5380 C.3   1 <1>  -0.0550 
  5 C        0.7650     0.6030    -0.2790 C.3   1 <1>  -0.1350 
  6 C       -1.0770    -2.1300    -0.8740 C.3   1 <1>  -0.0990 
  7 C       -1.1910    -3.6370    -0.9330 C.2   1 <1>   0.5690 
  8 O       -0.1880    -4.2530    -1.1970 O.2   1 <1>  -0.5700 
  9 N       -2.3760    -4.2570    -0.6610 N.am  1 <1>  -0.6600 
 10 C       -3.6750    -3.6120    -0.3270 C.3   1 <1>   0.1400 
 11 C       -2.4920    -5.7330    -0.5700 C.3   1 <1>   0.1400 
 12 C       -4.6550    -4.7710    -0.1400 C.3   1 <1>   0.2000 
 13 C       -3.7880    -5.9800     0.2000 C.3   1 <1>  -0.0800 
 14 O       -5.5540    -4.5210     0.8830 O.3   1 <1>  -0.6800 
 15 C       -4.4530    -7.3260    -0.1270 C.3   1 <1>   0.0210 
 16 C       -3.4970    -8.4770     0.1190 C.2   1 <1>   0.1080 
 17 N       -2.8780    -8.6500     1.2460 N.2   1 <1>  -0.7070 
 18 C       -3.1690    -9.4530    -0.8160 C.2   1 <1>  -0.1500 
 19 N       -2.1290    -9.7520     1.0570 N.pl3 1 <1>   0.3000 
 20 C       -2.2870   -10.2560    -0.1850 C.2   1 <1>  -0.3320 
 21 C       -1.5740   -11.4930    -0.7000 C.3   1 <1>  -0.0600 
 22 H        0.3040    -2.1300     0.7660 H     1 <1>   0.0800 
 23 H       -1.3570    -2.1020     1.2400 H     1 <1>   0.0800 
 24 H        0.5630     0.3840    -1.3090 H     1 <1>   0.0800 
 25 H        1.6750     0.1150     0.0120 H     1 <1>   0.0800 
 26 H        0.9050     1.6620    -0.1820 H     1 <1>   0.0800 
 27 H       -2.0110    -1.6730    -1.1440 H     1 <1>   0.0800 
 28 H       -0.3420    -1.8190    -1.5930 H     1 <1>   0.0800 
 29 H       -3.5720    -3.0490     0.5840 H     1 <1>   0.0800 
 30 H       -3.9970    -2.9730    -1.1300 H     1 <1>   0.0800 
 31 H       -2.5470    -6.1420    -1.5640 H     1 <1>   0.0800 
 32 H       -1.6450    -6.1600    -0.0570 H     1 <1>   0.0800 
 33 H       -5.2100    -4.9270    -1.0500 H     1 <1>   0.0800 
 34 H       -3.5370    -5.9590     1.2470 H     1 <1>   0.0800 
 35 H       -5.1010    -4.5520     1.7480 H     1 <1>   0.4000 
 36 H       -4.7730    -7.3420    -1.1530 H     1 <1>   0.0800 
 37 H       -5.3190    -7.4580     0.4970 H     1 <1>   0.0800 
 38 H       -3.5480    -9.5260    -1.8190 H     1 <1>   0.1500 
 39 H       -1.5210   -10.1320     1.7920 H     1 <1>   0.2700 
 40 H       -1.8670   -11.6920    -1.7150 H     1 <1>   0.0800 
 41 H       -1.8280   -12.3470    -0.0970 H     1 <1>   0.0800 
 42 H       -0.5090   -11.3470    -0.6730 H     1 <1>   0.0800 
@<TRIPOS>BOND
  1   1   2  2   
  2   1   3  2   
  3   1   4  1   
  4   1   5  1   
  5   4   6  1   
  6   4  22  1   
  7   4  23  1   
  8   5  24  1   
  9   5  25  1   
 10   5  26  1   
 11   6   7  1   
 12   6  27  1   
 13   6  28  1   
 14   7   8  2   
 15   7   9  am  
 16   9  10  1   
 17   9  11  1   
 18  10  12  1   
 19  10  29  1   
 20  10  30  1   
 21  11  13  1   
 22  11  31  1   
 23  11  32  1   
 24  12  13  1   
 25  12  14  1   
 26  12  33  1   
 27  13  15  1   
 28  13  34  1   
 29  14  35  1   
 30  15  16  1   
 31  15  36  1   
 32  15  37  1   
 33  16  17  2   
 34  16  18  1   
 35  17  19  1   
 36  18  20  2   
 37  18  38  1   
 38  19  20  1   
 39  19  39  1   
 40  20  21  1   
 41  21  40  1   
 42  21  41  1   
 43  21  42  1   
@<TRIPOS>SUBSTRUCTURE
  1 ****   9 GROUP 4 **** **** 0

# MOE 2024.06 (io_trps.svl 2023.06)
