@<TRIPOS>MOLECULE
NONAME
56 60 1 0 0 
SMALL
USER_CHARGES


@<TRIPOS>ATOM
  1 O       -0.2990    -2.2040     1.8990 O.2   1 <1>  -0.5700 
  2 C       -0.2180    -2.0390     0.6970 C.2   1 <1>   0.5440 
  3 N       -1.3640    -2.1460    -0.0470 N.am  1 <1>  -0.6600 
  4 C        1.0540    -1.6810     0.1110 C.ar  1 <1>   0.0860 
  5 C       -2.6970    -2.2440     0.5930 C.3   1 <1>   0.5200 
  6 C       -1.3880    -2.7240    -1.4230 C.3   1 <1>   0.2810 
  7 C        1.6230    -2.3900    -0.9580 C.ar  1 <1>   0.1170 
  8 C        1.7690    -0.6030     0.6350 C.ar  1 <1>  -0.1500 
  9 N       -3.4460    -0.9710     0.4600 N.am  1 <1>  -0.4770 
 10 C       -3.4970    -3.2940    -0.2180 C.3   1 <1>   0.1440 
 11 C       -0.3020    -3.7940    -1.7040 C.2   1 <1>   0.5690 
 12 C       -2.8240    -3.2380    -1.6100 C.3   1 <1>  -0.1600 
 13 N        1.0140    -3.5110    -1.5210 N.am  1 <1>  -0.5470 
 14 C        2.8560    -1.9990    -1.4680 C.ar  1 <1>  -0.1500 
 15 C        2.9910    -0.2200     0.1190 C.ar  1 <1>  -0.1500 
 16 C       -4.7300    -1.2740    -0.0030 C.ar  1 <1>   0.1170 
 17 C       -2.9980     0.2620     0.8720 C.2   1 <1>   0.5690 
 18 C       -4.8520    -2.6000    -0.3680 C.ar  1 <1>  -0.1440 
 19 C       -3.5280    -4.6970     0.5130 C.3   1 <1>   0.1380 
 20 O       -0.5920    -4.8840    -2.1310 O.2   1 <1>  -0.5700 
 21 C        3.5370    -0.9210    -0.9400 C.ar  1 <1>  -0.1500 
 22 C       -5.8270    -0.4260    -0.0900 C.ar  1 <1>  -0.1500 
 23 O       -3.4050     1.2920     0.3940 O.2   1 <1>  -0.5700 
 24 C       -1.9900     0.3970     1.9880 C.3   1 <1>  -0.1790 
 25 C       -6.0650    -3.0900    -0.8270 C.ar  1 <1>  -0.1500 
 26 C       -4.5120    -4.6270     1.6870 C.2   1 <1>  -0.2880 
 27 C       -3.9050    -5.8650    -0.4270 C.3   1 <1>  -0.2400 
 28 C       -2.1750    -5.1130     1.1290 C.3   1 <1>  -0.2400 
 29 C       -7.0390    -0.9130    -0.5440 C.ar  1 <1>  -0.1500 
 30 C       -7.1580    -2.2430    -0.9100 C.ar  1 <1>  -0.1500 
 31 C       -5.6560    -5.3010     1.8590 C.2   1 <1>  -0.3000 
 32 H       -2.6330    -2.5010     1.6350 H     1 <1>   0.0800 
 33 H       -1.2250    -1.9230    -2.1220 H     1 <1>   0.0800 
 34 H        1.3560    -0.0610     1.4690 H     1 <1>   0.1500 
 35 H       -3.3240    -2.5040    -2.2180 H     1 <1>   0.0800 
 36 H       -2.8910    -4.1530    -2.1630 H     1 <1>   0.0800 
 37 H        1.6260    -4.2610    -1.8470 H     1 <1>   0.3700 
 38 H        3.2900    -2.5430    -2.2880 H     1 <1>   0.1500 
 39 H        3.5200     0.6190     0.5400 H     1 <1>   0.1500 
 40 H        4.4900    -0.6260    -1.3460 H     1 <1>   0.1500 
 41 H       -5.7400     0.6070     0.1950 H     1 <1>   0.1500 
 42 H       -2.0490    -0.4340     2.6640 H     1 <1>   0.0800 
 43 H       -2.1930     1.2950     2.5400 H     1 <1>   0.0800 
 44 H       -1.0040     0.4690     1.5740 H     1 <1>   0.0800 
 45 H       -6.1840    -4.1120    -1.1230 H     1 <1>   0.1500 
 46 H       -4.1900    -3.9260     2.4380 H     1 <1>   0.1500 
 47 H       -4.0430    -6.7690     0.1400 H     1 <1>   0.0800 
 48 H       -3.1210    -6.0620    -1.1360 H     1 <1>   0.0800 
 49 H       -4.8080    -5.6770    -0.9680 H     1 <1>   0.0800 
 50 H       -2.2640    -6.0820     1.5860 H     1 <1>   0.0800 
 51 H       -1.8470    -4.4390     1.8980 H     1 <1>   0.0800 
 52 H       -1.4090    -5.1770     0.3800 H     1 <1>   0.0800 
 53 H       -7.8890    -0.2560    -0.6110 H     1 <1>   0.1500 
 54 H       -8.1030    -2.6190    -1.2620 H     1 <1>   0.1500 
 55 H       -6.2870    -5.1840     2.7230 H     1 <1>   0.1500 
 56 H       -6.0670    -6.0170     1.1700 H     1 <1>   0.1500 
@<TRIPOS>BOND
  1   1   2  2   
  2   2   3  am  
  3   2   4  1   
  4   3   5  1   
  5   3   6  1   
  6   4   7  ar  
  7   4   8  ar  
  8   5   9  1   
  9   5  10  1   
 10   5  32  1   
 11   6  11  1   
 12   6  12  1   
 13   6  33  1   
 14   7  13  1   
 15   7  14  ar  
 16   8  15  ar  
 17   8  34  1   
 18   9  16  1   
 19   9  17  am  
 20  10  12  1   
 21  10  18  1   
 22  10  19  1   
 23  11  13  am  
 24  11  20  2   
 25  12  35  1   
 26  12  36  1   
 27  13  37  1   
 28  14  21  ar  
 29  14  38  1   
 30  15  21  ar  
 31  15  39  1   
 32  16  18  ar  
 33  16  22  ar  
 34  17  23  2   
 35  17  24  1   
 36  18  25  ar  
 37  19  26  1   
 38  19  27  1   
 39  19  28  1   
 40  21  40  1   
 41  22  29  ar  
 42  22  41  1   
 43  24  42  1   
 44  24  43  1   
 45  24  44  1   
 46  25  30  ar  
 47  25  45  1   
 48  26  31  2   
 49  26  46  1   
 50  27  47  1   
 51  27  48  1   
 52  27  49  1   
 53  28  50  1   
 54  28  51  1   
 55  28  52  1   
 56  29  30  ar  
 57  29  53  1   
 58  30  54  1   
 59  31  55  1   
 60  31  56  1   
@<TRIPOS>SUBSTRUCTURE
  1 ****   3 GROUP 4 **** **** 0

# MOE 2024.06 (io_trps.svl 2023.06)
