@<TRIPOS>MOLECULE
NONAME
46 48 1 0 0 
SMALL
USER_CHARGES


@<TRIPOS>ATOM
  1 S       -0.0260     0.5790     0.9330 S.3   1 <1>  -0.0800 
  2 C        0.9990    -0.8010     0.5990 C.2   1 <1>   0.1980 
  3 C        1.3410     1.6210     0.6690 C.2   1 <1>  -0.1100 
  4 N        2.2060    -0.5030     0.3270 N.2   1 <1>  -0.5650 
  5 C        0.3700    -2.1790     0.6720 C.3   1 <1>   0.0200 
  6 C        2.4130     0.8710     0.3610 C.2   1 <1>   0.0460 
  7 C       -0.5500    -2.4470    -0.5280 C.3   1 <1>  -0.1600 
  8 C        3.8190     1.3750     0.0540 C.3   1 <1>   0.3900 
  9 C       -1.1620    -3.8510    -0.4670 C.3   1 <1>  -0.2400 
 10 N        3.8120     2.8260    -0.2810 N.pl3 1 <1>  -0.8690 
 11 C        4.9620     3.5600    -0.3630 C.ar  1 <1>   0.4100 
 12 N        6.0850     2.9860     0.0480 N.ar  1 <1>  -0.6200 
 13 C        4.9190     4.8550    -0.8720 C.ar  1 <1>  -0.1500 
 14 C        7.1830     3.7150    -0.0510 C.ar  1 <1>   0.1600 
 15 C        6.0690     5.6000    -0.9610 C.ar  1 <1>  -0.1500 
 16 C        7.2580     5.0220    -0.5250 C.ar  1 <1>   0.0860 
 17 C        8.5260     5.7080    -0.5660 C.2   1 <1>   0.5440 
 18 O        9.4800     5.1470    -1.0710 O.2   1 <1>  -0.5700 
 19 N        8.7020     6.9720    -0.0450 N.am  1 <1>  -0.6600 
 20 C        7.8170     7.6060     0.9790 C.3   1 <1>   0.1400 
 21 C        9.9500     7.7550    -0.2950 C.3   1 <1>   0.1400 
 22 C        7.6020     9.0950     0.6580 C.3   1 <1>   0.1200 
 23 C        9.6210     9.2380    -0.5340 C.3   1 <1>   0.1200 
 24 O        8.8290     9.7490     0.5030 O.3   1 <1>  -0.5600 
 25 H        1.2020     2.6800     0.7770 H     1 <1>   0.1500 
 26 H       -0.1840    -2.2610     1.5900 H     1 <1>   0.0800 
 27 H        1.1580    -2.9100     0.6910 H     1 <1>   0.0800 
 28 H        0.0190    -2.3440    -1.4360 H     1 <1>   0.0800 
 29 H       -1.3400    -1.7160    -0.5470 H     1 <1>   0.0800 
 30 H        4.2160     0.8260    -0.7830 H     1 <1>   0.0800 
 31 H        4.4490     1.1920     0.9070 H     1 <1>   0.0800 
 32 H       -0.3890    -4.6000    -0.4740 H     1 <1>   0.0800 
 33 H       -1.7980    -4.0110    -1.3200 H     1 <1>   0.0800 
 34 H       -1.7520    -3.9680     0.4250 H     1 <1>   0.0800 
 35 H        3.0510     3.0800    -0.9100 H     1 <1>   0.4000 
 36 H        3.9770     5.2590    -1.1910 H     1 <1>   0.1500 
 37 H        8.1020     3.2520     0.2670 H     1 <1>   0.1500 
 38 H        6.0650     6.6000    -1.3590 H     1 <1>   0.1500 
 39 H        8.2870     7.5250     1.9440 H     1 <1>   0.0800 
 40 H        6.8670     7.1080     1.0360 H     1 <1>   0.0800 
 41 H       10.4700     7.3660    -1.1530 H     1 <1>   0.0800 
 42 H       10.6000     7.6650     0.5570 H     1 <1>   0.0800 
 43 H        7.0750     9.5750     1.4630 H     1 <1>   0.0800 
 44 H        7.0320     9.2110    -0.2470 H     1 <1>   0.0800 
 45 H        9.0940     9.3610    -1.4640 H     1 <1>   0.0800 
 46 H       10.5270     9.8160    -0.5710 H     1 <1>   0.0800 
@<TRIPOS>BOND
  1   1   2  1   
  2   1   3  1   
  3   2   4  2   
  4   2   5  1   
  5   3   6  2   
  6   3  25  1   
  7   4   6  1   
  8   5   7  1   
  9   5  26  1   
 10   5  27  1   
 11   6   8  1   
 12   7   9  1   
 13   7  28  1   
 14   7  29  1   
 15   8  10  1   
 16   8  30  1   
 17   8  31  1   
 18   9  32  1   
 19   9  33  1   
 20   9  34  1   
 21  10  11  1   
 22  10  35  1   
 23  11  12  ar  
 24  11  13  ar  
 25  12  14  ar  
 26  13  15  ar  
 27  13  36  1   
 28  14  16  ar  
 29  14  37  1   
 30  15  16  ar  
 31  15  38  1   
 32  16  17  1   
 33  17  18  2   
 34  17  19  am  
 35  19  20  1   
 36  19  21  1   
 37  20  22  1   
 38  20  39  1   
 39  20  40  1   
 40  21  23  1   
 41  21  41  1   
 42  21  42  1   
 43  22  24  1   
 44  22  43  1   
 45  22  44  1   
 46  23  24  1   
 47  23  45  1   
 48  23  46  1   
@<TRIPOS>SUBSTRUCTURE
  1 ****  11 GROUP 4 **** **** 0

# MOE 2024.06 (io_trps.svl 2023.06)
