@<TRIPOS>MOLECULE
NONAME
46 48 1 0 0 
SMALL
USER_CHARGES


@<TRIPOS>ATOM
  1 S       -0.3810    -0.2060    -0.5180 S.o2  1 <1>   1.4590 
  2 O       -0.3480    -0.1990    -2.0020 O.co2 1 <1>  -0.8170 
  3 O        0.5840    -1.1580     0.0850 O.co2 1 <1>  -0.8170 
  4 O       -0.3510     1.1480     0.0820 O.co2 1 <1>  -0.8170 
  5 C       -2.0390    -0.8850    -0.1060 C.ar  1 <1>  -0.0090 
  6 C       -3.1600    -0.0740    -0.0150 C.ar  1 <1>  -0.1500 
  7 C       -2.2190    -2.2470     0.0870 C.ar  1 <1>  -0.1500 
  8 C       -4.4430    -0.5610     0.2500 C.ar  1 <1>   0.0860 
  9 C       -3.4630    -2.7750     0.3620 C.ar  1 <1>  -0.1500 
 10 C       -5.5660     0.3630     0.2870 C.2   1 <1>   0.4140 
 11 C       -4.5800    -1.9490     0.4480 C.ar  1 <1>   0.0830 
 12 N       -6.7690    -0.0790    -0.2000 N.pl3 1 <1>  -0.5330 
 13 N       -5.4320     1.5750     0.7500 N.2   1 <1>  -0.6610 
 14 O       -5.8140    -2.4520     0.7220 O.3   1 <1>  -0.3630 
 15 C       -7.8980     0.7140    -0.1970 C.2   1 <1>   0.0830 
 16 C       -6.5120     2.4120     0.7630 C.2   1 <1>   0.8660 
 17 C       -6.0950    -3.8080     0.9980 C.3   1 <1>   0.1200 
 18 C       -7.7610     1.9610     0.2830 C.2   1 <1>  -0.2370 
 19 C       -9.2350     0.5890    -0.5540 C.2   1 <1>   0.1080 
 20 O       -6.3840     3.5480     1.2000 O.2   1 <1>  -0.5700 
 21 C       -6.2790    -4.5600    -0.3200 C.3   1 <1>  -0.2400 
 22 N       -8.9850     2.5360     0.1950 N.pl3 1 <1>   0.3140 
 23 N       -9.8960     1.6860    -0.3220 N.2   1 <1>  -0.7070 
 24 C       -9.8620    -0.6620    -1.1390 C.3   1 <1>   0.0210 
 25 C       -9.3420     3.9020     0.6000 C.3   1 <1>   0.0160 
 26 C       -9.9670    -1.7740    -0.0860 C.3   1 <1>  -0.1600 
 27 C      -10.5570    -3.0590    -0.6760 C.3   1 <1>  -0.2400 
 28 H       -3.0190     0.9840    -0.1650 H     1 <1>   0.1500 
 29 H       -1.3550    -2.8880     0.0160 H     1 <1>   0.1500 
 30 H       -3.5310    -3.8360     0.5010 H     1 <1>   0.1500 
 31 H       -6.8370    -1.0780    -0.4160 H     1 <1>   0.4000 
 32 H       -7.0100    -3.8340     1.5640 H     1 <1>   0.0800 
 33 H       -5.3110    -4.2230     1.6070 H     1 <1>   0.0800 
 34 H       -7.0940    -4.1330    -0.8780 H     1 <1>   0.0800 
 35 H       -6.5090    -5.5910    -0.1190 H     1 <1>   0.0800 
 36 H       -5.3830    -4.5210    -0.9120 H     1 <1>   0.0800 
 37 H       -9.2640    -0.9930    -1.9690 H     1 <1>   0.0800 
 38 H      -10.8410    -0.4170    -1.5100 H     1 <1>   0.0800 
 39 H       -8.7430     4.6020     0.0490 H     1 <1>   0.0800 
 40 H       -9.1560     4.0170     1.6520 H     1 <1>   0.0800 
 41 H      -10.3830     4.0720     0.3940 H     1 <1>   0.0800 
 42 H      -10.5920    -1.4300     0.7210 H     1 <1>   0.0800 
 43 H       -8.9930    -1.9840     0.3190 H     1 <1>   0.0800 
 44 H      -11.5450    -2.8760    -1.0620 H     1 <1>   0.0800 
 45 H      -10.6250    -3.8160     0.0860 H     1 <1>   0.0800 
 46 H       -9.9370    -3.4300    -1.4730 H     1 <1>   0.0800 
@<TRIPOS>BOND
  1   1   2  ar  
  2   1   3  ar  
  3   1   4  ar  
  4   1   5  1   
  5   5   6  ar  
  6   5   7  ar  
  7   6   8  ar  
  8   6  28  1   
  9   7   9  ar  
 10   7  29  1   
 11   8  10  1   
 12   8  11  ar  
 13   9  11  ar  
 14   9  30  1   
 15  10  12  1   
 16  10  13  2   
 17  11  14  1   
 18  12  15  1   
 19  12  31  1   
 20  13  16  1   
 21  14  17  1   
 22  15  18  2   
 23  15  19  1   
 24  16  18  1   
 25  16  20  2   
 26  17  21  1   
 27  17  32  1   
 28  17  33  1   
 29  18  22  1   
 30  19  23  2   
 31  19  24  1   
 32  21  34  1   
 33  21  35  1   
 34  21  36  1   
 35  22  23  1   
 36  22  25  1   
 37  24  26  1   
 38  24  37  1   
 39  24  38  1   
 40  25  39  1   
 41  25  40  1   
 42  25  41  1   
 43  26  27  1   
 44  26  42  1   
 45  26  43  1   
 46  27  44  1   
 47  27  45  1   
 48  27  46  1   
@<TRIPOS>SUBSTRUCTURE
  1 ****  10 GROUP 4 **** **** 0

# MOE 2024.06 (io_trps.svl 2023.06)
