@<TRIPOS>MOLECULE
NONAME
36 38 1 0 0 
SMALL
USER_CHARGES


@<TRIPOS>ATOM
  1 S        0.3180     0.6670    -0.6650 S.3   1 <1>  -0.2420 
  2 C        1.7750    -0.1020    -0.0370 C.2   1 <1>   0.6410 
  3 C       -0.4140    -0.9110    -1.0280 C.2   1 <1>  -0.0490 
  4 N        2.7780     0.5500     0.4250 N.2   1 <1>  -0.6610 
  5 N        1.6510    -1.4800    -0.1260 N.pl3 1 <1>  -0.1080 
  6 C        0.4220    -1.9070    -0.6810 C.2   1 <1>   0.2090 
  7 C        3.7870    -0.2700     0.8560 C.2   1 <1>   0.7810 
  8 N        2.6440    -2.3310     0.2960 N.2   1 <1>  -0.4920 
  9 N        0.2310    -3.2900    -0.7990 N.am  1 <1>  -0.5390 
 10 O        4.7860     0.2730     1.3140 O.2   1 <1>  -0.5700 
 11 C        3.6800    -1.7150     0.7730 C.2   1 <1>   0.3890 
 12 C       -0.8490    -3.9730    -1.2670 C.2   1 <1>   0.5690 
 13 C        4.8370    -2.5710     1.2690 C.3   1 <1>  -0.1790 
 14 O       -1.8480    -3.4300    -1.6680 O.2   1 <1>  -0.5700 
 15 C       -0.7900    -5.4810    -1.2670 C.3   1 <1>  -0.0990 
 16 C       -1.1750    -6.0390     0.1100 C.3   1 <1>   0.1760 
 17 N       -0.7030    -7.4440     0.2090 N.pl3 1 <1>   0.3140 
 18 C       -2.6820    -5.9120     0.4000 C.3   1 <1>  -0.2400 
 19 N        0.5570    -7.7100     0.6090 N.2   1 <1>  -0.7070 
 20 C       -1.3620    -8.5810    -0.1000 C.2   1 <1>  -0.3020 
 21 C        0.6600    -9.0030     0.5560 C.2   1 <1>   0.1390 
 22 C       -0.5110    -9.6060     0.1170 C.2   1 <1>  -0.1500 
 23 H       -1.3980    -0.9140    -1.4640 H     1 <1>   0.1500 
 24 H        1.0370    -3.8330    -0.4770 H     1 <1>   0.3700 
 25 H        5.7290    -2.3320     0.7180 H     1 <1>   0.0800 
 26 H        4.6210    -3.6170     1.1440 H     1 <1>   0.0800 
 27 H        5.0120    -2.3760     2.3120 H     1 <1>   0.0800 
 28 H        0.2120    -5.7810    -1.5170 H     1 <1>   0.0800 
 29 H       -1.4540    -5.8620    -2.0220 H     1 <1>   0.0800 
 30 H       -0.6420    -5.4900     0.8650 H     1 <1>   0.0800 
 31 H       -3.2640    -6.3940    -0.3650 H     1 <1>   0.0800 
 32 H       -2.9670    -4.8760     0.4320 H     1 <1>   0.0800 
 33 H       -2.9130    -6.3510     1.3550 H     1 <1>   0.0800 
 34 H       -2.3760    -8.6030    -0.4520 H     1 <1>   0.1500 
 35 H        1.5570    -9.5380     0.8230 H     1 <1>   0.1500 
 36 H       -0.6730   -10.6620    -0.0120 H     1 <1>   0.1500 
@<TRIPOS>BOND
  1   1   2  1   
  2   1   3  1   
  3   2   4  2   
  4   2   5  1   
  5   3   6  2   
  6   3  23  1   
  7   4   7  1   
  8   5   6  1   
  9   5   8  1   
 10   6   9  1   
 11   7  10  2   
 12   7  11  1   
 13   8  11  2   
 14   9  12  am  
 15   9  24  1   
 16  11  13  1   
 17  12  14  2   
 18  12  15  1   
 19  13  25  1   
 20  13  26  1   
 21  13  27  1   
 22  15  16  1   
 23  15  28  1   
 24  15  29  1   
 25  16  17  1   
 26  16  18  1   
 27  16  30  1   
 28  17  19  1   
 29  17  20  1   
 30  18  31  1   
 31  18  32  1   
 32  18  33  1   
 33  19  21  2   
 34  20  22  2   
 35  20  34  1   
 36  21  22  1   
 37  21  35  1   
 38  22  36  1   
@<TRIPOS>SUBSTRUCTURE
  1 ****   9 GROUP 4 **** **** 0

# MOE 2024.06 (io_trps.svl 2023.06)
