@<TRIPOS>MOLECULE
NONAME
38 40 1 0 0 
SMALL
USER_CHARGES


@<TRIPOS>ATOM
  1 O        0.3590    -4.7140     2.0930 O.2   1 <1>  -0.5700 
  2 C       -0.4760    -4.4210     1.2440 C.2   1 <1>   0.6160 
  3 N       -0.3020    -3.3120     0.4170 N.am  1 <1>  -0.2980 
  4 C       -1.6360    -5.2010     1.0280 C.2   1 <1>  -0.1360 
  5 N       -1.1460    -2.9890    -0.6190 N.2   1 <1>  -0.5120 
  6 C        0.8340    -2.3780     0.6650 C.3   1 <1>   0.1400 
  7 C       -2.4850    -4.8590     0.0230 C.2   1 <1>  -0.1360 
  8 C       -2.1920    -3.7350    -0.7910 C.2   1 <1>   0.3750 
  9 C        2.0220    -2.6560    -0.2830 C.3   1 <1>   0.2800 
 10 C       -3.1490    -3.3970    -1.9130 C.3   1 <1>  -0.1790 
 11 O        1.5330    -2.6230    -1.5800 O.3   1 <1>  -0.6800 
 12 C        2.6420    -4.0590    -0.0910 C.3   1 <1>  -0.1600 
 13 C        3.1050    -1.5590    -0.2020 C.3   1 <1>  -0.1600 
 14 C        4.0250    -4.2310    -0.7550 C.3   1 <1>   0.4230 
 15 C        4.4470    -1.9540    -0.8600 C.3   1 <1>   0.4230 
 16 N        4.2140    -3.1290    -1.7090 N.4   1 <1>  -0.9060 
 17 C        5.1710    -3.9990     0.2320 C.3   1 <1>  -0.1600 
 18 C        5.4520    -2.4930     0.1610 C.3   1 <1>  -0.1600 
 19 H       -1.7950    -6.0400     1.6780 H     1 <1>   0.1500 
 20 H        1.1550    -2.4540     1.6890 H     1 <1>   0.0800 
 21 H        0.4870    -1.3700     0.5160 H     1 <1>   0.0800 
 22 H       -3.3790    -5.4210    -0.1790 H     1 <1>   0.1500 
 23 H       -4.1240    -3.1890    -1.5110 H     1 <1>   0.0800 
 24 H       -3.2170    -4.2210    -2.5990 H     1 <1>   0.0800 
 25 H       -2.8080    -2.5300    -2.4490 H     1 <1>   0.0800 
 26 H        0.5520    -2.7820    -1.5190 H     1 <1>   0.4000 
 27 H        1.9710    -4.8020    -0.4850 H     1 <1>   0.0800 
 28 H        2.7240    -4.2700     0.9600 H     1 <1>   0.0800 
 29 H        3.2730    -1.3000     0.8280 H     1 <1>   0.0800 
 30 H        2.7340    -0.6650    -0.6730 H     1 <1>   0.0800 
 31 H        4.1010    -5.1970    -1.2290 H     1 <1>   0.0800 
 32 H        4.8560    -1.1260    -1.4170 H     1 <1>   0.0800 
 33 H        3.3180    -2.9850    -2.2130 H     1 <1>   0.4500 
 34 H        4.9820    -3.3020    -2.3610 H     1 <1>   0.4500 
 35 H        6.0370    -4.5520    -0.0910 H     1 <1>   0.0800 
 36 H        4.9270    -4.3220     1.2290 H     1 <1>   0.0800 
 37 H        5.3600    -2.0170     1.1220 H     1 <1>   0.0800 
 38 H        6.4520    -2.3210    -0.1970 H     1 <1>   0.0800 
@<TRIPOS>BOND
  1   1   2  2   
  2   2   3  am  
  3   2   4  1   
  4   3   5  1   
  5   3   6  1   
  6   4   7  2   
  7   4  19  1   
  8   5   8  2   
  9   6   9  1   
 10   6  20  1   
 11   6  21  1   
 12   7   8  1   
 13   7  22  1   
 14   8  10  1   
 15   9  11  1   
 16   9  12  1   
 17   9  13  1   
 18  10  23  1   
 19  10  24  1   
 20  10  25  1   
 21  11  26  1   
 22  12  14  1   
 23  12  27  1   
 24  12  28  1   
 25  13  15  1   
 26  13  29  1   
 27  13  30  1   
 28  14  16  1   
 29  14  17  1   
 30  14  31  1   
 31  15  16  1   
 32  15  18  1   
 33  15  32  1   
 34  16  33  1   
 35  16  34  1   
 36  17  18  1   
 37  17  35  1   
 38  17  36  1   
 39  18  37  1   
 40  18  38  1   
@<TRIPOS>SUBSTRUCTURE
  1 ****   9 GROUP 4 **** **** 0

# MOE 2024.06 (io_trps.svl 2023.06)
