@<TRIPOS>MOLECULE
NONAME
44 47 1 0 0 
SMALL
USER_CHARGES


@<TRIPOS>ATOM
  1 O       -0.5180     0.1290    -0.2920 O.2   1 <1>  -0.5700 
  2 C       -1.5550     0.7770    -0.2730 C.2   1 <1>   0.7160 
  3 N       -2.7350     0.0590    -0.3650 N.am  1 <1>  -0.6600 
  4 C       -1.4960     2.2380    -0.1550 C.2   1 <1>   0.2030 
  5 C       -4.1040     0.6300    -0.3400 C.3   1 <1>   0.1400 
  6 C       -2.7860    -1.4210    -0.3980 C.3   1 <1>   0.1400 
  7 N       -2.4900     3.1020    -0.3360 N.2   1 <1>  -0.7070 
  8 C       -0.3290     2.9480     0.1750 C.2   1 <1>  -0.1810 
  9 C       -5.0440    -0.5760    -0.3900 C.3   1 <1>   0.2000 
 10 C       -4.2040    -1.7760     0.0440 C.3   1 <1>  -0.0800 
 11 N       -1.9640     4.3210    -0.1320 N.pl3 1 <1>   0.3000 
 12 C       -0.6590     4.2460     0.1700 C.2   1 <1>  -0.3320 
 13 C        1.0800     2.4650     0.4950 C.3   1 <1>   0.3010 
 14 O       -6.1220    -0.4210     0.4670 O.3   1 <1>  -0.6800 
 15 C       -4.7160    -3.1060    -0.5300 C.3   1 <1>  -0.0170 
 16 C        0.3400     5.3420     0.4760 C.3   1 <1>   0.0200 
 17 O        1.8190     3.5140     1.0790 O.3   1 <1>  -0.5600 
 18 C       -3.8270    -4.2630    -0.1030 C.ar  1 <1>  -0.1430 
 19 C        1.7610     4.7440     0.4030 C.3   1 <1>   0.1200 
 20 C       -3.9310    -4.8310     1.1510 C.ar  1 <1>  -0.1500 
 21 C       -2.8710    -4.8030    -0.9390 C.ar  1 <1>  -0.1500 
 22 C       -3.0950    -5.8770     1.5000 C.ar  1 <1>   0.1600 
 23 C       -2.0830    -5.8510    -0.4910 C.ar  1 <1>   0.1600 
 24 N       -2.1720    -6.4000     0.7090 N.ar  1 <1>  -0.6200 
 25 H       -4.2390     1.1950     0.5660 H     1 <1>   0.0800 
 26 H       -4.2560     1.2660    -1.1950 H     1 <1>   0.0800 
 27 H       -2.6000    -1.7510    -1.4060 H     1 <1>   0.0800 
 28 H       -2.0490    -1.8520     0.2600 H     1 <1>   0.0800 
 29 H       -5.4220    -0.7010    -1.3910 H     1 <1>   0.0800 
 30 H       -4.1930    -1.8330     1.1190 H     1 <1>   0.0800 
 31 H       -2.5180     5.1830    -0.2060 H     1 <1>   0.2700 
 32 H        1.5830     2.1430    -0.3990 H     1 <1>   0.0800 
 33 H        1.0530     1.6520     1.1990 H     1 <1>   0.0800 
 34 H       -5.8080    -0.2420     1.3740 H     1 <1>   0.4000 
 35 H       -4.7530    -3.0530    -1.6040 H     1 <1>   0.0800 
 36 H       -5.7200    -3.2810    -0.1810 H     1 <1>   0.0800 
 37 H        0.1660     5.7320     1.4630 H     1 <1>   0.0800 
 38 H        0.2540     6.1460    -0.2320 H     1 <1>   0.0800 
 39 H        2.4720     5.4080     0.8620 H     1 <1>   0.0800 
 40 H        2.0480     4.5760    -0.6210 H     1 <1>   0.0800 
 41 H       -4.6540    -4.4680     1.8590 H     1 <1>   0.1500 
 42 H       -2.7270    -4.4210    -1.9330 H     1 <1>   0.1500 
 43 H       -3.1900    -6.3080     2.4820 H     1 <1>   0.1500 
 44 H       -1.3410    -6.2590    -1.1560 H     1 <1>   0.1500 
@<TRIPOS>BOND
  1   1   2  2   
  2   2   3  am  
  3   2   4  1   
  4   3   5  1   
  5   3   6  1   
  6   4   7  2   
  7   4   8  1   
  8   5   9  1   
  9   5  25  1   
 10   5  26  1   
 11   6  10  1   
 12   6  27  1   
 13   6  28  1   
 14   7  11  1   
 15   8  12  2   
 16   8  13  1   
 17   9  10  1   
 18   9  14  1   
 19   9  29  1   
 20  10  15  1   
 21  10  30  1   
 22  11  12  1   
 23  11  31  1   
 24  12  16  1   
 25  13  17  1   
 26  13  32  1   
 27  13  33  1   
 28  14  34  1   
 29  15  18  1   
 30  15  35  1   
 31  15  36  1   
 32  16  19  1   
 33  16  37  1   
 34  16  38  1   
 35  17  19  1   
 36  18  20  ar  
 37  18  21  ar  
 38  19  39  1   
 39  19  40  1   
 40  20  22  ar  
 41  20  41  1   
 42  21  23  ar  
 43  21  42  1   
 44  22  24  ar  
 45  22  43  1   
 46  23  24  ar  
 47  23  44  1   
@<TRIPOS>SUBSTRUCTURE
  1 ****   3 GROUP 4 **** **** 0

# MOE 2024.06 (io_trps.svl 2023.06)
