@<TRIPOS>MOLECULE
NONAME
46 49 1 0 0 
SMALL
USER_CHARGES


@<TRIPOS>ATOM
  1 S        0.1690    -0.2980     2.0040 S.3   1 <1>  -0.0800 
  2 C        1.3380    -1.0500     0.9110 C.2   1 <1>  -0.0450 
  3 C        0.8620     1.2890     1.7750 C.2   1 <1>  -0.1100 
  4 C        2.1810    -0.0870     0.4470 C.2   1 <1>  -0.1810 
  5 C        1.2660    -2.4750     0.6770 C.2   1 <1>   0.7150 
  6 C        1.9120     1.2310     0.9380 C.2   1 <1>  -0.1810 
  7 C        3.3070    -0.3450    -0.5490 C.3   1 <1>   0.0210 
  8 O        2.2910    -3.1310     0.6300 O.2   1 <1>  -0.5700 
  9 N        0.0700    -3.1320     0.4700 N.am  1 <1>  -0.6600 
 10 C        2.7700     2.4250     0.5520 C.3   1 <1>   0.0210 
 11 C        4.3050     0.8180    -0.6300 C.3   1 <1>  -0.1600 
 12 C       -1.1900    -2.4770     0.0380 C.3   1 <1>   0.1400 
 13 C        0.0040    -4.5950     0.2250 C.3   1 <1>   0.1400 
 14 C        3.5740     2.1640    -0.7270 C.3   1 <1>  -0.1600 
 15 C       -1.9870    -3.5780    -0.6600 C.3   1 <1>   0.2000 
 16 C       -1.4670    -4.8880    -0.0760 C.3   1 <1>  -0.0800 
 17 O       -3.3470    -3.4550    -0.4200 O.3   1 <1>  -0.6800 
 18 C       -1.6930    -6.0860    -1.0130 C.3   1 <1>  -0.0170 
 19 C       -1.2170    -7.3870    -0.3890 C.ar  1 <1>   0.1670 
 20 N        0.0760    -7.6520    -0.4960 N.ar  1 <1>  -0.6200 
 21 C       -2.1290    -8.2170     0.2480 C.ar  1 <1>  -0.1500 
 22 C        0.4770    -8.7870     0.0550 C.ar  1 <1>   0.1600 
 23 C       -1.6970    -9.3960     0.8170 C.ar  1 <1>  -0.1500 
 24 C       -0.3530    -9.6790     0.7120 C.ar  1 <1>  -0.1500 
 25 H        0.4130     2.1090     2.3060 H     1 <1>   0.1500 
 26 H        3.8340    -1.2450    -0.2850 H     1 <1>   0.0800 
 27 H        2.8680    -0.4950    -1.5190 H     1 <1>   0.0800 
 28 H        2.1510     3.2950     0.4250 H     1 <1>   0.0800 
 29 H        3.4550     2.6210     1.3590 H     1 <1>   0.0800 
 30 H        4.9270     0.8110     0.2480 H     1 <1>   0.0800 
 31 H        4.9410     0.6820    -1.4880 H     1 <1>   0.0800 
 32 H       -1.7180    -2.1230     0.9060 H     1 <1>   0.0800 
 33 H       -0.9860    -1.6620    -0.6340 H     1 <1>   0.0800 
 34 H        0.6260    -4.8410    -0.6200 H     1 <1>   0.0800 
 35 H        0.3500    -5.1450     1.0840 H     1 <1>   0.0800 
 36 H        2.9070     2.1510    -1.5720 H     1 <1>   0.0800 
 37 H        4.2850     2.9580    -0.8720 H     1 <1>   0.0800 
 38 H       -1.8220    -3.5290    -1.7240 H     1 <1>   0.0800 
 39 H       -1.9510    -5.0770     0.8660 H     1 <1>   0.0800 
 40 H       -3.5270    -3.4950     0.5390 H     1 <1>   0.4000 
 41 H       -1.1710    -5.9320    -1.9410 H     1 <1>   0.0800 
 42 H       -2.7410    -6.1630    -1.2430 H     1 <1>   0.0800 
 43 H       -3.1670    -7.9450     0.3000 H     1 <1>   0.1500 
 44 H        1.5260    -9.0180    -0.0210 H     1 <1>   0.1500 
 45 H       -2.3770   -10.0620     1.3190 H     1 <1>   0.1500 
 46 H        0.0520   -10.5810     1.1340 H     1 <1>   0.1500 
@<TRIPOS>BOND
  1   1   2  1   
  2   1   3  1   
  3   2   4  2   
  4   2   5  1   
  5   3   6  2   
  6   3  25  1   
  7   4   6  1   
  8   4   7  1   
  9   5   8  2   
 10   5   9  am  
 11   6  10  1   
 12   7  11  1   
 13   7  26  1   
 14   7  27  1   
 15   9  12  1   
 16   9  13  1   
 17  10  14  1   
 18  10  28  1   
 19  10  29  1   
 20  11  14  1   
 21  11  30  1   
 22  11  31  1   
 23  12  15  1   
 24  12  32  1   
 25  12  33  1   
 26  13  16  1   
 27  13  34  1   
 28  13  35  1   
 29  14  36  1   
 30  14  37  1   
 31  15  16  1   
 32  15  17  1   
 33  15  38  1   
 34  16  18  1   
 35  16  39  1   
 36  17  40  1   
 37  18  19  1   
 38  18  41  1   
 39  18  42  1   
 40  19  20  ar  
 41  19  21  ar  
 42  20  22  ar  
 43  21  23  ar  
 44  21  43  1   
 45  22  24  ar  
 46  22  44  1   
 47  23  24  ar  
 48  23  45  1   
 49  24  46  1   
@<TRIPOS>SUBSTRUCTURE
  1 ****   9 GROUP 4 **** **** 0

# MOE 2024.06 (io_trps.svl 2023.06)
