@<TRIPOS>MOLECULE
NONAME
49 52 1 0 0 
SMALL
USER_CHARGES


@<TRIPOS>ATOM
  1 O       -0.5960    -1.8520    -0.9050 O.co2 1 <1>  -0.9000 
  2 C       -1.6000    -1.1580    -0.7300 C.2   1 <1>   0.9060 
  3 O       -1.6660    -0.2410     0.0920 O.co2 1 <1>  -0.9000 
  4 C       -2.9010    -1.5970    -1.4040 C.3   1 <1>   0.2370 
  5 N       -3.6490    -2.7020    -0.6710 N.4   1 <1>  -0.9590 
  6 C       -4.0370    -2.2590     0.7190 C.3   1 <1>   0.4230 
  7 C       -2.8740    -3.9810    -0.7330 C.3   1 <1>   0.3430 
  8 C       -2.9910    -2.5150     1.8360 C.3   1 <1>   0.1200 
  9 C       -5.3930    -2.9260     1.0620 C.3   1 <1>   0.1400 
 10 C       -3.2610    -5.0520     0.3090 C.3   1 <1>  -0.0800 
 11 O       -3.1000    -3.8040     2.3730 O.3   1 <1>  -0.5600 
 12 N       -5.6600    -4.1680     0.2430 N.am  1 <1>  -0.6600 
 13 C       -2.5110    -4.8130     1.6290 C.3   1 <1>   0.1200 
 14 C       -4.7710    -5.3410     0.5120 C.3   1 <1>   0.1400 
 15 C       -6.4990    -4.1030    -0.8380 C.2   1 <1>   0.5690 
 16 O       -6.5540    -3.0730    -1.4680 O.2   1 <1>  -0.5700 
 17 C       -7.3230    -5.2840    -1.3380 C.3   1 <1>   0.1570 
 18 N       -7.7370    -6.1860    -0.2430 N.pl3 1 <1>   0.0480 
 19 C       -7.3340    -7.4920    -0.0640 C.ar  1 <1>  -0.1520 
 20 C       -8.4850    -5.8290     0.8450 C.2   1 <1>  -0.3020 
 21 C       -7.8250    -7.9350     1.1610 C.ar  1 <1>   0.0000 
 22 C       -6.5690    -8.3450    -0.8690 C.ar  1 <1>  -0.1500 
 23 C       -8.5570    -6.8640     1.7120 C.2   1 <1>  -0.1500 
 24 C       -7.5400    -9.2310     1.6010 C.ar  1 <1>  -0.1500 
 25 C       -6.2960    -9.6190    -0.4250 C.ar  1 <1>  -0.1500 
 26 C       -6.7800   -10.0610     0.8120 C.ar  1 <1>  -0.1500 
 27 H       -2.6520    -1.9210    -2.3980 H     1 <1>   0.0800 
 28 H       -3.5250    -0.7250    -1.4780 H     1 <1>   0.0800 
 29 H       -4.5630    -2.8620    -1.1320 H     1 <1>   0.4500 
 30 H       -4.1920    -1.1930     0.6940 H     1 <1>   0.0800 
 31 H       -2.9920    -4.3990    -1.7190 H     1 <1>   0.0800 
 32 H       -1.8250    -3.7620    -0.6090 H     1 <1>   0.0800 
 33 H       -3.1890    -1.8330     2.6430 H     1 <1>   0.0800 
 34 H       -1.9800    -2.3410     1.5110 H     1 <1>   0.0800 
 35 H       -6.1720    -2.2080     0.8740 H     1 <1>   0.0800 
 36 H       -5.4490    -3.1650     2.1100 H     1 <1>   0.0800 
 37 H       -2.8360    -5.9670    -0.0620 H     1 <1>   0.0800 
 38 H       -1.4760    -4.5620     1.4610 H     1 <1>   0.0800 
 39 H       -2.5460    -5.7030     2.2340 H     1 <1>   0.0800 
 40 H       -4.9510    -5.6950     1.5140 H     1 <1>   0.0800 
 41 H       -5.0360    -6.1410    -0.1540 H     1 <1>   0.0800 
 42 H       -6.7510    -5.8310    -2.0600 H     1 <1>   0.0800 
 43 H       -8.2070    -4.9110    -1.8180 H     1 <1>   0.0800 
 44 H       -8.9220    -4.8500     0.9430 H     1 <1>   0.1500 
 45 H       -6.2040    -8.0180    -1.8240 H     1 <1>   0.1500 
 46 H       -9.0660    -6.9080     2.6590 H     1 <1>   0.1500 
 47 H       -7.9230    -9.5570     2.5510 H     1 <1>   0.1500 
 48 H       -5.7120   -10.2930    -1.0260 H     1 <1>   0.1500 
 49 H       -6.5530   -11.0620     1.1370 H     1 <1>   0.1500 
@<TRIPOS>BOND
  1   1   2  ar  
  2   2   3  ar  
  3   2   4  1   
  4   4   5  1   
  5   4  27  1   
  6   4  28  1   
  7   5   6  1   
  8   5   7  1   
  9   5  29  1   
 10   6   8  1   
 11   6   9  1   
 12   6  30  1   
 13   7  10  1   
 14   7  31  1   
 15   7  32  1   
 16   8  11  1   
 17   8  33  1   
 18   8  34  1   
 19   9  12  1   
 20   9  35  1   
 21   9  36  1   
 22  10  13  1   
 23  10  14  1   
 24  10  37  1   
 25  11  13  1   
 26  12  14  1   
 27  12  15  am  
 28  13  38  1   
 29  13  39  1   
 30  14  40  1   
 31  14  41  1   
 32  15  16  2   
 33  15  17  1   
 34  17  18  1   
 35  17  42  1   
 36  17  43  1   
 37  18  19  1   
 38  18  20  1   
 39  19  21  ar  
 40  19  22  ar  
 41  20  23  2   
 42  20  44  1   
 43  21  23  1   
 44  21  24  ar  
 45  22  25  ar  
 46  22  45  1   
 47  23  46  1   
 48  24  26  ar  
 49  24  47  1   
 50  25  26  ar  
 51  25  48  1   
 52  26  49  1   
@<TRIPOS>SUBSTRUCTURE
  1 ****  14 GROUP 4 **** **** 0

# MOE 2024.06 (io_trps.svl 2023.06)
