@<TRIPOS>MOLECULE
NONAME
44 46 1 0 0 
SMALL
USER_CHARGES


@<TRIPOS>ATOM
  1 CL       0.6440     5.0800     4.6350 Cl    1 <1>  -0.1850 
  2 C        1.0360     4.8420     2.9520 C.ar  1 <1>   0.1690 
  3 C        1.6390     5.8650     2.2500 C.ar  1 <1>  -0.1580 
  4 C        0.7360     3.6340     2.3520 C.ar  1 <1>  -0.1580 
  5 C        1.9590     5.7070     0.9020 C.ar  1 <1>   0.0770 
  6 C        1.0520     3.4530     1.0180 C.ar  1 <1>  -0.1580 
  7 C        2.5890     6.7820     0.1530 C.2   1 <1>   0.5380 
  8 C        1.6570     4.4780     0.3080 C.ar  1 <1>  -0.1580 
  9 O        3.3760     7.5390     0.6900 O.2   1 <1>  -0.5750 
 10 N        2.2970     7.0400    -1.1610 N.am  1 <1>  -0.6650 
 11 C        0.9100     6.9950    -1.6770 C.3   1 <1>   0.1320 
 12 C        3.3150     7.5350    -2.1310 C.3   1 <1>   0.1320 
 13 C        0.4340     8.4360    -1.8900 C.3   1 <1>  -0.1680 
 14 C        2.7240     8.6350    -3.0270 C.3   1 <1>  -0.1680 
 15 C        1.5420     9.4010    -2.3880 C.3   1 <1>  -0.0280 
 16 C        1.9620    10.4150    -1.3150 C.2   1 <1>   0.8490 
 17 O        1.4890    11.5220    -1.3700 O.2   1 <1>  -0.5750 
 18 N        2.8440    10.0980    -0.3290 N.pl3 1 <1>  -0.7340 
 19 C        3.3260    10.9190     0.6080 C.cat 1 <1>   1.0690 
 20 N        2.8230    12.1040     0.9050 N.pl3 1 <1>  -0.7040 
 21 N        4.3860    10.6900     1.3870 N.pl3 1 <1>  -0.7680 
 22 C        3.5580    12.6630     1.9210 C.2   1 <1>   0.1920 
 23 C        4.5280    11.7830     2.2240 C.2   1 <1>   0.1920 
 24 C        5.3300     9.5410     1.3960 C.3   1 <1>   0.2670 
 25 H        1.8610     6.7880     2.7530 H     1 <1>   0.1420 
 26 H        0.2660     2.8520     2.9220 H     1 <1>   0.1420 
 27 H        0.8290     2.5160     0.5350 H     1 <1>   0.1420 
 28 H        1.9050     4.3200    -0.7270 H     1 <1>   0.1420 
 29 H        0.2520     6.4880    -0.9900 H     1 <1>   0.0710 
 30 H        0.9010     6.4570    -2.6100 H     1 <1>   0.0710 
 31 H        3.6480     6.7120    -2.7420 H     1 <1>   0.0710 
 32 H        4.1740     7.9120    -1.6040 H     1 <1>   0.0710 
 33 H        0.0100     8.8030    -0.9710 H     1 <1>   0.0710 
 34 H       -0.3680     8.4130    -2.6080 H     1 <1>   0.0710 
 35 H        2.3710     8.1650    -3.9300 H     1 <1>   0.0710 
 36 H        3.5020     9.3170    -3.3240 H     1 <1>   0.0710 
 37 H        1.1030     9.9890    -3.1770 H     1 <1>   0.0710 
 38 H        3.0760     9.1040    -0.2120 H     1 <1>   0.4440 
 39 H        2.0320    12.4890     0.3760 H     1 <1>   0.4440 
 40 H        3.3420    13.6310     2.3470 H     1 <1>   0.1420 
 41 H        5.3060    11.8610     2.9680 H     1 <1>   0.1420 
 42 H        5.3570     9.0650     0.4310 H     1 <1>   0.0710 
 43 H        5.0260     8.8220     2.1390 H     1 <1>   0.0710 
 44 H        6.3230     9.8820     1.6320 H     1 <1>   0.0710 
@<TRIPOS>BOND
  1   1   2  1   
  2   2   3  ar  
  3   2   4  ar  
  4   3   5  ar  
  5   3  25  1   
  6   4   6  ar  
  7   4  26  1   
  8   5   7  1   
  9   5   8  ar  
 10   6   8  ar  
 11   6  27  1   
 12   7   9  2   
 13   7  10  am  
 14   8  28  1   
 15  10  11  1   
 16  10  12  1   
 17  11  13  1   
 18  11  29  1   
 19  11  30  1   
 20  12  14  1   
 21  12  31  1   
 22  12  32  1   
 23  13  15  1   
 24  13  33  1   
 25  13  34  1   
 26  14  15  1   
 27  14  35  1   
 28  14  36  1   
 29  15  16  1   
 30  15  37  1   
 31  16  17  2   
 32  16  18  1   
 33  18  19  ar  
 34  18  38  1   
 35  19  20  ar  
 36  19  21  ar  
 37  20  22  1   
 38  20  39  1   
 39  21  23  1   
 40  21  24  1   
 41  22  23  2   
 42  22  40  1   
 43  23  41  1   
 44  24  42  1   
 45  24  43  1   
 46  24  44  1   
@<TRIPOS>SUBSTRUCTURE
  1 ****   9 GROUP 4 **** **** 0

# MOE 2024.06 (io_trps.svl 2023.06)
