@<TRIPOS>MOLECULE
NONAME
44 45 1 0 0 
SMALL
USER_CHARGES


@<TRIPOS>ATOM
  1 S        0.8610     0.6050    -0.8900 S.3   1 <1>  -0.3320 
  2 C        0.5300    -1.1570    -0.7050 C.ar  1 <1>   0.1020 
  3 C        1.7760     1.1340     0.6190 C.3   1 <1>   0.0700 
  4 C       -0.0950    -1.7920    -1.7630 C.ar  1 <1>  -0.1500 
  5 C        0.8790    -1.8590     0.4390 C.ar  1 <1>  -0.1500 
  6 C        2.0960     2.6200     0.4520 C.3   1 <1>  -0.1600 
  7 C       -0.3720    -3.1460    -1.6820 C.ar  1 <1>  -0.1500 
  8 C        0.5990    -3.2140     0.5140 C.ar  1 <1>  -0.1500 
  9 C        3.0470     3.1090     1.5420 C.3   1 <1>   0.2090 
 10 C       -0.0240    -3.8550    -0.5440 C.ar  1 <1>  -0.1500 
 11 N        3.2780     4.5610     1.3720 N.pl3 1 <1>  -0.8690 
 12 C        4.0810     5.2670     0.5700 C.ar  1 <1>   0.7710 
 13 N        4.0710     6.5690     0.7400 N.ar  1 <1>  -0.6200 
 14 N        4.8390     4.6530    -0.3520 N.ar  1 <1>  -0.1790 
 15 C        4.8650     7.2980    -0.0220 C.ar  1 <1>   0.4100 
 16 C        5.6370     5.3670    -1.1790 C.ar  1 <1>   0.2110 
 17 N        4.8670     8.6330     0.2210 N.pl3 1 <1>  -0.8380 
 18 C        5.6670     6.7160    -1.0390 C.ar  1 <1>  -0.1430 
 19 C        3.6060     9.3670     0.5330 C.3   1 <1>   0.1290 
 20 C        6.1020     9.3850     0.5770 C.3   1 <1>   0.1290 
 21 C        6.5130     7.5680    -1.9850 C.3   1 <1>  -0.0970 
 22 H        2.6650     0.5290     0.6730 H     1 <1>   0.0800 
 23 H        1.1380     0.9520     1.4670 H     1 <1>   0.0800 
 24 H       -0.3620    -1.2310    -2.6410 H     1 <1>   0.1500 
 25 H        1.3580    -1.3810     1.2690 H     1 <1>   0.1500 
 26 H        1.1750     3.1760     0.5000 H     1 <1>   0.0800 
 27 H        2.5370     2.7720    -0.5160 H     1 <1>   0.0800 
 28 H       -0.8570    -3.6460    -2.5030 H     1 <1>   0.1500 
 29 H        0.8640    -3.7710     1.3960 H     1 <1>   0.1500 
 30 H        3.9820     2.5750     1.4990 H     1 <1>   0.0800 
 31 H        2.6100     2.9350     2.5120 H     1 <1>   0.0800 
 32 H       -0.2400    -4.9080    -0.4830 H     1 <1>   0.1500 
 33 H        2.7260     5.1520     2.0080 H     1 <1>   0.4000 
 34 H        4.7480     3.6460    -0.4030 H     1 <1>   0.4570 
 35 H        6.2140     4.8450    -1.9260 H     1 <1>   0.1500 
 36 H        2.7530     8.8110     0.1830 H     1 <1>   0.0800 
 37 H        3.6100    10.3280     0.0480 H     1 <1>   0.0800 
 38 H        3.5170     9.5050     1.5970 H     1 <1>   0.0800 
 39 H        6.9410     8.7170     0.6590 H     1 <1>   0.0800 
 40 H        5.9720     9.8780     1.5250 H     1 <1>   0.0800 
 41 H        6.3090    10.1260    -0.1770 H     1 <1>   0.0800 
 42 H        5.9460     8.4200    -2.3200 H     1 <1>   0.0800 
 43 H        6.8150     7.0090    -2.8530 H     1 <1>   0.0800 
 44 H        7.3990     7.9190    -1.4860 H     1 <1>   0.0800 
@<TRIPOS>BOND
  1   1   2  1   
  2   1   3  1   
  3   2   4  ar  
  4   2   5  ar  
  5   3   6  1   
  6   3  22  1   
  7   3  23  1   
  8   4   7  ar  
  9   4  24  1   
 10   5   8  ar  
 11   5  25  1   
 12   6   9  1   
 13   6  26  1   
 14   6  27  1   
 15   7  10  ar  
 16   7  28  1   
 17   8  10  ar  
 18   8  29  1   
 19   9  11  1   
 20   9  30  1   
 21   9  31  1   
 22  10  32  1   
 23  11  12  1   
 24  11  33  1   
 25  12  13  ar  
 26  12  14  ar  
 27  13  15  ar  
 28  14  16  ar  
 29  14  34  1   
 30  15  17  1   
 31  15  18  ar  
 32  16  18  ar  
 33  16  35  1   
 34  17  19  1   
 35  17  20  1   
 36  18  21  1   
 37  19  36  1   
 38  19  37  1   
 39  19  38  1   
 40  20  39  1   
 41  20  40  1   
 42  20  41  1   
 43  21  42  1   
 44  21  43  1   
 45  21  44  1   
@<TRIPOS>SUBSTRUCTURE
  1 ****   6 GROUP 4 **** **** 0

# MOE 2024.06 (io_trps.svl 2023.06)
