@<TRIPOS>MOLECULE
NONAME
50 53 1 0 0 
SMALL
USER_CHARGES


@<TRIPOS>ATOM
  1 O       -0.1210    -0.4450    -1.0080 O.2   1 <1>  -0.5700 
  2 C        0.4130    -1.4160    -0.5090 C.2   1 <1>   0.8060 
  3 O        1.7140    -1.3410    -0.2020 O.3   1 <1>  -0.4300 
  4 C       -0.2520    -2.6700    -0.2100 C.2   1 <1>   0.1410 
  5 C        2.4650    -0.1720    -0.4470 C.3   1 <1>   0.1200 
  6 N       -1.5700    -2.9510    -0.4490 N.2   1 <1>  -0.5650 
  7 C        0.2970    -3.7700     0.3490 C.2   1 <1>  -0.0100 
  8 C        3.8960    -0.4240     0.0160 C.3   1 <1>  -0.2400 
  9 C       -1.7140    -4.1610    -0.0330 C.2   1 <1>   0.5620 
 10 O       -0.6140    -4.6940     0.4590 O.3   1 <1>  -0.2800 
 11 N       -2.8740    -4.9020    -0.0650 N.pl3 1 <1>  -0.8220 
 12 C       -4.1720    -4.2360    -0.3210 C.3   1 <1>   0.2090 
 13 C       -3.0320    -6.0990     0.7810 C.3   1 <1>   0.2090 
 14 C       -5.2250    -5.0990     0.3860 C.3   1 <1>  -0.0800 
 15 C       -4.5270    -6.4210     0.7690 C.3   1 <1>  -0.0800 
 16 C       -6.5710    -5.2510    -0.3710 C.3   1 <1>   0.4240 
 17 C       -4.8770    -7.5690    -0.1950 C.3   1 <1>  -0.1600 
 18 O       -6.3320    -5.3940    -1.7270 O.3   1 <1>  -0.6800 
 19 C       -7.4630    -4.0130    -0.1400 C.ar  1 <1>  -0.1430 
 20 C       -7.2510    -6.5680     0.0440 C.3   1 <1>  -0.1600 
 21 C       -6.3970    -7.8240    -0.2570 C.3   1 <1>  -0.1600 
 22 C       -8.1030    -3.8260     1.0820 C.ar  1 <1>  -0.1500 
 23 C       -7.6400    -3.0390    -1.1210 C.ar  1 <1>  -0.1500 
 24 C       -8.8980    -2.7170     1.3130 C.ar  1 <1>  -0.1500 
 25 C       -8.4330    -1.9290    -0.8930 C.ar  1 <1>  -0.1500 
 26 C       -9.0660    -1.7660     0.3250 C.ar  1 <1>  -0.1500 
 27 H        2.4320     0.0410    -1.5030 H     1 <1>   0.0800 
 28 H        2.0190     0.6430     0.1000 H     1 <1>   0.0800 
 29 H        1.2990    -3.9660     0.6840 H     1 <1>   0.1500 
 30 H        4.3250    -1.2440    -0.5320 H     1 <1>   0.0800 
 31 H        3.9130    -0.6430     1.0680 H     1 <1>   0.0800 
 32 H        4.4920     0.4530    -0.1600 H     1 <1>   0.0800 
 33 H       -4.1750    -3.2350     0.0760 H     1 <1>   0.0800 
 34 H       -4.3180    -4.1780    -1.3850 H     1 <1>   0.0800 
 35 H       -2.4400    -6.9120     0.3950 H     1 <1>   0.0800 
 36 H       -2.7090    -5.8680     1.7820 H     1 <1>   0.0800 
 37 H       -5.4380    -4.6010     1.3150 H     1 <1>   0.0800 
 38 H       -4.8250    -6.7200     1.7590 H     1 <1>   0.0800 
 39 H       -4.5060    -7.3230    -1.1760 H     1 <1>   0.0800 
 40 H       -4.3780    -8.4720     0.1130 H     1 <1>   0.0800 
 41 H       -5.7970    -6.1990    -1.8480 H     1 <1>   0.4000 
 42 H       -7.4330    -6.5420     1.1020 H     1 <1>   0.0800 
 43 H       -8.2100    -6.6460    -0.4380 H     1 <1>   0.0800 
 44 H       -6.6600    -8.5900     0.4530 H     1 <1>   0.0800 
 45 H       -6.6450    -8.2020    -1.2340 H     1 <1>   0.0800 
 46 H       -7.9880    -4.5400     1.8760 H     1 <1>   0.1500 
 47 H       -7.1590    -3.1350    -2.0790 H     1 <1>   0.1500 
 48 H       -9.3860    -2.5930     2.2640 H     1 <1>   0.1500 
 49 H       -8.5560    -1.1910    -1.6670 H     1 <1>   0.1500 
 50 H       -9.6830    -0.9030     0.5020 H     1 <1>   0.1500 
@<TRIPOS>BOND
  1   1   2  2   
  2   2   3  1   
  3   2   4  1   
  4   3   5  1   
  5   4   6  1   
  6   4   7  2   
  7   5   8  1   
  8   5  27  1   
  9   5  28  1   
 10   6   9  2   
 11   7  10  1   
 12   7  29  1   
 13   8  30  1   
 14   8  31  1   
 15   8  32  1   
 16   9  10  1   
 17   9  11  1   
 18  11  12  1   
 19  11  13  1   
 20  12  14  1   
 21  12  33  1   
 22  12  34  1   
 23  13  15  1   
 24  13  35  1   
 25  13  36  1   
 26  14  15  1   
 27  14  16  1   
 28  14  37  1   
 29  15  17  1   
 30  15  38  1   
 31  16  18  1   
 32  16  19  1   
 33  16  20  1   
 34  17  21  1   
 35  17  39  1   
 36  17  40  1   
 37  18  41  1   
 38  19  22  ar  
 39  19  23  ar  
 40  20  21  1   
 41  20  42  1   
 42  20  43  1   
 43  21  44  1   
 44  21  45  1   
 45  22  24  ar  
 46  22  46  1   
 47  23  25  ar  
 48  23  47  1   
 49  24  26  ar  
 50  24  48  1   
 51  25  26  ar  
 52  25  49  1   
 53  26  50  1   
@<TRIPOS>SUBSTRUCTURE
  1 ****  12 GROUP 4 **** **** 0

# MOE 2024.06 (io_trps.svl 2023.06)
