@<TRIPOS>MOLECULE
NONAME
47 49 1 0 0 
SMALL
USER_CHARGES


@<TRIPOS>ATOM
  1 O       -2.7210     2.1360     2.7660 O.2   1 <1>  -0.5700 
  2 C       -2.4630     1.7530     1.6370 C.2   1 <1>   0.5440 
  3 N       -2.9870     0.5520     1.2020 N.am  1 <1>  -0.6600 
  4 C       -1.6590     2.6080     0.7860 C.ar  1 <1>   0.0860 
  5 C       -2.9230     0.0810    -0.2190 C.3   1 <1>   0.1400 
  6 C       -3.5760    -0.4490     2.1370 C.3   1 <1>   0.1400 
  7 C       -0.4630     2.1800     0.2010 C.ar  1 <1>   0.0820 
  8 C       -2.0690     3.9190     0.5340 C.ar  1 <1>  -0.1500 
  9 C       -4.3150    -0.3540    -0.7040 C.3   1 <1>   0.2000 
 10 C       -4.9660    -0.8720     1.6440 C.3   1 <1>  -0.1600 
 11 O        0.0010     0.9320     0.4660 O.3   1 <1>  -0.3630 
 12 C        0.2560     3.0270    -0.6470 C.ar  1 <1>   0.0820 
 13 C       -1.3440     4.7660    -0.2840 C.ar  1 <1>  -0.1500 
 14 O       -4.2050    -0.8100    -2.0070 O.3   1 <1>  -0.6800 
 15 C       -4.9280    -1.4550     0.2010 C.3   1 <1>  -0.1060 
 16 C        1.3090     0.5900     0.0570 C.3   1 <1>   0.1200 
 17 O        1.3880     2.6060    -1.2690 O.3   1 <1>  -0.3630 
 18 C       -0.1790     4.3170    -0.8810 C.ar  1 <1>  -0.1500 
 19 C       -4.0450    -2.7250     0.1540 C.2   1 <1>   0.9060 
 20 C       -6.3610    -1.8630    -0.2520 C.3   1 <1>  -0.1600 
 21 C        1.6100     1.2100    -1.3120 C.3   1 <1>   0.1200 
 22 O       -3.4530    -3.0180    -0.8980 O.co2 1 <1>  -0.9000 
 23 O       -3.9540    -3.4460     1.1550 O.co2 1 <1>  -0.9000 
 24 C       -7.4010    -0.7320    -0.3590 C.3   1 <1>  -0.1600 
 25 C       -8.7570    -1.2840    -0.8070 C.3   1 <1>  -0.2400 
 26 H       -2.5710     0.8640    -0.8630 H     1 <1>   0.0800 
 27 H       -2.2380    -0.7470    -0.2780 H     1 <1>   0.0800 
 28 H       -2.9260    -1.3070     2.1890 H     1 <1>   0.0800 
 29 H       -3.6570    -0.0410     3.1290 H     1 <1>   0.0800 
 30 H       -2.9770     4.2670     0.9980 H     1 <1>   0.1500 
 31 H       -4.9450     0.5150    -0.7250 H     1 <1>   0.0800 
 32 H       -5.3580    -1.6130     2.3190 H     1 <1>   0.0800 
 33 H       -5.6050    -0.0120     1.6950 H     1 <1>   0.0800 
 34 H       -1.6850     5.7730    -0.4590 H     1 <1>   0.1500 
 35 H       -3.8510    -1.7470    -1.9150 H     1 <1>   0.4000 
 36 H        1.9970     0.9590     0.7970 H     1 <1>   0.0800 
 37 H        1.3710    -0.4820     0.0160 H     1 <1>   0.0800 
 38 H        0.3910     4.9610    -1.5260 H     1 <1>   0.1500 
 39 H       -6.2810    -2.3420    -1.2140 H     1 <1>   0.0800 
 40 H       -6.7250    -2.6100     0.4330 H     1 <1>   0.0800 
 41 H        0.9640     0.7890    -2.0620 H     1 <1>   0.0800 
 42 H        2.6340     1.0430    -1.5920 H     1 <1>   0.0800 
 43 H       -7.5250    -0.2450     0.5910 H     1 <1>   0.0800 
 44 H       -7.0740    -0.0010    -1.0770 H     1 <1>   0.0800 
 45 H       -9.1190    -2.0080    -0.0980 H     1 <1>   0.0800 
 46 H       -8.6660    -1.7570    -1.7690 H     1 <1>   0.0800 
 47 H       -9.4740    -0.4860    -0.8820 H     1 <1>   0.0800 
@<TRIPOS>BOND
  1   1   2  2   
  2   2   3  am  
  3   2   4  1   
  4   3   5  1   
  5   3   6  1   
  6   4   7  ar  
  7   4   8  ar  
  8   5   9  1   
  9   5  26  1   
 10   5  27  1   
 11   6  10  1   
 12   6  28  1   
 13   6  29  1   
 14   7  11  1   
 15   7  12  ar  
 16   8  13  ar  
 17   8  30  1   
 18   9  14  1   
 19   9  15  1   
 20   9  31  1   
 21  10  15  1   
 22  10  32  1   
 23  10  33  1   
 24  11  16  1   
 25  12  17  1   
 26  12  18  ar  
 27  13  18  ar  
 28  13  34  1   
 29  14  35  1   
 30  15  19  1   
 31  15  20  1   
 32  16  21  1   
 33  16  36  1   
 34  16  37  1   
 35  17  21  1   
 36  18  38  1   
 37  19  22  ar  
 38  19  23  ar  
 39  20  24  1   
 40  20  39  1   
 41  20  40  1   
 42  21  41  1   
 43  21  42  1   
 44  24  25  1   
 45  24  43  1   
 46  24  44  1   
 47  25  45  1   
 48  25  46  1   
 49  25  47  1   
@<TRIPOS>SUBSTRUCTURE
  1 ****   5 GROUP 4 **** **** 0

# MOE 2024.06 (io_trps.svl 2023.06)
