@<TRIPOS>MOLECULE
NONAME
55 57 1 0 0 
SMALL
USER_CHARGES


@<TRIPOS>ATOM
  1 S        0.1620     0.0390    -1.1980 S.o2  1 <1>   1.5760 
  2 O        0.9710    -0.9990    -1.7940 O.2   1 <1>  -0.6500 
  3 O       -0.7180     0.8440    -2.0130 O.2   1 <1>  -0.6500 
  4 N        1.1880     1.0970    -0.3680 N.am  1 <1>  -0.8490 
  5 N       -0.7140    -0.6340     0.0720 N.am  1 <1>  -0.8490 
  6 C        2.1810     1.6550    -1.2980 C.3   1 <1>   0.1960 
  7 C        0.4130     2.1430     0.3050 C.3   1 <1>   0.1960 
  8 C        0.1110    -1.4560     0.9810 C.3   1 <1>   0.1960 
  9 C       -1.8800    -1.3820    -0.4000 C.3   1 <1>   0.1960 
 10 C        3.4610     2.1000    -0.5700 C.3   1 <1>   0.2090 
 11 C        1.2780     3.0330     1.1980 C.3   1 <1>  -0.1600 
 12 C       -0.6910    -2.5300     1.7510 C.3   1 <1>   0.1200 
 13 C       -2.7460    -1.8820     0.7800 C.3   1 <1>   0.1200 
 14 N        3.4470     3.5070    -0.0190 N.pl3 1 <1>  -0.8380 
 15 C        2.1130     4.0490     0.4150 C.3   1 <1>   0.2090 
 16 O       -2.0140    -2.1300     1.9540 O.3   1 <1>  -0.5600 
 17 C        4.5350     4.3270     0.0040 C.ar  1 <1>   0.7710 
 18 N        4.3630     5.6360     0.0820 N.ar  1 <1>  -0.6200 
 19 N        5.7640     3.7850    -0.0470 N.ar  1 <1>  -0.1790 
 20 C        5.4250     6.4190     0.1090 C.ar  1 <1>   0.4100 
 21 C        6.8800     4.5500    -0.0590 C.ar  1 <1>   0.2110 
 22 N        5.1850     7.7490     0.2350 N.pl3 1 <1>  -0.8380 
 23 C        6.7390     5.8960     0.0090 C.ar  1 <1>  -0.1430 
 24 C        5.7450     8.5680     1.3460 C.3   1 <1>   0.1290 
 25 C        4.0610     8.4070    -0.4910 C.3   1 <1>   0.1290 
 26 C        7.9680     6.8030    -0.0570 C.3   1 <1>  -0.0970 
 27 H        1.7620     2.4540    -1.8870 H     1 <1>   0.0800 
 28 H        2.4830     0.8830    -1.9860 H     1 <1>   0.0800 
 29 H       -0.3280     1.6800     0.9350 H     1 <1>   0.0800 
 30 H       -0.1150     2.7430    -0.4190 H     1 <1>   0.0800 
 31 H        0.5880    -0.8020     1.6900 H     1 <1>   0.0800 
 32 H        0.8930    -1.9590     0.4390 H     1 <1>   0.0800 
 33 H       -1.5540    -2.2240    -0.9870 H     1 <1>   0.0800 
 34 H       -2.4880    -0.7590    -1.0360 H     1 <1>   0.0800 
 35 H        4.2590     2.0170    -1.2870 H     1 <1>   0.0800 
 36 H        3.6560     1.4010     0.2270 H     1 <1>   0.0800 
 37 H        1.8880     2.4450     1.8600 H     1 <1>   0.0800 
 38 H        0.6000     3.5950     1.8150 H     1 <1>   0.0800 
 39 H       -0.2450    -2.7110     2.7130 H     1 <1>   0.0800 
 40 H       -0.7010    -3.4560     1.2020 H     1 <1>   0.0800 
 41 H       -3.2580    -2.7870     0.5040 H     1 <1>   0.0800 
 42 H       -3.4840    -1.1390     1.0230 H     1 <1>   0.0800 
 43 H        2.2600     4.8970     1.0640 H     1 <1>   0.0800 
 44 H        1.5670     4.4010    -0.4440 H     1 <1>   0.0800 
 45 H        5.7970     2.7730    -0.0430 H     1 <1>   0.4570 
 46 H        7.8430     4.0680    -0.1270 H     1 <1>   0.1500 
 47 H        6.2910     7.9470     2.0340 H     1 <1>   0.0800 
 48 H        4.9470     9.0480     1.8870 H     1 <1>   0.0800 
 49 H        6.4020     9.3230     0.9490 H     1 <1>   0.0800 
 50 H        3.7590     7.8100    -1.3340 H     1 <1>   0.0800 
 51 H        4.3710     9.3730    -0.8500 H     1 <1>   0.0800 
 52 H        3.2190     8.5260     0.1690 H     1 <1>   0.0800 
 53 H        7.7820     7.6260    -0.7270 H     1 <1>   0.0800 
 54 H        8.8300     6.2700    -0.4170 H     1 <1>   0.0800 
 55 H        8.1980     7.1980     0.9160 H     1 <1>   0.0800 
@<TRIPOS>BOND
  1   1   2  2   
  2   1   3  2   
  3   1   4  am  
  4   1   5  am  
  5   4   6  1   
  6   4   7  1   
  7   5   8  1   
  8   5   9  1   
  9   6  10  1   
 10   6  27  1   
 11   6  28  1   
 12   7  11  1   
 13   7  29  1   
 14   7  30  1   
 15   8  12  1   
 16   8  31  1   
 17   8  32  1   
 18   9  13  1   
 19   9  33  1   
 20   9  34  1   
 21  10  14  1   
 22  10  35  1   
 23  10  36  1   
 24  11  15  1   
 25  11  37  1   
 26  11  38  1   
 27  12  16  1   
 28  12  39  1   
 29  12  40  1   
 30  13  16  1   
 31  13  41  1   
 32  13  42  1   
 33  14  15  1   
 34  14  17  1   
 35  15  43  1   
 36  15  44  1   
 37  17  18  ar  
 38  17  19  ar  
 39  18  20  ar  
 40  19  21  ar  
 41  19  45  1   
 42  20  22  1   
 43  20  23  ar  
 44  21  23  ar  
 45  21  46  1   
 46  22  24  1   
 47  22  25  1   
 48  23  26  1   
 49  24  47  1   
 50  24  48  1   
 51  24  49  1   
 52  25  50  1   
 53  25  51  1   
 54  25  52  1   
 55  26  53  1   
 56  26  54  1   
 57  26  55  1   
@<TRIPOS>SUBSTRUCTURE
  1 ****  14 GROUP 4 **** **** 0

# MOE 2024.06 (io_trps.svl 2023.06)
