@<TRIPOS>MOLECULE
NONAME
55 58 1 0 0 
SMALL
USER_CHARGES


@<TRIPOS>ATOM
  1 O       -0.2450    -1.4470    -0.4050 O.3   1 <1>  -0.5600 
  2 C        0.7460    -1.9880     0.4140 C.3   1 <1>   0.2000 
  3 C       -1.4870    -1.2490     0.1990 C.3   1 <1>   0.0400 
  4 C        2.1380    -1.6590    -0.1730 C.3   1 <1>   0.0000 
  5 C        0.6480    -3.5160     0.3340 C.3   1 <1>  -0.1600 
  6 C        3.1770    -1.9910     0.9320 C.3   1 <1>   0.3430 
  7 C        2.2960    -0.1970    -0.6770 C.3   1 <1>  -0.1600 
  8 C        2.2420    -2.6690    -1.3300 C.3   1 <1>  -0.1600 
  9 C        1.5250    -3.9380    -0.8530 C.3   1 <1>  -0.1600 
 10 N        4.4400    -1.1800     0.8600 N.4   1 <1>  -0.9590 
 11 C        2.8130     0.7180     0.4400 C.3   1 <1>  -0.1600 
 12 C        4.1980     0.3010     0.9540 C.3   1 <1>   0.3430 
 13 C        5.2670    -1.5310    -0.3280 C.3   1 <1>   0.4860 
 14 C        6.6500    -0.9350    -0.1530 C.ar  1 <1>  -0.1440 
 15 C        7.0460     0.1510    -0.9210 C.ar  1 <1>  -0.1500 
 16 C        7.5320    -1.4680     0.7750 C.ar  1 <1>  -0.1500 
 17 C        8.3040     0.7040    -0.7530 C.ar  1 <1>  -0.1500 
 18 C        8.7880    -0.9120     0.9410 C.ar  1 <1>  -0.1500 
 19 C        9.1820     0.1770     0.1810 C.ar  1 <1>  -0.1440 
 20 C       10.5720     0.7790     0.3750 C.3   1 <1>   0.2390 
 21 N       11.6310    -0.2320     0.1710 N.pl3 1 <1>   0.3140 
 22 N       12.3610    -0.7180     1.1950 N.2   1 <1>  -0.7070 
 23 C       12.0120    -0.7820    -1.0010 C.2   1 <1>  -0.3020 
 24 C       13.1830    -1.5610     0.6480 C.2   1 <1>   0.1390 
 25 C       13.0130    -1.6450    -0.7280 C.2   1 <1>  -0.1500 
 26 H        0.6190    -1.6070     1.4150 H     1 <1>   0.0800 
 27 H       -2.1590    -0.8560    -0.5440 H     1 <1>   0.0800 
 28 H       -1.3840    -0.5400     1.0020 H     1 <1>   0.0800 
 29 H       -1.8680    -2.1860     0.5660 H     1 <1>   0.0800 
 30 H        1.0390    -3.9510     1.2370 H     1 <1>   0.0800 
 31 H       -0.3660    -3.8540     0.2120 H     1 <1>   0.0800 
 32 H        3.4080    -3.0430     0.8970 H     1 <1>   0.0800 
 33 H        2.7150    -1.7980     1.8860 H     1 <1>   0.0800 
 34 H        2.9910    -0.1650    -1.4970 H     1 <1>   0.0800 
 35 H        1.3690     0.1920    -1.0610 H     1 <1>   0.0800 
 36 H        1.7010    -2.2810    -2.1790 H     1 <1>   0.0800 
 37 H        3.2490    -2.8760    -1.6430 H     1 <1>   0.0800 
 38 H        2.2310    -4.6930    -0.5480 H     1 <1>   0.0800 
 39 H        0.9180    -4.3380    -1.6480 H     1 <1>   0.0800 
 40 H        5.0310    -1.4250     1.6640 H     1 <1>   0.4500 
 41 H        2.1140     0.7110     1.2590 H     1 <1>   0.0800 
 42 H        2.8650     1.7320     0.0850 H     1 <1>   0.0800 
 43 H        4.2910     0.6190     1.9810 H     1 <1>   0.0800 
 44 H        4.9530     0.8250     0.3910 H     1 <1>   0.0800 
 45 H        5.3540    -2.6020    -0.4150 H     1 <1>   0.0800 
 46 H        4.8130    -1.1530    -1.2290 H     1 <1>   0.0800 
 47 H        6.3870     0.5780    -1.6580 H     1 <1>   0.1500 
 48 H        7.2660    -2.3220     1.3740 H     1 <1>   0.1500 
 49 H        8.5960     1.5470    -1.3580 H     1 <1>   0.1500 
 50 H        9.4690    -1.3360     1.6640 H     1 <1>   0.1500 
 51 H       10.6630     1.1640     1.3740 H     1 <1>   0.0800 
 52 H       10.7390     1.5840    -0.3150 H     1 <1>   0.0800 
 53 H       11.5570    -0.5350    -1.9430 H     1 <1>   0.1500 
 54 H       13.9110    -2.1260     1.2070 H     1 <1>   0.1500 
 55 H       13.5720    -2.2710    -1.4000 H     1 <1>   0.1500 
@<TRIPOS>BOND
  1   1   2  1   
  2   1   3  1   
  3   2   4  1   
  4   2   5  1   
  5   2  26  1   
  6   3  27  1   
  7   3  28  1   
  8   3  29  1   
  9   4   6  1   
 10   4   7  1   
 11   4   8  1   
 12   5   9  1   
 13   5  30  1   
 14   5  31  1   
 15   6  10  1   
 16   6  32  1   
 17   6  33  1   
 18   7  11  1   
 19   7  34  1   
 20   7  35  1   
 21   8   9  1   
 22   8  36  1   
 23   8  37  1   
 24   9  38  1   
 25   9  39  1   
 26  10  12  1   
 27  10  13  1   
 28  10  40  1   
 29  11  12  1   
 30  11  41  1   
 31  11  42  1   
 32  12  43  1   
 33  12  44  1   
 34  13  14  1   
 35  13  45  1   
 36  13  46  1   
 37  14  15  ar  
 38  14  16  ar  
 39  15  17  ar  
 40  15  47  1   
 41  16  18  ar  
 42  16  48  1   
 43  17  19  ar  
 44  17  49  1   
 45  18  19  ar  
 46  18  50  1   
 47  19  20  1   
 48  20  21  1   
 49  20  51  1   
 50  20  52  1   
 51  21  22  1   
 52  21  23  1   
 53  22  24  2   
 54  23  25  2   
 55  23  53  1   
 56  24  25  1   
 57  24  54  1   
 58  25  55  1   
@<TRIPOS>SUBSTRUCTURE
  1 ****  14 GROUP 4 **** **** 0

# MOE 2024.06 (io_trps.svl 2023.06)
