@<TRIPOS>MOLECULE
NONAME
56 58 1 0 0 
SMALL
USER_CHARGES


@<TRIPOS>ATOM
  1 O        0.7870    -0.8740    -1.0530 O.2   1 <1>  -0.5700 
  2 C        1.5760    -1.2450    -0.2180 C.2   1 <1>   0.5690 
  3 N        2.3600    -0.3870     0.5040 N.am  1 <1>  -0.4940 
  4 C        1.7280    -2.7420     0.0480 C.3   1 <1>  -0.0190 
  5 C        2.3580     1.0290     0.4960 C.2   1 <1>  -0.0880 
  6 C        2.4700    -3.4380    -1.1060 C.3   1 <1>  -0.1600 
  7 C        0.3660    -3.4240     0.2780 C.3   1 <1>  -0.1600 
  8 N        3.4710     1.8120     0.4210 N.pl3 1 <1>   0.3140 
  9 C        1.3020     1.8760     0.5700 C.2   1 <1>  -0.1810 
 10 C        2.6160    -4.9420    -0.8570 C.3   1 <1>   0.1400 
 11 C        0.5170    -4.9280     0.5180 C.3   1 <1>   0.1400 
 12 N        3.1500     3.1290     0.4680 N.2   1 <1>  -0.7070 
 13 C        4.8750     1.3350     0.2590 C.3   1 <1>   0.1760 
 14 C        1.8560     3.1490     0.5470 C.2   1 <1>   0.1390 
 15 C       -0.1800     1.5630     0.6620 C.3   1 <1>  -0.0590 
 16 N        1.2790    -5.5470    -0.6030 N.am  1 <1>  -0.6600 
 17 C        5.7660     1.6740     1.4560 C.3   1 <1>  -0.1600 
 18 C        5.6030     1.9630    -0.9300 C.3   1 <1>  -0.1600 
 19 C        0.8600    -6.6580    -1.3050 C.2   1 <1>   0.5690 
 20 C        7.1990     1.6910     0.9080 C.3   1 <1>  -0.1600 
 21 C        7.0860     1.7530    -0.6210 C.3   1 <1>  -0.1600 
 22 O        1.5420    -7.1420    -2.1810 O.2   1 <1>  -0.5700 
 23 C       -0.5010    -7.3180    -1.0540 C.3   1 <1>   0.1810 
 24 O       -0.6550    -7.7640     0.2730 O.3   1 <1>  -0.5600 
 25 C       -1.8290    -8.4660     0.4990 C.3   1 <1>   0.1200 
 26 C       -1.8690    -8.8250     1.9790 C.3   1 <1>  -0.2400 
 27 H        3.0220    -0.8230     1.1440 H     1 <1>   0.3700 
 28 H        2.3100    -2.8690     0.9430 H     1 <1>   0.0800 
 29 H        3.4460    -3.0050    -1.2300 H     1 <1>   0.0800 
 30 H        1.9300    -3.2920    -2.0260 H     1 <1>   0.0800 
 31 H       -0.2670    -3.2740    -0.5800 H     1 <1>   0.0800 
 32 H       -0.1250    -2.9770     1.1250 H     1 <1>   0.0800 
 33 H        3.2440    -5.1170    -0.0010 H     1 <1>   0.0800 
 34 H        3.0860    -5.3990    -1.7110 H     1 <1>   0.0800 
 35 H       -0.4610    -5.3620     0.6150 H     1 <1>   0.0800 
 36 H        1.0480    -5.1060     1.4380 H     1 <1>   0.0800 
 37 H        4.8690     0.2700     0.1220 H     1 <1>   0.0800 
 38 H        1.2840     4.0610     0.5900 H     1 <1>   0.1500 
 39 H       -0.3310     0.5700     1.0410 H     1 <1>   0.0800 
 40 H       -0.6220     1.6280    -0.3160 H     1 <1>   0.0800 
 41 H       -0.6680     2.2610     1.3170 H     1 <1>   0.0800 
 42 H        5.6520     0.9620     2.2530 H     1 <1>   0.0800 
 43 H        5.5210     2.6590     1.8180 H     1 <1>   0.0800 
 44 H        5.3990     3.0200    -0.9670 H     1 <1>   0.0800 
 45 H        5.3150     1.5090    -1.8620 H     1 <1>   0.0800 
 46 H        7.7280     0.8010     1.2010 H     1 <1>   0.0800 
 47 H        7.7300     2.5480     1.2860 H     1 <1>   0.0800 
 48 H        7.6850     2.5490    -1.0320 H     1 <1>   0.0800 
 49 H        7.4140     0.8190    -1.0440 H     1 <1>   0.0800 
 50 H       -0.5970    -8.1650    -1.7090 H     1 <1>   0.0800 
 51 H       -1.2810    -6.6120    -1.2720 H     1 <1>   0.0800 
 52 H       -1.8240    -9.3570    -0.1080 H     1 <1>   0.0800 
 53 H       -2.6680    -7.8430     0.2360 H     1 <1>   0.0800 
 54 H       -1.0200    -9.4350     2.2320 H     1 <1>   0.0800 
 55 H       -2.7660    -9.3750     2.1970 H     1 <1>   0.0800 
 56 H       -1.8580    -7.9310     2.5760 H     1 <1>   0.0800 
@<TRIPOS>BOND
  1   1   2  2   
  2   2   3  am  
  3   2   4  1   
  4   3   5  1   
  5   3  27  1   
  6   4   6  1   
  7   4   7  1   
  8   4  28  1   
  9   5   8  1   
 10   5   9  2   
 11   6  10  1   
 12   6  29  1   
 13   6  30  1   
 14   7  11  1   
 15   7  31  1   
 16   7  32  1   
 17   8  12  1   
 18   8  13  1   
 19   9  14  1   
 20   9  15  1   
 21  10  16  1   
 22  10  33  1   
 23  10  34  1   
 24  11  16  1   
 25  11  35  1   
 26  11  36  1   
 27  12  14  2   
 28  13  17  1   
 29  13  18  1   
 30  13  37  1   
 31  14  38  1   
 32  15  39  1   
 33  15  40  1   
 34  15  41  1   
 35  16  19  am  
 36  17  20  1   
 37  17  42  1   
 38  17  43  1   
 39  18  21  1   
 40  18  44  1   
 41  18  45  1   
 42  19  22  2   
 43  19  23  1   
 44  20  21  1   
 45  20  46  1   
 46  20  47  1   
 47  21  48  1   
 48  21  49  1   
 49  23  24  1   
 50  23  50  1   
 51  23  51  1   
 52  24  25  1   
 53  25  26  1   
 54  25  52  1   
 55  25  53  1   
 56  26  54  1   
 57  26  55  1   
 58  26  56  1   
@<TRIPOS>SUBSTRUCTURE
  1 ****   4 GROUP 4 **** **** 0

# MOE 2024.06 (io_trps.svl 2023.06)
