@<TRIPOS>MOLECULE
NONAME
47 50 1 0 0 
SMALL
USER_CHARGES


@<TRIPOS>ATOM
  1 S       -0.4500    -0.0220    -1.1880 S.3   1 <1>  -0.0800 
  2 C       -0.7590     1.3270    -0.1170 C.ar  1 <1>   0.0400 
  3 C       -1.8010    -0.8890    -0.4640 C.2   1 <1>   0.1980 
  4 C       -1.8410     1.0000     0.6790 C.ar  1 <1>   0.2270 
  5 C       -0.0830     2.5300    -0.0290 C.ar  1 <1>  -0.1500 
  6 N       -2.4040    -0.2560     0.4600 N.2   1 <1>  -0.5650 
  7 C       -2.0810    -2.2750    -1.0150 C.3   1 <1>   0.0200 
  8 C       -2.2710     1.9300     1.6150 C.ar  1 <1>  -0.1500 
  9 C       -0.5260     3.4460     0.9100 C.ar  1 <1>  -0.1500 
 10 C       -3.3360    -2.9050    -0.3950 C.3   1 <1>  -0.0990 
 11 C       -1.6140     3.1460     1.7280 C.ar  1 <1>  -0.1500 
 12 C       -3.5550    -4.3100    -0.9060 C.2   1 <1>   0.5690 
 13 O       -3.6470    -4.4990    -2.0930 O.2   1 <1>  -0.5700 
 14 N       -3.6440    -5.3240    -0.0130 N.am  1 <1>  -0.7300 
 15 C       -3.8580    -6.7440    -0.3690 C.3   1 <1>   0.2200 
 16 C       -5.3000    -7.1200    -0.0750 C.3   1 <1>  -0.0800 
 17 C       -3.1000    -7.6360     0.6070 C.3   1 <1>   0.1200 
 18 C       -5.2500    -7.4640     1.4190 C.3   1 <1>   0.1200 
 19 C       -5.7590    -8.3120    -0.9360 C.3   1 <1>  -0.0170 
 20 O       -3.9180    -7.7560     1.7320 O.3   1 <1>  -0.5600 
 21 C       -7.2130    -8.6670    -0.6640 C.ar  1 <1>  -0.1430 
 22 C       -8.2490    -7.8920    -1.1430 C.ar  1 <1>  -0.1500 
 23 C       -7.5730    -9.7790     0.0710 C.ar  1 <1>  -0.1500 
 24 C       -9.5580    -8.2520    -0.8680 C.ar  1 <1>   0.1600 
 25 C       -8.9140   -10.0500     0.2900 C.ar  1 <1>   0.1600 
 26 N       -9.9150    -9.3120    -0.1610 N.ar  1 <1>  -0.6200 
 27 H        0.7540     2.7380    -0.6720 H     1 <1>   0.1500 
 28 H       -2.2060    -2.2040    -2.0820 H     1 <1>   0.0800 
 29 H       -1.2290    -2.9010    -0.8200 H     1 <1>   0.0800 
 30 H       -3.1120     1.6890     2.2400 H     1 <1>   0.1500 
 31 H       -0.0290     4.3950     1.0120 H     1 <1>   0.1500 
 32 H       -4.1960    -2.3110    -0.6460 H     1 <1>   0.0800 
 33 H       -3.2400    -2.9170     0.6750 H     1 <1>   0.0800 
 34 H       -1.9470     3.8680     2.4540 H     1 <1>   0.1500 
 35 H       -3.5950    -5.1440     0.9930 H     1 <1>   0.3700 
 36 H       -3.5710    -6.9210    -1.3920 H     1 <1>   0.0800 
 37 H       -5.9610    -6.2900    -0.2560 H     1 <1>   0.0800 
 38 H       -2.1470    -7.2260     0.8920 H     1 <1>   0.0800 
 39 H       -2.9640    -8.6210     0.1960 H     1 <1>   0.0800 
 40 H       -5.8620    -8.3100     1.6790 H     1 <1>   0.0800 
 41 H       -5.5440    -6.6180     2.0140 H     1 <1>   0.0800 
 42 H       -5.1370    -9.1700    -0.7490 H     1 <1>   0.0800 
 43 H       -5.6580    -8.0580    -1.9770 H     1 <1>   0.0800 
 44 H       -8.0520    -7.0120    -1.7280 H     1 <1>   0.1500 
 45 H       -6.8270   -10.4370     0.4770 H     1 <1>   0.1500 
 46 H      -10.3530    -7.6350    -1.2500 H     1 <1>   0.1500 
 47 H       -9.1760   -10.9210     0.8660 H     1 <1>   0.1500 
@<TRIPOS>BOND
  1   1   2  1   
  2   1   3  1   
  3   2   4  ar  
  4   2   5  ar  
  5   3   6  2   
  6   3   7  1   
  7   4   6  1   
  8   4   8  ar  
  9   5   9  ar  
 10   5  27  1   
 11   7  10  1   
 12   7  28  1   
 13   7  29  1   
 14   8  11  ar  
 15   8  30  1   
 16   9  11  ar  
 17   9  31  1   
 18  10  12  1   
 19  10  32  1   
 20  10  33  1   
 21  11  34  1   
 22  12  13  2   
 23  12  14  am  
 24  14  15  1   
 25  14  35  1   
 26  15  16  1   
 27  15  17  1   
 28  15  36  1   
 29  16  18  1   
 30  16  19  1   
 31  16  37  1   
 32  17  20  1   
 33  17  38  1   
 34  17  39  1   
 35  18  20  1   
 36  18  40  1   
 37  18  41  1   
 38  19  21  1   
 39  19  42  1   
 40  19  43  1   
 41  21  22  ar  
 42  21  23  ar  
 43  22  24  ar  
 44  22  44  1   
 45  23  25  ar  
 46  23  45  1   
 47  24  26  ar  
 48  24  46  1   
 49  25  26  ar  
 50  25  47  1   
@<TRIPOS>SUBSTRUCTURE
  1 ****  12 GROUP 4 **** **** 0

# MOE 2024.06 (io_trps.svl 2023.06)
