@<TRIPOS>MOLECULE
NONAME
42 43 1 0 0 
SMALL
USER_CHARGES


@<TRIPOS>ATOM
  1 S        0.0160    -0.0840    -0.6350 S.o2  1 <1>   1.3330 
  2 O        0.6150     0.0780    -1.9410 O.2   1 <1>  -0.6500 
  3 O       -0.8260    -1.2280    -0.3680 O.2   1 <1>  -0.6500 
  4 N        1.2740    -0.1060     0.5100 N.am  1 <1>  -0.8490 
  5 C       -0.8870     1.4190    -0.2550 C.3   1 <1>  -0.0550 
  6 C        2.4240    -0.8870     0.0420 C.3   1 <1>   0.1160 
  7 C        0.8480    -0.6010     1.8250 C.3   1 <1>   0.1160 
  8 C       -0.1300     2.7180    -0.6100 C.3   1 <1>  -0.0800 
  9 C       -0.9350     3.9970    -0.3720 C.3   1 <1>   0.2000 
 10 C        1.1680     2.9410     0.1770 C.3   1 <1>   0.2090 
 11 O       -1.5160     3.9310     0.8860 O.3   1 <1>  -0.6800 
 12 C        0.1400     5.0790    -0.3330 C.3   1 <1>   0.2090 
 13 N        1.2950     4.4150     0.3340 N.pl3 1 <1>  -0.8380 
 14 C        2.5150     5.0470     0.4540 C.ar  1 <1>   0.4100 
 15 N        2.6030     6.2830    -0.0290 N.ar  1 <1>  -0.6200 
 16 C        3.5970     4.4110     1.0640 C.ar  1 <1>  -0.1500 
 17 C        3.7740     6.8810     0.0920 C.ar  1 <1>   0.1600 
 18 C        4.8050     5.0520     1.1830 C.ar  1 <1>  -0.1500 
 19 C        4.9140     6.3470     0.6890 C.ar  1 <1>   0.0860 
 20 C        6.1440     7.0990     0.7880 C.2   1 <1>   0.5440 
 21 O        7.2190     6.5480     0.8880 O.2   1 <1>  -0.5700 
 22 N        6.1720     8.4530     0.7970 N.am  1 <1>  -0.8000 
 23 H       -1.8040     1.4100    -0.8110 H     1 <1>   0.0800 
 24 H       -1.1490     1.4220     0.7850 H     1 <1>   0.0800 
 25 H        3.2070    -0.8800     0.7800 H     1 <1>   0.0800 
 26 H        2.8150    -0.4610    -0.8680 H     1 <1>   0.0800 
 27 H        2.1300    -1.9050    -0.1540 H     1 <1>   0.0800 
 28 H        1.6560    -0.5190     2.5310 H     1 <1>   0.0800 
 29 H        0.5440    -1.6340     1.7590 H     1 <1>   0.0800 
 30 H        0.0180    -0.0210     2.1910 H     1 <1>   0.0800 
 31 H        0.1310     2.6870    -1.6540 H     1 <1>   0.0800 
 32 H       -1.7020     4.1750    -1.1060 H     1 <1>   0.0800 
 33 H        2.0130     2.5310    -0.3500 H     1 <1>   0.0800 
 34 H        1.1030     2.4950     1.1550 H     1 <1>   0.0800 
 35 H       -0.8060     4.1100     1.5400 H     1 <1>   0.4000 
 36 H       -0.1820     5.9520     0.2080 H     1 <1>   0.0800 
 37 H        0.4220     5.3600    -1.3330 H     1 <1>   0.0800 
 38 H        3.4770     3.4160     1.4470 H     1 <1>   0.1500 
 39 H        3.8380     7.8720    -0.3180 H     1 <1>   0.1500 
 40 H        5.6530     4.5780     1.6480 H     1 <1>   0.1500 
 41 H        7.0780     8.9100     0.9120 H     1 <1>   0.3700 
 42 H        5.3510     9.0450     0.9210 H     1 <1>   0.3700 
@<TRIPOS>BOND
  1   1   2  2   
  2   1   3  2   
  3   1   4  am  
  4   1   5  1   
  5   4   6  1   
  6   4   7  1   
  7   5   8  1   
  8   5  23  1   
  9   5  24  1   
 10   6  25  1   
 11   6  26  1   
 12   6  27  1   
 13   7  28  1   
 14   7  29  1   
 15   7  30  1   
 16   8   9  1   
 17   8  10  1   
 18   8  31  1   
 19   9  11  1   
 20   9  12  1   
 21   9  32  1   
 22  10  13  1   
 23  10  33  1   
 24  10  34  1   
 25  11  35  1   
 26  12  13  1   
 27  12  36  1   
 28  12  37  1   
 29  13  14  1   
 30  14  15  ar  
 31  14  16  ar  
 32  15  17  ar  
 33  16  18  ar  
 34  16  38  1   
 35  17  19  ar  
 36  17  39  1   
 37  18  19  ar  
 38  18  40  1   
 39  19  20  1   
 40  20  21  2   
 41  20  22  am  
 42  22  41  1   
 43  22  42  1   
@<TRIPOS>SUBSTRUCTURE
  1 ****  10 GROUP 4 **** **** 0

# MOE 2024.06 (io_trps.svl 2023.06)
