@<TRIPOS>MOLECULE
NONAME
31 31 1 0 0 
SMALL
USER_CHARGES


@<TRIPOS>ATOM
  1 S        0.2310     0.0900     1.0270 S.o2  1 <1>   1.0900 
  2 O        1.5910    -0.3110     1.3000 O.2   1 <1>  -0.6500 
  3 O       -0.7910    -0.0820     2.0310 O.2   1 <1>  -0.6500 
  4 C        0.2540     1.8180     0.5550 C.3   1 <1>  -0.0550 
  5 C       -0.3110    -0.7590    -0.4450 C.3   1 <1>  -0.1350 
  6 C        1.3860     2.1720    -0.4240 C.3   1 <1>  -0.0990 
  7 C        1.3150     3.6330    -0.8040 C.2   1 <1>   0.5690 
  8 O        0.3760     3.9840    -1.4760 O.2   1 <1>  -0.5700 
  9 N        2.2930     4.4700    -0.3630 N.am  1 <1>  -0.4930 
 10 C        2.4240     5.8670    -0.5640 C.2   1 <1>   0.0630 
 11 C        3.4290     6.6530    -0.1170 C.2   1 <1>  -0.3320 
 12 C        1.5720     6.7370    -1.2470 C.2   1 <1>   0.1390 
 13 N        3.1470     7.9130    -0.5340 N.pl3 1 <1>   0.3140 
 14 C        4.6650     6.2900     0.6950 C.3   1 <1>  -0.0600 
 15 N        2.0010     7.9630    -1.2300 N.2   1 <1>  -0.7070 
 16 C        3.9390     9.1280    -0.3000 C.3   1 <1>   0.0160 
 17 H        0.3750     2.4140     1.4400 H     1 <1>   0.0800 
 18 H       -0.6910     2.0850     0.1200 H     1 <1>   0.0800 
 19 H       -0.3890    -1.8110    -0.2490 H     1 <1>   0.0800 
 20 H        0.3860    -0.6180    -1.2470 H     1 <1>   0.0800 
 21 H       -1.2750    -0.4020    -0.7530 H     1 <1>   0.0800 
 22 H        1.2950     1.5910    -1.3230 H     1 <1>   0.0800 
 23 H        2.3390     1.9510     0.0220 H     1 <1>   0.0800 
 24 H        3.0410     4.0610     0.1910 H     1 <1>   0.3700 
 25 H        0.6610     6.4350    -1.7340 H     1 <1>   0.1500 
 26 H        4.6900     5.2360     0.9050 H     1 <1>   0.0800 
 27 H        4.6620     6.8220     1.6300 H     1 <1>   0.0800 
 28 H        5.5550     6.5480     0.1490 H     1 <1>   0.0800 
 29 H        4.9110     9.0050    -0.7370 H     1 <1>   0.0800 
 30 H        4.0250     9.2940     0.7570 H     1 <1>   0.0800 
 31 H        3.4420     9.9640    -0.7560 H     1 <1>   0.0800 
@<TRIPOS>BOND
  1   1   2  2   
  2   1   3  2   
  3   1   4  1   
  4   1   5  1   
  5   4   6  1   
  6   4  17  1   
  7   4  18  1   
  8   5  19  1   
  9   5  20  1   
 10   5  21  1   
 11   6   7  1   
 12   6  22  1   
 13   6  23  1   
 14   7   8  2   
 15   7   9  am  
 16   9  10  1   
 17   9  24  1   
 18  10  11  2   
 19  10  12  1   
 20  11  13  1   
 21  11  14  1   
 22  12  15  2   
 23  12  25  1   
 24  13  15  1   
 25  13  16  1   
 26  14  26  1   
 27  14  27  1   
 28  14  28  1   
 29  16  29  1   
 30  16  30  1   
 31  16  31  1   
@<TRIPOS>SUBSTRUCTURE
  1 ****   9 GROUP 4 **** **** 0

# MOE 2024.06 (io_trps.svl 2023.06)
