@<TRIPOS>MOLECULE
NONAME
49 51 1 0 0 
SMALL
USER_CHARGES


@<TRIPOS>ATOM
  1 O        0.3060     0.0080     0.5990 O.2   1 <1>  -0.5700 
  2 C        1.3580    -0.5150     0.9020 C.2   1 <1>   0.5690 
  3 N        2.4070     0.2700     1.3520 N.am  1 <1>  -0.6600 
  4 C        1.4620    -2.0670     0.8300 C.3   1 <1>   0.4050 
  5 C        3.7430    -0.2720     1.7500 C.3   1 <1>   0.1400 
  6 C        2.2370     1.7490     1.4710 C.3   1 <1>   0.1400 
  7 O        2.5940    -2.4870     0.0880 O.3   1 <1>  -0.5600 
  8 C        0.2130    -2.7590     0.2620 C.ar  1 <1>  -0.1440 
  9 C        4.7350    -0.2390     0.5750 C.3   1 <1>   0.1100 
 10 C        3.5030     2.5590     1.1600 C.3   1 <1>  -0.1600 
 11 C        2.8900    -3.8500     0.1620 C.3   1 <1>   0.0400 
 12 C       -0.6100    -3.5140     1.0870 C.ar  1 <1>  -0.1500 
 13 C       -0.1030    -2.6490    -1.0850 C.ar  1 <1>  -0.1500 
 14 N        5.2960     1.1010     0.3000 N.3   1 <1>  -0.8100 
 15 C        4.2620     2.0810    -0.0790 C.3   1 <1>   0.1100 
 16 C       -1.7260    -4.1520     0.5720 C.ar  1 <1>  -0.1500 
 17 C       -1.2170    -3.2850    -1.6020 C.ar  1 <1>  -0.1500 
 18 C        6.3650     1.0010    -0.7300 C.3   1 <1>   0.2900 
 19 C       -2.0300    -4.0390    -0.7730 C.ar  1 <1>  -0.1500 
 20 C        7.3760     2.1470    -0.7060 C.2   1 <1>   0.2980 
 21 O        7.0350     3.3090    -1.2090 O.3   1 <1>  -0.0190 
 22 N        8.5690     2.0770    -0.2600 N.2   1 <1>  -0.5650 
 23 N        8.0960     4.0420    -1.0600 N.2   1 <1>  -0.4100 
 24 C        8.9760     3.3120    -0.5030 C.2   1 <1>   0.3350 
 25 C       10.3690     3.7580    -0.1320 C.3   1 <1>  -0.0590 
 26 H        1.6070    -2.4040     1.8390 H     1 <1>   0.0800 
 27 H        4.1430     0.2870     2.5780 H     1 <1>   0.0800 
 28 H        3.6370    -1.2880     2.0800 H     1 <1>   0.0800 
 29 H        1.4670     2.0710     0.7900 H     1 <1>   0.0800 
 30 H        1.9020     1.9810     2.4670 H     1 <1>   0.0800 
 31 H        4.2600    -0.6300    -0.3090 H     1 <1>   0.0800 
 32 H        5.5450    -0.8990     0.8300 H     1 <1>   0.0800 
 33 H        3.1930     3.5740     0.9920 H     1 <1>   0.0800 
 34 H        4.1610     2.5770     2.0110 H     1 <1>   0.0800 
 35 H        3.8110    -4.0210    -0.3650 H     1 <1>   0.0800 
 36 H        2.1030    -4.4170    -0.3060 H     1 <1>   0.0800 
 37 H        3.0020    -4.1390     1.1930 H     1 <1>   0.0800 
 38 H       -0.3920    -3.6100     2.1360 H     1 <1>   0.1500 
 39 H        0.5250    -2.0600    -1.7320 H     1 <1>   0.1500 
 40 H        4.7280     2.9440    -0.5170 H     1 <1>   0.0800 
 41 H        3.5870     1.6630    -0.8080 H     1 <1>   0.0800 
 42 H       -2.3600    -4.7340     1.2170 H     1 <1>   0.1500 
 43 H       -1.4520    -3.1890    -2.6470 H     1 <1>   0.1500 
 44 H        6.9270     0.0990    -0.5650 H     1 <1>   0.0800 
 45 H        5.9240     0.9340    -1.7100 H     1 <1>   0.0800 
 46 H       -2.8970    -4.5330    -1.1740 H     1 <1>   0.1500 
 47 H       10.5090     3.6500     0.9280 H     1 <1>   0.0800 
 48 H       10.5120     4.7870    -0.4040 H     1 <1>   0.0800 
 49 H       11.0900     3.1510    -0.6470 H     1 <1>   0.0800 
@<TRIPOS>BOND
  1   1   2  2   
  2   2   3  am  
  3   2   4  1   
  4   3   5  1   
  5   3   6  1   
  6   4   7  1   
  7   4   8  1   
  8   4  26  1   
  9   5   9  1   
 10   5  27  1   
 11   5  28  1   
 12   6  10  1   
 13   6  29  1   
 14   6  30  1   
 15   7  11  1   
 16   8  12  ar  
 17   8  13  ar  
 18   9  14  1   
 19   9  31  1   
 20   9  32  1   
 21  10  15  1   
 22  10  33  1   
 23  10  34  1   
 24  11  35  1   
 25  11  36  1   
 26  11  37  1   
 27  12  16  ar  
 28  12  38  1   
 29  13  17  ar  
 30  13  39  1   
 31  14  15  1   
 32  14  18  1   
 33  15  40  1   
 34  15  41  1   
 35  16  19  ar  
 36  16  42  1   
 37  17  19  ar  
 38  17  43  1   
 39  18  20  1   
 40  18  44  1   
 41  18  45  1   
 42  19  46  1   
 43  20  21  1   
 44  20  22  2   
 45  21  23  1   
 46  22  24  1   
 47  23  24  2   
 48  24  25  1   
 49  25  47  1   
 50  25  48  1   
 51  25  49  1   
@<TRIPOS>SUBSTRUCTURE
  1 ****   9 GROUP 4 **** **** 0

# MOE 2024.06 (io_trps.svl 2023.06)
