@<TRIPOS>MOLECULE
NONAME
39 40 1 0 0 
SMALL
USER_CHARGES


@<TRIPOS>ATOM
  1 S        2.6220    -0.9330    -1.1000 S.3   1 <1>  -0.0800 
  2 C        1.7810    -0.3690     0.3290 C.2   1 <1>   0.1980 
  3 C        1.1340    -1.6310    -1.6650 C.2   1 <1>  -0.1100 
  4 N        0.5430    -0.6690     0.3610 N.2   1 <1>  -0.5650 
  5 C        2.5900     0.4120     1.3500 C.3   1 <1>   0.3200 
  6 C        0.1710    -1.3850    -0.7630 C.2   1 <1>   0.0460 
  7 N        2.7750     1.8090     0.8890 N.am  1 <1>  -0.7300 
  8 C       -1.2770    -1.8130    -0.8540 C.3   1 <1>  -0.0590 
  9 C        3.9590     2.4650     0.8730 C.2   1 <1>   0.5690 
 10 O        4.9590     1.9750     1.3360 O.2   1 <1>  -0.5700 
 11 C        4.0310     3.8600     0.2580 C.3   1 <1>  -0.0190 
 12 C        3.0770     4.8510     0.9540 C.3   1 <1>  -0.1600 
 13 C        3.7930     3.8270    -1.2720 C.3   1 <1>  -0.1600 
 14 C        3.2660     6.2940     0.4410 C.3   1 <1>   0.2000 
 15 C        3.3240     5.1750    -1.8550 C.3   1 <1>  -0.1600 
 16 O        2.0170     6.9390     0.4940 O.3   1 <1>  -0.5600 
 17 C        3.8120     6.3540    -1.0100 C.3   1 <1>   0.2000 
 18 C        1.6600     7.4390     1.7450 C.3   1 <1>   0.0400 
 19 O        3.3780     7.5180    -1.6100 O.3   1 <1>  -0.6800 
 20 H        1.1420    -2.1480    -2.6070 H     1 <1>   0.1500 
 21 H        3.5420    -0.0660     1.4990 H     1 <1>   0.0800 
 22 H        2.0610     0.4190     2.2860 H     1 <1>   0.0800 
 23 H        1.9440     2.2300     0.4700 H     1 <1>   0.3700 
 24 H       -1.4530    -2.3590    -1.7620 H     1 <1>   0.0800 
 25 H       -1.9110    -0.9450    -0.8370 H     1 <1>   0.0800 
 26 H       -1.5220    -2.4380    -0.0150 H     1 <1>   0.0800 
 27 H        5.0340     4.2150     0.4250 H     1 <1>   0.0800 
 28 H        3.2510     4.8270     2.0150 H     1 <1>   0.0800 
 29 H        2.0630     4.5400     0.7700 H     1 <1>   0.0800 
 30 H        4.7140     3.5340    -1.7480 H     1 <1>   0.0800 
 31 H        3.0590     3.0810    -1.5230 H     1 <1>   0.0800 
 32 H        3.9590     6.8250     1.0730 H     1 <1>   0.0800 
 33 H        2.2470     5.1930    -1.8730 H     1 <1>   0.0800 
 34 H        3.6800     5.2750    -2.8650 H     1 <1>   0.0800 
 35 H        4.8890     6.3670    -1.0050 H     1 <1>   0.0800 
 36 H        0.6960     7.9070     1.6550 H     1 <1>   0.0800 
 37 H        2.3870     8.1700     2.0560 H     1 <1>   0.0800 
 38 H        1.6050     6.6330     2.4550 H     1 <1>   0.0800 
 39 H        2.5090     7.7230    -1.1960 H     1 <1>   0.4000 
@<TRIPOS>BOND
  1   1   2  1   
  2   1   3  1   
  3   2   4  2   
  4   2   5  1   
  5   3   6  2   
  6   3  20  1   
  7   4   6  1   
  8   5   7  1   
  9   5  21  1   
 10   5  22  1   
 11   6   8  1   
 12   7   9  am  
 13   7  23  1   
 14   8  24  1   
 15   8  25  1   
 16   8  26  1   
 17   9  10  2   
 18   9  11  1   
 19  11  12  1   
 20  11  13  1   
 21  11  27  1   
 22  12  14  1   
 23  12  28  1   
 24  12  29  1   
 25  13  15  1   
 26  13  30  1   
 27  13  31  1   
 28  14  16  1   
 29  14  17  1   
 30  14  32  1   
 31  15  17  1   
 32  15  33  1   
 33  15  34  1   
 34  16  18  1   
 35  17  19  1   
 36  17  35  1   
 37  18  36  1   
 38  18  37  1   
 39  18  38  1   
 40  19  39  1   
@<TRIPOS>SUBSTRUCTURE
  1 ****   7 GROUP 4 **** **** 0

# MOE 2024.06 (io_trps.svl 2023.06)
