@<TRIPOS>MOLECULE
NONAME
56 59 1 0 0 
SMALL
USER_CHARGES


@<TRIPOS>ATOM
  1 O        0.3960     0.1240     1.0660 O.3   1 <1>  -0.5600 
  2 C        0.2430    -1.2530     0.8420 C.3   1 <1>   0.1200 
  3 C        1.2910     0.7370     0.1870 C.3   1 <1>   0.1200 
  4 C        1.5960    -1.9900     0.9590 C.3   1 <1>   0.3340 
  5 C        2.6870     0.1040     0.3400 C.3   1 <1>   0.1900 
  6 N        2.6240    -1.3570     0.0900 N.3   1 <1>  -0.8100 
  7 C        1.4230    -3.4600     0.5900 C.ar  1 <1>  -0.1440 
  8 C        3.6900     0.7700    -0.6270 C.3   1 <1>   0.3430 
  9 C        3.9520    -1.9870     0.2410 C.3   1 <1>   0.1100 
 10 C        1.1820    -3.8410    -0.7240 C.ar  1 <1>  -0.1500 
 11 C        1.5120    -4.4390     1.5700 C.ar  1 <1>  -0.1500 
 12 N        5.0590     0.1340    -0.5640 N.4   1 <1>  -0.9590 
 13 C        4.9730    -1.3590    -0.7270 C.3   1 <1>   0.3430 
 14 C        1.0360    -5.1770    -1.0540 C.ar  1 <1>  -0.1500 
 15 C        1.3670    -5.7760     1.2410 C.ar  1 <1>  -0.1500 
 16 C        5.9920     0.7360    -1.5520 C.3   1 <1>   0.4860 
 17 C        1.1300    -6.1450    -0.0710 C.ar  1 <1>  -0.1500 
 18 C        6.1830     2.2010    -1.2120 C.ar  1 <1>  -0.1440 
 19 C        5.5460     3.1800    -1.9610 C.ar  1 <1>  -0.1500 
 20 C        6.9970     2.5770    -0.1500 C.ar  1 <1>  -0.1500 
 21 C        5.7120     4.5160    -1.6440 C.ar  1 <1>  -0.1500 
 22 C        7.1640     3.9140     0.1650 C.ar  1 <1>  -0.1500 
 23 C        6.5180     4.8940    -0.5840 C.ar  1 <1>   0.0820 
 24 O        6.6290     6.2230    -0.3470 O.3   1 <1>  -0.3630 
 25 C        7.5110     6.7280     0.6340 C.3   1 <1>   0.1200 
 26 C        7.4700     8.2550     0.5800 C.3   1 <1>   0.1200 
 27 O        8.2640     8.7710     1.5960 O.3   1 <1>  -0.6800 
 28 H       -0.4460    -1.6330     1.5750 H     1 <1>   0.0800 
 29 H       -0.1840    -1.3980    -0.1350 H     1 <1>   0.0800 
 30 H        0.9180     0.6230    -0.8170 H     1 <1>   0.0800 
 31 H        1.3170     1.7840     0.4340 H     1 <1>   0.0800 
 32 H        1.9130    -1.9230     1.9860 H     1 <1>   0.0800 
 33 H        3.0160     0.2840     1.3490 H     1 <1>   0.0800 
 34 H        3.7630     1.8190    -0.3890 H     1 <1>   0.0800 
 35 H        3.2990     0.6840    -1.6270 H     1 <1>   0.0800 
 36 H        4.2970    -1.8890     1.2570 H     1 <1>   0.0800 
 37 H        3.8830    -3.0390     0.0180 H     1 <1>   0.0800 
 38 H        1.1110    -3.0940    -1.4950 H     1 <1>   0.1500 
 39 H        1.6930    -4.1710     2.5960 H     1 <1>   0.1500 
 40 H        5.4360     0.3380     0.3690 H     1 <1>   0.4500 
 41 H        4.6670    -1.5970    -1.7320 H     1 <1>   0.0800 
 42 H        5.9390    -1.8060    -0.5580 H     1 <1>   0.0800 
 43 H        0.8480    -5.4640    -2.0740 H     1 <1>   0.1500 
 44 H        1.4370    -6.5300     2.0060 H     1 <1>   0.1500 
 45 H        6.9460     0.2360    -1.5150 H     1 <1>   0.0800 
 46 H        5.5940     0.6380    -2.5490 H     1 <1>   0.0800 
 47 H        1.0160    -7.1850    -0.3260 H     1 <1>   0.1500 
 48 H        4.9200     2.9220    -2.7990 H     1 <1>   0.1500 
 49 H        7.5160     1.8400     0.4390 H     1 <1>   0.1500 
 50 H        5.2230     5.2810    -2.2210 H     1 <1>   0.1500 
 51 H        7.7990     4.1780     0.9910 H     1 <1>   0.1500 
 52 H        7.1810     6.3740     1.5940 H     1 <1>   0.0800 
 53 H        8.5040     6.3780     0.4130 H     1 <1>   0.0800 
 54 H        6.4670     8.6210     0.7130 H     1 <1>   0.0800 
 55 H        7.8670     8.6040    -0.3580 H     1 <1>   0.0800 
 56 H        7.8350     8.6600     2.4670 H     1 <1>   0.4000 
@<TRIPOS>BOND
  1   1   2  1   
  2   1   3  1   
  3   2   4  1   
  4   2  28  1   
  5   2  29  1   
  6   3   5  1   
  7   3  30  1   
  8   3  31  1   
  9   4   6  1   
 10   4   7  1   
 11   4  32  1   
 12   5   6  1   
 13   5   8  1   
 14   5  33  1   
 15   6   9  1   
 16   7  10  ar  
 17   7  11  ar  
 18   8  12  1   
 19   8  34  1   
 20   8  35  1   
 21   9  13  1   
 22   9  36  1   
 23   9  37  1   
 24  10  14  ar  
 25  10  38  1   
 26  11  15  ar  
 27  11  39  1   
 28  12  13  1   
 29  12  16  1   
 30  12  40  1   
 31  13  41  1   
 32  13  42  1   
 33  14  17  ar  
 34  14  43  1   
 35  15  17  ar  
 36  15  44  1   
 37  16  18  1   
 38  16  45  1   
 39  16  46  1   
 40  17  47  1   
 41  18  19  ar  
 42  18  20  ar  
 43  19  21  ar  
 44  19  48  1   
 45  20  22  ar  
 46  20  49  1   
 47  21  23  ar  
 48  21  50  1   
 49  22  23  ar  
 50  22  51  1   
 51  23  24  1   
 52  24  25  1   
 53  25  26  1   
 54  25  52  1   
 55  25  53  1   
 56  26  27  1   
 57  26  54  1   
 58  26  55  1   
 59  27  56  1   
@<TRIPOS>SUBSTRUCTURE
  1 ****   8 GROUP 4 **** **** 0

# MOE 2024.06 (io_trps.svl 2023.06)
