@<TRIPOS>MOLECULE
NONAME
54 58 1 0 0 
SMALL
USER_CHARGES


@<TRIPOS>ATOM
  1 O       -1.4010     5.0590     2.0540 O.2   1 <1>  -0.5700 
  2 C       -1.0090     4.2250     1.2560 C.2   1 <1>   0.6160 
  3 N       -1.9530     3.4560     0.6020 N.am  1 <1>  -0.6600 
  4 C        0.4000     4.1500     0.9860 C.2   1 <1>   0.0290 
  5 C       -3.3710     3.3740     1.0760 C.3   1 <1>   0.1400 
  6 C       -1.6870     2.6710    -0.6350 C.3   1 <1>   0.1400 
  7 C        1.0780     2.8950     1.0960 C.2   1 <1>   0.6160 
  8 C        1.1340     5.2600     0.6440 C.2   1 <1>  -0.1500 
  9 C       -4.3430     3.8710    -0.0110 C.3   1 <1>   0.1440 
 10 C       -2.6290     3.1340    -1.7540 C.3   1 <1>  -0.1600 
 11 O        0.5480     1.8360     1.3990 O.2   1 <1>  -0.5700 
 12 N        2.4190     2.8530     0.8300 N.am  1 <1>  -0.5390 
 13 C        2.5190     5.1700     0.3840 C.2   1 <1>  -0.1380 
 14 C       -5.7640     3.7260     0.5050 C.ar  1 <1>   0.1670 
 15 C       -4.1060     3.0850    -1.3190 C.3   1 <1>  -0.1600 
 16 C       -4.2240     5.4050    -0.2170 C.3   1 <1>  -0.1600 
 17 C        3.1430     3.9590     0.4740 C.2   1 <1>  -0.0290 
 18 C        3.2680     6.4420     0.0060 C.3   1 <1>  -0.0220 
 19 N       -6.4310     2.5970     0.6100 N.ar  1 <1>  -0.6200 
 20 C       -6.2880     4.9300     0.8700 C.ar  1 <1>  -0.1430 
 21 C       -5.3070     6.0560     0.6600 C.3   1 <1>  -0.0170 
 22 C        4.6290     3.7610     0.2130 C.3   1 <1>  -0.0220 
 23 C        4.7890     6.2820     0.1440 C.3   1 <1>  -0.1600 
 24 C       -7.6580     2.7290     1.0940 C.ar  1 <1>   0.4770 
 25 C       -7.5700     4.9500     1.3600 C.ar  1 <1>   0.1600 
 26 C        5.2590     4.9690    -0.4940 C.3   1 <1>  -0.1600 
 27 N       -8.2730     3.8410     1.4750 N.ar  1 <1>  -0.6200 
 28 C       -8.4590     1.4560     1.2220 C.3   1 <1>  -0.0970 
 29 H       -3.5100     3.9460     1.9760 H     1 <1>   0.0800 
 30 H       -3.5970     2.3470     1.3090 H     1 <1>   0.0800 
 31 H       -1.8470     1.6270    -0.4240 H     1 <1>   0.0800 
 32 H       -0.6690     2.7930    -0.9590 H     1 <1>   0.0800 
 33 H        0.6540     6.2220     0.5750 H     1 <1>   0.1500 
 34 H       -2.4890     2.5040    -2.6140 H     1 <1>   0.0800 
 35 H       -2.3630     4.1370    -2.0400 H     1 <1>   0.0800 
 36 H        2.8440     1.9310     0.9360 H     1 <1>   0.3700 
 37 H       -4.7380     3.4680    -2.1010 H     1 <1>   0.0800 
 38 H       -4.3820     2.0570    -1.1590 H     1 <1>   0.0800 
 39 H       -4.4360     5.6470    -1.2430 H     1 <1>   0.0800 
 40 H       -3.2450     5.7810     0.0240 H     1 <1>   0.0800 
 41 H        2.9440     7.2560     0.6320 H     1 <1>   0.0800 
 42 H        3.0270     6.6900    -1.0130 H     1 <1>   0.0800 
 43 H       -5.7600     6.9000     0.1710 H     1 <1>   0.0800 
 44 H       -4.8930     6.3570     1.6080 H     1 <1>   0.0800 
 45 H        4.7800     2.8840    -0.3920 H     1 <1>   0.0800 
 46 H        5.1210     3.6040     1.1570 H     1 <1>   0.0800 
 47 H        5.0520     6.2830     1.1880 H     1 <1>   0.0800 
 48 H        5.2820     7.1160    -0.3240 H     1 <1>   0.0800 
 49 H       -8.0250     5.8770     1.6620 H     1 <1>   0.1500 
 50 H        4.9740     4.9600    -1.5330 H     1 <1>   0.0800 
 51 H        6.3310     4.8980    -0.4430 H     1 <1>   0.0800 
 52 H       -7.8020     0.6150     1.3390 H     1 <1>   0.0800 
 53 H       -9.0530     1.3220     0.3390 H     1 <1>   0.0800 
 54 H       -9.1060     1.5140     2.0780 H     1 <1>   0.0800 
@<TRIPOS>BOND
  1   1   2  2   
  2   2   3  am  
  3   2   4  1   
  4   3   5  1   
  5   3   6  1   
  6   4   7  1   
  7   4   8  2   
  8   5   9  1   
  9   5  29  1   
 10   5  30  1   
 11   6  10  1   
 12   6  31  1   
 13   6  32  1   
 14   7  11  2   
 15   7  12  am  
 16   8  13  1   
 17   8  33  1   
 18   9  14  1   
 19   9  15  1   
 20   9  16  1   
 21  10  15  1   
 22  10  34  1   
 23  10  35  1   
 24  12  17  1   
 25  12  36  1   
 26  13  17  2   
 27  13  18  1   
 28  14  19  ar  
 29  14  20  ar  
 30  15  37  1   
 31  15  38  1   
 32  16  21  1   
 33  16  39  1   
 34  16  40  1   
 35  17  22  1   
 36  18  23  1   
 37  18  41  1   
 38  18  42  1   
 39  19  24  ar  
 40  20  21  1   
 41  20  25  ar  
 42  21  43  1   
 43  21  44  1   
 44  22  26  1   
 45  22  45  1   
 46  22  46  1   
 47  23  26  1   
 48  23  47  1   
 49  23  48  1   
 50  24  27  ar  
 51  24  28  1   
 52  25  27  ar  
 53  25  49  1   
 54  26  50  1   
 55  26  51  1   
 56  28  52  1   
 57  28  53  1   
 58  28  54  1   
@<TRIPOS>SUBSTRUCTURE
  1 ****   3 GROUP 4 **** **** 0

# MOE 2024.06 (io_trps.svl 2023.06)
