@<TRIPOS>MOLECULE
NONAME
46 47 1 0 0 
SMALL
USER_CHARGES


@<TRIPOS>ATOM
  1 O        1.4580    -0.6230     1.4680 O.2   1 <1>  -0.5700 
  2 C        1.6720    -1.0060     0.3300 C.2   1 <1>   0.5440 
  3 N        2.0680    -0.0850    -0.6220 N.am  1 <1>  -0.6600 
  4 C        1.5150    -2.4090     0.0060 C.ar  1 <1>   0.0860 
  5 C        2.1220     1.3690    -0.3150 C.3   1 <1>   0.1400 
  6 C        2.3520    -0.4510    -2.0360 C.3   1 <1>   0.0600 
  7 C        0.4080    -2.8820    -0.7210 C.ar  1 <1>   0.0820 
  8 C        2.4990    -3.3360     0.3820 C.ar  1 <1>  -0.1440 
  9 C        3.4920     1.7090     0.2790 C.3   1 <1>  -0.1600 
 10 O       -0.6210    -2.1000    -1.1250 O.3   1 <1>  -0.3630 
 11 C        0.3220    -4.2160    -1.0840 C.ar  1 <1>  -0.1500 
 12 C        2.3880    -4.6690     0.0240 C.ar  1 <1>  -0.1500 
 13 C        3.7140    -2.8900     1.1870 C.3   1 <1>  -0.0970 
 14 C        3.6550     3.1980     0.6070 C.3   1 <1>   0.2800 
 15 C       -1.2520    -1.2210    -0.2150 C.3   1 <1>   0.0400 
 16 C        1.3050    -5.1100    -0.7130 C.ar  1 <1>  -0.1500 
 17 O        2.6270     3.5830     1.4430 O.3   1 <1>  -0.6800 
 18 C        3.6420     4.1310    -0.6020 C.3   1 <1>  -0.1600 
 19 C        4.9740     3.5320     1.2980 C.3   1 <1>  -0.1600 
 20 C        4.3520     5.4130    -0.1490 C.3   1 <1>  -0.1600 
 21 C        5.1850     5.0350     1.0840 C.3   1 <1>  -0.1600 
 22 H        1.3440     1.6150     0.3890 H     1 <1>   0.0800 
 23 H        1.9460     1.9380    -1.2110 H     1 <1>   0.0800 
 24 H        2.6290    -1.4880    -2.1170 H     1 <1>   0.0800 
 25 H        3.1630     0.1460    -2.4150 H     1 <1>   0.0800 
 26 H        1.4740    -0.2780    -2.6350 H     1 <1>   0.0800 
 27 H        4.2570     1.4230    -0.4200 H     1 <1>   0.0800 
 28 H        3.6370     1.1360     1.1770 H     1 <1>   0.0800 
 29 H       -0.5260    -4.5490    -1.6540 H     1 <1>   0.1500 
 30 H        3.1450    -5.3770     0.3130 H     1 <1>   0.1500 
 31 H        3.3990    -2.4960     2.1370 H     1 <1>   0.0800 
 32 H        4.2490    -2.1220     0.6560 H     1 <1>   0.0800 
 33 H        4.3860    -3.7090     1.3660 H     1 <1>   0.0800 
 34 H       -2.2810    -1.1190    -0.5080 H     1 <1>   0.0800 
 35 H       -0.7670    -0.2630    -0.2590 H     1 <1>   0.0800 
 36 H       -1.1910    -1.6300     0.7790 H     1 <1>   0.0800 
 37 H        1.2280    -6.1470    -0.9940 H     1 <1>   0.1500 
 38 H        2.6080     2.9950     2.2210 H     1 <1>   0.4000 
 39 H        2.6440     4.3220    -0.9550 H     1 <1>   0.0800 
 40 H        4.2130     3.6850    -1.3970 H     1 <1>   0.0800 
 41 H        5.7700     3.0030     0.8050 H     1 <1>   0.0800 
 42 H        4.9740     3.2610     2.3390 H     1 <1>   0.0800 
 43 H        3.6190     6.1510     0.1300 H     1 <1>   0.0800 
 44 H        4.9670     5.8120    -0.9360 H     1 <1>   0.0800 
 45 H        6.2270     5.2670     0.9460 H     1 <1>   0.0800 
 46 H        4.8160     5.5750     1.9390 H     1 <1>   0.0800 
@<TRIPOS>BOND
  1   1   2  2   
  2   2   3  am  
  3   2   4  1   
  4   3   5  1   
  5   3   6  1   
  6   4   7  ar  
  7   4   8  ar  
  8   5   9  1   
  9   5  22  1   
 10   5  23  1   
 11   6  24  1   
 12   6  25  1   
 13   6  26  1   
 14   7  10  1   
 15   7  11  ar  
 16   8  12  ar  
 17   8  13  1   
 18   9  14  1   
 19   9  27  1   
 20   9  28  1   
 21  10  15  1   
 22  11  16  ar  
 23  11  29  1   
 24  12  16  ar  
 25  12  30  1   
 26  13  31  1   
 27  13  32  1   
 28  13  33  1   
 29  14  17  1   
 30  14  18  1   
 31  14  19  1   
 32  15  34  1   
 33  15  35  1   
 34  15  36  1   
 35  16  37  1   
 36  17  38  1   
 37  18  20  1   
 38  18  39  1   
 39  18  40  1   
 40  19  21  1   
 41  19  41  1   
 42  19  42  1   
 43  20  21  1   
 44  20  43  1   
 45  20  44  1   
 46  21  45  1   
 47  21  46  1   
@<TRIPOS>SUBSTRUCTURE
  1 ****   3 GROUP 4 **** **** 0

# MOE 2024.06 (io_trps.svl 2023.06)
