@<TRIPOS>MOLECULE
NONAME
50 53 1 0 0 
SMALL
USER_CHARGES


@<TRIPOS>ATOM
  1 O       -1.1280     0.4000     2.0700 O.2   1 <1>  -0.5700 
  2 C       -1.8150     0.9380     1.2230 C.2   1 <1>   0.7160 
  3 N       -2.6950     0.1720     0.4970 N.am  1 <1>  -0.6600 
  4 C       -1.6870     2.3480     0.9700 C.2   1 <1>  -0.0860 
  5 C       -3.3000     0.5880    -0.7940 C.3   1 <1>   0.1400 
  6 C       -2.8330    -1.2960     0.6810 C.3   1 <1>   0.1400 
  7 C       -0.5440     3.0220     0.5740 C.2   1 <1>   0.1080 
  8 C       -2.5810     3.3580     1.0310 C.2   1 <1>  -0.0400 
  9 C       -4.1980    -0.5830    -1.1850 C.3   1 <1>   0.2000 
 10 C       -3.4620    -1.8080    -0.6230 C.3   1 <1>  -0.0800 
 11 N       -0.7920     4.2680     0.4110 N.2   1 <1>  -0.4100 
 12 C        0.8230     2.3970     0.3530 C.3   1 <1>   0.0210 
 13 O       -2.0530     4.5080     0.6880 O.3   1 <1>  -0.0190 
 14 C       -4.0400     3.3380     1.4410 C.3   1 <1>  -0.0600 
 15 O       -5.4120    -0.4260    -0.5330 O.3   1 <1>  -0.6800 
 16 C       -4.3460    -3.0620    -0.4480 C.3   1 <1>  -0.0170 
 17 C        0.8690     1.5880    -0.9480 C.3   1 <1>  -0.2400 
 18 C       -3.6360    -4.3510    -0.0160 C.ar  1 <1>  -0.1440 
 19 C       -4.4040    -5.4770     0.3740 C.ar  1 <1>   0.0000 
 20 C       -2.2760    -4.4950     0.0090 C.ar  1 <1>  -0.1500 
 21 C       -3.7150    -6.6450     0.7850 C.ar  1 <1>   0.3100 
 22 C       -5.8200    -5.5170     0.3730 C.ar  1 <1>  -0.1500 
 23 C       -1.6950    -5.6980     0.4270 C.ar  1 <1>   0.1600 
 24 N       -2.3630    -6.7380     0.8070 N.ar  1 <1>  -0.6200 
 25 C       -4.4540    -7.7700     1.1870 C.ar  1 <1>  -0.1500 
 26 C       -6.5100    -6.6310     0.7680 C.ar  1 <1>  -0.1500 
 27 C       -5.8220    -7.7730     1.1830 C.ar  1 <1>  -0.1500 
 28 H       -3.8590     1.5030    -0.7090 H     1 <1>   0.0800 
 29 H       -2.5180     0.7120    -1.5240 H     1 <1>   0.0800 
 30 H       -1.8740    -1.7500     0.8680 H     1 <1>   0.0800 
 31 H       -3.4790    -1.4850     1.5210 H     1 <1>   0.0800 
 32 H       -4.3830    -0.6410    -2.2440 H     1 <1>   0.0800 
 33 H       -2.6690    -2.0350    -1.3130 H     1 <1>   0.0800 
 34 H        1.5600     3.1800     0.3110 H     1 <1>   0.0800 
 35 H        1.0650     1.7640     1.1880 H     1 <1>   0.0800 
 36 H       -4.3410     2.3480     1.7310 H     1 <1>   0.0800 
 37 H       -4.6540     3.6660     0.6220 H     1 <1>   0.0800 
 38 H       -4.1900     4.0010     2.2740 H     1 <1>   0.0800 
 39 H       -5.2420    -0.2610     0.4160 H     1 <1>   0.4000 
 40 H       -4.8500    -3.2560    -1.3790 H     1 <1>   0.0800 
 41 H       -5.1000    -2.8360     0.2850 H     1 <1>   0.0800 
 42 H        0.6160     2.2190    -1.7820 H     1 <1>   0.0800 
 43 H        0.1750     0.7680    -0.9070 H     1 <1>   0.0800 
 44 H        1.8580     1.1940    -1.1000 H     1 <1>   0.0800 
 45 H       -1.6010    -3.7160    -0.2840 H     1 <1>   0.1500 
 46 H       -6.3770    -4.6580     0.0520 H     1 <1>   0.1500 
 47 H       -0.6200    -5.7610     0.4340 H     1 <1>   0.1500 
 48 H       -3.9020    -8.6370     1.4990 H     1 <1>   0.1500 
 49 H       -7.5870    -6.6430     0.7630 H     1 <1>   0.1500 
 50 H       -6.3760    -8.6420     1.4930 H     1 <1>   0.1500 
@<TRIPOS>BOND
  1   1   2  2   
  2   2   3  am  
  3   2   4  1   
  4   3   5  1   
  5   3   6  1   
  6   4   7  1   
  7   4   8  2   
  8   5   9  1   
  9   5  28  1   
 10   5  29  1   
 11   6  10  1   
 12   6  30  1   
 13   6  31  1   
 14   7  11  2   
 15   7  12  1   
 16   8  13  1   
 17   8  14  1   
 18   9  10  1   
 19   9  15  1   
 20   9  32  1   
 21  10  16  1   
 22  10  33  1   
 23  11  13  1   
 24  12  17  1   
 25  12  34  1   
 26  12  35  1   
 27  14  36  1   
 28  14  37  1   
 29  14  38  1   
 30  15  39  1   
 31  16  18  1   
 32  16  40  1   
 33  16  41  1   
 34  17  42  1   
 35  17  43  1   
 36  17  44  1   
 37  18  19  ar  
 38  18  20  ar  
 39  19  21  ar  
 40  19  22  ar  
 41  20  23  ar  
 42  20  45  1   
 43  21  24  ar  
 44  21  25  ar  
 45  22  26  ar  
 46  22  46  1   
 47  23  24  ar  
 48  23  47  1   
 49  25  27  ar  
 50  25  48  1   
 51  26  27  ar  
 52  26  49  1   
 53  27  50  1   
@<TRIPOS>SUBSTRUCTURE
  1 ****   6 GROUP 4 **** **** 0

# MOE 2024.06 (io_trps.svl 2023.06)
