@<TRIPOS>MOLECULE
NONAME
57 59 1 0 0 
SMALL
USER_CHARGES


@<TRIPOS>ATOM
  1 S        3.7290     0.1980     3.0380 S.3   1 <1>  -0.4600 
  2 C        2.6130    -0.4910     1.7580 C.3   1 <1>   0.1310 
  3 C        2.8170    -0.0910     4.5790 C.3   1 <1>  -0.0100 
  4 C        3.1850    -0.2570     0.3670 C.2   1 <1>   0.5690 
  5 O        3.2180    -1.1760    -0.4150 O.2   1 <1>  -0.5700 
  6 N        3.6820     0.9720     0.0670 N.am  1 <1>  -0.7300 
  7 C        4.3010     1.4290    -1.1980 C.3   1 <1>   0.3000 
  8 C        5.5620     0.5800    -1.5510 C.3   1 <1>   0.2000 
  9 C        4.7170     2.8970    -0.9870 C.3   1 <1>  -0.1600 
 10 C        3.2090     1.3610    -2.2800 C.3   1 <1>  -0.2400 
 11 O        6.0280     0.9360    -2.8280 O.3   1 <1>  -0.6800 
 12 C        6.7030     0.7500    -0.4820 C.3   1 <1>   0.2800 
 13 C        6.1390     3.0700    -0.4340 C.3   1 <1>   0.1200 
 14 O        6.5450     1.9320     0.2690 O.3   1 <1>  -0.5600 
 15 C        8.1310     0.7730    -1.0650 C.3   1 <1>  -0.1600 
 16 C        6.6640    -0.3950     0.5430 C.3   1 <1>  -0.1600 
 17 C        9.1730     0.9540     0.0330 C.3   1 <1>   0.3430 
 18 C        7.7060    -0.1980     1.6360 C.3   1 <1>   0.3430 
 19 N        9.0680    -0.1530     1.0310 N.4   1 <1>  -0.9590 
 20 C       10.1070    -0.0350     2.0870 C.3   1 <1>   0.4860 
 21 C       11.4770    -0.2130     1.4530 C.ar  1 <1>  -0.1440 
 22 C       12.2970     0.8930     1.2510 C.ar  1 <1>  -0.1500 
 23 C       11.9150    -1.4800     1.0710 C.ar  1 <1>  -0.1500 
 24 C       13.5350     0.7130     0.6600 C.ar  1 <1>   0.1900 
 25 C       13.1590    -1.6530     0.4790 C.ar  1 <1>  -0.1500 
 26 F       14.2940     1.7600     0.4670 F     1 <1>  -0.1900 
 27 C       13.9620    -0.5470     0.2760 C.ar  1 <1>   0.1900 
 28 F       15.1310    -0.7090    -0.2870 F     1 <1>  -0.1900 
 29 H        2.5110    -1.5430     1.9500 H     1 <1>   0.0800 
 30 H        1.6620    -0.0020     1.8570 H     1 <1>   0.0800 
 31 H        3.4120     0.2900     5.3900 H     1 <1>   0.0800 
 32 H        2.6620    -1.1500     4.6850 H     1 <1>   0.0800 
 33 H        1.8790     0.4320     4.5170 H     1 <1>   0.0800 
 34 H        3.8190     1.6200     0.8470 H     1 <1>   0.3700 
 35 H        5.2900    -0.4570    -1.6250 H     1 <1>   0.0800 
 36 H        4.0100     3.4020    -0.3530 H     1 <1>   0.0800 
 37 H        4.6950     3.4140    -1.9300 H     1 <1>   0.0800 
 38 H        3.5460     1.8060    -3.1980 H     1 <1>   0.0800 
 39 H        2.3320     1.8930    -1.9570 H     1 <1>   0.0800 
 40 H        2.9390     0.3410    -2.4860 H     1 <1>   0.0800 
 41 H        5.3440     0.7330    -3.4970 H     1 <1>   0.4000 
 42 H        6.1780     3.9100     0.2390 H     1 <1>   0.0800 
 43 H        6.8340     3.2450    -1.2370 H     1 <1>   0.0800 
 44 H        8.3240    -0.1350    -1.6070 H     1 <1>   0.0800 
 45 H        8.2350     1.5800    -1.7670 H     1 <1>   0.0800 
 46 H        5.7060    -0.4380     1.0130 H     1 <1>   0.0800 
 47 H        6.8160    -1.3410     0.0550 H     1 <1>   0.0800 
 48 H        9.0060     1.9020     0.5210 H     1 <1>   0.0800 
 49 H       10.1570     0.9660    -0.4090 H     1 <1>   0.0800 
 50 H        7.6370    -1.0070     2.3460 H     1 <1>   0.0800 
 51 H        7.5000     0.7270     2.1510 H     1 <1>   0.0800 
 52 H        9.2340    -1.0330     0.5300 H     1 <1>   0.4500 
 53 H       10.0420     0.9280     2.5660 H     1 <1>   0.0800 
 54 H        9.9610    -0.7970     2.8350 H     1 <1>   0.0800 
 55 H       12.0010     1.8860     1.5410 H     1 <1>   0.1500 
 56 H       11.2990    -2.3490     1.2320 H     1 <1>   0.1500 
 57 H       13.5070    -2.6270     0.1790 H     1 <1>   0.1500 
@<TRIPOS>BOND
  1   1   2  1   
  2   1   3  1   
  3   2   4  1   
  4   2  29  1   
  5   2  30  1   
  6   3  31  1   
  7   3  32  1   
  8   3  33  1   
  9   4   5  2   
 10   4   6  am  
 11   6   7  1   
 12   6  34  1   
 13   7   8  1   
 14   7   9  1   
 15   7  10  1   
 16   8  11  1   
 17   8  12  1   
 18   8  35  1   
 19   9  13  1   
 20   9  36  1   
 21   9  37  1   
 22  10  38  1   
 23  10  39  1   
 24  10  40  1   
 25  11  41  1   
 26  12  14  1   
 27  12  15  1   
 28  12  16  1   
 29  13  14  1   
 30  13  42  1   
 31  13  43  1   
 32  15  17  1   
 33  15  44  1   
 34  15  45  1   
 35  16  18  1   
 36  16  46  1   
 37  16  47  1   
 38  17  19  1   
 39  17  48  1   
 40  17  49  1   
 41  18  19  1   
 42  18  50  1   
 43  18  51  1   
 44  19  20  1   
 45  19  52  1   
 46  20  21  1   
 47  20  53  1   
 48  20  54  1   
 49  21  22  ar  
 50  21  23  ar  
 51  22  24  ar  
 52  22  55  1   
 53  23  25  ar  
 54  23  56  1   
 55  24  26  1   
 56  24  27  ar  
 57  25  27  ar  
 58  25  57  1   
 59  27  28  1   
@<TRIPOS>SUBSTRUCTURE
  1 ****  12 GROUP 4 **** **** 0

# MOE 2024.06 (io_trps.svl 2023.06)
