@<TRIPOS>MOLECULE
NONAME
47 50 1 0 0 
SMALL
USER_CHARGES


@<TRIPOS>ATOM
  1 O        0.1130     0.1650     0.4930 O.3   1 <1>  -0.5600 
  2 C        0.6000     0.8130    -0.6350 C.3   1 <1>   0.1200 
  3 C       -1.2700     0.0060     0.3640 C.3   1 <1>   0.1200 
  4 C       -0.4490     1.8930    -0.8730 C.3   1 <1>   0.4230 
  5 C       -1.7200     1.0670    -0.6570 C.3   1 <1>  -0.0800 
  6 N       -0.3040     2.9140     0.2000 N.4   1 <1>  -0.9060 
  7 C       -2.9860     1.8490    -0.2390 C.3   1 <1>  -0.0170 
  8 C        0.7840     3.8890     0.0120 C.3   1 <1>   0.4230 
  9 C       -4.2800     1.0350    -0.1330 C.ar  1 <1>  -0.1440 
 10 C        0.8880     4.7160     1.2860 C.3   1 <1>  -0.1600 
 11 C        0.3580     4.9220    -1.0270 C.3   1 <1>  -0.1600 
 12 C       -5.4360     1.6310     0.4330 C.ar  1 <1>   0.0000 
 13 C       -4.4010    -0.2580    -0.5650 C.ar  1 <1>  -0.1500 
 14 C       -0.2310     5.7620     1.1990 C.3   1 <1>  -0.1600 
 15 C       -0.5700     5.8970    -0.2910 C.3   1 <1>  -0.1600 
 16 C       -6.6070     0.8410     0.5420 C.ar  1 <1>   0.3100 
 17 C       -5.5050     2.9690     0.8930 C.ar  1 <1>  -0.1500 
 18 C       -5.6110    -0.9470    -0.4190 C.ar  1 <1>   0.1600 
 19 N       -6.6760    -0.4420     0.1130 N.ar  1 <1>  -0.6200 
 20 C       -7.7610     1.4000     1.1140 C.ar  1 <1>  -0.1500 
 21 C       -6.6470     3.4860     1.4430 C.ar  1 <1>  -0.1500 
 22 C       -7.7900     2.6930     1.5590 C.ar  1 <1>  -0.1500 
 23 H        1.5860     1.1940    -0.4400 H     1 <1>   0.0800 
 24 H        0.6340     0.1060    -1.4470 H     1 <1>   0.0800 
 25 H       -1.4680    -0.9950     0.0170 H     1 <1>   0.0800 
 26 H       -1.7170     0.1440     1.3350 H     1 <1>   0.0800 
 27 H       -0.3960     2.3290    -1.8570 H     1 <1>   0.0800 
 28 H       -1.9260     0.5660    -1.5860 H     1 <1>   0.0800 
 29 H       -1.1670     3.4430     0.3340 H     1 <1>   0.4500 
 30 H       -0.1240     2.3770     1.0620 H     1 <1>   0.4500 
 31 H       -3.1580     2.6410    -0.9470 H     1 <1>   0.0800 
 32 H       -2.8130     2.2910     0.7260 H     1 <1>   0.0800 
 33 H        1.7150     3.4030    -0.2350 H     1 <1>   0.0800 
 34 H        0.8370     4.1240     2.1840 H     1 <1>   0.0800 
 35 H        1.8350     5.2280     1.2780 H     1 <1>   0.0800 
 36 H        1.2360     5.4620    -1.3400 H     1 <1>   0.0800 
 37 H       -0.0990     4.4990    -1.9040 H     1 <1>   0.0800 
 38 H       -3.6040    -0.8060    -1.0270 H     1 <1>   0.1500 
 39 H       -1.0980     5.4370     1.7490 H     1 <1>   0.0800 
 40 H        0.0970     6.7040     1.6100 H     1 <1>   0.0800 
 41 H       -0.4100     6.9070    -0.6350 H     1 <1>   0.0800 
 42 H       -1.6030     5.6430    -0.4600 H     1 <1>   0.0800 
 43 H       -4.6500     3.6090     0.8120 H     1 <1>   0.1500 
 44 H       -5.6600    -1.9640    -0.7700 H     1 <1>   0.1500 
 45 H       -8.6290     0.7720     1.1890 H     1 <1>   0.1500 
 46 H       -6.6850     4.5040     1.7910 H     1 <1>   0.1500 
 47 H       -8.6820     3.1090     1.9950 H     1 <1>   0.1500 
@<TRIPOS>BOND
  1   1   2  1   
  2   1   3  1   
  3   2   4  1   
  4   2  23  1   
  5   2  24  1   
  6   3   5  1   
  7   3  25  1   
  8   3  26  1   
  9   4   5  1   
 10   4   6  1   
 11   4  27  1   
 12   5   7  1   
 13   5  28  1   
 14   6   8  1   
 15   6  29  1   
 16   6  30  1   
 17   7   9  1   
 18   7  31  1   
 19   7  32  1   
 20   8  10  1   
 21   8  11  1   
 22   8  33  1   
 23   9  12  ar  
 24   9  13  ar  
 25  10  14  1   
 26  10  34  1   
 27  10  35  1   
 28  11  15  1   
 29  11  36  1   
 30  11  37  1   
 31  12  16  ar  
 32  12  17  ar  
 33  13  18  ar  
 34  13  38  1   
 35  14  15  1   
 36  14  39  1   
 37  14  40  1   
 38  15  41  1   
 39  15  42  1   
 40  16  19  ar  
 41  16  20  ar  
 42  17  21  ar  
 43  17  43  1   
 44  18  19  ar  
 45  18  44  1   
 46  20  22  ar  
 47  20  45  1   
 48  21  22  ar  
 49  21  46  1   
 50  22  47  1   
@<TRIPOS>SUBSTRUCTURE
  1 ****   7 GROUP 4 **** **** 0

# MOE 2024.06 (io_trps.svl 2023.06)
