@<TRIPOS>MOLECULE
NONAME
35 37 1 0 0 
SMALL
USER_CHARGES


@<TRIPOS>ATOM
  1 F       -0.9820    -0.6990     0.6330 F     1 <1>  -0.3400 
  2 C       -0.5640    -1.9550     0.6770 C.3   1 <1>   0.8800 
  3 F        0.7370    -1.9150     0.4170 F     1 <1>  -0.3400 
  4 O       -1.2080    -2.6650    -0.3540 O.3   1 <1>  -0.3630 
  5 C       -1.2440    -4.0160    -0.3500 C.ar  1 <1>   0.0830 
  6 C       -0.4120    -4.8160     0.4300 C.ar  1 <1>  -0.1500 
  7 C       -2.1770    -4.6210    -1.1780 C.ar  1 <1>  -0.1500 
  8 C       -0.5370    -6.1920     0.3840 C.ar  1 <1>  -0.1500 
  9 C       -2.2920    -5.9980    -1.2170 C.ar  1 <1>  -0.1500 
 10 C       -1.4820    -6.8160    -0.4300 C.ar  1 <1>   0.0860 
 11 C       -1.5970    -8.2610    -0.4540 C.2   1 <1>   0.5440 
 12 O       -0.6200    -8.9300    -0.7400 O.2   1 <1>  -0.5700 
 13 N       -2.7770    -8.8880    -0.1500 N.am  1 <1>  -0.6600 
 14 C       -3.9450    -8.2240     0.4970 C.3   1 <1>   0.2350 
 15 C       -2.8910   -10.3670    -0.0010 C.3   1 <1>   0.2350 
 16 C       -5.0080    -9.3000     0.6350 C.3   1 <1>  -0.2420 
 17 C       -4.3500   -10.6270     0.3370 C.3   1 <1>  -0.2420 
 18 C       -6.0800    -8.8780     1.6490 C.2   1 <1>   0.9470 
 19 C       -5.4370   -10.1080    -0.5660 C.3   1 <1>  -0.2000 
 20 C       -4.5150   -11.9990     0.9910 C.2   1 <1>   0.9470 
 21 O       -7.2800    -9.0460     1.3950 O.co2 1 <1>  -0.9000 
 22 O       -5.7290    -8.2120     2.6360 O.co2 1 <1>  -0.9000 
 23 O       -3.9230   -12.2350     2.0530 O.co2 1 <1>  -0.9000 
 24 O       -5.1010   -12.8980     0.3700 O.co2 1 <1>  -0.9000 
 25 H       -0.7420    -2.3680     1.6540 H     1 <1>   0.0800 
 26 H        0.3430    -4.3960     1.0680 H     1 <1>   0.1500 
 27 H       -2.8130    -4.0050    -1.7910 H     1 <1>   0.1500 
 28 H        0.1060    -6.8150     0.9830 H     1 <1>   0.1500 
 29 H       -3.0190    -6.4600    -1.8640 H     1 <1>   0.1500 
 30 H       -3.6490    -7.8620     1.4670 H     1 <1>   0.0800 
 31 H       -4.3200    -7.4120    -0.0970 H     1 <1>   0.0800 
 32 H       -2.6100   -10.8680    -0.9100 H     1 <1>   0.0800 
 33 H       -2.2580   -10.6960     0.8060 H     1 <1>   0.0800 
 34 H       -5.1860    -9.7700    -1.5540 H     1 <1>   0.1000 
 35 H       -6.3900   -10.6090    -0.5300 H     1 <1>   0.1000 
@<TRIPOS>BOND
  1   1   2  1   
  2   2   3  1   
  3   2   4  1   
  4   2  25  1   
  5   4   5  1   
  6   5   6  ar  
  7   5   7  ar  
  8   6   8  ar  
  9   6  26  1   
 10   7   9  ar  
 11   7  27  1   
 12   8  10  ar  
 13   8  28  1   
 14   9  10  ar  
 15   9  29  1   
 16  10  11  1   
 17  11  12  2   
 18  11  13  am  
 19  13  14  1   
 20  13  15  1   
 21  14  16  1   
 22  14  30  1   
 23  14  31  1   
 24  15  17  1   
 25  15  32  1   
 26  15  33  1   
 27  16  17  1   
 28  16  18  1   
 29  16  19  1   
 30  17  19  1   
 31  17  20  1   
 32  18  21  ar  
 33  18  22  ar  
 34  19  34  1   
 35  19  35  1   
 36  20  23  ar  
 37  20  24  ar  
@<TRIPOS>SUBSTRUCTURE
  1 ****  14 GROUP 4 **** **** 0

# MOE 2024.06 (io_trps.svl 2023.06)
