@<TRIPOS>MOLECULE
NONAME
48 51 1 0 0 
SMALL
USER_CHARGES


@<TRIPOS>ATOM
  1 O        3.8640    -1.8560    -1.0150 O.2   1 <1>  -0.5700 
  2 C        2.7510    -1.9140    -0.5140 C.2   1 <1>   0.5440 
  3 N        2.2870    -0.7560     0.0940 N.am  1 <1>  -0.6600 
  4 C        2.0160    -3.1850    -0.5670 C.ar  1 <1>   0.3960 
  5 C        0.9980    -0.5970     0.8090 C.3   1 <1>   0.1400 
  6 C        3.1110     0.4660     0.2240 C.3   1 <1>   0.1400 
  7 N        0.6810    -3.2260    -0.4440 N.ar  1 <1>  -0.6200 
  8 C        2.7560    -4.3580    -0.7520 C.ar  1 <1>   0.1600 
  9 C        0.9940     0.8430     1.3140 C.3   1 <1>  -0.1600 
 10 C        2.4640     1.2490     1.3590 C.3   1 <1>  -0.1600 
 11 C        0.1640    -4.4410    -0.4890 C.ar  1 <1>   0.4100 
 12 N        2.2650    -5.5870    -0.8170 N.ar  1 <1>  -0.6200 
 13 N       -1.2090    -4.4760    -0.3360 N.pl3 1 <1>  -0.8380 
 14 C        0.9500    -5.5910    -0.6860 C.ar  1 <1>   0.1600 
 15 C       -1.8400    -5.5150     0.5360 C.3   1 <1>   0.2090 
 16 C       -2.0130    -4.3630    -1.5720 C.3   1 <1>   0.2090 
 17 C       -2.9390    -6.1930    -0.2940 C.3   1 <1>   0.0370 
 18 C       -3.3330    -5.0350    -1.2310 C.3   1 <1>  -0.1600 
 19 C       -4.0890    -6.6890     0.6120 C.ar  1 <1>  -0.1430 
 20 C       -2.2900    -7.3610    -1.0640 C.2   1 <1>   0.9060 
 21 C       -5.4230    -6.3660     0.3870 C.ar  1 <1>  -0.1500 
 22 C       -3.7860    -7.5050     1.6940 C.ar  1 <1>  -0.1500 
 23 O       -1.5000    -8.1150    -0.4740 O.co2 1 <1>  -0.9000 
 24 O       -2.5230    -7.5100    -2.2730 O.co2 1 <1>  -0.9000 
 25 C       -6.4180    -6.8200     1.2370 C.ar  1 <1>  -0.1500 
 26 C       -4.7760    -7.9610     2.5470 C.ar  1 <1>  -0.1500 
 27 C       -6.0950    -7.6150     2.3220 C.ar  1 <1>  -0.1500 
 28 H        0.9580    -1.2910     1.6310 H     1 <1>   0.0800 
 29 H        0.1670    -0.7730     0.1460 H     1 <1>   0.0800 
 30 H        3.0600     1.0190    -0.6980 H     1 <1>   0.0800 
 31 H        4.1370     0.2230     0.4430 H     1 <1>   0.0800 
 32 H        3.8230    -4.2710    -0.8510 H     1 <1>   0.1500 
 33 H        0.5150     0.9270     2.2730 H     1 <1>   0.0800 
 34 H        0.4680     1.4570     0.6050 H     1 <1>   0.0800 
 35 H        2.6030     2.3090     1.2420 H     1 <1>   0.0800 
 36 H        2.9020     0.9360     2.2900 H     1 <1>   0.0800 
 37 H        0.4470    -6.5410    -0.7390 H     1 <1>   0.1500 
 38 H       -2.2900    -5.0130     1.3740 H     1 <1>   0.0800 
 39 H       -1.1180    -6.2150     0.9190 H     1 <1>   0.0800 
 40 H       -1.5250    -4.8910    -2.3760 H     1 <1>   0.0800 
 41 H       -2.1490    -3.3310    -1.8440 H     1 <1>   0.0800 
 42 H       -3.8470    -5.3710    -2.1140 H     1 <1>   0.0800 
 43 H       -3.9440    -4.3190    -0.7120 H     1 <1>   0.0800 
 44 H       -5.7090    -5.7660    -0.4560 H     1 <1>   0.1500 
 45 H       -2.7650    -7.8040     1.8680 H     1 <1>   0.1500 
 46 H       -7.4430    -6.5570     1.0490 H     1 <1>   0.1500 
 47 H       -4.5130    -8.5910     3.3780 H     1 <1>   0.1500 
 48 H       -6.8670    -7.9690     2.9830 H     1 <1>   0.1500 
@<TRIPOS>BOND
  1   1   2  2   
  2   2   3  am  
  3   2   4  1   
  4   3   5  1   
  5   3   6  1   
  6   4   7  ar  
  7   4   8  ar  
  8   5   9  1   
  9   5  28  1   
 10   5  29  1   
 11   6  10  1   
 12   6  30  1   
 13   6  31  1   
 14   7  11  ar  
 15   8  12  ar  
 16   8  32  1   
 17   9  10  1   
 18   9  33  1   
 19   9  34  1   
 20  10  35  1   
 21  10  36  1   
 22  11  13  1   
 23  11  14  ar  
 24  12  14  ar  
 25  13  15  1   
 26  13  16  1   
 27  14  37  1   
 28  15  17  1   
 29  15  38  1   
 30  15  39  1   
 31  16  18  1   
 32  16  40  1   
 33  16  41  1   
 34  17  18  1   
 35  17  19  1   
 36  17  20  1   
 37  18  42  1   
 38  18  43  1   
 39  19  21  ar  
 40  19  22  ar  
 41  20  23  ar  
 42  20  24  ar  
 43  21  25  ar  
 44  21  44  1   
 45  22  26  ar  
 46  22  45  1   
 47  25  27  ar  
 48  25  46  1   
 49  26  27  ar  
 50  26  47  1   
 51  27  48  1   
@<TRIPOS>SUBSTRUCTURE
  1 ****  13 GROUP 4 **** **** 0

# MOE 2024.06 (io_trps.svl 2023.06)
