@<TRIPOS>MOLECULE
NONAME
51 54 1 0 0 
SMALL
USER_CHARGES


@<TRIPOS>ATOM
  1 O       -1.7080    -0.5310    -2.0060 O.2   1 <1>  -0.5700 
  2 C       -2.0430    -0.8940    -0.8960 C.2   1 <1>   0.7160 
  3 N       -1.7050    -2.1590    -0.4640 N.am  1 <1>  -0.6600 
  4 C       -2.7870     0.0050    -0.0580 C.2   1 <1>  -0.0860 
  5 C       -1.9630    -2.6280     0.9380 C.3   1 <1>   0.2200 
  6 C       -1.1150    -3.1370    -1.4130 C.3   1 <1>   0.1400 
  7 C       -4.1130     0.2080     0.0740 C.2   1 <1>  -0.0400 
  8 C       -2.2810     0.9050     0.8630 C.2   1 <1>   0.1080 
  9 C       -0.7780    -3.4340     1.5230 C.3   1 <1>   0.1200 
 10 C       -3.3540    -3.2990     1.0560 C.3   1 <1>   0.1100 
 11 C       -1.5130    -4.5880    -1.1220 C.3   1 <1>  -0.0800 
 12 O       -4.3880     1.1020     0.9940 O.3   1 <1>  -0.0190 
 13 C       -5.2630    -0.4340    -0.6770 C.3   1 <1>  -0.0600 
 14 N       -3.2310     1.5130     1.4650 N.2   1 <1>  -0.4100 
 15 C       -0.8100     1.1520     1.1260 C.3   1 <1>  -0.0590 
 16 O       -0.8170    -4.8050     1.2570 O.3   1 <1>  -0.5600 
 17 N       -3.5220    -4.6300     0.4350 N.3   1 <1>  -0.8100 
 18 C       -0.6100    -5.2410    -0.0520 C.3   1 <1>   0.1200 
 19 C       -3.0380    -4.7670    -0.9500 C.3   1 <1>   0.1100 
 20 C       -4.9040    -5.1260     0.5830 C.3   1 <1>   0.2900 
 21 C       -4.9640    -6.6440     0.5280 C.2   1 <1>  -0.0400 
 22 O       -6.1230    -7.2260     0.2840 O.3   1 <1>  -0.2800 
 23 C       -3.9980    -7.5720     0.6990 C.2   1 <1>  -0.1500 
 24 C       -5.9240    -8.5290     0.2890 C.2   1 <1>  -0.0400 
 25 C       -4.6280    -8.8120     0.5400 C.2   1 <1>  -0.1500 
 26 C       -7.1020    -9.4410     0.0310 C.3   1 <1>  -0.0600 
 27 H       -2.0150    -1.7510     1.5550 H     1 <1>   0.0800 
 28 H       -1.4430    -2.8970    -2.4110 H     1 <1>   0.0800 
 29 H       -0.0430    -3.0390    -1.3970 H     1 <1>   0.0800 
 30 H       -0.8090    -3.3470     2.5930 H     1 <1>   0.0800 
 31 H        0.1630    -3.0390     1.1840 H     1 <1>   0.0800 
 32 H       -4.0880    -2.6270     0.6520 H     1 <1>   0.0800 
 33 H       -3.5630    -3.4050     2.1060 H     1 <1>   0.0800 
 34 H       -1.2730    -5.1100    -2.0290 H     1 <1>   0.0800 
 35 H       -4.8950    -1.1470    -1.3920 H     1 <1>   0.0800 
 36 H       -5.8200     0.3230    -1.1990 H     1 <1>   0.0800 
 37 H       -5.9180    -0.9340     0.0130 H     1 <1>   0.0800 
 38 H       -0.3190     1.4260     0.2100 H     1 <1>   0.0800 
 39 H       -0.3510     0.2660     1.5220 H     1 <1>   0.0800 
 40 H       -0.6930     1.9530     1.8340 H     1 <1>   0.0800 
 41 H        0.4270    -5.0790    -0.2890 H     1 <1>   0.0800 
 42 H       -0.7870    -6.3020    -0.0470 H     1 <1>   0.0800 
 43 H       -3.2800    -5.7590    -1.2940 H     1 <1>   0.0800 
 44 H       -3.5620    -4.0730    -1.5860 H     1 <1>   0.0800 
 45 H       -5.3060    -4.8200     1.5330 H     1 <1>   0.0800 
 46 H       -5.5230    -4.7130    -0.1940 H     1 <1>   0.0800 
 47 H       -2.9570    -7.4060     0.9190 H     1 <1>   0.1500 
 48 H       -4.1450    -9.7690     0.6130 H     1 <1>   0.1500 
 49 H       -6.7910   -10.4690     0.0660 H     1 <1>   0.0800 
 50 H       -7.5170    -9.2310    -0.9380 H     1 <1>   0.0800 
 51 H       -7.8570    -9.2760     0.7780 H     1 <1>   0.0800 
@<TRIPOS>BOND
  1   1   2  2   
  2   2   3  am  
  3   2   4  1   
  4   3   5  1   
  5   3   6  1   
  6   4   7  2   
  7   4   8  1   
  8   5   9  1   
  9   5  10  1   
 10   5  27  1   
 11   6  11  1   
 12   6  28  1   
 13   6  29  1   
 14   7  12  1   
 15   7  13  1   
 16   8  14  2   
 17   8  15  1   
 18   9  16  1   
 19   9  30  1   
 20   9  31  1   
 21  10  17  1   
 22  10  32  1   
 23  10  33  1   
 24  11  18  1   
 25  11  19  1   
 26  11  34  1   
 27  12  14  1   
 28  13  35  1   
 29  13  36  1   
 30  13  37  1   
 31  15  38  1   
 32  15  39  1   
 33  15  40  1   
 34  16  18  1   
 35  17  19  1   
 36  17  20  1   
 37  18  41  1   
 38  18  42  1   
 39  19  43  1   
 40  19  44  1   
 41  20  21  1   
 42  20  45  1   
 43  20  46  1   
 44  21  22  1   
 45  21  23  2   
 46  22  24  1   
 47  23  25  1   
 48  23  47  1   
 49  24  25  2   
 50  24  26  1   
 51  25  48  1   
 52  26  49  1   
 53  26  50  1   
 54  26  51  1   
@<TRIPOS>SUBSTRUCTURE
  1 ****  10 GROUP 4 **** **** 0

# MOE 2024.06 (io_trps.svl 2023.06)
