@<TRIPOS>MOLECULE
NONAME
43 45 1 0 0 
SMALL
USER_CHARGES


@<TRIPOS>ATOM
  1 CL      -3.6550    -0.5930    -2.0320 Cl    1 <1>  -0.1770 
  2 C       -4.1640     0.7390    -1.0270 C.ar  1 <1>   0.1770 
  3 C       -4.9750     0.4940     0.0640 C.ar  1 <1>  -0.1500 
  4 C       -3.7480     2.0200    -1.3380 C.ar  1 <1>  -0.1500 
  5 C       -5.3810     1.5550     0.8550 C.ar  1 <1>  -0.1500 
  6 C       -4.1580     3.0770    -0.5430 C.ar  1 <1>  -0.1500 
  7 C       -4.9820     2.8500     0.5520 C.ar  1 <1>  -0.1430 
  8 C       -5.4560     4.0120     1.4230 C.3   1 <1>   0.0450 
  9 C       -6.9630     3.9990     1.6500 C.2   1 <1>   0.5690 
 10 O       -7.3430     3.7330     2.7670 O.2   1 <1>  -0.5700 
 11 N       -7.8470     4.2610     0.6300 N.am  1 <1>  -0.6600 
 12 C       -9.3170     4.0840     0.8220 C.3   1 <1>   0.1400 
 13 C       -7.4820     4.5160    -0.7870 C.3   1 <1>   0.1400 
 14 C       -9.8120     2.8400     0.0450 C.3   1 <1>   0.0000 
 15 C       -7.9080     3.3150    -1.6370 C.3   1 <1>  -0.1600 
 16 C      -11.3410     2.6540     0.1360 C.3   1 <1>   0.2000 
 17 C       -9.3990     2.9740    -1.4460 C.3   1 <1>  -0.1600 
 18 C       -9.2700     1.5270     0.6500 C.3   1 <1>  -0.1600 
 19 O      -11.7850     2.9150     1.4200 O.3   1 <1>  -0.6800 
 20 C      -11.5780     1.1690    -0.1270 C.3   1 <1>  -0.1600 
 21 C      -10.3230     0.4430     0.3770 C.3   1 <1>  -0.1600 
 22 H       -5.2820    -0.5110     0.2890 H     1 <1>   0.1500 
 23 H       -3.1120     2.1820    -2.1900 H     1 <1>   0.1500 
 24 H       -6.0140     1.3690     1.7080 H     1 <1>   0.1500 
 25 H       -3.8320     4.0740    -0.7840 H     1 <1>   0.1500 
 26 H       -5.1800     4.9550     0.9910 H     1 <1>   0.0800 
 27 H       -4.9660     3.9450     2.3770 H     1 <1>   0.0800 
 28 H       -9.5470     3.9880     1.8690 H     1 <1>   0.0800 
 29 H       -9.8260     4.9610     0.4620 H     1 <1>   0.0800 
 30 H       -7.9960     5.4000    -1.1250 H     1 <1>   0.0800 
 31 H       -6.4280     4.6870    -0.8990 H     1 <1>   0.0800 
 32 H       -7.7210     3.5330    -2.6730 H     1 <1>   0.0800 
 33 H       -7.2950     2.4710    -1.3750 H     1 <1>   0.0800 
 34 H      -11.8870     3.2900    -0.5400 H     1 <1>   0.0800 
 35 H       -9.6190     2.0680    -1.9820 H     1 <1>   0.0800 
 36 H       -9.9790     3.7630    -1.8940 H     1 <1>   0.0800 
 37 H       -8.3100     1.2530     0.2520 H     1 <1>   0.0800 
 38 H       -9.1590     1.6420     1.7150 H     1 <1>   0.0800 
 39 H      -11.3270     2.3160     2.0400 H     1 <1>   0.4000 
 40 H      -12.4790     0.8120     0.3410 H     1 <1>   0.0800 
 41 H      -11.6660     1.0170    -1.1880 H     1 <1>   0.0800 
 42 H      -10.5350    -0.1030     1.2800 H     1 <1>   0.0800 
 43 H       -9.9700    -0.2480    -0.3700 H     1 <1>   0.0800 
@<TRIPOS>BOND
  1   1   2  1   
  2   2   3  ar  
  3   2   4  ar  
  4   3   5  ar  
  5   3  22  1   
  6   4   6  ar  
  7   4  23  1   
  8   5   7  ar  
  9   5  24  1   
 10   6   7  ar  
 11   6  25  1   
 12   7   8  1   
 13   8   9  1   
 14   8  26  1   
 15   8  27  1   
 16   9  10  2   
 17   9  11  am  
 18  11  12  1   
 19  11  13  1   
 20  12  14  1   
 21  12  28  1   
 22  12  29  1   
 23  13  15  1   
 24  13  30  1   
 25  13  31  1   
 26  14  16  1   
 27  14  17  1   
 28  14  18  1   
 29  15  17  1   
 30  15  32  1   
 31  15  33  1   
 32  16  19  1   
 33  16  20  1   
 34  16  34  1   
 35  17  35  1   
 36  17  36  1   
 37  18  21  1   
 38  18  37  1   
 39  18  38  1   
 40  19  39  1   
 41  20  21  1   
 42  20  40  1   
 43  20  41  1   
 44  21  42  1   
 45  21  43  1   
@<TRIPOS>SUBSTRUCTURE
  1 ****  11 GROUP 4 **** **** 0

# MOE 2024.06 (io_trps.svl 2023.06)
