@<TRIPOS>MOLECULE
NONAME
37 38 1 0 0 
SMALL
USER_CHARGES


@<TRIPOS>ATOM
  1 O        0.0930    -0.0910    -1.1830 O.2   1 <1>  -0.5700 
  2 C        1.0280    -0.5510    -0.5550 C.2   1 <1>   0.7150 
  3 N        1.8870     0.3120     0.0430 N.am  1 <1>  -0.7300 
  4 C        1.2600    -1.9660    -0.4290 C.2   1 <1>  -0.2370 
  5 C        1.9060     1.7630    -0.1710 C.3   1 <1>   0.4000 
  6 N        0.5530    -2.9450    -1.0910 N.pl3 1 <1>   0.0480 
  7 C        2.1990    -2.6020     0.3490 C.2   1 <1>  -0.1500 
  8 C        3.2820     2.2540     0.2610 C.2   1 <1>  -0.3320 
  9 C        0.7730     2.4350     0.6230 C.3   1 <1>   0.1200 
 10 C        1.0540    -4.1490    -0.7250 C.2   1 <1>  -0.3020 
 11 C       -0.5600    -2.7680    -2.0440 C.3   1 <1>   0.0160 
 12 C        2.0680    -3.9730     0.1600 C.2   1 <1>  -0.1500 
 13 N        3.8520     3.3890    -0.2080 N.pl3 1 <1>   0.3140 
 14 C        4.1610     1.7180     1.1410 C.2   1 <1>  -0.1500 
 15 O        0.6930     3.7970     0.3080 O.3   1 <1>  -0.5600 
 16 N        5.0680     3.5850     0.3330 N.2   1 <1>  -0.7070 
 17 C        3.3110     4.3620    -1.1700 C.3   1 <1>   0.0160 
 18 C        5.2440     2.5860     1.1390 C.2   1 <1>   0.1390 
 19 C       -0.2910     4.4770     1.0170 C.3   1 <1>   0.0400 
 20 H        2.7720    -0.0580     0.3750 H     1 <1>   0.3700 
 21 H        1.7520     1.9450    -1.2210 H     1 <1>   0.0800 
 22 H        2.9230    -2.1520     1.0050 H     1 <1>   0.1500 
 23 H        0.9630     2.3370     1.6770 H     1 <1>   0.0800 
 24 H       -0.1690     1.9800     0.3730 H     1 <1>   0.0800 
 25 H        0.6690    -5.0780    -1.1080 H     1 <1>   0.1500 
 26 H       -0.2320    -2.1560    -2.8640 H     1 <1>   0.0800 
 27 H       -1.3810    -2.2860    -1.5450 H     1 <1>   0.0800 
 28 H       -0.8780    -3.7250    -2.4150 H     1 <1>   0.0800 
 29 H        2.6660    -4.7320     0.6360 H     1 <1>   0.1500 
 30 H        4.0850     0.8290     1.7400 H     1 <1>   0.1500 
 31 H        2.7050     3.8600    -1.8990 H     1 <1>   0.0800 
 32 H        4.1270     4.8590    -1.6600 H     1 <1>   0.0800 
 33 H        2.7210     5.0840    -0.6380 H     1 <1>   0.0800 
 34 H        6.1330     2.4570     1.7340 H     1 <1>   0.1500 
 35 H       -0.2800     5.5070     0.7040 H     1 <1>   0.0800 
 36 H       -0.0760     4.4170     2.0700 H     1 <1>   0.0800 
 37 H       -1.2510     4.0420     0.8000 H     1 <1>   0.0800 
@<TRIPOS>BOND
  1   1   2  2   
  2   2   3  am  
  3   2   4  1   
  4   3   5  1   
  5   3  20  1   
  6   4   6  1   
  7   4   7  2   
  8   5   8  1   
  9   5   9  1   
 10   5  21  1   
 11   6  10  1   
 12   6  11  1   
 13   7  12  1   
 14   7  22  1   
 15   8  13  1   
 16   8  14  2   
 17   9  15  1   
 18   9  23  1   
 19   9  24  1   
 20  10  12  2   
 21  10  25  1   
 22  11  26  1   
 23  11  27  1   
 24  11  28  1   
 25  12  29  1   
 26  13  16  1   
 27  13  17  1   
 28  14  18  1   
 29  14  30  1   
 30  15  19  1   
 31  16  18  2   
 32  17  31  1   
 33  17  32  1   
 34  17  33  1   
 35  18  34  1   
 36  19  35  1   
 37  19  36  1   
 38  19  37  1   
@<TRIPOS>SUBSTRUCTURE
  1 ****   3 GROUP 4 **** **** 0

# MOE 2024.06 (io_trps.svl 2023.06)
