@<TRIPOS>MOLECULE
NONAME
42 44 1 0 0 
SMALL
USER_CHARGES


@<TRIPOS>ATOM
  1 CL       3.0200     1.7620    -2.0310 Cl    1 <1>  -0.1770 
  2 C        2.7620     0.3450    -1.0410 C.ar  1 <1>   0.1770 
  3 C        3.2320     0.3280     0.2730 C.ar  1 <1>   0.0860 
  4 C        2.1090    -0.7350    -1.6120 C.ar  1 <1>  -0.1500 
  5 C        3.8970     1.4730     0.8460 C.2   1 <1>   0.5440 
  6 C        3.0330    -0.8360     1.0140 C.ar  1 <1>  -0.1500 
  7 C        1.9130    -1.8850    -0.8640 C.ar  1 <1>  -0.1500 
  8 O        3.2500     2.4220     1.2430 O.2   1 <1>  -0.5700 
  9 N        5.2660     1.5650     0.9180 N.am  1 <1>  -0.6600 
 10 C        2.3840    -1.9090     0.4360 C.ar  1 <1>   0.1900 
 11 C        5.9130     2.4640     1.9470 C.3   1 <1>   0.1400 
 12 C        6.1310     1.1590    -0.2310 C.3   1 <1>   0.1400 
 13 F        2.2070    -2.9910     1.1450 F     1 <1>  -0.1900 
 14 C        6.2520     3.8740     1.3960 C.3   1 <1>   0.4230 
 15 C        6.6740     2.3480    -1.0680 C.3   1 <1>  -0.0800 
 16 N        5.3500     4.1450     0.2170 N.4   1 <1>  -0.9590 
 17 C        7.7750     4.0200     1.1370 C.3   1 <1>   0.1200 
 18 C        8.1430     2.6680    -0.7550 C.3   1 <1>   0.1200 
 19 C        5.8420     3.6470    -1.1040 C.3   1 <1>   0.3430 
 20 C        4.9980     5.6230     0.1220 C.3   1 <1>   0.2370 
 21 O        8.3370     2.8520     0.6050 O.3   1 <1>  -0.5600 
 22 C        6.1980     6.5580    -0.0430 C.2   1 <1>   0.9060 
 23 O        6.6920     6.6770    -1.1680 O.co2 1 <1>  -0.9000 
 24 O        6.7180     7.0070     0.9820 O.co2 1 <1>  -0.9000 
 25 H        1.7580    -0.6780    -2.6280 H     1 <1>   0.1500 
 26 H        3.3780    -0.9010     2.0310 H     1 <1>   0.1500 
 27 H        1.4090    -2.7430    -1.2740 H     1 <1>   0.1500 
 28 H        5.2370     2.5870     2.7760 H     1 <1>   0.0800 
 29 H        6.7940     1.9890     2.3410 H     1 <1>   0.0800 
 30 H        6.9540     0.5740     0.1460 H     1 <1>   0.0800 
 31 H        5.5700     0.5150    -0.8860 H     1 <1>   0.0800 
 32 H        6.0120     4.5910     2.1630 H     1 <1>   0.0800 
 33 H        6.6960     2.0060    -2.0870 H     1 <1>   0.0800 
 34 H        4.4890     3.6110     0.4450 H     1 <1>   0.4500 
 35 H        8.2610     4.1850     2.0820 H     1 <1>   0.0800 
 36 H        8.0150     4.8570     0.5060 H     1 <1>   0.0800 
 37 H        8.4830     3.5480    -1.2790 H     1 <1>   0.0800 
 38 H        8.7680     1.8420    -1.0480 H     1 <1>   0.0800 
 39 H        4.9900     3.4960    -1.7450 H     1 <1>   0.0800 
 40 H        6.4460     4.4150    -1.5640 H     1 <1>   0.0800 
 41 H        4.3460     5.7890    -0.7150 H     1 <1>   0.0800 
 42 H        4.4850     5.9290     1.0150 H     1 <1>   0.0800 
@<TRIPOS>BOND
  1   1   2  1   
  2   2   3  ar  
  3   2   4  ar  
  4   3   5  1   
  5   3   6  ar  
  6   4   7  ar  
  7   4  25  1   
  8   5   8  2   
  9   5   9  am  
 10   6  10  ar  
 11   6  26  1   
 12   7  10  ar  
 13   7  27  1   
 14   9  11  1   
 15   9  12  1   
 16  10  13  1   
 17  11  14  1   
 18  11  28  1   
 19  11  29  1   
 20  12  15  1   
 21  12  30  1   
 22  12  31  1   
 23  14  16  1   
 24  14  17  1   
 25  14  32  1   
 26  15  18  1   
 27  15  19  1   
 28  15  33  1   
 29  16  19  1   
 30  16  20  1   
 31  16  34  1   
 32  17  21  1   
 33  17  35  1   
 34  17  36  1   
 35  18  21  1   
 36  18  37  1   
 37  18  38  1   
 38  19  39  1   
 39  19  40  1   
 40  20  22  1   
 41  20  41  1   
 42  20  42  1   
 43  22  23  ar  
 44  22  24  ar  
@<TRIPOS>SUBSTRUCTURE
  1 ****   9 GROUP 4 **** **** 0

# MOE 2024.06 (io_trps.svl 2023.06)
