@<TRIPOS>MOLECULE
NONAME
43 45 1 0 0 
SMALL
USER_CHARGES


@<TRIPOS>ATOM
  1 O        1.2550    -0.0550     1.6720 O.3   1 <1>  -0.6800 
  2 C        1.5050    -0.0860     0.3030 C.3   1 <1>   0.2000 
  3 C        2.2470    -1.3710    -0.0780 C.3   1 <1>  -0.0800 
  4 C        2.4980     1.0290    -0.0510 C.3   1 <1>   0.2090 
  5 C        3.7150    -1.0510     0.2040 C.3   1 <1>   0.2090 
  6 C        1.7630    -2.6680     0.5980 C.3   1 <1>  -0.0170 
  7 N        3.8610     0.4120    -0.0310 N.pl3 1 <1>  -0.8380 
  8 C        2.6180    -3.8520     0.1750 C.ar  1 <1>  -0.1440 
  9 C        5.0400     1.0910    -0.0960 C.ar  1 <1>   0.1000 
 10 C        3.5320    -4.4340     1.0310 C.ar  1 <1>  -0.1500 
 11 C        2.5290    -4.4040    -1.0870 C.ar  1 <1>  -0.1500 
 12 C        6.2750     0.4490     0.0760 C.ar  1 <1>  -0.1500 
 13 C        5.0860     2.4720    -0.3350 C.ar  1 <1>  -0.1500 
 14 C        4.2960    -5.5030     0.5930 C.ar  1 <1>   0.1600 
 15 C        3.3410    -5.4740    -1.4260 C.ar  1 <1>   0.1600 
 16 C        7.4560     1.1420     0.0130 C.ar  1 <1>   0.2180 
 17 C        6.2780     3.1480    -0.3930 C.ar  1 <1>   0.2180 
 18 N        4.2250    -6.0340    -0.6170 N.ar  1 <1>  -0.6200 
 19 N        7.4410     2.4770    -0.2190 N.ar  1 <1>  -0.1790 
 20 C        8.7990     0.4570     0.1970 C.3   1 <1>  -0.0970 
 21 C        6.3410     4.6450    -0.6490 C.3   1 <1>  -0.0970 
 22 H        0.5640    -0.7010     1.9150 H     1 <1>   0.4000 
 23 H        0.5690     0.0310    -0.2150 H     1 <1>   0.0800 
 24 H        2.1580    -1.4910    -1.1430 H     1 <1>   0.0800 
 25 H        2.4240     1.8420     0.6500 H     1 <1>   0.0800 
 26 H        2.2960     1.3870    -1.0450 H     1 <1>   0.0800 
 27 H        4.3610    -1.6190    -0.4430 H     1 <1>   0.0800 
 28 H        3.9510    -1.2630     1.2340 H     1 <1>   0.0800 
 29 H        0.7390    -2.8560     0.3280 H     1 <1>   0.0800 
 30 H        1.8080    -2.5700     1.6690 H     1 <1>   0.0800 
 31 H        3.6600    -4.0690     2.0330 H     1 <1>   0.1500 
 32 H        1.8380    -4.0140    -1.8120 H     1 <1>   0.1500 
 33 H        6.2870    -0.6080     0.2630 H     1 <1>   0.1500 
 34 H        4.1640     3.0030    -0.4750 H     1 <1>   0.1500 
 35 H        5.0030    -5.9450     1.2740 H     1 <1>   0.1500 
 36 H        3.2580    -5.8920    -2.4150 H     1 <1>   0.1500 
 37 H        8.3260     2.9880    -0.2640 H     1 <1>   0.4570 
 38 H        8.6650    -0.5960     0.3730 H     1 <1>   0.0800 
 39 H        9.3210     0.8730     1.0410 H     1 <1>   0.0800 
 40 H        9.4040     0.5730    -0.6850 H     1 <1>   0.0800 
 41 H        5.3510     5.0500    -0.7650 H     1 <1>   0.0800 
 42 H        6.8930     4.8490    -1.5490 H     1 <1>   0.0800 
 43 H        6.8120     5.1480     0.1760 H     1 <1>   0.0800 
@<TRIPOS>BOND
  1   1   2  1   
  2   1  22  1   
  3   2   3  1   
  4   2   4  1   
  5   2  23  1   
  6   3   5  1   
  7   3   6  1   
  8   3  24  1   
  9   4   7  1   
 10   4  25  1   
 11   4  26  1   
 12   5   7  1   
 13   5  27  1   
 14   5  28  1   
 15   6   8  1   
 16   6  29  1   
 17   6  30  1   
 18   7   9  1   
 19   8  10  ar  
 20   8  11  ar  
 21   9  12  ar  
 22   9  13  ar  
 23  10  14  ar  
 24  10  31  1   
 25  11  15  ar  
 26  11  32  1   
 27  12  16  ar  
 28  12  33  1   
 29  13  17  ar  
 30  13  34  1   
 31  14  18  ar  
 32  14  35  1   
 33  15  18  ar  
 34  15  36  1   
 35  16  19  ar  
 36  16  20  1   
 37  17  19  ar  
 38  17  21  1   
 39  19  37  1   
 40  20  38  1   
 41  20  39  1   
 42  20  40  1   
 43  21  41  1   
 44  21  42  1   
 45  21  43  1   
@<TRIPOS>SUBSTRUCTURE
  1 ****   5 GROUP 4 **** **** 0

# MOE 2024.06 (io_trps.svl 2023.06)
