@<TRIPOS>MOLECULE
NONAME
42 43 1 0 0 
SMALL
USER_CHARGES


@<TRIPOS>ATOM
  1 F       -1.2100    -0.7770     0.6570 F     1 <1>  -0.1900 
  2 C       -2.0280     0.1080     0.1490 C.ar  1 <1>   0.1900 
  3 C       -2.9150    -0.2720    -0.8490 C.ar  1 <1>  -0.1440 
  4 C       -1.9700     1.3980     0.6430 C.ar  1 <1>  -0.1500 
  5 C       -3.7700     0.6960    -1.3560 C.ar  1 <1>  -0.1500 
  6 C       -2.9710    -1.6990    -1.3790 C.3   1 <1>  -0.0160 
  7 C       -2.8310     2.3490     0.1240 C.ar  1 <1>  -0.1500 
  8 C       -3.7280     1.9960    -0.8730 C.ar  1 <1>  -0.1500 
  9 C       -3.8000    -2.5880    -0.4380 C.3   1 <1>  -0.0990 
 10 C       -3.9610    -4.0240    -0.9220 C.2   1 <1>   0.5690 
 11 O       -3.4500    -4.3340    -1.9730 O.2   1 <1>  -0.5700 
 12 N       -4.6700    -4.9300    -0.1740 N.am  1 <1>  -0.6600 
 13 C       -4.8060    -6.3400    -0.6390 C.3   1 <1>   0.3200 
 14 C       -5.2880    -4.6270     1.1540 C.3   1 <1>   0.1400 
 15 C       -6.2600    -6.6440    -0.9430 C.2   1 <1>  -0.3320 
 16 C       -6.7000    -4.0470     1.0050 C.3   1 <1>   0.1200 
 17 N       -7.1200    -7.3190    -0.1510 N.pl3 1 <1>   0.0480 
 18 C       -6.9530    -6.2930    -2.0490 C.2   1 <1>   0.0770 
 19 O       -7.2880    -3.9980     2.2600 O.3   1 <1>  -0.6800 
 20 C       -8.2840    -7.3220    -0.8380 C.2   1 <1>   0.0360 
 21 C       -6.8940    -7.9150     1.1790 C.3   1 <1>   0.0160 
 22 N       -8.2280    -6.7170    -1.9790 N.2   1 <1>  -0.5650 
 23 H       -1.2670     1.6470     1.4160 H     1 <1>   0.1500 
 24 H       -4.4740     0.4440    -2.1300 H     1 <1>   0.1500 
 25 H       -1.9740    -2.0960    -1.4700 H     1 <1>   0.0800 
 26 H       -3.4100    -1.7060    -2.3610 H     1 <1>   0.0800 
 27 H       -2.8050     3.3600     0.4930 H     1 <1>   0.1500 
 28 H       -4.3960     2.7370    -1.2770 H     1 <1>   0.1500 
 29 H       -4.7740    -2.1520    -0.3290 H     1 <1>   0.0800 
 30 H       -3.3220    -2.6010     0.5230 H     1 <1>   0.0800 
 31 H       -4.4210    -7.0060     0.1110 H     1 <1>   0.0800 
 32 H       -4.2290    -6.5020    -1.5340 H     1 <1>   0.0800 
 33 H       -4.6760    -3.9310     1.6980 H     1 <1>   0.0800 
 34 H       -5.3380    -5.5320     1.7320 H     1 <1>   0.0800 
 35 H       -7.3160    -4.6620     0.3740 H     1 <1>   0.0800 
 36 H       -6.6650    -3.0480     0.6090 H     1 <1>   0.0800 
 37 H       -6.5910    -5.7430    -2.9020 H     1 <1>   0.1500 
 38 H       -8.1890    -3.6220     2.1990 H     1 <1>   0.4000 
 39 H       -9.1720    -7.7920    -0.4540 H     1 <1>   0.1500 
 40 H       -5.9200    -8.3660     1.2130 H     1 <1>   0.0800 
 41 H       -7.6380    -8.6670     1.3660 H     1 <1>   0.0800 
 42 H       -6.9680    -7.1480     1.9290 H     1 <1>   0.0800 
@<TRIPOS>BOND
  1   1   2  1   
  2   2   3  ar  
  3   2   4  ar  
  4   3   5  ar  
  5   3   6  1   
  6   4   7  ar  
  7   4  23  1   
  8   5   8  ar  
  9   5  24  1   
 10   6   9  1   
 11   6  25  1   
 12   6  26  1   
 13   7   8  ar  
 14   7  27  1   
 15   8  28  1   
 16   9  10  1   
 17   9  29  1   
 18   9  30  1   
 19  10  11  2   
 20  10  12  am  
 21  12  13  1   
 22  12  14  1   
 23  13  15  1   
 24  13  31  1   
 25  13  32  1   
 26  14  16  1   
 27  14  33  1   
 28  14  34  1   
 29  15  17  1   
 30  15  18  2   
 31  16  19  1   
 32  16  35  1   
 33  16  36  1   
 34  17  20  1   
 35  17  21  1   
 36  18  22  1   
 37  18  37  1   
 38  19  38  1   
 39  20  22  2   
 40  20  39  1   
 41  21  40  1   
 42  21  41  1   
 43  21  42  1   
@<TRIPOS>SUBSTRUCTURE
  1 ****  10 GROUP 4 **** **** 0

# MOE 2024.06 (io_trps.svl 2023.06)
