@<TRIPOS>MOLECULE
NONAME
50 52 1 0 0 
SMALL
USER_CHARGES


@<TRIPOS>ATOM
  1 S        0.0100     0.0650     1.4530 S.o2  1 <1>   1.5010 
  2 O       -0.5680    -1.0420     2.1840 O.2   1 <1>  -0.6500 
  3 O        0.3720     1.2780     2.1550 O.2   1 <1>  -0.6500 
  4 N       -1.0820     0.5000     0.2330 N.am  1 <1>  -0.8490 
  5 C        1.4200    -0.5360     0.5150 C.2   1 <1>  -0.0630 
  6 C       -2.4440     0.6790     0.7680 C.3   1 <1>   0.1960 
  7 C       -0.6590     1.7040    -0.4870 C.3   1 <1>   0.1960 
  8 C        1.3190    -1.3740    -0.5870 C.2   1 <1>   0.1390 
  9 C        2.7570    -0.3470     0.6540 C.2   1 <1>  -0.3020 
 10 C       -3.4770     0.8890    -0.3690 C.3   1 <1>   0.0000 
 11 C       -1.5860     1.9590    -1.6800 C.3   1 <1>  -0.1600 
 12 N        2.4740    -1.6750    -1.0990 N.2   1 <1>  -0.7070 
 13 N        3.3690    -1.0400    -0.3240 N.pl3 1 <1>   0.3140 
 14 C       -4.8980     1.0730     0.1910 C.3   1 <1>   0.2000 
 15 C       -3.0490     2.0930    -1.2320 C.3   1 <1>  -0.1600 
 16 C       -3.6320    -0.4000    -1.1970 C.3   1 <1>  -0.1600 
 17 C        4.8230    -1.1350    -0.5650 C.3   1 <1>   0.0960 
 18 O       -4.8920     1.8600     1.3440 O.3   1 <1>  -0.5600 
 19 C       -5.4200    -0.3380     0.4810 C.3   1 <1>  -0.1600 
 20 C       -4.6010    -1.2850    -0.4070 C.3   1 <1>  -0.1600 
 21 C        5.4670    -2.1680     0.3710 C.3   1 <1>  -0.1600 
 22 C       -6.1400     2.3330     1.7420 C.3   1 <1>   0.0400 
 23 C        6.9770    -2.2740     0.1300 C.3   1 <1>  -0.2400 
 24 H       -2.7270    -0.1860     1.3430 H     1 <1>   0.0800 
 25 H       -2.4530     1.5260     1.4340 H     1 <1>   0.0800 
 26 H       -0.6760     2.5540     0.1760 H     1 <1>   0.0800 
 27 H        0.3480     1.5800    -0.8490 H     1 <1>   0.0800 
 28 H        0.3820    -1.7350    -0.9780 H     1 <1>   0.1500 
 29 H        3.2840     0.2330     1.3880 H     1 <1>   0.1500 
 30 H       -1.2800     2.8610    -2.1790 H     1 <1>   0.0800 
 31 H       -1.4850     1.1480    -2.3790 H     1 <1>   0.0800 
 32 H       -5.5140     1.5470    -0.5560 H     1 <1>   0.0800 
 33 H       -3.6880     2.1900    -2.0920 H     1 <1>   0.0800 
 34 H       -3.1510     2.9910    -0.6450 H     1 <1>   0.0800 
 35 H       -4.0750    -0.1670    -2.1500 H     1 <1>   0.0800 
 36 H       -2.6930    -0.8980    -1.3730 H     1 <1>   0.0800 
 37 H        4.9740    -1.4220    -1.5900 H     1 <1>   0.0800 
 38 H        5.2580    -0.1660    -0.4100 H     1 <1>   0.0800 
 39 H       -5.2600    -0.5890     1.5150 H     1 <1>   0.0800 
 40 H       -6.4670    -0.4070     0.2490 H     1 <1>   0.0800 
 41 H       -4.0450    -1.9690     0.2130 H     1 <1>   0.0800 
 42 H       -5.2310    -1.8540    -1.0690 H     1 <1>   0.0800 
 43 H        5.2920    -1.8870     1.3960 H     1 <1>   0.0800 
 44 H        5.0130    -3.1300     0.1990 H     1 <1>   0.0800 
 45 H       -6.0030     2.9360     2.6220 H     1 <1>   0.0800 
 46 H       -6.7840     1.5020     1.9710 H     1 <1>   0.0800 
 47 H       -6.5610     2.9330     0.9540 H     1 <1>   0.0800 
 48 H        7.4570    -1.3290     0.3120 H     1 <1>   0.0800 
 49 H        7.1760    -2.5770    -0.8830 H     1 <1>   0.0800 
 50 H        7.4030    -3.0070     0.7930 H     1 <1>   0.0800 
@<TRIPOS>BOND
  1   1   2  2   
  2   1   3  2   
  3   1   4  am  
  4   1   5  1   
  5   4   6  1   
  6   4   7  1   
  7   5   8  1   
  8   5   9  2   
  9   6  10  1   
 10   6  24  1   
 11   6  25  1   
 12   7  11  1   
 13   7  26  1   
 14   7  27  1   
 15   8  12  2   
 16   8  28  1   
 17   9  13  1   
 18   9  29  1   
 19  10  14  1   
 20  10  15  1   
 21  10  16  1   
 22  11  15  1   
 23  11  30  1   
 24  11  31  1   
 25  12  13  1   
 26  13  17  1   
 27  14  18  1   
 28  14  19  1   
 29  14  32  1   
 30  15  33  1   
 31  15  34  1   
 32  16  20  1   
 33  16  35  1   
 34  16  36  1   
 35  17  21  1   
 36  17  37  1   
 37  17  38  1   
 38  18  22  1   
 39  19  20  1   
 40  19  39  1   
 41  19  40  1   
 42  20  41  1   
 43  20  42  1   
 44  21  23  1   
 45  21  43  1   
 46  21  44  1   
 47  22  45  1   
 48  22  46  1   
 49  22  47  1   
 50  23  48  1   
 51  23  49  1   
 52  23  50  1   
@<TRIPOS>SUBSTRUCTURE
  1 ****   4 GROUP 4 **** **** 0

# MOE 2024.06 (io_trps.svl 2023.06)
