@<TRIPOS>MOLECULE
NONAME
48 51 1 0 0 
SMALL
USER_CHARGES


@<TRIPOS>ATOM
  1 O        1.0290    -0.0280    -1.1700 O.3   1 <1>  -0.3630 
  2 C        1.5160    -0.6680    -0.0800 C.ar  1 <1>   0.0830 
  3 C        0.3450     1.1760    -0.9060 C.3   1 <1>   0.1200 
  4 C        0.6910    -1.4670     0.7160 C.ar  1 <1>   0.0830 
  5 C        2.8550    -0.4880     0.2340 C.ar  1 <1>  -0.1440 
  6 C        1.2450     2.2060    -0.1980 C.3   1 <1>  -0.1600 
  7 O       -0.6150    -1.6200     0.3480 O.3   1 <1>  -0.3620 
  8 C        1.2300    -2.0700     1.8490 C.ar  1 <1>  -0.1500 
  9 C        3.3700    -1.0880     1.3730 C.ar  1 <1>  -0.1500 
 10 C        3.7500     0.3500    -0.6670 C.3   1 <1>   0.2530 
 11 C        2.5730     2.4960    -0.9130 C.3   1 <1>   0.1100 
 12 C       -1.4680    -2.5170     1.0220 C.3   1 <1>   0.0400 
 13 C        2.5620    -1.8750     2.1750 C.ar  1 <1>  -0.1500 
 14 N        3.7200     1.7830    -0.3050 N.3   1 <1>  -0.8100 
 15 C        5.0110     2.4220    -0.6840 C.3   1 <1>   0.2910 
 16 C        5.2280     3.8370    -0.1390 C.2   1 <1>   0.3350 
 17 N        5.7510     4.1100     0.9920 N.2   1 <1>  -0.4100 
 18 N        4.9080     4.9200    -0.8440 N.2   1 <1>  -0.5650 
 19 O        5.7930     5.4030     1.0950 O.3   1 <1>  -0.0190 
 20 C        5.2770     5.8310    -0.0310 C.2   1 <1>   0.2980 
 21 C        5.1460     7.3380    -0.2530 C.3   1 <1>   0.3800 
 22 O        6.3690     7.9900    -0.0320 O.3   1 <1>  -0.5600 
 23 C        4.1320     8.0020     0.6860 C.3   1 <1>  -0.1600 
 24 C        6.3340     8.7400     1.1370 C.3   1 <1>   0.1200 
 25 C        4.8880     9.1790     1.2770 C.3   1 <1>  -0.1600 
 26 H       -0.5160     0.9470    -0.3030 H     1 <1>   0.0800 
 27 H        0.0110     1.5610    -1.8520 H     1 <1>   0.0800 
 28 H        1.4280     1.9150     0.8220 H     1 <1>   0.0800 
 29 H        0.6890     3.1240    -0.1550 H     1 <1>   0.0800 
 30 H        0.6330    -2.6860     2.4920 H     1 <1>   0.1500 
 31 H        4.4020    -0.9410     1.6380 H     1 <1>   0.1500 
 32 H        3.4670     0.2200    -1.6980 H     1 <1>   0.0800 
 33 H        4.7510    -0.0320    -0.5630 H     1 <1>   0.0800 
 34 H        2.7350     3.5550    -0.8270 H     1 <1>   0.0800 
 35 H        2.4970     2.2670    -1.9630 H     1 <1>   0.0800 
 36 H       -2.4200    -2.5090     0.5230 H     1 <1>   0.0800 
 37 H       -1.5870    -2.1880     2.0390 H     1 <1>   0.0800 
 38 H       -1.0410    -3.5030     0.9800 H     1 <1>   0.0800 
 39 H        2.9720    -2.3360     3.0570 H     1 <1>   0.1500 
 40 H        5.1000     2.4490    -1.7560 H     1 <1>   0.0800 
 41 H        5.8180     1.8230    -0.3030 H     1 <1>   0.0800 
 42 H        4.8760     7.5200    -1.2780 H     1 <1>   0.0800 
 43 H        3.8430     7.3160     1.4630 H     1 <1>   0.0800 
 44 H        3.2500     8.3100     0.1540 H     1 <1>   0.0800 
 45 H        7.0160     9.5680     1.0490 H     1 <1>   0.0800 
 46 H        6.6300     8.1000     1.9520 H     1 <1>   0.0800 
 47 H        4.6220     9.3750     2.3010 H     1 <1>   0.0800 
 48 H        4.7280    10.0660     0.6880 H     1 <1>   0.0800 
@<TRIPOS>BOND
  1   1   2  1   
  2   1   3  1   
  3   2   4  ar  
  4   2   5  ar  
  5   3   6  1   
  6   3  26  1   
  7   3  27  1   
  8   4   7  1   
  9   4   8  ar  
 10   5   9  ar  
 11   5  10  1   
 12   6  11  1   
 13   6  28  1   
 14   6  29  1   
 15   7  12  1   
 16   8  13  ar  
 17   8  30  1   
 18   9  13  ar  
 19   9  31  1   
 20  10  14  1   
 21  10  32  1   
 22  10  33  1   
 23  11  14  1   
 24  11  34  1   
 25  11  35  1   
 26  12  36  1   
 27  12  37  1   
 28  12  38  1   
 29  13  39  1   
 30  14  15  1   
 31  15  16  1   
 32  15  40  1   
 33  15  41  1   
 34  16  17  2   
 35  16  18  1   
 36  17  19  1   
 37  18  20  2   
 38  19  20  1   
 39  20  21  1   
 40  21  22  1   
 41  21  23  1   
 42  21  42  1   
 43  22  24  1   
 44  23  25  1   
 45  23  43  1   
 46  23  44  1   
 47  24  25  1   
 48  24  45  1   
 49  24  46  1   
 50  25  47  1   
 51  25  48  1   
@<TRIPOS>SUBSTRUCTURE
  1 ****  14 GROUP 4 **** **** 0

# MOE 2024.06 (io_trps.svl 2023.06)
