@<TRIPOS>MOLECULE
NONAME
54 56 1 0 0 
SMALL
USER_CHARGES


@<TRIPOS>ATOM
  1 F       -1.1510    -0.6750    -1.0490 F     1 <1>  -0.1900 
  2 C       -1.7990     0.1750    -0.2900 C.ar  1 <1>   0.1900 
  3 C       -1.5280     1.5360    -0.4350 C.ar  1 <1>   0.0820 
  4 C       -2.7140    -0.3190     0.6280 C.ar  1 <1>  -0.1440 
  5 O       -0.6120     1.9220    -1.3680 O.3   1 <1>  -0.3630 
  6 C       -2.2050     2.4410     0.3820 C.ar  1 <1>  -0.1500 
  7 C       -3.3560     0.6190     1.4200 C.ar  1 <1>   0.1900 
  8 C       -2.9880    -1.8110     0.7610 C.3   1 <1>   0.2540 
  9 C       -0.2860     3.2800    -1.5700 C.3   1 <1>   0.0400 
 10 C       -3.1220     1.9790     1.3140 C.ar  1 <1>  -0.1500 
 11 F       -4.2280     0.2220     2.3120 F     1 <1>  -0.1900 
 12 N       -3.8940    -2.2800    -0.3080 N.3   1 <1>  -0.8100 
 13 C       -3.9930    -3.7620    -0.3440 C.3   1 <1>   0.3330 
 14 C       -5.2420    -1.6850    -0.1800 C.3   1 <1>   0.1100 
 15 C       -2.6180    -4.3870    -0.5870 C.ar  1 <1>  -0.1430 
 16 C       -5.0090    -4.2280    -1.4250 C.3   1 <1>   0.2000 
 17 C       -6.2030    -2.2250    -1.2510 C.3   1 <1>   0.1200 
 18 C       -2.1640    -5.4100     0.2340 C.ar  1 <1>  -0.1500 
 19 C       -1.8140    -3.9520    -1.6320 C.ar  1 <1>  -0.1500 
 20 O       -6.2550    -3.6210    -1.1990 O.3   1 <1>  -0.5600 
 21 C       -5.2400    -5.7480    -1.4390 C.3   1 <1>   0.1200 
 22 C       -0.9330    -6.0010     0.0120 C.ar  1 <1>   0.0830 
 23 C       -0.5740    -4.5240    -1.8510 C.ar  1 <1>  -0.1500 
 24 O       -4.1670    -6.4200    -2.0200 O.3   1 <1>  -0.6800 
 25 O       -0.5790    -7.0240     0.8280 O.3   1 <1>  -0.3630 
 26 C       -0.1180    -5.5380    -1.0270 C.ar  1 <1>   0.0830 
 27 C       -0.4510    -8.2920     0.2200 C.3   1 <1>   0.0400 
 28 O        1.1190    -6.0370    -1.2670 O.3   1 <1>  -0.3630 
 29 C        2.0970    -5.7580    -0.2900 C.3   1 <1>   0.0400 
 30 H       -2.0340     3.4980     0.3100 H     1 <1>   0.1500 
 31 H       -3.4110    -2.0370     1.7240 H     1 <1>   0.0800 
 32 H       -2.0430    -2.3220     0.6970 H     1 <1>   0.0800 
 33 H        0.4530     3.3310    -2.3490 H     1 <1>   0.0800 
 34 H        0.1180     3.6830    -0.6580 H     1 <1>   0.0800 
 35 H       -1.1710     3.8110    -1.8710 H     1 <1>   0.0800 
 36 H       -3.6500     2.6630     1.9540 H     1 <1>   0.1500 
 37 H       -4.3590    -4.1020     0.6100 H     1 <1>   0.0800 
 38 H       -5.6490    -1.8950     0.7950 H     1 <1>   0.0800 
 39 H       -5.1780    -0.6170    -0.2930 H     1 <1>   0.0800 
 40 H       -4.6720    -3.9230    -2.4010 H     1 <1>   0.0800 
 41 H       -5.8800    -1.9250    -2.2340 H     1 <1>   0.0800 
 42 H       -7.1970    -1.8520    -1.0830 H     1 <1>   0.0800 
 43 H       -2.7640    -5.7690     1.0520 H     1 <1>   0.1500 
 44 H       -2.1520    -3.1520    -2.2710 H     1 <1>   0.1500 
 45 H       -6.1130    -5.9800    -2.0250 H     1 <1>   0.0800 
 46 H       -5.3720    -6.1230    -0.4400 H     1 <1>   0.0800 
 47 H        0.0490    -4.1780    -2.6560 H     1 <1>   0.1500 
 48 H       -3.3140    -6.1030    -1.6470 H     1 <1>   0.4000 
 49 H       -0.2950    -9.0210     0.9940 H     1 <1>   0.0800 
 50 H        0.3900    -8.2840    -0.4490 H     1 <1>   0.0800 
 51 H       -1.3550    -8.5130    -0.3190 H     1 <1>   0.0800 
 52 H        3.0410    -6.1300    -0.6440 H     1 <1>   0.0800 
 53 H        1.8300    -6.2480     0.6300 H     1 <1>   0.0800 
 54 H        2.1490    -4.6940    -0.1460 H     1 <1>   0.0800 
@<TRIPOS>BOND
  1   1   2  1   
  2   2   3  ar  
  3   2   4  ar  
  4   3   5  1   
  5   3   6  ar  
  6   4   7  ar  
  7   4   8  1   
  8   5   9  1   
  9   6  10  ar  
 10   6  30  1   
 11   7  10  ar  
 12   7  11  1   
 13   8  12  1   
 14   8  31  1   
 15   8  32  1   
 16   9  33  1   
 17   9  34  1   
 18   9  35  1   
 19  10  36  1   
 20  12  13  1   
 21  12  14  1   
 22  13  15  1   
 23  13  16  1   
 24  13  37  1   
 25  14  17  1   
 26  14  38  1   
 27  14  39  1   
 28  15  18  ar  
 29  15  19  ar  
 30  16  20  1   
 31  16  21  1   
 32  16  40  1   
 33  17  20  1   
 34  17  41  1   
 35  17  42  1   
 36  18  22  ar  
 37  18  43  1   
 38  19  23  ar  
 39  19  44  1   
 40  21  24  1   
 41  21  45  1   
 42  21  46  1   
 43  22  25  1   
 44  22  26  ar  
 45  23  26  ar  
 46  23  47  1   
 47  24  48  1   
 48  25  27  1   
 49  26  28  1   
 50  27  49  1   
 51  27  50  1   
 52  27  51  1   
 53  28  29  1   
 54  29  52  1   
 55  29  53  1   
 56  29  54  1   
@<TRIPOS>SUBSTRUCTURE
  1 ****  12 GROUP 4 **** **** 0

# MOE 2024.06 (io_trps.svl 2023.06)
