@<TRIPOS>MOLECULE
NONAME
42 43 1 0 0 
SMALL
USER_CHARGES


@<TRIPOS>ATOM
  1 O       -2.2240     0.4080    -1.9750 O.2   1 <1>  -0.5700 
  2 C       -2.0030     0.4540    -0.7840 C.2   1 <1>   0.5690 
  3 N       -1.9230    -0.6900    -0.0540 N.am  1 <1>  -0.7300 
  4 C       -1.8190     1.8250    -0.0680 C.3   1 <1>   0.3410 
  5 C       -2.0590    -2.0700    -0.5670 C.3   1 <1>   0.2200 
  6 O       -1.6500     1.5860     1.3220 O.3   1 <1>  -0.5600 
  7 C       -3.0730     2.6940    -0.2720 C.3   1 <1>  -0.2400 
  8 C       -0.5680     2.5310    -0.6190 C.3   1 <1>  -0.2400 
  9 C       -3.4070    -2.6700    -0.1960 C.3   1 <1>  -0.0800 
 10 C       -1.1180    -2.9880     0.2030 C.3   1 <1>   0.1200 
 11 C       -1.4050     2.6500     2.1970 C.3   1 <1>   0.0400 
 12 C       -3.1680    -3.1950     1.2220 C.3   1 <1>   0.1200 
 13 C       -4.6200    -1.7300    -0.3260 C.3   1 <1>  -0.0170 
 14 O       -1.7830    -3.3040     1.3890 O.3   1 <1>  -0.5600 
 15 C       -5.9140    -2.4730    -0.0320 C.ar  1 <1>  -0.1430 
 16 C       -6.5240    -2.4230     1.2050 C.ar  1 <1>  -0.1500 
 17 C       -6.5440    -3.2380    -0.9920 C.ar  1 <1>  -0.1500 
 18 C       -7.6980    -3.1270     1.4180 C.ar  1 <1>   0.1600 
 19 C       -7.7180    -3.9030    -0.6760 C.ar  1 <1>   0.1600 
 20 N       -8.3090    -3.8680     0.5070 N.ar  1 <1>  -0.6200 
 21 H       -1.7560    -0.5940     0.9540 H     1 <1>   0.3700 
 22 H       -1.8730    -2.0950    -1.6280 H     1 <1>   0.0800 
 23 H       -3.2850     2.7770    -1.3230 H     1 <1>   0.0800 
 24 H       -2.9340     3.6880     0.1090 H     1 <1>   0.0800 
 25 H       -3.9190     2.2340     0.2050 H     1 <1>   0.0800 
 26 H       -0.6370     2.5970    -1.6910 H     1 <1>   0.0800 
 27 H        0.3110     1.9620    -0.3760 H     1 <1>   0.0800 
 28 H       -0.4750     3.5300    -0.2380 H     1 <1>   0.0800 
 29 H       -3.5720    -3.5230    -0.8310 H     1 <1>   0.0800 
 30 H       -0.1740    -2.5230     0.4270 H     1 <1>   0.0800 
 31 H       -0.9570    -3.9050    -0.3370 H     1 <1>   0.0800 
 32 H       -1.3420     2.2480     3.1930 H     1 <1>   0.0800 
 33 H       -2.2130     3.3580     2.1570 H     1 <1>   0.0800 
 34 H       -0.4690     3.1200     1.9520 H     1 <1>   0.0800 
 35 H       -3.6180    -4.1610     1.3740 H     1 <1>   0.0800 
 36 H       -3.5270    -2.5040     1.9640 H     1 <1>   0.0800 
 37 H       -4.6550    -1.3310    -1.3250 H     1 <1>   0.0800 
 38 H       -4.5250    -0.8980     0.3490 H     1 <1>   0.0800 
 39 H       -6.0990    -1.8460     2.0050 H     1 <1>   0.1500 
 40 H       -6.1340    -3.3230    -1.9810 H     1 <1>   0.1500 
 41 H       -8.1600    -3.0770     2.3890 H     1 <1>   0.1500 
 42 H       -8.1950    -4.4950    -1.4380 H     1 <1>   0.1500 
@<TRIPOS>BOND
  1   1   2  2   
  2   2   3  am  
  3   2   4  1   
  4   3   5  1   
  5   3  21  1   
  6   4   6  1   
  7   4   7  1   
  8   4   8  1   
  9   5   9  1   
 10   5  10  1   
 11   5  22  1   
 12   6  11  1   
 13   7  23  1   
 14   7  24  1   
 15   7  25  1   
 16   8  26  1   
 17   8  27  1   
 18   8  28  1   
 19   9  12  1   
 20   9  13  1   
 21   9  29  1   
 22  10  14  1   
 23  10  30  1   
 24  10  31  1   
 25  11  32  1   
 26  11  33  1   
 27  11  34  1   
 28  12  14  1   
 29  12  35  1   
 30  12  36  1   
 31  13  15  1   
 32  13  37  1   
 33  13  38  1   
 34  15  16  ar  
 35  15  17  ar  
 36  16  18  ar  
 37  16  39  1   
 38  17  19  ar  
 39  17  40  1   
 40  18  20  ar  
 41  18  41  1   
 42  19  20  ar  
 43  19  42  1   
@<TRIPOS>SUBSTRUCTURE
  1 ****  13 GROUP 4 **** **** 0

# MOE 2024.06 (io_trps.svl 2023.06)
