@<TRIPOS>MOLECULE
NONAME
52 54 1 0 0 
SMALL
USER_CHARGES


@<TRIPOS>ATOM
  1 S        0.3680     0.1590     0.7270 S.o2  1 <1>   1.3330 
  2 O       -0.7310     0.2090     1.6650 O.2   1 <1>  -0.6500 
  3 O        1.7280     0.1940     1.2150 O.2   1 <1>  -0.6500 
  4 N        0.1950    -1.2360    -0.2250 N.am  1 <1>  -0.8490 
  5 C        0.1380     1.4850    -0.4560 C.3   1 <1>  -0.0550 
  6 C        1.4260    -1.6210    -0.9240 C.3   1 <1>   0.1160 
  7 C       -0.3190    -2.3730     0.5440 C.3   1 <1>   0.1160 
  8 C        0.1680     2.8830     0.1850 C.3   1 <1>  -0.0800 
  9 C       -0.1050     3.9900    -0.8300 C.3   1 <1>   0.2000 
 10 C        1.5150     3.2670     0.8020 C.3   1 <1>   0.2090 
 11 O       -1.4730     4.1320    -1.0150 O.3   1 <1>  -0.6800 
 12 C        0.5380     5.2490    -0.2470 C.3   1 <1>   0.2090 
 13 N        1.5830     4.7420     0.6770 N.pl3 1 <1>  -0.8380 
 14 C        2.6860     5.4760     1.0370 C.ar  1 <1>   0.7200 
 15 N        2.6540     6.7750     0.7690 N.ar  1 <1>  -0.6200 
 16 N        3.6800     4.8120     1.6200 N.ar  1 <1>  -0.6200 
 17 C        3.7120     7.4790     1.1190 C.ar  1 <1>   0.3100 
 18 C        4.7210     5.5240     1.9670 C.ar  1 <1>   0.1600 
 19 C        3.7310     8.8970     0.8510 C.ar  1 <1>   0.0000 
 20 C        4.7860     6.8730     1.7370 C.ar  1 <1>  -0.1500 
 21 C        4.4670     9.4580    -0.1990 C.ar  1 <1>   0.1670 
 22 C        3.0150     9.7620     1.6630 C.ar  1 <1>  -0.1500 
 23 N        4.5560    10.7540    -0.4480 N.ar  1 <1>  -0.6200 
 24 C        5.2450     8.5740    -1.1600 C.3   1 <1>  -0.0970 
 25 C        3.0920    11.1110     1.4020 C.ar  1 <1>  -0.1500 
 26 C        3.8720    11.5550     0.3480 C.ar  1 <1>   0.1670 
 27 C        3.9780    13.0340     0.0450 C.3   1 <1>  -0.0970 
 28 H        0.8950     1.4240    -1.2120 H     1 <1>   0.0800 
 29 H       -0.8130     1.3520    -0.9340 H     1 <1>   0.0800 
 30 H        1.2340    -2.4550    -1.5770 H     1 <1>   0.0800 
 31 H        2.1900    -1.8990    -0.2150 H     1 <1>   0.0800 
 32 H        1.7890    -0.8010    -1.5180 H     1 <1>   0.0800 
 33 H       -0.4320    -3.2340    -0.0920 H     1 <1>   0.0800 
 34 H       -1.2840    -2.1330     0.9580 H     1 <1>   0.0800 
 35 H        0.3540    -2.6130     1.3520 H     1 <1>   0.0800 
 36 H       -0.5650     2.9330     0.9720 H     1 <1>   0.0800 
 37 H        0.3450     3.7690    -1.7820 H     1 <1>   0.0800 
 38 H        2.3340     2.8280     0.2560 H     1 <1>   0.0800 
 39 H        1.5790     2.9690     1.8360 H     1 <1>   0.0800 
 40 H       -1.9110     4.3310    -0.1650 H     1 <1>   0.4000 
 41 H       -0.1740     5.8290     0.3150 H     1 <1>   0.0800 
 42 H        0.9740     5.8520    -1.0250 H     1 <1>   0.0800 
 43 H        5.5410     5.0170     2.4470 H     1 <1>   0.1500 
 44 H        5.6440     7.4480     2.0270 H     1 <1>   0.1500 
 45 H        2.4170     9.3810     2.4720 H     1 <1>   0.1500 
 46 H        4.7450     7.6360    -1.3180 H     1 <1>   0.0800 
 47 H        6.2290     8.3950    -0.7700 H     1 <1>   0.0800 
 48 H        5.3370     9.0640    -2.1130 H     1 <1>   0.0800 
 49 H        2.5510    11.8100     2.0130 H     1 <1>   0.1500 
 50 H        3.3980    13.6160     0.7360 H     1 <1>   0.0800 
 51 H        3.6240    13.2200    -0.9520 H     1 <1>   0.0800 
 52 H        5.0070    13.3400     0.1090 H     1 <1>   0.0800 
@<TRIPOS>BOND
  1   1   2  2   
  2   1   3  2   
  3   1   4  am  
  4   1   5  1   
  5   4   6  1   
  6   4   7  1   
  7   5   8  1   
  8   5  28  1   
  9   5  29  1   
 10   6  30  1   
 11   6  31  1   
 12   6  32  1   
 13   7  33  1   
 14   7  34  1   
 15   7  35  1   
 16   8   9  1   
 17   8  10  1   
 18   8  36  1   
 19   9  11  1   
 20   9  12  1   
 21   9  37  1   
 22  10  13  1   
 23  10  38  1   
 24  10  39  1   
 25  11  40  1   
 26  12  13  1   
 27  12  41  1   
 28  12  42  1   
 29  13  14  1   
 30  14  15  ar  
 31  14  16  ar  
 32  15  17  ar  
 33  16  18  ar  
 34  17  19  1   
 35  17  20  ar  
 36  18  20  ar  
 37  18  43  1   
 38  19  21  ar  
 39  19  22  ar  
 40  20  44  1   
 41  21  23  ar  
 42  21  24  1   
 43  22  25  ar  
 44  22  45  1   
 45  23  26  ar  
 46  24  46  1   
 47  24  47  1   
 48  24  48  1   
 49  25  26  ar  
 50  25  49  1   
 51  26  27  1   
 52  27  50  1   
 53  27  51  1   
 54  27  52  1   
@<TRIPOS>SUBSTRUCTURE
  1 ****  14 GROUP 4 **** **** 0

# MOE 2024.06 (io_trps.svl 2023.06)
