@<TRIPOS>MOLECULE
NONAME
55 57 1 0 0 
SMALL
USER_CHARGES


@<TRIPOS>ATOM
  1 O       -0.9460     0.6160     1.7180 O.2   1 <1>  -0.5700 
  2 C       -1.5450     1.6080     1.3420 C.2   1 <1>   0.6160 
  3 N       -2.9280     1.6060     1.4290 N.am  1 <1>  -0.6600 
  4 C       -0.7840     2.7380     0.8940 C.2   1 <1>   0.0290 
  5 C       -3.6360     0.4050     1.9530 C.3   1 <1>   0.1400 
  6 C       -3.7990     2.7120     0.9390 C.3   1 <1>   0.1400 
  7 C       -0.7780     3.0570    -0.4990 C.2   1 <1>   0.6160 
  8 C       -0.0370     3.5110     1.7500 C.2   1 <1>  -0.1500 
  9 C       -3.8080    -0.6540     0.8530 C.3   1 <1>   0.1400 
 10 C       -4.9130     2.2240     0.0000 C.3   1 <1>  -0.1600 
 11 O       -1.4190     2.4580    -1.3490 O.2   1 <1>  -0.5700 
 12 N       -0.0320     4.1250    -0.9220 N.am  1 <1>  -0.5390 
 13 C        0.7100     4.6040     1.2630 C.2   1 <1>  -0.1500 
 14 N       -4.8230    -0.2650    -0.1820 N.am  1 <1>  -0.6600 
 15 C       -4.5320     1.0280    -0.8810 C.3   1 <1>   0.1400 
 16 C        0.7060     4.8980    -0.0670 C.2   1 <1>  -0.0290 
 17 C       -5.9270    -0.9880    -0.5690 C.2   1 <1>   0.5690 
 18 C        1.4840     6.0490    -0.6710 C.3   1 <1>  -0.1020 
 19 O       -6.8860    -0.4100    -1.0290 O.2   1 <1>  -0.5700 
 20 C       -6.0470    -2.5250    -0.4080 C.3   1 <1>   0.0610 
 21 C       -6.5210    -2.7930     1.0190 C.3   1 <1>   0.3430 
 22 C       -7.2160    -3.1080    -1.2240 C.3   1 <1>  -0.1600 
 23 C       -4.7660    -3.3030    -0.8000 C.3   1 <1>  -0.2400 
 24 N       -8.0220    -2.7390     1.0080 N.4   1 <1>  -0.9590 
 25 C       -8.4630    -2.7770    -0.4200 C.3   1 <1>   0.3430 
 26 C       -8.5300    -1.4900     1.6570 C.3   1 <1>   0.2630 
 27 H       -4.5920     0.6810     2.3590 H     1 <1>   0.0800 
 28 H       -3.0550    -0.0190     2.7550 H     1 <1>   0.0800 
 29 H       -3.2090     3.4380     0.4090 H     1 <1>   0.0800 
 30 H       -4.2370     3.2160     1.7830 H     1 <1>   0.0800 
 31 H       -0.0060     3.2880     2.8030 H     1 <1>   0.1500 
 32 H       -4.1030    -1.5630     1.3370 H     1 <1>   0.0800 
 33 H       -2.8570    -0.8280     0.3770 H     1 <1>   0.0800 
 34 H       -5.1690     3.0460    -0.6440 H     1 <1>   0.0800 
 35 H       -5.7990     1.9900     0.5630 H     1 <1>   0.0800 
 36 H       -0.0600     4.2930    -1.9280 H     1 <1>   0.3700 
 37 H        1.2810     5.1880     1.9650 H     1 <1>   0.1500 
 38 H       -3.4930     1.0700    -1.1580 H     1 <1>   0.0800 
 39 H       -5.1020     1.0760    -1.7940 H     1 <1>   0.0800 
 40 H        2.1910     5.6770    -1.3920 H     1 <1>   0.0800 
 41 H        2.0230     6.5840     0.0900 H     1 <1>   0.0800 
 42 H        0.8130     6.7320    -1.1590 H     1 <1>   0.0800 
 43 H       -6.1070    -2.0740     1.7070 H     1 <1>   0.0800 
 44 H       -6.2040    -3.7800     1.3120 H     1 <1>   0.0800 
 45 H       -7.1430    -4.1780    -1.3090 H     1 <1>   0.0800 
 46 H       -7.2700    -2.6950    -2.2170 H     1 <1>   0.0800 
 47 H       -3.9280    -3.0720    -0.1740 H     1 <1>   0.0800 
 48 H       -4.4940    -3.0630    -1.8140 H     1 <1>   0.0800 
 49 H       -4.9240    -4.3660    -0.7410 H     1 <1>   0.0800 
 50 H       -8.3980    -3.5630     1.4990 H     1 <1>   0.4500 
 51 H       -9.2420    -3.5050    -0.5790 H     1 <1>   0.0800 
 52 H       -8.8220    -1.8040    -0.7200 H     1 <1>   0.0800 
 53 H       -8.1620    -0.6220     1.1320 H     1 <1>   0.0800 
 54 H       -8.2040    -1.4390     2.6830 H     1 <1>   0.0800 
 55 H       -9.6080    -1.4700     1.6360 H     1 <1>   0.0800 
@<TRIPOS>BOND
  1   1   2  2   
  2   2   3  am  
  3   2   4  1   
  4   3   5  1   
  5   3   6  1   
  6   4   7  1   
  7   4   8  2   
  8   5   9  1   
  9   5  27  1   
 10   5  28  1   
 11   6  10  1   
 12   6  29  1   
 13   6  30  1   
 14   7  11  2   
 15   7  12  am  
 16   8  13  1   
 17   8  31  1   
 18   9  14  1   
 19   9  32  1   
 20   9  33  1   
 21  10  15  1   
 22  10  34  1   
 23  10  35  1   
 24  12  16  1   
 25  12  36  1   
 26  13  16  2   
 27  13  37  1   
 28  14  15  1   
 29  14  17  am  
 30  15  38  1   
 31  15  39  1   
 32  16  18  1   
 33  17  19  2   
 34  17  20  1   
 35  18  40  1   
 36  18  41  1   
 37  18  42  1   
 38  20  21  1   
 39  20  22  1   
 40  20  23  1   
 41  21  24  1   
 42  21  43  1   
 43  21  44  1   
 44  22  25  1   
 45  22  45  1   
 46  22  46  1   
 47  23  47  1   
 48  23  48  1   
 49  23  49  1   
 50  24  25  1   
 51  24  26  1   
 52  24  50  1   
 53  25  51  1   
 54  25  52  1   
 55  26  53  1   
 56  26  54  1   
 57  26  55  1   
@<TRIPOS>SUBSTRUCTURE
  1 ****  15 GROUP 4 **** **** 0

# MOE 2024.06 (io_trps.svl 2023.06)
