@<TRIPOS>MOLECULE
NONAME
45 47 1 0 0 
SMALL
USER_CHARGES


@<TRIPOS>ATOM
  1 O       -1.6970    -0.2520    -0.8330 O.2   1 <1>  -0.5700 
  2 C       -2.0910     0.5780    -0.0180 C.2   1 <1>   0.6160 
  3 N       -1.8810     1.9370    -0.2700 N.am  1 <1>  -0.4690 
  4 C       -2.7670     0.1860     1.1810 C.2   1 <1>   0.0290 
  5 C       -2.2880     2.8880     0.6480 C.2   1 <1>  -0.0290 
  6 C       -1.1780     2.3510    -1.5250 C.3   1 <1>   0.0600 
  7 C       -3.0090    -1.2060     1.4350 C.2   1 <1>   0.6160 
  8 C       -3.1500     1.1530     2.0730 C.2   1 <1>  -0.1500 
  9 C       -2.9090     2.5100     1.8000 C.2   1 <1>  -0.1500 
 10 C       -2.0320     4.3630     0.3700 C.3   1 <1>  -0.1020 
 11 O       -2.5630    -1.7130     2.4480 O.2   1 <1>  -0.5700 
 12 N       -3.8000    -1.9870     0.6220 N.am  1 <1>  -0.6600 
 13 C       -4.5180    -1.5470    -0.6010 C.3   1 <1>   0.1400 
 14 C       -3.9630    -3.4480     0.8190 C.3   1 <1>   0.1400 
 15 C       -5.5040    -2.6790    -0.8810 C.3   1 <1>   0.2000 
 16 C       -4.7570    -3.9290    -0.4030 C.3   1 <1>  -0.0800 
 17 O       -6.6260    -2.4790    -0.0910 O.3   1 <1>  -0.6800 
 18 C       -5.6500    -5.1530    -0.1270 C.3   1 <1>   0.0200 
 19 C       -4.8580    -6.4090     0.1970 C.2   1 <1>  -0.0400 
 20 O       -5.5060    -7.4810     0.5680 O.3   1 <1>  -0.0190 
 21 C       -3.5480    -6.7080     0.1910 C.2   1 <1>  -0.1500 
 22 N       -4.7040    -8.4770     0.8120 N.2   1 <1>  -0.4100 
 23 C       -3.5170    -8.0400     0.5940 C.2   1 <1>   0.1080 
 24 C       -2.2610    -8.8670     0.7560 C.3   1 <1>  -0.0590 
 25 H       -0.2260     2.7840    -1.2750 H     1 <1>   0.0800 
 26 H       -1.7730     3.0730    -2.0540 H     1 <1>   0.0800 
 27 H       -1.0080     1.5170    -2.1820 H     1 <1>   0.0800 
 28 H       -3.6370     0.8860     2.9960 H     1 <1>   0.1500 
 29 H       -3.2290     3.2350     2.5290 H     1 <1>   0.1500 
 30 H       -2.5470     4.6690    -0.5230 H     1 <1>   0.0800 
 31 H       -0.9780     4.5430     0.2530 H     1 <1>   0.0800 
 32 H       -2.3850     4.9710     1.1830 H     1 <1>   0.0800 
 33 H       -5.0160    -0.6030    -0.4620 H     1 <1>   0.0800 
 34 H       -3.8180    -1.4730    -1.4140 H     1 <1>   0.0800 
 35 H       -3.0010    -3.9270     0.8870 H     1 <1>   0.0800 
 36 H       -4.5100    -3.6200     1.7310 H     1 <1>   0.0800 
 37 H       -5.8120    -2.7280    -1.9120 H     1 <1>   0.0800 
 38 H       -4.0480    -4.1910    -1.1700 H     1 <1>   0.0800 
 39 H       -6.3340    -2.2810     0.8220 H     1 <1>   0.4000 
 40 H       -6.2600    -5.3510    -0.9900 H     1 <1>   0.0800 
 41 H       -6.3110    -4.9480     0.6970 H     1 <1>   0.0800 
 42 H       -2.6950    -6.1050    -0.0580 H     1 <1>   0.1500 
 43 H       -1.7190    -8.8930    -0.1700 H     1 <1>   0.0800 
 44 H       -2.5180    -9.8720     1.0390 H     1 <1>   0.0800 
 45 H       -1.6400    -8.4380     1.5210 H     1 <1>   0.0800 
@<TRIPOS>BOND
  1   1   2  2   
  2   2   3  am  
  3   2   4  1   
  4   3   5  1   
  5   3   6  1   
  6   4   7  1   
  7   4   8  2   
  8   5   9  2   
  9   5  10  1   
 10   6  25  1   
 11   6  26  1   
 12   6  27  1   
 13   7  11  2   
 14   7  12  am  
 15   8   9  1   
 16   8  28  1   
 17   9  29  1   
 18  10  30  1   
 19  10  31  1   
 20  10  32  1   
 21  12  13  1   
 22  12  14  1   
 23  13  15  1   
 24  13  33  1   
 25  13  34  1   
 26  14  16  1   
 27  14  35  1   
 28  14  36  1   
 29  15  16  1   
 30  15  17  1   
 31  15  37  1   
 32  16  18  1   
 33  16  38  1   
 34  17  39  1   
 35  18  19  1   
 36  18  40  1   
 37  18  41  1   
 38  19  20  1   
 39  19  21  2   
 40  20  22  1   
 41  21  23  1   
 42  21  42  1   
 43  22  23  2   
 44  23  24  1   
 45  24  43  1   
 46  24  44  1   
 47  24  45  1   
@<TRIPOS>SUBSTRUCTURE
  1 ****  12 GROUP 4 **** **** 0

# MOE 2024.06 (io_trps.svl 2023.06)
