@<TRIPOS>MOLECULE
NONAME
38 39 1 0 0 
SMALL
USER_CHARGES


@<TRIPOS>ATOM
  1 S        0.0990    -0.1590    -0.4740 S.3   1 <1>  -0.0800 
  2 C       -1.4870    -0.8350    -0.2970 C.2   1 <1>   0.4420 
  3 C       -0.6070     1.3930    -0.1810 C.2   1 <1>   0.1980 
  4 N       -2.3700     0.0630    -0.0500 N.2   1 <1>  -0.3380 
  5 N       -1.5930    -2.2030    -0.4380 N.am  1 <1>  -0.4940 
  6 N       -1.8610     1.3300     0.0140 N.2   1 <1>  -0.3380 
  7 C        0.3140     2.5980    -0.1910 C.3   1 <1>   0.0200 
  8 C       -2.7030    -2.9960    -0.3590 C.2   1 <1>   0.5690 
  9 C       -0.4550     3.8900     0.0760 C.3   1 <1>   0.1200 
 10 O       -3.8110    -2.5670    -0.1710 O.2   1 <1>  -0.5700 
 11 C       -2.5220    -4.4970    -0.5520 C.3   1 <1>  -0.0190 
 12 O        0.4520     4.9440     0.0510 O.3   1 <1>  -0.5600 
 13 C       -3.7270    -5.3280    -0.0790 C.3   1 <1>   0.1400 
 14 C       -1.3050    -5.1010     0.1810 C.3   1 <1>  -0.0990 
 15 C       -0.1250     6.1840     0.2820 C.3   1 <1>   0.1200 
 16 N       -3.1160    -6.5830     0.3920 N.am  1 <1>  -0.6600 
 17 C       -1.7770    -6.4790     0.5450 C.2   1 <1>   0.5690 
 18 C        0.9860     7.2250     0.2230 C.3   1 <1>  -0.2400 
 19 C       -3.9460    -7.7660     0.7220 C.3   1 <1>   0.0600 
 20 O       -1.0290    -7.3470     0.9210 O.2   1 <1>  -0.5700 
 21 H       -0.7140    -2.6760    -0.6250 H     1 <1>   0.3700 
 22 H        0.7920     2.6640    -1.1510 H     1 <1>   0.0800 
 23 H        1.0640     2.4710     0.5670 H     1 <1>   0.0800 
 24 H       -0.9240     3.8550     1.0450 H     1 <1>   0.0800 
 25 H       -1.1990     4.0500    -0.6850 H     1 <1>   0.0800 
 26 H       -2.4100    -4.6790    -1.6060 H     1 <1>   0.0800 
 27 H       -4.4210    -5.5080    -0.8820 H     1 <1>   0.0800 
 28 H       -4.2370    -4.8550     0.7450 H     1 <1>   0.0800 
 29 H       -1.0860    -4.5740     1.0920 H     1 <1>   0.0800 
 30 H       -0.4340    -5.1540    -0.4450 H     1 <1>   0.0800 
 31 H       -0.5880     6.1780     1.2550 H     1 <1>   0.0800 
 32 H       -0.8640     6.3730    -0.4780 H     1 <1>   0.0800 
 33 H        1.7240     7.0190     0.9760 H     1 <1>   0.0800 
 34 H        0.5790     8.2040     0.3970 H     1 <1>   0.0800 
 35 H        1.4500     7.2130    -0.7470 H     1 <1>   0.0800 
 36 H       -4.4720    -8.0980    -0.1550 H     1 <1>   0.0800 
 37 H       -4.6540    -7.5110     1.4910 H     1 <1>   0.0800 
 38 H       -3.3180    -8.5660     1.0770 H     1 <1>   0.0800 
@<TRIPOS>BOND
  1   1   2  1   
  2   1   3  1   
  3   2   4  2   
  4   2   5  1   
  5   3   6  2   
  6   3   7  1   
  7   4   6  1   
  8   5   8  am  
  9   5  21  1   
 10   7   9  1   
 11   7  22  1   
 12   7  23  1   
 13   8  10  2   
 14   8  11  1   
 15   9  12  1   
 16   9  24  1   
 17   9  25  1   
 18  11  13  1   
 19  11  14  1   
 20  11  26  1   
 21  12  15  1   
 22  13  16  1   
 23  13  27  1   
 24  13  28  1   
 25  14  17  1   
 26  14  29  1   
 27  14  30  1   
 28  15  18  1   
 29  15  31  1   
 30  15  32  1   
 31  16  17  am  
 32  16  19  1   
 33  17  20  2   
 34  18  33  1   
 35  18  34  1   
 36  18  35  1   
 37  19  36  1   
 38  19  37  1   
 39  19  38  1   
@<TRIPOS>SUBSTRUCTURE
  1 ****   2 GROUP 4 **** **** 0

# MOE 2024.06 (io_trps.svl 2023.06)
