@<TRIPOS>MOLECULE
NONAME
41 43 1 0 0 
SMALL
USER_CHARGES


@<TRIPOS>ATOM
  1 O       -1.5320    -1.6580     0.2070 O.co2 1 <1>  -0.9000 
  2 C       -0.6500    -2.4610     0.5530 C.2   1 <1>   1.0330 
  3 O       -0.8670    -3.1350     1.5770 O.co2 1 <1>  -0.9000 
  4 C        0.4350    -2.7770    -0.3060 C.2   1 <1>  -0.2330 
  5 C        0.4390    -3.9080    -1.1100 C.2   1 <1>   0.3720 
  6 C        1.6380    -2.2010    -0.5470 C.2   1 <1>   0.0870 
  7 N        1.5480    -4.0310    -1.7460 N.2   1 <1>  -0.4100 
  8 N       -0.6320    -4.7960    -1.2330 N.pl3 1 <1>  -0.8210 
  9 O        2.2610    -2.9880    -1.3980 O.3   1 <1>  -0.0190 
 10 C        2.2660    -0.9960    -0.0620 C.ar  1 <1>   0.0530 
 11 C       -1.8970    -4.3390    -1.8770 C.3   1 <1>   0.2090 
 12 C       -0.4680    -6.2140    -0.8700 C.3   1 <1>   0.2090 
 13 C        1.5210     0.0580     0.4680 C.ar  1 <1>  -0.1500 
 14 C        3.6520    -0.8360    -0.1100 C.ar  1 <1>  -0.1500 
 15 C       -3.0270    -4.0410    -0.8660 C.3   1 <1>   0.3430 
 16 C       -1.1560    -6.4830     0.4720 C.3   1 <1>  -0.1600 
 17 C        2.1270     1.2110     0.9320 C.ar  1 <1>  -0.1500 
 18 C        4.2660     0.3150     0.3500 C.ar  1 <1>  -0.1500 
 19 N       -2.8350    -4.6660     0.4830 N.4   1 <1>  -0.9590 
 20 C       -2.6470    -6.1330     0.5130 C.3   1 <1>   0.3430 
 21 C        3.5030     1.3430     0.8750 C.ar  1 <1>  -0.1500 
 22 C       -3.7860    -4.1200     1.4820 C.3   1 <1>   0.2630 
 23 H       -2.2290    -5.0900    -2.5710 H     1 <1>   0.0800 
 24 H       -1.7030    -3.4450    -2.4450 H     1 <1>   0.0800 
 25 H        0.5820    -6.4410    -0.7880 H     1 <1>   0.0800 
 26 H       -0.8830    -6.8360    -1.6450 H     1 <1>   0.0800 
 27 H        0.4480    -0.0190     0.5150 H     1 <1>   0.1500 
 28 H        4.2570    -1.6280    -0.5130 H     1 <1>   0.1500 
 29 H       -3.9680    -4.3480    -1.2860 H     1 <1>   0.0800 
 30 H       -3.0710    -2.9710    -0.7400 H     1 <1>   0.0800 
 31 H       -0.6370    -5.9460     1.2480 H     1 <1>   0.0800 
 32 H       -1.0500    -7.5290     0.6890 H     1 <1>   0.0800 
 33 H        1.5240     2.0040     1.3380 H     1 <1>   0.1500 
 34 H        5.3360     0.4110     0.3020 H     1 <1>   0.1500 
 35 H       -1.9150    -4.2580     0.8030 H     1 <1>   0.4500 
 36 H       -3.0570    -6.5190     1.4320 H     1 <1>   0.0800 
 37 H       -3.1660    -6.5930    -0.3110 H     1 <1>   0.0800 
 38 H        3.9750     2.2400     1.2360 H     1 <1>   0.1500 
 39 H       -4.7950    -4.4120     1.2480 H     1 <1>   0.0800 
 40 H       -3.7150    -3.0420     1.4870 H     1 <1>   0.0800 
 41 H       -3.5260    -4.4720     2.4660 H     1 <1>   0.0800 
@<TRIPOS>BOND
  1   1   2  ar  
  2   2   3  ar  
  3   2   4  1   
  4   4   5  1   
  5   4   6  2   
  6   5   7  2   
  7   5   8  1   
  8   6   9  1   
  9   6  10  1   
 10   7   9  1   
 11   8  11  1   
 12   8  12  1   
 13  10  13  ar  
 14  10  14  ar  
 15  11  15  1   
 16  11  23  1   
 17  11  24  1   
 18  12  16  1   
 19  12  25  1   
 20  12  26  1   
 21  13  17  ar  
 22  13  27  1   
 23  14  18  ar  
 24  14  28  1   
 25  15  19  1   
 26  15  29  1   
 27  15  30  1   
 28  16  20  1   
 29  16  31  1   
 30  16  32  1   
 31  17  21  ar  
 32  17  33  1   
 33  18  21  ar  
 34  18  34  1   
 35  19  20  1   
 36  19  22  1   
 37  19  35  1   
 38  20  36  1   
 39  20  37  1   
 40  21  38  1   
 41  22  39  1   
 42  22  40  1   
 43  22  41  1   
@<TRIPOS>SUBSTRUCTURE
  1 ****   4 GROUP 4 **** **** 0

# MOE 2024.06 (io_trps.svl 2023.06)
