@<TRIPOS>MOLECULE
NONAME
55 56 1 0 0 
SMALL
USER_CHARGES


@<TRIPOS>ATOM
  1 S       -0.5780     1.3300    -0.2690 S.o2  1 <1>   1.3330 
  2 O       -1.9150     1.4290    -0.8040 O.2   1 <1>  -0.6500 
  3 O       -0.3480     0.7540     1.0360 O.2   1 <1>  -0.6500 
  4 N        0.3890     0.5030    -1.3940 N.am  1 <1>  -0.8490 
  5 C        0.1660     2.9650    -0.2470 C.3   1 <1>  -0.0550 
  6 C       -0.0360     0.7130    -2.7840 C.3   1 <1>   0.1160 
  7 C        0.4390    -0.9380    -1.1170 C.3   1 <1>   0.1160 
  8 C        1.6270     2.9570     0.2470 C.3   1 <1>  -0.1600 
  9 C        2.2030     4.3710     0.2820 C.3   1 <1>   0.3430 
 10 N        3.5350     4.4060     0.9500 N.4   1 <1>  -0.9590 
 11 C        4.0160     5.8050     1.2300 C.3   1 <1>   0.4230 
 12 C        4.5300     3.6520     0.1220 C.3   1 <1>   0.3430 
 13 C        5.3710     5.7280     1.9580 C.3   1 <1>  -0.1600 
 14 C        3.0440     6.6400     2.1020 C.3   1 <1>  -0.1600 
 15 C        5.8660     3.5410     0.8500 C.3   1 <1>  -0.1600 
 16 C        6.4200     4.9240     1.1870 C.3   1 <1>  -0.1600 
 17 C        1.8750     7.3550     1.3890 C.3   1 <1>  -0.0170 
 18 C        2.1770     7.6690    -0.0680 C.ar  1 <1>  -0.1440 
 19 C        1.4190     7.0930    -1.0760 C.ar  1 <1>  -0.1500 
 20 C        3.2130     8.5270    -0.4080 C.ar  1 <1>  -0.1500 
 21 C        1.7300     7.3280    -2.4010 C.ar  1 <1>   0.0820 
 22 C        3.5100     8.7780    -1.7390 C.ar  1 <1>  -0.1500 
 23 O        1.0060     6.7200    -3.3510 O.3   1 <1>  -0.5330 
 24 C        2.7730     8.1730    -2.7420 C.ar  1 <1>  -0.1500 
 25 H       -0.4210     3.5910     0.3990 H     1 <1>   0.0800 
 26 H        0.1210     3.3830    -1.2340 H     1 <1>   0.0800 
 27 H       -0.0620     1.7650    -3.0120 H     1 <1>   0.0800 
 28 H       -1.0210     0.3030    -2.9440 H     1 <1>   0.0800 
 29 H        0.6540     0.2360    -3.4590 H     1 <1>   0.0800 
 30 H        0.8530    -1.1130    -0.1380 H     1 <1>   0.0800 
 31 H        1.0630    -1.4370    -1.8380 H     1 <1>   0.0800 
 32 H       -0.5510    -1.3610    -1.1520 H     1 <1>   0.0800 
 33 H        2.1980     2.3310    -0.4150 H     1 <1>   0.0800 
 34 H        1.6510     2.5300     1.2350 H     1 <1>   0.0800 
 35 H        1.5150     4.9860     0.8290 H     1 <1>   0.0800 
 36 H        2.2840     4.7620    -0.7200 H     1 <1>   0.0800 
 37 H        3.4600     3.9300     1.8560 H     1 <1>   0.4500 
 38 H        4.1760     6.3140     0.2930 H     1 <1>   0.0800 
 39 H        4.6760     4.1590    -0.8190 H     1 <1>   0.0800 
 40 H        4.1700     2.6580    -0.0840 H     1 <1>   0.0800 
 41 H        5.2330     5.2970     2.9350 H     1 <1>   0.0800 
 42 H        5.7550     6.7240     2.1010 H     1 <1>   0.0800 
 43 H        3.6210     7.4330     2.5450 H     1 <1>   0.0800 
 44 H        2.6740     6.0500     2.9220 H     1 <1>   0.0800 
 45 H        6.5680     3.0200     0.2210 H     1 <1>   0.0800 
 46 H        5.7420     2.9590     1.7470 H     1 <1>   0.0800 
 47 H        7.3170     4.8270     1.7770 H     1 <1>   0.0800 
 48 H        6.6780     5.4430     0.2780 H     1 <1>   0.0800 
 49 H        1.6600     8.2780     1.9020 H     1 <1>   0.0800 
 50 H        0.9800     6.7630     1.4600 H     1 <1>   0.0800 
 51 H        0.5780     6.4620    -0.8550 H     1 <1>   0.1500 
 52 H        3.7950     9.0130     0.3570 H     1 <1>   0.1500 
 53 H        4.3140     9.4470    -1.9940 H     1 <1>   0.1500 
 54 H        1.2050     7.0410    -4.2500 H     1 <1>   0.4500 
 55 H        3.0100     8.3670    -3.7730 H     1 <1>   0.1500 
@<TRIPOS>BOND
  1   1   2  2   
  2   1   3  2   
  3   1   4  am  
  4   1   5  1   
  5   4   6  1   
  6   4   7  1   
  7   5   8  1   
  8   5  25  1   
  9   5  26  1   
 10   6  27  1   
 11   6  28  1   
 12   6  29  1   
 13   7  30  1   
 14   7  31  1   
 15   7  32  1   
 16   8   9  1   
 17   8  33  1   
 18   8  34  1   
 19   9  10  1   
 20   9  35  1   
 21   9  36  1   
 22  10  11  1   
 23  10  12  1   
 24  10  37  1   
 25  11  13  1   
 26  11  14  1   
 27  11  38  1   
 28  12  15  1   
 29  12  39  1   
 30  12  40  1   
 31  13  16  1   
 32  13  41  1   
 33  13  42  1   
 34  14  17  1   
 35  14  43  1   
 36  14  44  1   
 37  15  16  1   
 38  15  45  1   
 39  15  46  1   
 40  16  47  1   
 41  16  48  1   
 42  17  18  1   
 43  17  49  1   
 44  17  50  1   
 45  18  19  ar  
 46  18  20  ar  
 47  19  21  ar  
 48  19  51  1   
 49  20  22  ar  
 50  20  52  1   
 51  21  23  1   
 52  21  24  ar  
 53  22  24  ar  
 54  22  53  1   
 55  23  54  1   
 56  24  55  1   
@<TRIPOS>SUBSTRUCTURE
  1 ****   9 GROUP 4 **** **** 0

# MOE 2024.06 (io_trps.svl 2023.06)
