@<TRIPOS>MOLECULE
NONAME
56 59 1 0 0 
SMALL
USER_CHARGES


@<TRIPOS>ATOM
  1 O       -1.1380     0.3890     2.5880 O.2   1 <1>  -0.5700 
  2 C       -1.7660     0.7910     1.6270 C.2   1 <1>   0.5440 
  3 N       -2.7190    -0.0340     1.0730 N.am  1 <1>  -0.6600 
  4 C       -1.5150     2.1210     1.1030 C.ar  1 <1>   0.0860 
  5 C       -3.8670     0.4390     0.2570 C.3   1 <1>   0.1400 
  6 C       -2.9950    -1.3970     1.6010 C.3   1 <1>   0.1400 
  7 C       -1.4780     3.2270     1.9490 C.ar  1 <1>  -0.1500 
  8 C       -1.3000     2.3450    -0.2560 C.ar  1 <1>  -0.1500 
  9 C       -5.0120    -0.5080     0.6160 C.3   1 <1>   0.2000 
 10 C       -4.3180    -1.8290     0.9540 C.3   1 <1>  -0.0800 
 11 C       -1.2540     4.5010     1.4600 C.ar  1 <1>  -0.1500 
 12 C       -1.0740     3.6160    -0.7520 C.ar  1 <1>  -0.1500 
 13 O       -5.6240    -0.0320     1.7630 O.3   1 <1>  -0.6800 
 14 C       -4.0790    -2.6690    -0.3150 C.3   1 <1>   0.0210 
 15 C       -1.0500     4.7070     0.1040 C.ar  1 <1>  -0.1430 
 16 C       -3.3980    -3.9840     0.0080 C.2   1 <1>   0.1080 
 17 C       -0.8000     6.1130    -0.4380 C.3   1 <1>   0.2390 
 18 N       -3.9810    -4.9310     0.6730 N.2   1 <1>  -0.7070 
 19 C       -2.0980    -4.3200    -0.3560 C.2   1 <1>  -0.1500 
 20 N        0.2480     6.8370     0.3180 N.pl3 1 <1>   0.3140 
 21 N       -3.0590    -5.9090     0.7520 N.pl3 1 <1>   0.3000 
 22 C       -1.9090    -5.5610     0.1370 C.2   1 <1>  -0.3320 
 23 N       -0.0260     8.0110     0.9220 N.2   1 <1>  -0.7070 
 24 C        1.5500     6.4970     0.4850 C.2   1 <1>  -0.3320 
 25 C       -0.6820    -6.4510     0.0580 C.3   1 <1>  -0.0600 
 26 C        1.0930     8.3840     1.4570 C.2   1 <1>   0.1080 
 27 C        2.1170     7.4780     1.2180 C.2   1 <1>  -0.1500 
 28 C        2.2060     5.2380    -0.0580 C.3   1 <1>  -0.0600 
 29 C        1.2260     9.6660     2.2430 C.3   1 <1>  -0.0590 
 30 H       -4.1220     1.4630     0.4700 H     1 <1>   0.0800 
 31 H       -3.6200     0.3380    -0.7850 H     1 <1>   0.0800 
 32 H       -2.1810    -2.0630     1.3740 H     1 <1>   0.0800 
 33 H       -3.1060    -1.3450     2.6720 H     1 <1>   0.0800 
 34 H       -1.6240     3.0770     3.0050 H     1 <1>   0.1500 
 35 H       -1.3050     1.5050    -0.9280 H     1 <1>   0.1500 
 36 H       -5.7580    -0.5890    -0.1560 H     1 <1>   0.0800 
 37 H       -4.9080    -2.4160     1.6380 H     1 <1>   0.0800 
 38 H       -1.2320     5.3370     2.1430 H     1 <1>   0.1500 
 39 H       -0.9130     3.7510    -1.8080 H     1 <1>   0.1500 
 40 H       -4.9480     0.0730     2.4630 H     1 <1>   0.4000 
 41 H       -3.4780    -2.1250    -1.0210 H     1 <1>   0.0800 
 42 H       -5.0230    -2.8910    -0.7800 H     1 <1>   0.0800 
 43 H       -1.7080     6.6830    -0.3790 H     1 <1>   0.0800 
 44 H       -0.4940     6.0720    -1.4660 H     1 <1>   0.0800 
 45 H       -1.4120    -3.7020    -0.9080 H     1 <1>   0.1500 
 46 H       -3.2460    -6.7970     1.2320 H     1 <1>   0.2700 
 47 H        0.1030    -5.9500    -0.4810 H     1 <1>   0.0800 
 48 H       -0.9180    -7.3670    -0.4530 H     1 <1>   0.0800 
 49 H       -0.3250    -6.6810     1.0460 H     1 <1>   0.0800 
 50 H        3.1330     7.5650     1.5570 H     1 <1>   0.1500 
 51 H        3.2560     5.2410     0.1710 H     1 <1>   0.0800 
 52 H        2.0890     5.1850    -1.1260 H     1 <1>   0.0800 
 53 H        1.7640     4.3650     0.3890 H     1 <1>   0.0800 
 54 H        2.2310     9.7860     2.5990 H     1 <1>   0.0800 
 55 H        0.5530     9.6430     3.0800 H     1 <1>   0.0800 
 56 H        0.9710    10.4990     1.6130 H     1 <1>   0.0800 
@<TRIPOS>BOND
  1   1   2  2   
  2   2   3  am  
  3   2   4  1   
  4   3   5  1   
  5   3   6  1   
  6   4   7  ar  
  7   4   8  ar  
  8   5   9  1   
  9   5  30  1   
 10   5  31  1   
 11   6  10  1   
 12   6  32  1   
 13   6  33  1   
 14   7  11  ar  
 15   7  34  1   
 16   8  12  ar  
 17   8  35  1   
 18   9  10  1   
 19   9  13  1   
 20   9  36  1   
 21  10  14  1   
 22  10  37  1   
 23  11  15  ar  
 24  11  38  1   
 25  12  15  ar  
 26  12  39  1   
 27  13  40  1   
 28  14  16  1   
 29  14  41  1   
 30  14  42  1   
 31  15  17  1   
 32  16  18  2   
 33  16  19  1   
 34  17  20  1   
 35  17  43  1   
 36  17  44  1   
 37  18  21  1   
 38  19  22  2   
 39  19  45  1   
 40  20  23  1   
 41  20  24  1   
 42  21  22  1   
 43  21  46  1   
 44  22  25  1   
 45  23  26  2   
 46  24  27  2   
 47  24  28  1   
 48  25  47  1   
 49  25  48  1   
 50  25  49  1   
 51  26  27  1   
 52  26  29  1   
 53  27  50  1   
 54  28  51  1   
 55  28  52  1   
 56  28  53  1   
 57  29  54  1   
 58  29  55  1   
 59  29  56  1   
@<TRIPOS>SUBSTRUCTURE
  1 ****   4 GROUP 4 **** **** 0

# MOE 2024.06 (io_trps.svl 2023.06)
