@<TRIPOS>MOLECULE
NONAME
58 61 1 0 0 
SMALL
USER_CHARGES


@<TRIPOS>ATOM
  1 O       -0.2570     1.1710     2.8570 O.2   1 <1>  -0.5700 
  2 C        0.2170     2.0320     2.1480 C.2   1 <1>   0.5690 
  3 N       -0.5700     2.7860     1.3070 N.am  1 <1>  -0.6600 
  4 C        1.7390     2.2450     2.2400 C.3   1 <1>   0.1710 
  5 C       -2.0440     2.5610     1.1960 C.3   1 <1>   0.1400 
  6 C       -0.0520     3.7760     0.3260 C.3   1 <1>   0.1400 
  7 N        2.5130     1.9380     1.0020 N.3   1 <1>  -0.8100 
  8 C       -2.4190     2.0510    -0.2190 C.3   1 <1>   0.0000 
  9 C       -0.3590     3.2880    -1.0930 C.3   1 <1>  -0.1600 
 10 C        2.3540     0.5160     0.6190 C.3   1 <1>   0.1100 
 11 C        3.9480     2.2370     1.1860 C.3   1 <1>   0.1100 
 12 C       -3.9400     1.8700    -0.3640 C.3   1 <1>   0.2000 
 13 C       -1.8620     3.0200    -1.2860 C.3   1 <1>  -0.1600 
 14 C       -1.9180     0.6100    -0.4210 C.3   1 <1>  -0.1600 
 15 C        3.1240     0.1660    -0.6670 C.3   1 <1>   0.2090 
 16 C        4.7690     1.9540    -0.0870 C.3   1 <1>   0.2090 
 17 O       -4.6400     2.9130     0.2470 O.3   1 <1>  -0.5600 
 18 C       -4.2630     0.5220     0.2890 C.3   1 <1>  -0.1600 
 19 C       -2.9580    -0.2860     0.2570 C.3   1 <1>  -0.1600 
 20 N        4.5680     0.5480    -0.5600 N.pl3 1 <1>  -0.8380 
 21 C       -5.9880     2.9940    -0.0920 C.3   1 <1>   0.0400 
 22 C        5.5970    -0.2470    -1.0250 C.ar  1 <1>   0.7200 
 23 N        6.8380     0.2240    -0.8980 N.ar  1 <1>  -0.6200 
 24 N        5.2650    -1.4200    -1.5660 N.ar  1 <1>  -0.6200 
 25 C        7.8040    -0.5400    -1.3440 C.ar  1 <1>   0.1600 
 26 C        6.2510    -2.1630    -2.0040 C.ar  1 <1>   0.1600 
 27 C        7.5610    -1.7640    -1.9160 C.ar  1 <1>  -0.1500 
 28 H        2.1090     1.6360     3.0460 H     1 <1>   0.0800 
 29 H        1.9030     3.2720     2.5090 H     1 <1>   0.0800 
 30 H       -2.3780     1.8640     1.9440 H     1 <1>   0.0800 
 31 H       -2.5410     3.4960     1.3880 H     1 <1>   0.0800 
 32 H       -0.5370     4.7210     0.4980 H     1 <1>   0.0800 
 33 H        1.0060     3.9240     0.4340 H     1 <1>   0.0800 
 34 H       -0.0320     4.0310    -1.7990 H     1 <1>   0.0800 
 35 H        0.2060     2.3920    -1.2790 H     1 <1>   0.0800 
 36 H        2.7050    -0.1200     1.4140 H     1 <1>   0.0800 
 37 H        1.3130     0.2990     0.4590 H     1 <1>   0.0800 
 38 H        4.0650     3.2750     1.4450 H     1 <1>   0.0800 
 39 H        4.3470     1.6430     1.9900 H     1 <1>   0.0800 
 40 H       -4.1940     1.8410    -1.4100 H     1 <1>   0.0800 
 41 H       -2.0350     2.6290    -2.2740 H     1 <1>   0.0800 
 42 H       -2.3920     3.9550    -1.2090 H     1 <1>   0.0800 
 43 H       -1.8920     0.3790    -1.4720 H     1 <1>   0.0800 
 44 H       -0.9370     0.4510    -0.0130 H     1 <1>   0.0800 
 45 H        2.6830     0.6940    -1.4950 H     1 <1>   0.0800 
 46 H        3.0120    -0.8870    -0.8510 H     1 <1>   0.0800 
 47 H        5.8040     2.1500     0.1270 H     1 <1>   0.0800 
 48 H        4.4590     2.6310    -0.8630 H     1 <1>   0.0800 
 49 H       -4.5690     0.6660     1.3100 H     1 <1>   0.0800 
 50 H       -5.0400     0.0160    -0.2550 H     1 <1>   0.0800 
 51 H       -2.6440    -0.5030     1.2650 H     1 <1>   0.0800 
 52 H       -3.0760    -1.2140    -0.2770 H     1 <1>   0.0800 
 53 H       -6.4100     3.8410     0.4200 H     1 <1>   0.0800 
 54 H       -6.4920     2.0960     0.2210 H     1 <1>   0.0800 
 55 H       -6.0800     3.1310    -1.1550 H     1 <1>   0.0800 
 56 H        8.8150    -0.1810    -1.2520 H     1 <1>   0.1500 
 57 H        6.0080    -3.1150    -2.4450 H     1 <1>   0.1500 
 58 H        8.3610    -2.3810    -2.2790 H     1 <1>   0.1500 
@<TRIPOS>BOND
  1   1   2  2   
  2   2   3  am  
  3   2   4  1   
  4   3   5  1   
  5   3   6  1   
  6   4   7  1   
  7   4  28  1   
  8   4  29  1   
  9   5   8  1   
 10   5  30  1   
 11   5  31  1   
 12   6   9  1   
 13   6  32  1   
 14   6  33  1   
 15   7  10  1   
 16   7  11  1   
 17   8  12  1   
 18   8  13  1   
 19   8  14  1   
 20   9  13  1   
 21   9  34  1   
 22   9  35  1   
 23  10  15  1   
 24  10  36  1   
 25  10  37  1   
 26  11  16  1   
 27  11  38  1   
 28  11  39  1   
 29  12  17  1   
 30  12  18  1   
 31  12  40  1   
 32  13  41  1   
 33  13  42  1   
 34  14  19  1   
 35  14  43  1   
 36  14  44  1   
 37  15  20  1   
 38  15  45  1   
 39  15  46  1   
 40  16  20  1   
 41  16  47  1   
 42  16  48  1   
 43  17  21  1   
 44  18  19  1   
 45  18  49  1   
 46  18  50  1   
 47  19  51  1   
 48  19  52  1   
 49  20  22  1   
 50  21  53  1   
 51  21  54  1   
 52  21  55  1   
 53  22  23  ar  
 54  22  24  ar  
 55  23  25  ar  
 56  24  26  ar  
 57  25  27  ar  
 58  25  56  1   
 59  26  27  ar  
 60  26  57  1   
 61  27  58  1   
@<TRIPOS>SUBSTRUCTURE
  1 ****  10 GROUP 4 **** **** 0

# MOE 2024.06 (io_trps.svl 2023.06)
