@<TRIPOS>MOLECULE
NONAME
41 42 1 0 0 
SMALL
USER_CHARGES


@<TRIPOS>ATOM
  1 O        1.0610     0.8710     0.4610 O.3   1 <1>  -0.5600 
  2 C        1.5690     1.4010    -0.7210 C.3   1 <1>   0.1200 
  3 C       -0.1770     1.3910     0.8460 C.3   1 <1>   0.1200 
  4 C        1.8900     2.8870    -0.4950 C.3   1 <1>  -0.0800 
  5 C       -0.0340     2.8930     1.1270 C.3   1 <1>  -0.1600 
  6 C        0.6100     3.6250    -0.0600 C.3   1 <1>  -0.1600 
  7 C        2.5260     3.4880    -1.7570 C.3   1 <1>   0.2090 
  8 N        2.8820     4.9160    -1.5500 N.pl3 1 <1>  -0.8690 
  9 C        3.8560     5.5170    -0.8590 C.ar  1 <1>   0.7710 
 10 N        3.8880     6.8280    -0.9240 N.ar  1 <1>  -0.6200 
 11 N        4.7320     4.7950    -0.1450 N.ar  1 <1>  -0.1790 
 12 C        4.8470     7.4550    -0.2680 C.ar  1 <1>   0.4100 
 13 C        5.7050     5.4010     0.5750 C.ar  1 <1>   0.2110 
 14 N        4.8820     8.8050    -0.4050 N.pl3 1 <1>  -0.8380 
 15 C        5.7850     6.7550     0.5370 C.ar  1 <1>  -0.1440 
 16 C        3.6300     9.6150    -0.4250 C.3   1 <1>   0.1290 
 17 C        6.0750     9.5320    -0.9200 C.3   1 <1>   0.1290 
 18 C        6.8330     7.4860     1.3750 C.3   1 <1>  -0.0970 
 19 H        0.8420     1.2620    -1.5030 H     1 <1>   0.0800 
 20 H        2.4580     0.8450    -0.9650 H     1 <1>   0.0800 
 21 H       -0.4930     0.8690     1.7320 H     1 <1>   0.0800 
 22 H       -0.8890     1.2050     0.0590 H     1 <1>   0.0800 
 23 H        2.6020     2.9300     0.3080 H     1 <1>   0.0800 
 24 H        0.5710     3.0190     2.0080 H     1 <1>   0.0800 
 25 H       -1.0030     3.3120     1.3350 H     1 <1>   0.0800 
 26 H       -0.0910     3.6500    -0.8780 H     1 <1>   0.0800 
 27 H        0.8290     4.6410     0.2230 H     1 <1>   0.0800 
 28 H        1.8290     3.4190    -2.5770 H     1 <1>   0.0800 
 29 H        3.4060     2.9300    -2.0310 H     1 <1>   0.0800 
 30 H        2.2620     5.5770    -2.0330 H     1 <1>   0.4000 
 31 H        4.5990     3.7910    -0.1590 H     1 <1>   0.4570 
 32 H        6.3760     4.7920     1.1600 H     1 <1>   0.1500 
 33 H        2.8220     9.0680     0.0300 H     1 <1>   0.0800 
 34 H        3.3610     9.8480    -1.4410 H     1 <1>   0.0800 
 35 H        3.7750    10.5300     0.1220 H     1 <1>   0.0800 
 36 H        6.8470     8.8390    -1.2040 H     1 <1>   0.0800 
 37 H        6.4550    10.1960    -0.1620 H     1 <1>   0.0800 
 38 H        5.8070    10.1100    -1.7880 H     1 <1>   0.0800 
 39 H        6.3850     8.3290     1.8730 H     1 <1>   0.0800 
 40 H        7.6340     7.8410     0.7520 H     1 <1>   0.0800 
 41 H        7.2520     6.8420     2.1280 H     1 <1>   0.0800 
@<TRIPOS>BOND
  1   1   2  1   
  2   1   3  1   
  3   2   4  1   
  4   2  19  1   
  5   2  20  1   
  6   3   5  1   
  7   3  21  1   
  8   3  22  1   
  9   4   6  1   
 10   4   7  1   
 11   4  23  1   
 12   5   6  1   
 13   5  24  1   
 14   5  25  1   
 15   6  26  1   
 16   6  27  1   
 17   7   8  1   
 18   7  28  1   
 19   7  29  1   
 20   8   9  1   
 21   8  30  1   
 22   9  10  ar  
 23   9  11  ar  
 24  10  12  ar  
 25  11  13  ar  
 26  11  31  1   
 27  12  14  1   
 28  12  15  ar  
 29  13  15  ar  
 30  13  32  1   
 31  14  16  1   
 32  14  17  1   
 33  15  18  1   
 34  16  33  1   
 35  16  34  1   
 36  16  35  1   
 37  17  36  1   
 38  17  37  1   
 39  17  38  1   
 40  18  39  1   
 41  18  40  1   
 42  18  41  1   
@<TRIPOS>SUBSTRUCTURE
  1 ****   9 GROUP 4 **** **** 0

# MOE 2024.06 (io_trps.svl 2023.06)
