@<TRIPOS>MOLECULE
NONAME
45 47 1 0 0 
SMALL
USER_CHARGES


@<TRIPOS>ATOM
  1 O        0.9080     0.6480    -1.1970 O.3   1 <1>  -0.3630 
  2 C        1.5210    -0.4360    -0.6590 C.ar  1 <1>   0.0830 
  3 C        1.0360     1.9240    -0.6090 C.3   1 <1>   0.0400 
  4 C        1.3730    -1.6330    -1.3390 C.ar  1 <1>  -0.1500 
  5 C        2.2700    -0.4050     0.5120 C.ar  1 <1>  -0.1500 
  6 C        1.9520    -2.8000    -0.8660 C.ar  1 <1>  -0.1430 
  7 C        2.8550    -1.5650     0.9860 C.ar  1 <1>  -0.1500 
  8 C        2.7060    -2.7730     0.3110 C.ar  1 <1>  -0.0230 
  9 C        1.7490    -4.0950    -1.6420 C.3   1 <1>   0.2540 
 10 N        3.3100    -3.9490     0.8440 N.pl3 1 <1>   0.5930 
 11 N        0.8640    -5.0100    -0.8950 N.3   1 <1>  -0.8100 
 12 N        4.2940    -4.6500     0.2240 N.2   1 <1>  -0.7070 
 13 C        2.9940    -4.5440     2.0190 C.2   1 <1>  -0.3020 
 14 C        1.0140    -6.3910    -1.4160 C.3   1 <1>   0.2900 
 15 C       -0.5560    -4.5490    -0.9020 C.3   1 <1>   0.1100 
 16 C        4.5540    -5.6510     1.0060 C.2   1 <1>   0.1390 
 17 C        3.7690    -5.6400     2.1510 C.2   1 <1>  -0.1500 
 18 C        0.3490    -7.4450    -0.5380 C.2   1 <1>   0.0070 
 19 C       -0.8940    -3.7830     0.3890 C.3   1 <1>   0.1200 
 20 N        0.1060    -8.6550    -0.9330 N.2   1 <1>  -0.5650 
 21 N       -0.0410    -7.2100     0.7350 N.pl3 1 <1>   0.0330 
 22 O       -0.1510    -4.3370     1.4160 O.3   1 <1>  -0.6800 
 23 C       -0.4700    -9.2370     0.1370 C.2   1 <1>   0.0770 
 24 C       -0.5700    -8.3690     1.1660 C.2   1 <1>  -0.3020 
 25 H        0.4860     2.6250    -1.2120 H     1 <1>   0.0800 
 26 H        2.0760     2.1970    -0.5890 H     1 <1>   0.0800 
 27 H        0.6240     1.8950     0.3840 H     1 <1>   0.0800 
 28 H        0.7940    -1.6340    -2.2440 H     1 <1>   0.1500 
 29 H        2.4080     0.5060     1.0620 H     1 <1>   0.1500 
 30 H        3.4360    -1.5330     1.8910 H     1 <1>   0.1500 
 31 H        2.7110    -4.5530    -1.7980 H     1 <1>   0.0800 
 32 H        1.3340    -3.8920    -2.6150 H     1 <1>   0.0800 
 33 H        2.2420    -4.1490     2.6760 H     1 <1>   0.1500 
 34 H        2.0610    -6.6380    -1.4680 H     1 <1>   0.0800 
 35 H        0.6080    -6.4560    -2.4110 H     1 <1>   0.0800 
 36 H       -1.2220    -5.3940    -0.9600 H     1 <1>   0.0800 
 37 H       -0.7620    -3.9330    -1.7600 H     1 <1>   0.0800 
 38 H        5.2970    -6.4000     0.7850 H     1 <1>   0.1500 
 39 H        3.7990    -6.3620     2.9490 H     1 <1>   0.1500 
 40 H       -1.9400    -3.8480     0.6330 H     1 <1>   0.0800 
 41 H       -0.6140    -2.7470     0.2980 H     1 <1>   0.0800 
 42 H        0.0200    -6.3060     1.2220 H     1 <1>   0.2700 
 43 H        0.7200    -4.5350     0.9930 H     1 <1>   0.4000 
 44 H       -0.7890   -10.2660     0.1080 H     1 <1>   0.1500 
 45 H       -0.9770    -8.5030     2.1510 H     1 <1>   0.1500 
@<TRIPOS>BOND
  1   1   2  1   
  2   1   3  1   
  3   2   4  ar  
  4   2   5  ar  
  5   3  25  1   
  6   3  26  1   
  7   3  27  1   
  8   4   6  ar  
  9   4  28  1   
 10   5   7  ar  
 11   5  29  1   
 12   6   8  ar  
 13   6   9  1   
 14   7   8  ar  
 15   7  30  1   
 16   8  10  1   
 17   9  11  1   
 18   9  31  1   
 19   9  32  1   
 20  10  12  1   
 21  10  13  1   
 22  11  14  1   
 23  11  15  1   
 24  12  16  2   
 25  13  17  2   
 26  13  33  1   
 27  14  18  1   
 28  14  34  1   
 29  14  35  1   
 30  15  19  1   
 31  15  36  1   
 32  15  37  1   
 33  16  17  1   
 34  16  38  1   
 35  17  39  1   
 36  18  20  2   
 37  18  21  1   
 38  19  22  1   
 39  19  40  1   
 40  19  41  1   
 41  20  23  1   
 42  21  24  1   
 43  21  42  1   
 44  22  43  1   
 45  23  24  2   
 46  23  44  1   
 47  24  45  1   
@<TRIPOS>SUBSTRUCTURE
  1 ****  11 GROUP 4 **** **** 0

# MOE 2024.06 (io_trps.svl 2023.06)
