@<TRIPOS>MOLECULE
NONAME
21 21 1 0 0 
SMALL
USER_CHARGES


@<TRIPOS>ATOM
  1 CL       0.3150     0.3540     2.3060 Cl    1 <1>  -0.1770 
  2 C        1.6480    -0.5420     1.6210 C.ar  1 <1>   0.4870 
  3 N        1.6400    -1.8150     1.9830 N.ar  1 <1>  -0.6200 
  4 C        2.5840     0.0710     0.7780 C.ar  1 <1>  -0.1440 
  5 C        2.6160    -2.5520     1.4930 C.ar  1 <1>   0.1600 
  6 C        3.5930    -0.7470     0.2810 C.ar  1 <1>  -0.1500 
  7 C        2.5090     1.5750     0.4060 C.3   1 <1>   0.3440 
  8 C        3.6000    -2.0740     0.6510 C.ar  1 <1>  -0.1500 
  9 C        2.4560     2.4370     1.6400 C.1   1 <1>   0.3570 
 10 C        3.7400     2.0540    -0.3950 C.3   1 <1>  -0.2400 
 11 C        1.2850     1.8320    -0.4950 C.3   1 <1>  -0.2400 
 12 N        2.4440     3.1140     2.5550 N.1   1 <1>  -0.5570 
 13 H        2.6330    -3.5920     1.7770 H     1 <1>   0.1500 
 14 H        4.3700    -0.4050    -0.3770 H     1 <1>   0.1500 
 15 H        4.3650    -2.7390     0.2900 H     1 <1>   0.1500 
 16 H        4.6440     1.8820     0.1630 H     1 <1>   0.0800 
 17 H        3.6730     3.1110    -0.5910 H     1 <1>   0.0800 
 18 H        3.8070     1.5500    -1.3420 H     1 <1>   0.0800 
 19 H        0.3630     1.6230     0.0130 H     1 <1>   0.0800 
 20 H        1.3310     1.2110    -1.3720 H     1 <1>   0.0800 
 21 H        1.2550     2.8620    -0.8070 H     1 <1>   0.0800 
@<TRIPOS>BOND
  1   1   2  1   
  2   2   3  ar  
  3   2   4  ar  
  4   3   5  ar  
  5   4   6  ar  
  6   4   7  1   
  7   5   8  ar  
  8   5  13  1   
  9   6   8  ar  
 10   6  14  1   
 11   7   9  1   
 12   7  10  1   
 13   7  11  1   
 14   8  15  1   
 15   9  12  3   
 16  10  16  1   
 17  10  17  1   
 18  10  18  1   
 19  11  19  1   
 20  11  20  1   
 21  11  21  1   
@<TRIPOS>SUBSTRUCTURE
  1 ****   4 GROUP 4 **** **** 0

# MOE 2024.06 (io_trps.svl 2023.06)
