@<TRIPOS>MOLECULE
NONAME
54 58 1 0 0 
SMALL
USER_CHARGES


@<TRIPOS>ATOM
  1 O       -0.7230     0.1990     1.5540 O.2   1 <1>  -0.5700 
  2 C       -1.6140     0.8590     1.0580 C.2   1 <1>   0.5440 
  3 N       -2.7290     0.2100     0.5770 N.am  1 <1>  -0.6600 
  4 C       -1.4770     2.2950     0.9650 C.ar  1 <1>   0.0860 
  5 C       -3.6820     0.7830    -0.4120 C.3   1 <1>   0.1400 
  6 C       -2.8660    -1.2700     0.6180 C.3   1 <1>   0.1400 
  7 C       -2.4550     3.1440     1.4690 C.ar  1 <1>   0.1600 
  8 C       -0.3740     2.8890     0.3720 C.ar  1 <1>  -0.1500 
  9 C       -4.6790    -0.3420    -0.6800 C.3   1 <1>   0.2000 
 10 C       -3.8430    -1.6170    -0.5140 C.3   1 <1>  -0.0800 
 11 N       -2.4430     4.4640     1.4040 N.ar  1 <1>  -0.6200 
 12 C       -0.3260     4.2660     0.2970 C.ar  1 <1>  -0.1430 
 13 O       -5.6560    -0.2930     0.3040 O.3   1 <1>  -0.6800 
 14 C       -4.6690    -2.8980    -0.2670 C.3   1 <1>  -0.0170 
 15 C       -1.3840     5.0050     0.8200 C.ar  1 <1>   0.1670 
 16 C        0.8800     4.9230    -0.3650 C.3   1 <1>  -0.0170 
 17 C       -3.8990    -4.2250    -0.2450 C.ar  1 <1>  -0.1430 
 18 C       -1.3830     6.5270     0.7760 C.3   1 <1>  -0.0170 
 19 C        1.0070     6.4080    -0.0090 C.3   1 <1>  -0.1600 
 20 C       -4.5620    -5.4120     0.1560 C.ar  1 <1>   0.0000 
 21 C       -2.5850    -4.3440    -0.6050 C.ar  1 <1>  -0.1500 
 22 C       -0.3390     7.1140    -0.1850 C.3   1 <1>  -0.1600 
 23 C       -3.8170    -6.6170     0.1790 C.ar  1 <1>   0.3100 
 24 C       -5.9260    -5.4770     0.5300 C.ar  1 <1>  -0.1500 
 25 C       -1.9420    -5.5870    -0.5500 C.ar  1 <1>   0.1600 
 26 N       -2.5110    -6.6870    -0.1750 N.ar  1 <1>  -0.6200 
 27 C       -4.4500    -7.8040     0.5810 C.ar  1 <1>  -0.1500 
 28 C       -6.5140    -6.6520     0.9150 C.ar  1 <1>  -0.1500 
 29 C       -5.7680    -7.8320     0.9440 C.ar  1 <1>  -0.1500 
 30 H       -4.1770     1.6640    -0.0420 H     1 <1>   0.0800 
 31 H       -3.1480     1.0230    -1.3150 H     1 <1>   0.0800 
 32 H       -1.9110    -1.7480     0.4820 H     1 <1>   0.0800 
 33 H       -3.2680    -1.5570     1.5750 H     1 <1>   0.0800 
 34 H       -3.3030     2.6960     1.9570 H     1 <1>   0.1500 
 35 H        0.4200     2.2740    -0.0150 H     1 <1>   0.1500 
 36 H       -5.1570    -0.2640    -1.6420 H     1 <1>   0.0800 
 37 H       -3.2780    -1.7370    -1.4200 H     1 <1>   0.0800 
 38 H       -5.2210    -0.2190     1.1770 H     1 <1>   0.4000 
 39 H       -5.4240    -2.9660    -1.0320 H     1 <1>   0.0800 
 40 H       -5.1750    -2.7920     0.6760 H     1 <1>   0.0800 
 41 H        1.7810     4.4120    -0.0720 H     1 <1>   0.0800 
 42 H        0.7760     4.8240    -1.4320 H     1 <1>   0.0800 
 43 H       -2.3610     6.8730     0.4910 H     1 <1>   0.0800 
 44 H       -1.1890     6.8830     1.7720 H     1 <1>   0.0800 
 45 H        1.3330     6.5050     1.0130 H     1 <1>   0.0800 
 46 H        1.7490     6.8670    -0.6400 H     1 <1>   0.0800 
 47 H       -1.9940    -3.5160    -0.9400 H     1 <1>   0.1500 
 48 H       -0.6800     6.9890    -1.1990 H     1 <1>   0.0800 
 49 H       -0.2320     8.1680     0.0030 H     1 <1>   0.0800 
 50 H       -6.5260    -4.5870     0.5110 H     1 <1>   0.1500 
 51 H       -0.9060    -5.6280    -0.8380 H     1 <1>   0.1500 
 52 H       -3.8560    -8.7000     0.5930 H     1 <1>   0.1500 
 53 H       -7.5520    -6.6830     1.1980 H     1 <1>   0.1500 
 54 H       -6.2400    -8.7500     1.2500 H     1 <1>   0.1500 
@<TRIPOS>BOND
  1   1   2  2   
  2   2   3  am  
  3   2   4  1   
  4   3   5  1   
  5   3   6  1   
  6   4   7  ar  
  7   4   8  ar  
  8   5   9  1   
  9   5  30  1   
 10   5  31  1   
 11   6  10  1   
 12   6  32  1   
 13   6  33  1   
 14   7  11  ar  
 15   7  34  1   
 16   8  12  ar  
 17   8  35  1   
 18   9  10  1   
 19   9  13  1   
 20   9  36  1   
 21  10  14  1   
 22  10  37  1   
 23  11  15  ar  
 24  12  15  ar  
 25  12  16  1   
 26  13  38  1   
 27  14  17  1   
 28  14  39  1   
 29  14  40  1   
 30  15  18  1   
 31  16  19  1   
 32  16  41  1   
 33  16  42  1   
 34  17  20  ar  
 35  17  21  ar  
 36  18  22  1   
 37  18  43  1   
 38  18  44  1   
 39  19  22  1   
 40  19  45  1   
 41  19  46  1   
 42  20  23  ar  
 43  20  24  ar  
 44  21  25  ar  
 45  21  47  1   
 46  22  48  1   
 47  22  49  1   
 48  23  26  ar  
 49  23  27  ar  
 50  24  28  ar  
 51  24  50  1   
 52  25  26  ar  
 53  25  51  1   
 54  27  29  ar  
 55  27  52  1   
 56  28  29  ar  
 57  28  53  1   
 58  29  54  1   
@<TRIPOS>SUBSTRUCTURE
  1 ****   6 GROUP 4 **** **** 0

# MOE 2024.06 (io_trps.svl 2023.06)
