@<TRIPOS>MOLECULE
NONAME
55 59 1 0 0 
SMALL
USER_CHARGES


@<TRIPOS>ATOM
  1 O       -3.7950     4.3280     0.1060 O.2   1 <1>  -0.5700 
  2 C       -3.3950     3.4060    -0.5710 C.2   1 <1>   0.5690 
  3 N       -4.2590     2.4180    -0.9850 N.am  1 <1>  -0.6600 
  4 C       -1.8840     3.3160    -0.8630 C.3   1 <1>   0.1250 
  5 C       -5.4430     2.0770    -0.1570 C.3   1 <1>   0.1400 
  6 C       -4.0030     1.4030    -2.0420 C.3   1 <1>   0.1400 
  7 C       -1.2580     2.2120    -0.0050 C.ar  1 <1>  -0.1440 
  8 C       -1.1220     4.6330    -0.6280 C.3   1 <1>  -0.2400 
  9 C       -5.1170     0.7830     0.5930 C.3   1 <1>  -0.1600 
 10 C       -3.7030     0.0550    -1.3880 C.3   1 <1>  -0.1600 
 11 C       -0.4030     1.2720    -0.5680 C.ar  1 <1>  -0.1500 
 12 C       -1.5600     2.1260     1.3490 C.ar  1 <1>  -0.1500 
 13 C       -4.7760    -0.3600    -0.3760 C.3   1 <1>   0.4600 
 14 C        0.1140     0.2460     0.2050 C.ar  1 <1>  -0.1500 
 15 C       -1.0430     1.1060     2.1270 C.ar  1 <1>  -0.1500 
 16 O       -5.9250    -0.6790    -1.1310 O.3   1 <1>  -0.5600 
 17 C       -4.3030    -1.5980     0.3720 C.2   1 <1>  -0.3320 
 18 C       -0.2120     0.1640     1.5470 C.ar  1 <1>   0.0820 
 19 C       -6.9020    -1.4990    -0.5300 C.3   1 <1>   0.1200 
 20 N       -3.1150    -1.7380     1.0390 N.pl3 1 <1>   0.0330 
 21 C       -5.0010    -2.7480     0.4550 C.2   1 <1>  -0.1810 
 22 O        0.2860    -0.8370     2.2860 O.3   1 <1>  -0.5330 
 23 C       -6.3470    -2.8980    -0.2100 C.3   1 <1>   0.0210 
 24 C       -3.0660    -3.0140     1.5460 C.ar  1 <1>  -0.1520 
 25 C       -4.2440    -3.6730     1.2020 C.ar  1 <1>   0.0000 
 26 C       -2.0710    -3.6640     2.2800 C.ar  1 <1>  -0.1500 
 27 C       -4.4410    -4.9970     1.6090 C.ar  1 <1>  -0.1500 
 28 C       -2.2770    -4.9660     2.6740 C.ar  1 <1>  -0.1500 
 29 C       -3.4630    -5.6320     2.3400 C.ar  1 <1>  -0.1500 
 30 H       -1.7620     3.0720    -1.9000 H     1 <1>   0.0800 
 31 H       -6.3030     1.9410    -0.7910 H     1 <1>   0.0800 
 32 H       -5.6600     2.8640     0.5450 H     1 <1>   0.0800 
 33 H       -3.1910     1.6980    -2.6800 H     1 <1>   0.0800 
 34 H       -4.8840     1.3130    -2.6560 H     1 <1>   0.0800 
 35 H       -1.1940     4.9270     0.4040 H     1 <1>   0.0800 
 36 H       -1.5400     5.4150    -1.2360 H     1 <1>   0.0800 
 37 H       -0.0830     4.5120    -0.8800 H     1 <1>   0.0800 
 38 H       -5.9350     0.5050     1.2280 H     1 <1>   0.0800 
 39 H       -4.2730     0.9650     1.2320 H     1 <1>   0.0800 
 40 H       -2.7600     0.1210    -0.8910 H     1 <1>   0.0800 
 41 H       -3.6150    -0.7090    -2.1390 H     1 <1>   0.0800 
 42 H       -0.1410     1.3280    -1.6100 H     1 <1>   0.1500 
 43 H       -2.2080     2.8570     1.8050 H     1 <1>   0.1500 
 44 H        0.7700    -0.4900    -0.2250 H     1 <1>   0.1500 
 45 H       -1.2900     1.0550     3.1710 H     1 <1>   0.1500 
 46 H       -7.7280    -1.5770    -1.2130 H     1 <1>   0.0800 
 47 H       -7.2450    -1.0220     0.3700 H     1 <1>   0.0800 
 48 H       -2.3590    -1.0460     1.1080 H     1 <1>   0.2700 
 49 H        0.1060    -0.7370     3.2380 H     1 <1>   0.4500 
 50 H       -6.2380    -3.4630    -1.1180 H     1 <1>   0.0800 
 51 H       -7.0260    -3.4180     0.4400 H     1 <1>   0.0800 
 52 H       -1.1610    -3.1480     2.5240 H     1 <1>   0.1500 
 53 H       -5.3530    -5.4950     1.3410 H     1 <1>   0.1500 
 54 H       -1.5260    -5.4880     3.2410 H     1 <1>   0.1500 
 55 H       -3.6000    -6.6500     2.6600 H     1 <1>   0.1500 
@<TRIPOS>BOND
  1   1   2  2   
  2   2   3  am  
  3   2   4  1   
  4   3   5  1   
  5   3   6  1   
  6   4   7  1   
  7   4   8  1   
  8   4  30  1   
  9   5   9  1   
 10   5  31  1   
 11   5  32  1   
 12   6  10  1   
 13   6  33  1   
 14   6  34  1   
 15   7  11  ar  
 16   7  12  ar  
 17   8  35  1   
 18   8  36  1   
 19   8  37  1   
 20   9  13  1   
 21   9  38  1   
 22   9  39  1   
 23  10  13  1   
 24  10  40  1   
 25  10  41  1   
 26  11  14  ar  
 27  11  42  1   
 28  12  15  ar  
 29  12  43  1   
 30  13  16  1   
 31  13  17  1   
 32  14  18  ar  
 33  14  44  1   
 34  15  18  ar  
 35  15  45  1   
 36  16  19  1   
 37  17  20  1   
 38  17  21  2   
 39  18  22  1   
 40  19  23  1   
 41  19  46  1   
 42  19  47  1   
 43  20  24  1   
 44  20  48  1   
 45  21  23  1   
 46  21  25  1   
 47  22  49  1   
 48  23  50  1   
 49  23  51  1   
 50  24  25  ar  
 51  24  26  ar  
 52  25  27  ar  
 53  26  28  ar  
 54  26  52  1   
 55  27  29  ar  
 56  27  53  1   
 57  28  29  ar  
 58  28  54  1   
 59  29  55  1   
@<TRIPOS>SUBSTRUCTURE
  1 ****  20 GROUP 4 **** **** 0

# MOE 2024.06 (io_trps.svl 2023.06)
