@<TRIPOS>MOLECULE
NONAME
54 57 1 0 0 
SMALL
USER_CHARGES


@<TRIPOS>ATOM
  1 O        1.4850     0.3830     0.8250 O.2   1 <1>  -0.5700 
  2 C        2.2480    -0.2420     0.1150 C.2   1 <1>   0.5440 
  3 N        3.0940     0.4420    -0.7310 N.am  1 <1>  -0.6600 
  4 C        2.2690    -1.6850     0.1840 C.ar  1 <1>   0.0860 
  5 C        4.1010    -0.2170    -1.6240 C.3   1 <1>   0.1400 
  6 C        3.1270     1.9280    -0.7640 C.3   1 <1>   0.1400 
  7 C        3.0180    -2.3830     1.1380 C.ar  1 <1>   0.1660 
  8 C        1.5490    -2.4330    -0.7370 C.ar  1 <1>  -0.1500 
  9 C        5.5220    -0.1650    -1.0430 C.3   1 <1>   0.1400 
 10 C        4.0270     2.4920     0.3440 C.3   1 <1>  -0.1600 
 11 N        3.1190    -3.7020     1.1940 N.ar  1 <1>  -0.6200 
 12 C        3.8060    -1.6590     2.2180 C.3   1 <1>  -0.0970 
 13 C        1.6370    -3.8050    -0.6720 C.ar  1 <1>  -0.1500 
 14 N        5.9350     1.2270    -0.6800 N.am  1 <1>  -0.6600 
 15 C        5.3350     1.7260     0.5910 C.3   1 <1>   0.1400 
 16 C        2.4310    -4.3880     0.2990 C.ar  1 <1>   0.1670 
 17 C        6.7880     1.9430    -1.4850 C.2   1 <1>   0.5690 
 18 C        2.5510    -5.8950     0.3880 C.3   1 <1>  -0.0970 
 19 O        7.1560     1.5020    -2.5500 O.2   1 <1>  -0.5700 
 20 C        7.2870     3.3250    -1.1000 C.3   1 <1>   0.0820 
 21 C        8.2220     3.2920     0.0940 C.2   1 <1>   0.1080 
 22 N        8.0530     4.0440     1.1320 N.2   1 <1>  -0.7070 
 23 C        9.3550     2.4610     0.1990 C.ar  1 <1>   0.0000 
 24 N        9.0790     3.7330     1.9570 N.pl3 1 <1>   0.3000 
 25 C        9.8890     2.7730     1.4320 C.ar  1 <1>  -0.1520 
 26 C        9.9830     1.4920    -0.5970 C.ar  1 <1>  -0.1500 
 27 C       11.0430     2.1420     1.9100 C.ar  1 <1>  -0.1500 
 28 C       11.1160     0.8670    -0.1340 C.ar  1 <1>  -0.1500 
 29 C       11.6480     1.1910     1.1220 C.ar  1 <1>  -0.1500 
 30 H        4.1020     0.2720    -2.5820 H     1 <1>   0.0800 
 31 H        3.8360    -1.2440    -1.7970 H     1 <1>   0.0800 
 32 H        2.1280     2.3170    -0.6500 H     1 <1>   0.0800 
 33 H        3.4950     2.2540    -1.7220 H     1 <1>   0.0800 
 34 H        0.9420    -1.9440    -1.4790 H     1 <1>   0.1500 
 35 H        6.2060    -0.5730    -1.7660 H     1 <1>   0.0800 
 36 H        5.5760    -0.7940    -0.1730 H     1 <1>   0.0800 
 37 H        3.4680     2.5050     1.2620 H     1 <1>   0.0800 
 38 H        4.2560     3.5150     0.1110 H     1 <1>   0.0800 
 39 H        3.4820    -0.6440     2.3490 H     1 <1>   0.0800 
 40 H        4.8510    -1.6680     1.9700 H     1 <1>   0.0800 
 41 H        3.6760    -2.1680     3.1550 H     1 <1>   0.0800 
 42 H        1.0920    -4.4150    -1.3700 H     1 <1>   0.1500 
 43 H        5.1260     0.8850     1.2290 H     1 <1>   0.0800 
 44 H        6.0270     2.3520     1.1230 H     1 <1>   0.0800 
 45 H        3.5800    -6.1800     0.2690 H     1 <1>   0.0800 
 46 H        1.9640    -6.3780    -0.3700 H     1 <1>   0.0800 
 47 H        2.2110    -6.2230     1.3540 H     1 <1>   0.0800 
 48 H        6.4480     3.9580    -0.8860 H     1 <1>   0.0800 
 49 H        7.8140     3.7520    -1.9310 H     1 <1>   0.0800 
 50 H        9.2170     4.1880     2.8660 H     1 <1>   0.2700 
 51 H        9.5700     1.2480    -1.5600 H     1 <1>   0.1500 
 52 H       11.4430     2.4000     2.8740 H     1 <1>   0.1500 
 53 H       11.6070     0.1200    -0.7340 H     1 <1>   0.1500 
 54 H       12.5370     0.6870     1.4590 H     1 <1>   0.1500 
@<TRIPOS>BOND
  1   1   2  2   
  2   2   3  am  
  3   2   4  1   
  4   3   5  1   
  5   3   6  1   
  6   4   7  ar  
  7   4   8  ar  
  8   5   9  1   
  9   5  30  1   
 10   5  31  1   
 11   6  10  1   
 12   6  32  1   
 13   6  33  1   
 14   7  11  ar  
 15   7  12  1   
 16   8  13  ar  
 17   8  34  1   
 18   9  14  1   
 19   9  35  1   
 20   9  36  1   
 21  10  15  1   
 22  10  37  1   
 23  10  38  1   
 24  11  16  ar  
 25  12  39  1   
 26  12  40  1   
 27  12  41  1   
 28  13  16  ar  
 29  13  42  1   
 30  14  15  1   
 31  14  17  am  
 32  15  43  1   
 33  15  44  1   
 34  16  18  1   
 35  17  19  2   
 36  17  20  1   
 37  18  45  1   
 38  18  46  1   
 39  18  47  1   
 40  20  21  1   
 41  20  48  1   
 42  20  49  1   
 43  21  22  2   
 44  21  23  1   
 45  22  24  1   
 46  23  25  ar  
 47  23  26  ar  
 48  24  25  1   
 49  24  50  1   
 50  25  27  ar  
 51  26  28  ar  
 52  26  51  1   
 53  27  29  ar  
 54  27  52  1   
 55  28  29  ar  
 56  28  53  1   
 57  29  54  1   
@<TRIPOS>SUBSTRUCTURE
  1 ****  14 GROUP 4 **** **** 0

# MOE 2024.06 (io_trps.svl 2023.06)
