@<TRIPOS>MOLECULE
NONAME
46 48 1 0 0 
SMALL
USER_CHARGES


@<TRIPOS>ATOM
  1 O       -1.2980     0.4960     2.5890 O.2   1 <1>  -0.5700 
  2 C       -1.5920     1.0010     1.5210 C.2   1 <1>   0.5440 
  3 N       -2.1850     0.2000     0.5720 N.am  1 <1>  -0.6600 
  4 C       -1.3770     2.4190     1.3140 C.ar  1 <1>   0.0860 
  5 C       -2.8560     0.6690    -0.6640 C.3   1 <1>   0.1400 
  6 C       -2.3820    -1.2590     0.7460 C.3   1 <1>   0.1400 
  7 C       -0.6170     2.9300     0.2510 C.ar  1 <1>   0.0830 
  8 C       -1.9380     3.3290     2.2110 C.ar  1 <1>  -0.1500 
  9 C       -3.8960    -0.4130    -0.9490 C.3   1 <1>   0.2000 
 10 C       -3.2140    -1.6990    -0.4660 C.3   1 <1>  -0.0800 
 11 O       -0.0470     2.0470    -0.6040 O.3   1 <1>  -0.3630 
 12 C       -0.4590     4.3070     0.1000 C.ar  1 <1>  -0.1500 
 13 C       -1.7770     4.6920     2.0590 C.ar  1 <1>  -0.1500 
 14 O       -5.0080    -0.1550    -0.1620 O.3   1 <1>  -0.6800 
 15 C       -4.1620    -2.8770    -0.1750 C.3   1 <1>  -0.0170 
 16 C        0.8880     2.4250    -1.5860 C.3   1 <1>   0.1200 
 17 C       -1.0380     5.1830     0.9980 C.ar  1 <1>  -0.1500 
 18 C       -3.3780    -4.1270     0.1970 C.ar  1 <1>  -0.1430 
 19 C        1.3730     1.1570    -2.2810 C.3   1 <1>  -0.2400 
 20 C       -2.8670    -4.9750    -0.7640 C.ar  1 <1>  -0.1500 
 21 C       -3.1350    -4.4760     1.5100 C.ar  1 <1>  -0.1500 
 22 C       -2.1550    -6.0990    -0.3770 C.ar  1 <1>   0.1600 
 23 C       -2.4100    -5.6230     1.7900 C.ar  1 <1>   0.1600 
 24 N       -1.9150    -6.4430     0.8780 N.ar  1 <1>  -0.6200 
 25 H       -3.3070     1.6390    -0.5400 H     1 <1>   0.0800 
 26 H       -2.1340     0.7030    -1.4610 H     1 <1>   0.0800 
 27 H       -1.4330    -1.7670     0.7800 H     1 <1>   0.0800 
 28 H       -2.9120    -1.4330     1.6670 H     1 <1>   0.0800 
 29 H       -2.5070     2.9480     3.0420 H     1 <1>   0.1500 
 30 H       -4.2030    -0.4480    -1.9800 H     1 <1>   0.0800 
 31 H       -2.5220    -2.0040    -1.2310 H     1 <1>   0.0800 
 32 H        0.1120     4.7170    -0.7110 H     1 <1>   0.1500 
 33 H       -2.2240     5.3720     2.7650 H     1 <1>   0.1500 
 34 H       -4.7000     0.0340     0.7480 H     1 <1>   0.4000 
 35 H       -4.7600    -3.0770    -1.0470 H     1 <1>   0.0800 
 36 H       -4.8360    -2.6270     0.6250 H     1 <1>   0.0800 
 37 H        0.4030     3.0810    -2.2880 H     1 <1>   0.0800 
 38 H        1.7060     2.9320    -1.1020 H     1 <1>   0.0800 
 39 H       -0.9120     6.2450     0.8770 H     1 <1>   0.1500 
 40 H        0.5480     0.6510    -2.7480 H     1 <1>   0.0800 
 41 H        1.8380     0.5010    -1.5660 H     1 <1>   0.0800 
 42 H        2.0950     1.4080    -3.0360 H     1 <1>   0.0800 
 43 H       -3.0140    -4.7740    -1.8090 H     1 <1>   0.1500 
 44 H       -3.5000    -3.8690     2.3180 H     1 <1>   0.1500 
 45 H       -1.7640    -6.7490    -1.1400 H     1 <1>   0.1500 
 46 H       -2.2290    -5.8780     2.8200 H     1 <1>   0.1500 
@<TRIPOS>BOND
  1   1   2  2   
  2   2   3  am  
  3   2   4  1   
  4   3   5  1   
  5   3   6  1   
  6   4   7  ar  
  7   4   8  ar  
  8   5   9  1   
  9   5  25  1   
 10   5  26  1   
 11   6  10  1   
 12   6  27  1   
 13   6  28  1   
 14   7  11  1   
 15   7  12  ar  
 16   8  13  ar  
 17   8  29  1   
 18   9  10  1   
 19   9  14  1   
 20   9  30  1   
 21  10  15  1   
 22  10  31  1   
 23  11  16  1   
 24  12  17  ar  
 25  12  32  1   
 26  13  17  ar  
 27  13  33  1   
 28  14  34  1   
 29  15  18  1   
 30  15  35  1   
 31  15  36  1   
 32  16  19  1   
 33  16  37  1   
 34  16  38  1   
 35  17  39  1   
 36  18  20  ar  
 37  18  21  ar  
 38  19  40  1   
 39  19  41  1   
 40  19  42  1   
 41  20  22  ar  
 42  20  43  1   
 43  21  23  ar  
 44  21  44  1   
 45  22  24  ar  
 46  22  45  1   
 47  23  24  ar  
 48  23  46  1   
@<TRIPOS>SUBSTRUCTURE
  1 ****   3 GROUP 4 **** **** 0

# MOE 2024.06 (io_trps.svl 2023.06)
