@<TRIPOS>MOLECULE
NONAME
40 41 1 0 0 
SMALL
USER_CHARGES


@<TRIPOS>ATOM
  1 CL      -2.8110    -0.2840     2.6250 Cl    1 <1>  -0.1770 
  2 C       -2.9800     0.9770     1.4300 C.ar  1 <1>   0.1770 
  3 C       -2.6140     2.2660     1.7460 C.ar  1 <1>  -0.1500 
  4 C       -3.4780     0.6600     0.1840 C.ar  1 <1>  -0.1500 
  5 C       -2.7320     3.3070     0.8170 C.ar  1 <1>   0.0860 
  6 C       -3.6090     1.6620    -0.7570 C.ar  1 <1>  -0.1500 
  7 C       -3.2460     2.9770    -0.4560 C.ar  1 <1>   0.0830 
  8 C       -2.3190     4.6450     1.2220 C.2   1 <1>   0.5440 
  9 O       -3.3870     3.9600    -1.3840 O.3   1 <1>  -0.3630 
 10 O       -2.1600     4.9020     2.3970 O.2   1 <1>  -0.5700 
 11 N       -2.0980     5.6300     0.2940 N.am  1 <1>  -0.4940 
 12 C       -4.0040     3.7560    -2.6410 C.3   1 <1>   0.0400 
 13 C       -1.6080     6.9100     0.4330 C.2   1 <1>   0.4420 
 14 S       -1.6040     7.8960    -0.9950 S.3   1 <1>  -0.0800 
 15 N       -1.1300     7.5360     1.4490 N.2   1 <1>  -0.3380 
 16 C       -0.9140     9.1560    -0.0330 C.2   1 <1>   0.1980 
 17 N       -0.7370     8.8150     1.1760 N.2   1 <1>  -0.3380 
 18 C       -0.6000    10.4830    -0.6850 C.3   1 <1>   0.0200 
 19 C        0.0180    11.4130     0.3660 C.3   1 <1>   0.3430 
 20 N        0.4290    12.7450    -0.1930 N.4   1 <1>  -0.9590 
 21 C        1.2610    13.4730     0.8160 C.3   1 <1>   0.2630 
 22 C       -0.7460    13.5880    -0.5890 C.3   1 <1>   0.2630 
 23 H       -2.2310     2.4660     2.7320 H     1 <1>   0.1500 
 24 H       -3.7550    -0.3560    -0.0380 H     1 <1>   0.1500 
 25 H       -3.9980     1.3910    -1.7200 H     1 <1>   0.1500 
 26 H       -2.3830     5.3630    -0.6490 H     1 <1>   0.3700 
 27 H       -4.0390     4.6990    -3.1560 H     1 <1>   0.0800 
 28 H       -5.0040     3.3910    -2.4860 H     1 <1>   0.0800 
 29 H       -3.4210     3.0530    -3.2100 H     1 <1>   0.0800 
 30 H       -1.5130    10.8970    -1.0720 H     1 <1>   0.0800 
 31 H        0.0930    10.3160    -1.4890 H     1 <1>   0.0800 
 32 H        0.8820    10.9170     0.7820 H     1 <1>   0.0800 
 33 H       -0.6880    11.5530     1.1700 H     1 <1>   0.0800 
 34 H        1.0180    12.5840    -1.0250 H     1 <1>   0.4500 
 35 H        0.6890    13.6600     1.7100 H     1 <1>   0.0800 
 36 H        1.5950    14.4170     0.4160 H     1 <1>   0.0800 
 37 H        2.1280    12.8880     1.0790 H     1 <1>   0.0800 
 38 H       -1.3870    13.7600     0.2610 H     1 <1>   0.0800 
 39 H       -1.3190    13.1020    -1.3610 H     1 <1>   0.0800 
 40 H       -0.4110    14.5420    -0.9640 H     1 <1>   0.0800 
@<TRIPOS>BOND
  1   1   2  1   
  2   2   3  ar  
  3   2   4  ar  
  4   3   5  ar  
  5   3  23  1   
  6   4   6  ar  
  7   4  24  1   
  8   5   7  ar  
  9   5   8  1   
 10   6   7  ar  
 11   6  25  1   
 12   7   9  1   
 13   8  10  2   
 14   8  11  am  
 15   9  12  1   
 16  11  13  1   
 17  11  26  1   
 18  12  27  1   
 19  12  28  1   
 20  12  29  1   
 21  13  14  1   
 22  13  15  2   
 23  14  16  1   
 24  15  17  1   
 25  16  17  2   
 26  16  18  1   
 27  18  19  1   
 28  18  30  1   
 29  18  31  1   
 30  19  20  1   
 31  19  32  1   
 32  19  33  1   
 33  20  21  1   
 34  20  22  1   
 35  20  34  1   
 36  21  35  1   
 37  21  36  1   
 38  21  37  1   
 39  22  38  1   
 40  22  39  1   
 41  22  40  1   
@<TRIPOS>SUBSTRUCTURE
  1 ****  11 GROUP 4 **** **** 0

# MOE 2024.06 (io_trps.svl 2023.06)
