@<TRIPOS>MOLECULE
NONAME
52 54 1 0 0 
SMALL
USER_CHARGES


@<TRIPOS>ATOM
  1 O       -1.0000     0.1560    -1.1840 O.2   1 <1>  -0.5700 
  2 C       -1.8930     0.9190    -0.8670 C.2   1 <1>   0.6160 
  3 N       -3.1870     0.4260    -0.9090 N.am  1 <1>  -0.6600 
  4 C       -1.5650     2.2520    -0.4360 C.2   1 <1>   0.0290 
  5 C       -4.3760     1.1720    -0.3800 C.3   1 <1>   0.1400 
  6 C       -3.4940    -0.7700    -1.7640 C.3   1 <1>   0.1400 
  7 C       -2.1240     3.3340    -1.1910 C.2   1 <1>   0.6160 
  8 C       -0.7370     2.5480     0.6290 C.2   1 <1>  -0.1380 
  9 C       -5.4180     0.2500     0.3060 C.3   1 <1>   0.4230 
 10 C       -4.8070    -1.4720    -1.3670 C.3   1 <1>   0.3430 
 11 O       -2.9200     3.1950    -2.1100 O.2   1 <1>  -0.5700 
 12 N       -1.8000     4.6160    -0.8480 N.am  1 <1>  -0.5390 
 13 C       -0.4480     3.8970     0.9370 C.2   1 <1>  -0.1500 
 14 C       -0.0800     1.4930     1.5130 C.3   1 <1>  -0.1020 
 15 N       -5.1320    -1.2220     0.0800 N.4   1 <1>  -0.9590 
 16 C       -6.8480     0.6210    -0.1510 C.3   1 <1>   0.1200 
 17 C       -0.9760     4.9120     0.1990 C.2   1 <1>  -0.0290 
 18 C       -6.2340    -2.0660     0.6550 C.3   1 <1>   0.4230 
 19 O       -7.7930    -0.2290     0.4310 O.3   1 <1>  -0.5600 
 20 C       -0.6960     6.3760     0.4700 C.3   1 <1>  -0.1020 
 21 C       -7.6200    -1.5910     0.1570 C.3   1 <1>   0.1200 
 22 C       -5.9770    -3.5570     0.3830 C.3   1 <1>  -0.1600 
 23 C       -6.8460    -4.4710     1.2610 C.3   1 <1>  -0.1600 
 24 C       -6.5050    -5.9440     1.0190 C.3   1 <1>  -0.2400 
 25 H       -4.0640     1.9190     0.3300 H     1 <1>   0.0800 
 26 H       -4.8360     1.6960    -1.2010 H     1 <1>   0.0800 
 27 H       -3.5420    -0.4670    -2.7960 H     1 <1>   0.0800 
 28 H       -2.6920    -1.4840    -1.6800 H     1 <1>   0.0800 
 29 H       -5.3710     0.4470     1.3640 H     1 <1>   0.0800 
 30 H       -4.7010    -2.5260    -1.5600 H     1 <1>   0.0800 
 31 H       -5.6060    -1.1030    -1.9880 H     1 <1>   0.0800 
 32 H       -2.2040     5.3400    -1.4450 H     1 <1>   0.3700 
 33 H        0.2060     4.1060     1.7660 H     1 <1>   0.1500 
 34 H       -0.1800     1.7610     2.5490 H     1 <1>   0.0800 
 35 H        0.9670     1.4260     1.2750 H     1 <1>   0.0800 
 36 H       -0.5170     0.5210     1.3770 H     1 <1>   0.0800 
 37 H       -4.2640    -1.4210     0.5960 H     1 <1>   0.4500 
 38 H       -6.9480     0.5620    -1.2210 H     1 <1>   0.0800 
 39 H       -7.0860     1.6250     0.1560 H     1 <1>   0.0800 
 40 H       -6.2300    -1.9340     1.7250 H     1 <1>   0.0800 
 41 H       -0.2300     6.8260    -0.3890 H     1 <1>   0.0800 
 42 H       -0.0370     6.4870     1.3120 H     1 <1>   0.0800 
 43 H       -1.6140     6.8940     0.6820 H     1 <1>   0.0800 
 44 H       -8.4030    -2.1200     0.6710 H     1 <1>   0.0800 
 45 H       -7.7360    -1.7520    -0.9000 H     1 <1>   0.0800 
 46 H       -6.1750    -3.7880    -0.6490 H     1 <1>   0.0800 
 47 H       -4.9450    -3.7790     0.5940 H     1 <1>   0.0800 
 48 H       -6.6860    -4.2450     2.3030 H     1 <1>   0.0800 
 49 H       -7.8910    -4.3240     1.0460 H     1 <1>   0.0800 
 50 H       -5.4750    -6.1430     1.2600 H     1 <1>   0.0800 
 51 H       -6.6800    -6.2130    -0.0080 H     1 <1>   0.0800 
 52 H       -7.1210    -6.5700     1.6410 H     1 <1>   0.0800 
@<TRIPOS>BOND
  1   1   2  2   
  2   2   3  am  
  3   2   4  1   
  4   3   5  1   
  5   3   6  1   
  6   4   7  1   
  7   4   8  2   
  8   5   9  1   
  9   5  25  1   
 10   5  26  1   
 11   6  10  1   
 12   6  27  1   
 13   6  28  1   
 14   7  11  2   
 15   7  12  am  
 16   8  13  1   
 17   8  14  1   
 18   9  15  1   
 19   9  16  1   
 20   9  29  1   
 21  10  15  1   
 22  10  30  1   
 23  10  31  1   
 24  12  17  1   
 25  12  32  1   
 26  13  17  2   
 27  13  33  1   
 28  14  34  1   
 29  14  35  1   
 30  14  36  1   
 31  15  18  1   
 32  15  37  1   
 33  16  19  1   
 34  16  38  1   
 35  16  39  1   
 36  17  20  1   
 37  18  21  1   
 38  18  22  1   
 39  18  40  1   
 40  19  21  1   
 41  20  41  1   
 42  20  42  1   
 43  20  43  1   
 44  21  44  1   
 45  21  45  1   
 46  22  23  1   
 47  22  46  1   
 48  22  47  1   
 49  23  24  1   
 50  23  48  1   
 51  23  49  1   
 52  24  50  1   
 53  24  51  1   
 54  24  52  1   
@<TRIPOS>SUBSTRUCTURE
  1 ****   5 GROUP 4 **** **** 0

# MOE 2024.06 (io_trps.svl 2023.06)
