@<TRIPOS>MOLECULE
NONAME
37 39 1 0 0 
SMALL
USER_CHARGES


@<TRIPOS>ATOM
  1 CL      -1.0670    -0.2970    -0.3910 Cl    1 <1>  -0.1770 
  2 C       -2.2730     0.9390    -0.1170 C.ar  1 <1>   0.1770 
  3 C       -3.5960     0.5870     0.0880 C.ar  1 <1>   0.1600 
  4 C       -1.8950     2.2630    -0.1060 C.ar  1 <1>  -0.1500 
  5 N       -4.5810     1.4510     0.3020 N.ar  1 <1>  -0.6200 
  6 C       -2.9150     3.1570     0.1170 C.ar  1 <1>   0.1900 
  7 C       -4.2510     2.7460     0.3120 C.ar  1 <1>   0.4100 
  8 F       -2.5870     4.4280     0.1510 F     1 <1>  -0.1900 
  9 N       -5.3030     3.6420     0.5260 N.pl3 1 <1>  -0.8380 
 10 C       -6.5550     3.2250     1.2320 C.3   1 <1>   0.2090 
 11 C       -5.3950     4.9100    -0.2580 C.3   1 <1>   0.2090 
 12 C       -7.7380     3.0380     0.2490 C.3   1 <1>   0.0000 
 13 C       -6.8510     5.3030    -0.5570 C.3   1 <1>  -0.1600 
 14 C       -9.0640     3.0800     1.0340 C.3   1 <1>   0.2000 
 15 C       -7.6870     4.0670    -0.9230 C.3   1 <1>  -0.1600 
 16 C       -7.8010     1.6150    -0.3330 C.3   1 <1>  -0.1600 
 17 O       -9.5040     4.3700     1.2690 O.3   1 <1>  -0.6800 
 18 C      -10.0870     2.3060     0.2000 C.3   1 <1>  -0.1600 
 19 C       -9.2650     1.4030    -0.7300 C.3   1 <1>  -0.1600 
 20 H       -3.8530    -0.4580     0.0750 H     1 <1>   0.1500 
 21 H       -0.8780     2.5720    -0.2560 H     1 <1>   0.1500 
 22 H       -6.3900     2.3280     1.8020 H     1 <1>   0.0800 
 23 H       -6.8050     3.9990     1.9360 H     1 <1>   0.0800 
 24 H       -4.9120     5.7030     0.2870 H     1 <1>   0.0800 
 25 H       -4.8740     4.7770    -1.1910 H     1 <1>   0.0800 
 26 H       -7.2700     5.7920     0.3050 H     1 <1>   0.0800 
 27 H       -6.8630     6.0100    -1.3670 H     1 <1>   0.0800 
 28 H       -8.9440     2.5930     1.9880 H     1 <1>   0.0800 
 29 H       -7.2120     3.6150    -1.7770 H     1 <1>   0.0800 
 30 H       -8.6720     4.3580    -1.2380 H     1 <1>   0.0800 
 31 H       -7.1240     1.4690    -1.1560 H     1 <1>   0.0800 
 32 H       -7.5440     0.9020     0.4320 H     1 <1>   0.0800 
 33 H       -9.5310     4.8570     0.4250 H     1 <1>   0.4000 
 34 H      -10.7140     1.7170     0.8460 H     1 <1>   0.0800 
 35 H      -10.7000     2.9700    -0.3840 H     1 <1>   0.0800 
 36 H       -9.5470     0.3680    -0.6340 H     1 <1>   0.0800 
 37 H       -9.4110     1.7090    -1.7520 H     1 <1>   0.0800 
@<TRIPOS>BOND
  1   1   2  1   
  2   2   3  ar  
  3   2   4  ar  
  4   3   5  ar  
  5   3  20  1   
  6   4   6  ar  
  7   4  21  1   
  8   5   7  ar  
  9   6   7  ar  
 10   6   8  1   
 11   7   9  1   
 12   9  10  1   
 13   9  11  1   
 14  10  12  1   
 15  10  22  1   
 16  10  23  1   
 17  11  13  1   
 18  11  24  1   
 19  11  25  1   
 20  12  14  1   
 21  12  15  1   
 22  12  16  1   
 23  13  15  1   
 24  13  26  1   
 25  13  27  1   
 26  14  17  1   
 27  14  18  1   
 28  14  28  1   
 29  15  29  1   
 30  15  30  1   
 31  16  19  1   
 32  16  31  1   
 33  16  32  1   
 34  17  33  1   
 35  18  19  1   
 36  18  34  1   
 37  18  35  1   
 38  19  36  1   
 39  19  37  1   
@<TRIPOS>SUBSTRUCTURE
  1 ****   9 GROUP 4 **** **** 0

# MOE 2024.06 (io_trps.svl 2023.06)
