@<TRIPOS>MOLECULE
NONAME
49 52 1 0 0 
SMALL
USER_CHARGES


@<TRIPOS>ATOM
  1 S        1.0990    -0.7030     2.7860 S.3   1 <1>  -0.0800 
  2 C        0.4710    -0.5130     1.1580 C.2   1 <1>   0.3250 
  3 C        0.9660    -2.4190     2.6340 C.2   1 <1>  -0.1100 
  4 N        0.2150    -1.6420     0.6000 N.2   1 <1>  -0.5650 
  5 C        0.2890     0.8150     0.6130 C.ar  1 <1>   0.0530 
  6 C        0.4700    -2.7490     1.4220 C.2   1 <1>   0.1410 
  7 C        0.2190     0.9970    -0.7680 C.ar  1 <1>  -0.1500 
  8 C        0.1520     1.9530     1.4130 C.ar  1 <1>  -0.1500 
  9 C        0.2280    -4.1320     1.0010 C.2   1 <1>   0.7160 
 10 C        0.0090     2.2430    -1.3280 C.ar  1 <1>  -0.1500 
 11 C       -0.0530     3.2040     0.8600 C.ar  1 <1>  -0.1500 
 12 O        0.8320    -5.0090     1.5970 O.2   1 <1>  -0.5700 
 13 N       -0.6270    -4.5400    -0.0170 N.am  1 <1>  -0.6600 
 14 C       -0.1280     3.3520    -0.5130 C.ar  1 <1>  -0.1500 
 15 C       -1.9460    -3.9520    -0.4040 C.3   1 <1>   0.2200 
 16 C       -0.3510    -5.8300    -0.7150 C.3   1 <1>   0.0600 
 17 C       -2.7070    -3.1690     0.6710 C.3   1 <1>  -0.1600 
 18 C       -1.8310    -3.0330    -1.6120 C.3   1 <1>  -0.1600 
 19 C       -3.5100    -2.0900    -0.0780 C.3   1 <1>  -0.0800 
 20 C       -3.0900    -2.1630    -1.5620 C.3   1 <1>  -0.0800 
 21 C       -3.3380    -0.6900     0.5380 C.3   1 <1>   0.1400 
 22 C       -2.8940    -0.7920    -2.2430 C.3   1 <1>  -0.0990 
 23 N       -3.9970     0.3140    -0.3330 N.am  1 <1>  -0.6600 
 24 C       -3.8300     0.2630    -1.6890 C.2   1 <1>   0.5690 
 25 C       -4.7750     1.3840     0.3430 C.3   1 <1>   0.0600 
 26 O       -4.3750     1.0220    -2.4550 O.2   1 <1>  -0.5700 
 27 H        1.2680    -3.0340     3.4630 H     1 <1>   0.1500 
 28 H        0.3310     0.1420    -1.4120 H     1 <1>   0.1500 
 29 H        0.1980     1.8680     2.4840 H     1 <1>   0.1500 
 30 H       -0.0500     2.3530    -2.3970 H     1 <1>   0.1500 
 31 H       -0.1570     4.0660     1.4960 H     1 <1>   0.1500 
 32 H       -0.2930     4.3230    -0.9460 H     1 <1>   0.1500 
 33 H       -2.5980    -4.7610    -0.6920 H     1 <1>   0.0800 
 34 H       -0.5430    -5.7300    -1.7680 H     1 <1>   0.0800 
 35 H       -0.9790    -6.6040    -0.3080 H     1 <1>   0.0800 
 36 H        0.6790    -6.1180    -0.5860 H     1 <1>   0.0800 
 37 H       -3.3700    -3.8290     1.2010 H     1 <1>   0.0800 
 38 H       -2.0600    -2.7070     1.3860 H     1 <1>   0.0800 
 39 H       -0.9500    -2.4270    -1.5250 H     1 <1>   0.0800 
 40 H       -1.7800    -3.5930    -2.5290 H     1 <1>   0.0800 
 41 H       -4.5570    -2.3380    -0.0130 H     1 <1>   0.0800 
 42 H       -3.8770    -2.6820    -2.0840 H     1 <1>   0.0800 
 43 H       -2.2940    -0.4440     0.6180 H     1 <1>   0.0800 
 44 H       -3.7720    -0.6700     1.5230 H     1 <1>   0.0800 
 45 H       -3.0420    -0.8830    -3.3040 H     1 <1>   0.0800 
 46 H       -1.8970    -0.4330    -2.0800 H     1 <1>   0.0800 
 47 H       -5.5870     0.9480     0.8980 H     1 <1>   0.0800 
 48 H       -5.1810     2.0690    -0.3810 H     1 <1>   0.0800 
 49 H       -4.1340     1.9290     1.0130 H     1 <1>   0.0800 
@<TRIPOS>BOND
  1   1   2  1   
  2   1   3  1   
  3   2   4  2   
  4   2   5  1   
  5   3   6  2   
  6   3  27  1   
  7   4   6  1   
  8   5   7  ar  
  9   5   8  ar  
 10   6   9  1   
 11   7  10  ar  
 12   7  28  1   
 13   8  11  ar  
 14   8  29  1   
 15   9  12  2   
 16   9  13  am  
 17  10  14  ar  
 18  10  30  1   
 19  11  14  ar  
 20  11  31  1   
 21  13  15  1   
 22  13  16  1   
 23  14  32  1   
 24  15  17  1   
 25  15  18  1   
 26  15  33  1   
 27  16  34  1   
 28  16  35  1   
 29  16  36  1   
 30  17  19  1   
 31  17  37  1   
 32  17  38  1   
 33  18  20  1   
 34  18  39  1   
 35  18  40  1   
 36  19  20  1   
 37  19  21  1   
 38  19  41  1   
 39  20  22  1   
 40  20  42  1   
 41  21  23  1   
 42  21  43  1   
 43  21  44  1   
 44  22  24  1   
 45  22  45  1   
 46  22  46  1   
 47  23  24  am  
 48  23  25  1   
 49  24  26  2   
 50  25  47  1   
 51  25  48  1   
 52  25  49  1   
@<TRIPOS>SUBSTRUCTURE
  1 ****   4 GROUP 4 **** **** 0

# MOE 2024.06 (io_trps.svl 2023.06)
