@<TRIPOS>MOLECULE
NONAME
46 47 1 0 0 
SMALL
USER_CHARGES


@<TRIPOS>ATOM
  1 S        0.3910     0.0540    -1.0460 S.o2  1 <1>   1.3330 
  2 O       -0.6470     0.7920    -1.7290 O.2   1 <1>  -0.6500 
  3 O        0.7620    -1.2620    -1.5140 O.2   1 <1>  -0.6500 
  4 N       -0.0790    -0.0850     0.5810 N.am  1 <1>  -0.8490 
  5 C        1.8780     1.0580    -0.9750 C.3   1 <1>  -0.0550 
  6 C       -0.8460     1.0680     1.0650 C.3   1 <1>   0.1160 
  7 C       -0.8290    -1.3190     0.8360 C.3   1 <1>   0.1160 
  8 C        3.0820     0.3600    -0.3080 C.3   1 <1>  -0.0800 
  9 C        4.3990     1.1140    -0.4180 C.3   1 <1>   0.2200 
 10 C        2.9510     0.1250     1.2030 C.3   1 <1>   0.1200 
 11 N        4.2060     2.5600    -0.1570 N.am  1 <1>  -0.7300 
 12 C        5.1620     0.5080     0.7510 C.3   1 <1>   0.1200 
 13 O        4.2100     0.3720     1.7610 O.3   1 <1>  -0.5600 
 14 C        4.2210     3.5270    -1.1030 C.2   1 <1>   0.5690 
 15 O        4.2840     3.2680    -2.2780 O.2   1 <1>  -0.5700 
 16 C        4.1590     4.9770    -0.6680 C.3   1 <1>  -0.0990 
 17 C        5.5120     5.4590    -0.1220 C.3   1 <1>  -0.1600 
 18 C        5.4780     6.9500     0.2440 C.3   1 <1>   0.0960 
 19 N        6.7540     7.3600     0.8590 N.pl3 1 <1>   0.3140 
 20 N        6.9900     7.2480     2.1570 N.2   1 <1>  -0.7070 
 21 C        7.8390     7.8710     0.2700 C.2   1 <1>   0.0360 
 22 C        8.1970     7.6980     2.2600 C.2   1 <1>   0.3660 
 23 N        8.7740     8.0990     1.1190 N.2   1 <1>  -0.5650 
 24 H        2.1580     1.3100    -1.9800 H     1 <1>   0.0800 
 25 H        1.6610     1.9760    -0.4670 H     1 <1>   0.0800 
 26 H       -1.0370     0.9680     2.1200 H     1 <1>   0.0800 
 27 H       -1.7870     1.1400     0.5440 H     1 <1>   0.0800 
 28 H       -0.2940     1.9770     0.9040 H     1 <1>   0.0800 
 29 H       -1.1030    -1.3830     1.8750 H     1 <1>   0.0800 
 30 H       -0.2220    -2.1770     0.5960 H     1 <1>   0.0800 
 31 H       -1.7200    -1.3470     0.2300 H     1 <1>   0.0800 
 32 H        3.2170    -0.6010    -0.7740 H     1 <1>   0.0800 
 33 H        4.8950     0.9570    -1.3610 H     1 <1>   0.0800 
 34 H        2.6600    -0.8880     1.4250 H     1 <1>   0.0800 
 35 H        2.2560     0.8090     1.6580 H     1 <1>   0.0800 
 36 H        4.1460     2.7920     0.8380 H     1 <1>   0.3700 
 37 H        5.9710     1.1290     1.0920 H     1 <1>   0.0800 
 38 H        5.5280    -0.4730     0.5040 H     1 <1>   0.0800 
 39 H        3.8760     5.5710    -1.5190 H     1 <1>   0.0800 
 40 H        3.3950     5.0830     0.0800 H     1 <1>   0.0800 
 41 H        6.2720     5.2910    -0.8670 H     1 <1>   0.0800 
 42 H        5.7650     4.8860     0.7550 H     1 <1>   0.0800 
 43 H        4.6930     7.1400     0.9540 H     1 <1>   0.0800 
 44 H        5.3060     7.5500    -0.6310 H     1 <1>   0.0800 
 45 H        7.9020     8.0570    -0.7870 H     1 <1>   0.1500 
 46 H        8.7290     7.7570     3.1960 H     1 <1>   0.1500 
@<TRIPOS>BOND
  1   1   2  2   
  2   1   3  2   
  3   1   4  am  
  4   1   5  1   
  5   4   6  1   
  6   4   7  1   
  7   5   8  1   
  8   5  24  1   
  9   5  25  1   
 10   6  26  1   
 11   6  27  1   
 12   6  28  1   
 13   7  29  1   
 14   7  30  1   
 15   7  31  1   
 16   8   9  1   
 17   8  10  1   
 18   8  32  1   
 19   9  11  1   
 20   9  12  1   
 21   9  33  1   
 22  10  13  1   
 23  10  34  1   
 24  10  35  1   
 25  11  14  am  
 26  11  36  1   
 27  12  13  1   
 28  12  37  1   
 29  12  38  1   
 30  14  15  2   
 31  14  16  1   
 32  16  17  1   
 33  16  39  1   
 34  16  40  1   
 35  17  18  1   
 36  17  41  1   
 37  17  42  1   
 38  18  19  1   
 39  18  43  1   
 40  18  44  1   
 41  19  20  1   
 42  19  21  1   
 43  20  22  2   
 44  21  23  2   
 45  21  45  1   
 46  22  23  1   
 47  22  46  1   
@<TRIPOS>SUBSTRUCTURE
  1 ****  11 GROUP 4 **** **** 0

# MOE 2024.06 (io_trps.svl 2023.06)
