@<TRIPOS>MOLECULE
NONAME
45 48 1 0 0 
SMALL
USER_CHARGES


@<TRIPOS>ATOM
  1 O       -3.6590    -0.9660     1.0660 O.2   1 <1>  -0.5700 
  2 C       -3.3250    -0.1000     0.2690 C.2   1 <1>   0.7670 
  3 N       -3.2220     1.1750     0.7660 N.2   1 <1>  -0.6610 
  4 C       -3.0650    -0.3850    -1.1110 C.2   1 <1>   0.0290 
  5 C       -2.9050     2.1190    -0.0350 C.2   1 <1>   0.5000 
  6 C       -3.1630    -1.7220    -1.6290 C.2   1 <1>   0.6160 
  7 C       -2.7370     0.6740    -1.9090 C.2   1 <1>  -0.0500 
  8 N       -2.6600     1.9170    -1.3610 N.pl3 1 <1>  -0.5500 
  9 C       -2.7790     3.5500     0.4590 C.3   1 <1>  -0.1000 
 10 O       -3.3160    -1.8970    -2.8230 O.2   1 <1>  -0.5700 
 11 N       -3.0870    -2.8290    -0.8360 N.am  1 <1>  -0.7300 
 12 C       -3.7880     4.1390     1.4010 C.3   1 <1>  -0.2000 
 13 C       -3.7270     4.6130    -0.0180 C.3   1 <1>  -0.2000 
 14 C       -3.3840    -4.2210    -1.2440 C.3   1 <1>   0.2200 
 15 C       -4.7150    -4.6800    -0.6630 C.3   1 <1>  -0.0800 
 16 C       -2.4240    -5.1680    -0.5350 C.3   1 <1>   0.1200 
 17 C       -4.3310    -5.1190     0.7530 C.3   1 <1>   0.1200 
 18 C       -5.8640    -3.6540    -0.7110 C.3   1 <1>  -0.0170 
 19 O       -2.9550    -5.3680     0.7410 O.3   1 <1>  -0.5600 
 20 C       -7.1420    -4.2420    -0.1370 C.ar  1 <1>  -0.1430 
 21 C       -7.5560    -3.9680     1.1510 C.ar  1 <1>  -0.1500 
 22 C       -7.9540    -5.0810    -0.8730 C.ar  1 <1>  -0.1500 
 23 C       -8.7260    -4.5350     1.6290 C.ar  1 <1>   0.1600 
 24 C       -9.1050    -5.5960    -0.2990 C.ar  1 <1>   0.1600 
 25 N       -9.5100    -5.3440     0.9350 N.ar  1 <1>  -0.6200 
 26 H       -2.5390     0.5550    -2.9640 H     1 <1>   0.1500 
 27 H       -2.4280     2.7410    -1.9250 H     1 <1>   0.4000 
 28 H       -1.7530     3.8260     0.6220 H     1 <1>   0.1000 
 29 H       -3.0710    -2.6900     0.1850 H     1 <1>   0.3700 
 30 H       -4.6150     3.5230     1.7130 H     1 <1>   0.1000 
 31 H       -3.4390     4.7860     2.1860 H     1 <1>   0.1000 
 32 H       -3.3490     5.6020    -0.2120 H     1 <1>   0.1000 
 33 H       -4.5410     4.3460    -0.6710 H     1 <1>   0.1000 
 34 H       -3.3380    -4.3250    -2.3150 H     1 <1>   0.0800 
 35 H       -5.0240    -5.5590    -1.1990 H     1 <1>   0.0800 
 36 H       -1.4290    -4.7670    -0.4550 H     1 <1>   0.0800 
 37 H       -2.3980    -6.1220    -1.0310 H     1 <1>   0.0800 
 38 H       -4.8500    -6.0130     1.0530 H     1 <1>   0.0800 
 39 H       -4.5100    -4.3360     1.4700 H     1 <1>   0.0800 
 40 H       -6.0340    -3.3540    -1.7300 H     1 <1>   0.0800 
 41 H       -5.6060    -2.7710    -0.1520 H     1 <1>   0.0800 
 42 H       -6.9810    -3.3200     1.7870 H     1 <1>   0.1500 
 43 H       -7.7020    -5.3380    -1.8850 H     1 <1>   0.1500 
 44 H       -9.0320    -4.3100     2.6360 H     1 <1>   0.1500 
 45 H       -9.7270    -6.2490    -0.8880 H     1 <1>   0.1500 
@<TRIPOS>BOND
  1   1   2  2   
  2   2   3  1   
  3   2   4  1   
  4   3   5  2   
  5   4   6  1   
  6   4   7  2   
  7   5   8  1   
  8   5   9  1   
  9   6  10  2   
 10   6  11  am  
 11   7   8  1   
 12   7  26  1   
 13   8  27  1   
 14   9  12  1   
 15   9  13  1   
 16   9  28  1   
 17  11  14  1   
 18  11  29  1   
 19  12  13  1   
 20  12  30  1   
 21  12  31  1   
 22  13  32  1   
 23  13  33  1   
 24  14  15  1   
 25  14  16  1   
 26  14  34  1   
 27  15  17  1   
 28  15  18  1   
 29  15  35  1   
 30  16  19  1   
 31  16  36  1   
 32  16  37  1   
 33  17  19  1   
 34  17  38  1   
 35  17  39  1   
 36  18  20  1   
 37  18  40  1   
 38  18  41  1   
 39  20  21  ar  
 40  20  22  ar  
 41  21  23  ar  
 42  21  42  1   
 43  22  24  ar  
 44  22  43  1   
 45  23  25  ar  
 46  23  44  1   
 47  24  25  ar  
 48  24  45  1   
@<TRIPOS>SUBSTRUCTURE
  1 ****   1 GROUP 4 **** **** 0

# MOE 2024.06 (io_trps.svl 2023.06)
