@<TRIPOS>MOLECULE
NONAME
54 57 1 0 0 
SMALL
USER_CHARGES


@<TRIPOS>ATOM
  1 O        0.8480     0.6690    -0.5620 O.3   1 <1>  -0.3630 
  2 C        1.7990    -0.2440    -0.2380 C.ar  1 <1>   0.0830 
  3 C        0.7570     1.7940     0.2860 C.3   1 <1>   0.1200 
  4 C        1.5630    -1.2160     0.7360 C.ar  1 <1>   0.0830 
  5 C        3.0280    -0.1950    -0.8850 C.ar  1 <1>  -0.1440 
  6 C        0.9710     3.0910    -0.5150 C.3   1 <1>  -0.1600 
  7 O        0.4000    -1.2780     1.4250 O.3   1 <1>  -0.3620 
  8 C        2.5510    -2.1360     1.0430 C.ar  1 <1>  -0.1500 
  9 C        4.0000    -1.1440    -0.5930 C.ar  1 <1>  -0.1500 
 10 C        3.3060     0.9160    -1.8820 C.3   1 <1>   0.3530 
 11 C        2.0670     3.0740    -1.5970 C.3   1 <1>   0.2090 
 12 C       -0.7340    -1.7120     0.7060 C.3   1 <1>   0.0400 
 13 C        3.7620    -2.1070     0.3730 C.ar  1 <1>  -0.1500 
 14 N        3.2440     2.2450    -1.1860 N.pl3 1 <1>  -0.8380 
 15 C        4.0630     2.6560    -0.1880 C.ar  1 <1>   0.7710 
 16 N        4.1750     3.9510     0.0650 N.ar  1 <1>  -0.6200 
 17 N        4.7120     1.7340     0.5440 N.ar  1 <1>  -0.1790 
 18 C        4.9900     4.3410     1.0270 C.ar  1 <1>   0.4100 
 19 C        5.5300     2.0820     1.5630 C.ar  1 <1>   0.2110 
 20 N        5.1380     5.6770     1.2320 N.pl3 1 <1>  -0.8380 
 21 C        5.6820     3.4020     1.8180 C.ar  1 <1>  -0.1500 
 22 C        6.4160     6.3200     1.6900 C.3   1 <1>   0.2090 
 23 C        4.1020     6.6730     0.8160 C.3   1 <1>   0.2090 
 24 C        6.9820     7.2410     0.5940 C.3   1 <1>   0.2000 
 25 C        4.6530     7.5500    -0.3140 C.3   1 <1>  -0.1600 
 26 O        8.0750     7.9310     1.0870 O.3   1 <1>  -0.6800 
 27 C        5.9520     8.2610     0.0970 C.3   1 <1>  -0.1600 
 28 H        1.4960     1.7090     1.0630 H     1 <1>   0.0800 
 29 H       -0.2180     1.7840     0.7420 H     1 <1>   0.0800 
 30 H        1.1930     3.8790     0.1830 H     1 <1>   0.0800 
 31 H        0.0420     3.3590    -0.9840 H     1 <1>   0.0800 
 32 H        2.3600    -2.8780     1.7990 H     1 <1>   0.1500 
 33 H        4.9430    -1.1530    -1.1160 H     1 <1>   0.1500 
 34 H        2.5780     0.8590    -2.6750 H     1 <1>   0.0800 
 35 H        4.2770     0.7920    -2.3300 H     1 <1>   0.0800 
 36 H        2.3840     4.0840    -1.8040 H     1 <1>   0.0800 
 37 H        1.6420     2.6900    -2.5090 H     1 <1>   0.0800 
 38 H       -1.5560    -1.7990     1.3940 H     1 <1>   0.0800 
 39 H       -0.5210    -2.6700     0.2650 H     1 <1>   0.0800 
 40 H       -0.9700    -0.9930    -0.0570 H     1 <1>   0.0800 
 41 H        4.5130    -2.8460     0.6020 H     1 <1>   0.1500 
 42 H        4.4550     0.7690     0.3360 H     1 <1>   0.4570 
 43 H        6.0170     1.3100     2.1380 H     1 <1>   0.1500 
 44 H        6.3030     3.7470     2.6220 H     1 <1>   0.1500 
 45 H        7.1610     5.5800     1.9170 H     1 <1>   0.0800 
 46 H        6.2150     6.8940     2.5770 H     1 <1>   0.0800 
 47 H        3.8480     7.2890     1.6620 H     1 <1>   0.0800 
 48 H        3.2010     6.1820     0.4900 H     1 <1>   0.0800 
 49 H        7.3280     6.6350    -0.2260 H     1 <1>   0.0800 
 50 H        3.9130     8.2810    -0.5870 H     1 <1>   0.0800 
 51 H        4.8320     6.9290    -1.1750 H     1 <1>   0.0800 
 52 H        7.7840     8.6770     1.6460 H     1 <1>   0.4000 
 53 H        6.3520     8.7950    -0.7470 H     1 <1>   0.0800 
 54 H        5.7280     8.9650     0.8800 H     1 <1>   0.0800 
@<TRIPOS>BOND
  1   1   2  1   
  2   1   3  1   
  3   2   4  ar  
  4   2   5  ar  
  5   3   6  1   
  6   3  28  1   
  7   3  29  1   
  8   4   7  1   
  9   4   8  ar  
 10   5   9  ar  
 11   5  10  1   
 12   6  11  1   
 13   6  30  1   
 14   6  31  1   
 15   7  12  1   
 16   8  13  ar  
 17   8  32  1   
 18   9  13  ar  
 19   9  33  1   
 20  10  14  1   
 21  10  34  1   
 22  10  35  1   
 23  11  14  1   
 24  11  36  1   
 25  11  37  1   
 26  12  38  1   
 27  12  39  1   
 28  12  40  1   
 29  13  41  1   
 30  14  15  1   
 31  15  16  ar  
 32  15  17  ar  
 33  16  18  ar  
 34  17  19  ar  
 35  17  42  1   
 36  18  20  1   
 37  18  21  ar  
 38  19  21  ar  
 39  19  43  1   
 40  20  22  1   
 41  20  23  1   
 42  21  44  1   
 43  22  24  1   
 44  22  45  1   
 45  22  46  1   
 46  23  25  1   
 47  23  47  1   
 48  23  48  1   
 49  24  26  1   
 50  24  27  1   
 51  24  49  1   
 52  25  27  1   
 53  25  50  1   
 54  25  51  1   
 55  26  52  1   
 56  27  53  1   
 57  27  54  1   
@<TRIPOS>SUBSTRUCTURE
  1 ****  15 GROUP 4 **** **** 0

# MOE 2024.06 (io_trps.svl 2023.06)
