@<TRIPOS>MOLECULE
NONAME
42 43 1 0 0 
SMALL
USER_CHARGES


@<TRIPOS>ATOM
  1 S        0.1230     0.5250    -1.2380 S.o2  1 <1>   1.3330 
  2 O       -0.7830     1.4890    -1.8190 O.2   1 <1>  -0.6500 
  3 O        0.3340    -0.7480    -1.8910 O.2   1 <1>  -0.6500 
  4 N       -0.4220     0.2130     0.3420 N.am  1 <1>  -0.8490 
  5 C        1.7260     1.2950    -0.9940 C.3   1 <1>  -0.0550 
  6 C       -1.3510    -0.9210     0.3900 C.3   1 <1>   0.1160 
  7 C       -1.0360     1.3800     0.9840 C.3   1 <1>   0.1160 
  8 C        2.8010     0.3510    -0.4120 C.3   1 <1>  -0.0800 
  9 C        4.2130     0.9190    -0.3950 C.3   1 <1>   0.2200 
 10 C        2.5840    -0.0670     1.0490 C.3   1 <1>   0.1200 
 11 N        4.2110     2.3300     0.0600 N.am  1 <1>  -0.7300 
 12 C        4.8400     0.0620     0.6950 C.3   1 <1>   0.1200 
 13 O        3.8430    -0.0590     1.6610 O.3   1 <1>  -0.5600 
 14 C        4.3690     3.4250    -0.7400 C.2   1 <1>   0.7150 
 15 O        4.3930     3.2450    -1.9430 O.2   1 <1>  -0.5700 
 16 C        4.4800     4.7410    -0.1490 C.2   1 <1>   0.0550 
 17 O        4.6130     5.8270    -0.9060 O.3   1 <1>  -0.2800 
 18 C        4.4770     5.1350     1.1570 C.2   1 <1>  -0.1500 
 19 C        4.6950     6.8880    -0.1360 C.2   1 <1>  -0.0400 
 20 C        4.6170     6.5230     1.1620 C.2   1 <1>  -0.1500 
 21 C        4.8560     8.2480    -0.7950 C.3   1 <1>   0.3000 
 22 O        4.6200     9.2460     0.1380 O.3   1 <1>  -0.6800 
 23 H        2.0750     1.6450    -1.9470 H     1 <1>   0.0800 
 24 H        1.6150     2.1540    -0.3630 H     1 <1>   0.0800 
 25 H       -1.6710    -1.1000     1.4030 H     1 <1>   0.0800 
 26 H       -0.8660    -1.8130     0.0300 H     1 <1>   0.0800 
 27 H       -2.2140    -0.7250    -0.2260 H     1 <1>   0.0800 
 28 H       -1.2790     1.1540     2.0080 H     1 <1>   0.0800 
 29 H       -1.9360     1.6670     0.4660 H     1 <1>   0.0800 
 30 H       -0.3540     2.2130     0.9740 H     1 <1>   0.0800 
 31 H        2.8190    -0.5470    -1.0060 H     1 <1>   0.0800 
 32 H        4.7180     0.8170    -1.3410 H     1 <1>   0.0800 
 33 H        2.1640    -1.0560     1.1220 H     1 <1>   0.0800 
 34 H        1.9610     0.6310     1.5800 H     1 <1>   0.0800 
 35 H        4.1550     2.4390     1.0730 H     1 <1>   0.3700 
 36 H        5.7180     0.5080     1.1280 H     1 <1>   0.0800 
 37 H        5.0690    -0.9230     0.3270 H     1 <1>   0.0800 
 38 H        4.3910     4.5260     2.0380 H     1 <1>   0.1500 
 39 H        4.6600     7.1510     2.0350 H     1 <1>   0.1500 
 40 H        4.1480     8.3630    -1.5960 H     1 <1>   0.0800 
 41 H        5.8540     8.3680    -1.1790 H     1 <1>   0.0800 
 42 H        3.7420     9.1050     0.5390 H     1 <1>   0.4000 
@<TRIPOS>BOND
  1   1   2  2   
  2   1   3  2   
  3   1   4  am  
  4   1   5  1   
  5   4   6  1   
  6   4   7  1   
  7   5   8  1   
  8   5  23  1   
  9   5  24  1   
 10   6  25  1   
 11   6  26  1   
 12   6  27  1   
 13   7  28  1   
 14   7  29  1   
 15   7  30  1   
 16   8   9  1   
 17   8  10  1   
 18   8  31  1   
 19   9  11  1   
 20   9  12  1   
 21   9  32  1   
 22  10  13  1   
 23  10  33  1   
 24  10  34  1   
 25  11  14  am  
 26  11  35  1   
 27  12  13  1   
 28  12  36  1   
 29  12  37  1   
 30  14  15  2   
 31  14  16  1   
 32  16  17  1   
 33  16  18  2   
 34  17  19  1   
 35  18  20  1   
 36  18  38  1   
 37  19  20  2   
 38  19  21  1   
 39  20  39  1   
 40  21  22  1   
 41  21  40  1   
 42  21  41  1   
 43  22  42  1   
@<TRIPOS>SUBSTRUCTURE
  1 ****  11 GROUP 4 **** **** 0

# MOE 2024.06 (io_trps.svl 2023.06)
