@<TRIPOS>MOLECULE
NONAME
54 56 1 0 0 
SMALL
USER_CHARGES


@<TRIPOS>ATOM
  1 O        0.0120    -0.0280     2.4550 O.2   1 <1>  -0.5700 
  2 C        0.5190    -0.6210     1.5320 C.2   1 <1>   0.5690 
  3 N        1.3070    -0.0070     0.6150 N.am  1 <1>  -0.7300 
  4 C        0.2720    -2.1240     1.3760 C.3   1 <1>   0.1710 
  5 C        1.7090     1.4150     0.6000 C.3   1 <1>   0.1400 
  6 N        0.4270    -2.6390    -0.0220 N.3   1 <1>  -0.8100 
  7 C        3.2350     1.5430     0.4800 C.3   1 <1>  -0.0800 
  8 C       -0.6650    -2.1870    -0.9050 C.3   1 <1>   0.1100 
  9 C        0.3470    -4.1040    -0.0530 C.3   1 <1>   0.1100 
 10 C        3.6420     3.0250     0.5690 C.3   1 <1>  -0.1600 
 11 C        3.7720     0.9160    -0.8240 C.3   1 <1>  -0.1600 
 12 C       -1.7670    -3.2530    -0.8560 C.3   1 <1>   0.2000 
 13 C       -1.1410    -4.4490    -0.1370 C.3   1 <1>  -0.0800 
 14 C        5.1600     3.2050     0.4380 C.3   1 <1>  -0.1600 
 15 C        5.2900     1.1030    -0.9580 C.3   1 <1>  -0.1600 
 16 O       -2.8530    -2.7940    -0.1290 O.3   1 <1>  -0.6800 
 17 C       -1.4120    -5.7870    -0.8430 C.3   1 <1>   0.0210 
 18 C        5.6810     2.5820    -0.8620 C.3   1 <1>  -0.1600 
 19 C       -0.6390    -6.9240    -0.2000 C.2   1 <1>   0.1080 
 20 N       -0.6790    -7.1800     1.0710 N.2   1 <1>  -0.7070 
 21 C        0.1930    -7.8030    -0.8850 C.2   1 <1>  -0.1500 
 22 N        0.1310    -8.2430     1.2310 N.pl3 1 <1>   0.3000 
 23 C        0.6730    -8.6370     0.0600 C.2   1 <1>  -0.3320 
 24 C        1.6290    -9.8070    -0.0850 C.3   1 <1>  -0.0600 
 25 H        1.6460    -0.5990    -0.1490 H     1 <1>   0.3700 
 26 H       -0.7100    -2.3480     1.7500 H     1 <1>   0.0800 
 27 H        0.9830    -2.6220     2.0110 H     1 <1>   0.0800 
 28 H        1.2310     1.9070    -0.2300 H     1 <1>   0.0800 
 29 H        1.3750     1.8880     1.5080 H     1 <1>   0.0800 
 30 H        3.6760     1.0290     1.3180 H     1 <1>   0.0800 
 31 H       -1.0320    -1.2100    -0.6400 H     1 <1>   0.0800 
 32 H       -0.2810    -2.1440    -1.9090 H     1 <1>   0.0800 
 33 H        0.8530    -4.4540    -0.9380 H     1 <1>   0.0800 
 34 H        0.8140    -4.5560     0.8060 H     1 <1>   0.0800 
 35 H        3.1550     3.5800    -0.2150 H     1 <1>   0.0800 
 36 H        3.3200     3.4330     1.5110 H     1 <1>   0.0800 
 37 H        3.5540    -0.1370    -0.8460 H     1 <1>   0.0800 
 38 H        3.2850     1.3730    -1.6690 H     1 <1>   0.0800 
 39 H       -2.1090    -3.4900    -1.8490 H     1 <1>   0.0800 
 40 H       -1.5150    -4.5180     0.8700 H     1 <1>   0.0800 
 41 H        5.4020     4.2540     0.4570 H     1 <1>   0.0800 
 42 H        5.6480     2.7380     1.2770 H     1 <1>   0.0800 
 43 H        5.7850     0.5530    -0.1760 H     1 <1>   0.0800 
 44 H        5.6200     0.7030    -1.9020 H     1 <1>   0.0800 
 45 H       -2.5710    -2.5590     0.7750 H     1 <1>   0.4000 
 46 H       -1.1390    -5.7180    -1.8800 H     1 <1>   0.0800 
 47 H       -2.4630    -6.0110    -0.7870 H     1 <1>   0.0800 
 48 H        6.7520     2.6750    -0.9030 H     1 <1>   0.0800 
 49 H        5.2710     3.1150    -1.7030 H     1 <1>   0.0800 
 50 H        0.3920    -7.7970    -1.9420 H     1 <1>   0.1500 
 51 H        0.2910    -8.6750     2.1490 H     1 <1>   0.2700 
 52 H        1.9210    -9.9200    -1.1150 H     1 <1>   0.0800 
 53 H        1.1560   -10.7170     0.2380 H     1 <1>   0.0800 
 54 H        2.5140    -9.6410     0.5040 H     1 <1>   0.0800 
@<TRIPOS>BOND
  1   1   2  2   
  2   2   3  am  
  3   2   4  1   
  4   3   5  1   
  5   3  25  1   
  6   4   6  1   
  7   4  26  1   
  8   4  27  1   
  9   5   7  1   
 10   5  28  1   
 11   5  29  1   
 12   6   8  1   
 13   6   9  1   
 14   7  10  1   
 15   7  11  1   
 16   7  30  1   
 17   8  12  1   
 18   8  31  1   
 19   8  32  1   
 20   9  13  1   
 21   9  33  1   
 22   9  34  1   
 23  10  14  1   
 24  10  35  1   
 25  10  36  1   
 26  11  15  1   
 27  11  37  1   
 28  11  38  1   
 29  12  13  1   
 30  12  16  1   
 31  12  39  1   
 32  13  17  1   
 33  13  40  1   
 34  14  18  1   
 35  14  41  1   
 36  14  42  1   
 37  15  18  1   
 38  15  43  1   
 39  15  44  1   
 40  16  45  1   
 41  17  19  1   
 42  17  46  1   
 43  17  47  1   
 44  18  48  1   
 45  18  49  1   
 46  19  20  2   
 47  19  21  1   
 48  20  22  1   
 49  21  23  2   
 50  21  50  1   
 51  22  23  1   
 52  22  51  1   
 53  23  24  1   
 54  24  52  1   
 55  24  53  1   
 56  24  54  1   
@<TRIPOS>SUBSTRUCTURE
  1 ****   6 GROUP 4 **** **** 0

# MOE 2024.06 (io_trps.svl 2023.06)
