@<TRIPOS>MOLECULE
NONAME
45 47 1 0 0 
SMALL
USER_CHARGES


@<TRIPOS>ATOM
  1 CL      -1.0310     0.7510    -3.1350 Cl    1 <1>  -0.1770 
  2 C       -1.6810     1.4170    -1.6580 C.ar  1 <1>   0.1770 
  3 C       -1.8490     2.7800    -1.5480 C.ar  1 <1>  -0.1500 
  4 C       -2.0100     0.5660    -0.6210 C.ar  1 <1>  -0.1500 
  5 C       -2.3530     3.3450    -0.3770 C.ar  1 <1>   0.0860 
  6 C       -2.5270     1.1050     0.5420 C.ar  1 <1>  -0.1500 
  7 C       -2.7150     2.4750     0.6680 C.ar  1 <1>   0.0820 
  8 C       -2.4410     4.7860    -0.3030 C.2   1 <1>   0.5440 
  9 O       -3.2430     2.8810     1.8470 O.3   1 <1>  -0.3630 
 10 O       -3.3590     5.3450    -0.8730 O.2   1 <1>  -0.5700 
 11 N       -1.5000     5.5380     0.3710 N.am  1 <1>  -0.6600 
 12 C       -4.2330     3.8890     1.8990 C.3   1 <1>   0.0400 
 13 C       -0.4170     4.9190     1.1970 C.3   1 <1>   0.1400 
 14 C       -1.4770     7.0290     0.2720 C.3   1 <1>   0.1400 
 15 C        0.8040     4.5430     0.3430 C.3   1 <1>   0.1400 
 16 C       -0.0830     7.5990    -0.0210 C.3   1 <1>  -0.1600 
 17 N        1.5620     5.7440    -0.1240 N.am  1 <1>  -0.6600 
 18 C        0.7850     6.7280    -0.9360 C.3   1 <1>   0.1400 
 19 C        2.9020     5.9330     0.2040 C.2   1 <1>   0.5440 
 20 O        3.5050     4.9680     0.6540 O.2   1 <1>  -0.5700 
 21 C        3.6340     7.1870     0.0070 C.ar  1 <1>   0.3960 
 22 N        3.0350     8.3670     0.1960 N.ar  1 <1>  -0.6200 
 23 C        4.9740     7.1010    -0.3850 C.ar  1 <1>   0.1600 
 24 C        3.8220     9.4130    -0.0700 C.ar  1 <1>   0.1390 
 25 N        5.7870     8.1280    -0.6410 N.ar  1 <1>  -0.6200 
 26 O        3.3130    10.5480     0.0400 O.3   1 <1>  -0.8290 
 27 C        5.1700     9.2720    -0.4720 C.ar  1 <1>   0.1600 
 28 H       -1.5830     3.4170    -2.3730 H     1 <1>   0.1500 
 29 H       -1.8650    -0.4940    -0.7270 H     1 <1>   0.1500 
 30 H       -2.7960     0.4620     1.3630 H     1 <1>   0.1500 
 31 H       -4.8270     3.7300     2.7800 H     1 <1>   0.0800 
 32 H       -4.8550     3.8250     1.0220 H     1 <1>   0.0800 
 33 H       -3.7560     4.8510     1.9560 H     1 <1>   0.0800 
 34 H       -0.7930     4.0340     1.6770 H     1 <1>   0.0800 
 35 H       -0.1120     5.5960     1.9760 H     1 <1>   0.0800 
 36 H       -1.8500     7.4500     1.1890 H     1 <1>   0.0800 
 37 H       -2.1350     7.3450    -0.5190 H     1 <1>   0.0800 
 38 H        0.4960     3.9640    -0.5080 H     1 <1>   0.0800 
 39 H        1.4400     3.9160     0.9420 H     1 <1>   0.0800 
 40 H        0.4410     7.7890     0.9000 H     1 <1>   0.0800 
 41 H       -0.2100     8.5580    -0.4900 H     1 <1>   0.0800 
 42 H        1.4610     7.3590    -1.4880 H     1 <1>   0.0800 
 43 H        0.1740     6.2130    -1.6570 H     1 <1>   0.0800 
 44 H        5.3990     6.1210    -0.4990 H     1 <1>   0.1500 
 45 H        5.7010    10.1880    -0.6460 H     1 <1>   0.1500 
@<TRIPOS>BOND
  1   1   2  1   
  2   2   3  ar  
  3   2   4  ar  
  4   3   5  ar  
  5   3  28  1   
  6   4   6  ar  
  7   4  29  1   
  8   5   7  ar  
  9   5   8  1   
 10   6   7  ar  
 11   6  30  1   
 12   7   9  1   
 13   8  10  2   
 14   8  11  am  
 15   9  12  1   
 16  11  13  1   
 17  11  14  1   
 18  12  31  1   
 19  12  32  1   
 20  12  33  1   
 21  13  15  1   
 22  13  34  1   
 23  13  35  1   
 24  14  16  1   
 25  14  36  1   
 26  14  37  1   
 27  15  17  1   
 28  15  38  1   
 29  15  39  1   
 30  16  18  1   
 31  16  40  1   
 32  16  41  1   
 33  17  18  1   
 34  17  19  am  
 35  18  42  1   
 36  18  43  1   
 37  19  20  2   
 38  19  21  1   
 39  21  22  ar  
 40  21  23  ar  
 41  22  24  ar  
 42  23  25  ar  
 43  23  44  1   
 44  24  26  1   
 45  24  27  ar  
 46  25  27  ar  
 47  27  45  1   
@<TRIPOS>SUBSTRUCTURE
  1 ****  15 GROUP 4 **** **** 0

# MOE 2024.06 (io_trps.svl 2023.06)
