@<TRIPOS>MOLECULE
NONAME
44 46 1 0 0 
SMALL
USER_CHARGES


@<TRIPOS>ATOM
  1 S        0.2710     0.4130     0.2660 S.o2  1 <1>   1.3330 
  2 O       -0.0490     1.8220     0.2900 O.2   1 <1>  -0.6500 
  3 O       -0.0880    -0.4200     1.3920 O.2   1 <1>  -0.6500 
  4 N       -0.4350    -0.2650    -1.1210 N.am  1 <1>  -0.8490 
  5 C        2.0240     0.2620    -0.0800 C.3   1 <1>  -0.0550 
  6 C       -0.5340    -1.7280    -1.0660 C.3   1 <1>   0.1160 
  7 C       -1.7510     0.3100    -1.4120 C.3   1 <1>   0.1160 
  8 C        2.9310     0.8230     1.0350 C.3   1 <1>  -0.0800 
  9 C        4.3790     0.8930     0.5790 C.3   1 <1>   0.2890 
 10 C        3.0420    -0.1440     2.2130 C.3   1 <1>   0.1200 
 11 N        5.0960     1.8950     1.3970 N.pl3 1 <1>  -0.8530 
 12 C        4.8960    -0.5110     0.8990 C.3   1 <1>   0.1200 
 13 O        4.0350    -1.0570     1.8590 O.3   1 <1>  -0.5600 
 14 C        5.7580     2.9760     0.9070 C.2   1 <1>   0.5620 
 15 O        5.5870     3.3400    -0.3570 O.3   1 <1>  -0.2800 
 16 N        6.5680     3.6990     1.5910 N.2   1 <1>  -0.5650 
 17 C        6.3550     4.4030    -0.5080 C.ar  1 <1>   0.1400 
 18 C        6.9700     4.6350     0.6960 C.ar  1 <1>   0.2270 
 19 C        6.5700     5.2000    -1.6200 C.ar  1 <1>  -0.1500 
 20 C        7.8480     5.7060     0.8240 C.ar  1 <1>  -0.1500 
 21 C        7.4450     6.2640    -1.4890 C.ar  1 <1>  -0.1500 
 22 C        8.0840     6.5200    -0.2710 C.ar  1 <1>  -0.1440 
 23 C        9.0370     7.6980    -0.1680 C.3   1 <1>  -0.0970 
 24 H        2.2670    -0.7680    -0.2530 H     1 <1>   0.0800 
 25 H        2.2230     0.8010    -0.9860 H     1 <1>   0.0800 
 26 H       -0.9000    -2.1100    -2.0040 H     1 <1>   0.0800 
 27 H       -1.2060    -2.0310    -0.2790 H     1 <1>   0.0800 
 28 H        0.4340    -2.1610    -0.8780 H     1 <1>   0.0800 
 29 H       -2.1630    -0.1300    -2.3040 H     1 <1>   0.0800 
 30 H       -1.6630     1.3720    -1.5730 H     1 <1>   0.0800 
 31 H       -2.4250     0.1410    -0.5880 H     1 <1>   0.0800 
 32 H        2.5700     1.7900     1.3410 H     1 <1>   0.0800 
 33 H        4.4790     1.1240    -0.4690 H     1 <1>   0.0800 
 34 H        2.1340    -0.6780     2.4310 H     1 <1>   0.0800 
 35 H        3.3720     0.3720     3.0990 H     1 <1>   0.0800 
 36 H        5.3310     1.6270     2.3540 H     1 <1>   0.4000 
 37 H        5.9000    -0.4980     1.2860 H     1 <1>   0.0800 
 38 H        4.8490    -1.1410     0.0290 H     1 <1>   0.0800 
 39 H        6.0670     4.9850    -2.5450 H     1 <1>   0.1500 
 40 H        8.3210     5.8720     1.7740 H     1 <1>   0.1500 
 41 H        7.6350     6.9040    -2.3330 H     1 <1>   0.1500 
 42 H        9.8430     7.5800    -0.8690 H     1 <1>   0.0800 
 43 H        9.4520     7.7710     0.8210 H     1 <1>   0.0800 
 44 H        8.5140     8.6120    -0.3890 H     1 <1>   0.0800 
@<TRIPOS>BOND
  1   1   2  2   
  2   1   3  2   
  3   1   4  am  
  4   1   5  1   
  5   4   6  1   
  6   4   7  1   
  7   5   8  1   
  8   5  24  1   
  9   5  25  1   
 10   6  26  1   
 11   6  27  1   
 12   6  28  1   
 13   7  29  1   
 14   7  30  1   
 15   7  31  1   
 16   8   9  1   
 17   8  10  1   
 18   8  32  1   
 19   9  11  1   
 20   9  12  1   
 21   9  33  1   
 22  10  13  1   
 23  10  34  1   
 24  10  35  1   
 25  11  14  1   
 26  11  36  1   
 27  12  13  1   
 28  12  37  1   
 29  12  38  1   
 30  14  15  1   
 31  14  16  2   
 32  15  17  1   
 33  16  18  1   
 34  17  18  ar  
 35  17  19  ar  
 36  18  20  ar  
 37  19  21  ar  
 38  19  39  1   
 39  20  22  ar  
 40  20  40  1   
 41  21  22  ar  
 42  21  41  1   
 43  22  23  1   
 44  23  42  1   
 45  23  43  1   
 46  23  44  1   
@<TRIPOS>SUBSTRUCTURE
  1 ****   9 GROUP 4 **** **** 0

# MOE 2024.06 (io_trps.svl 2023.06)
