@<TRIPOS>MOLECULE
NONAME
51 53 1 0 0 
SMALL
USER_CHARGES


@<TRIPOS>ATOM
  1 O       -0.1240    -1.5670    -0.2680 O.2   1 <1>  -0.5700 
  2 C        0.9780    -1.9250     0.0770 C.2   1 <1>   0.5690 
  3 N        1.1650    -2.6300     1.2190 N.am  1 <1>  -0.7300 
  4 C        2.1940    -1.6150    -0.8010 C.3   1 <1>  -0.0190 
  5 C        0.0700    -3.0580     2.1460 C.3   1 <1>   0.2010 
  6 C        2.2450    -0.1340    -1.2130 C.3   1 <1>  -0.2400 
  7 C        2.2140    -2.5110    -2.0500 C.3   1 <1>  -0.2400 
  8 C       -0.2430    -4.5540     2.0460 C.2   1 <1>   0.5690 
  9 O        0.2580    -5.2920     2.8610 O.2   1 <1>  -0.5700 
 10 N       -1.0570    -5.0410     1.0580 N.am  1 <1>  -0.6600 
 11 C       -1.6620    -4.2580    -0.0530 C.3   1 <1>   0.1400 
 12 C       -1.3220    -6.4890     0.8700 C.3   1 <1>   0.1400 
 13 C       -2.6640    -5.2190    -0.6890 C.3   1 <1>   0.2000 
 14 C       -2.0120    -6.5950    -0.4970 C.3   1 <1>  -0.0800 
 15 O       -3.8430    -5.1590     0.0400 O.3   1 <1>  -0.6800 
 16 C       -2.9820    -7.7880    -0.6240 C.3   1 <1>  -0.0160 
 17 C       -2.3600    -9.1900    -0.5920 C.ar  1 <1>  -0.1440 
 18 C       -3.2020   -10.3280    -0.5070 C.ar  1 <1>   0.0000 
 19 C       -1.0140    -9.4220    -0.6530 C.ar  1 <1>  -0.1500 
 20 C       -2.5920   -11.6060    -0.4650 C.ar  1 <1>   0.3100 
 21 C       -4.6160   -10.2740    -0.4680 C.ar  1 <1>  -0.1500 
 22 C       -0.5140   -10.7290    -0.6090 C.ar  1 <1>   0.1600 
 23 N       -1.2500   -11.7890    -0.5160 N.ar  1 <1>  -0.6200 
 24 C       -3.4040   -12.7480    -0.3710 C.ar  1 <1>  -0.1500 
 25 C       -5.3790   -11.4060    -0.3780 C.ar  1 <1>  -0.1500 
 26 C       -4.7690   -12.6610    -0.3270 C.ar  1 <1>  -0.1500 
 27 H        2.0910    -2.9930     1.4510 H     1 <1>   0.3700 
 28 H        3.0800    -1.8240    -0.2280 H     1 <1>   0.0800 
 29 H        0.3670    -2.8400     3.1560 H     1 <1>   0.0800 
 30 H       -0.8230    -2.4950     1.9440 H     1 <1>   0.0800 
 31 H        1.3850     0.1190    -1.8090 H     1 <1>   0.0800 
 32 H        3.1340     0.0690    -1.7840 H     1 <1>   0.0800 
 33 H        2.2480     0.4920    -0.3390 H     1 <1>   0.0800 
 34 H        1.3440    -2.3220    -2.6560 H     1 <1>   0.0800 
 35 H        2.2120    -3.5470    -1.7630 H     1 <1>   0.0800 
 36 H        3.0940    -2.3190    -2.6380 H     1 <1>   0.0800 
 37 H       -2.1360    -3.3550     0.2890 H     1 <1>   0.0800 
 38 H       -0.8940    -4.0120    -0.7660 H     1 <1>   0.0800 
 39 H       -0.4020    -7.0480     0.9060 H     1 <1>   0.0800 
 40 H       -1.9710    -6.8300     1.6580 H     1 <1>   0.0800 
 41 H       -2.8820    -4.9840    -1.7160 H     1 <1>   0.0800 
 42 H       -1.2510    -6.6830    -1.2520 H     1 <1>   0.0800 
 43 H       -3.6230    -5.1870     0.9930 H     1 <1>   0.4000 
 44 H       -3.5260    -7.6860    -1.5480 H     1 <1>   0.0800 
 45 H       -3.6960    -7.7220     0.1780 H     1 <1>   0.0800 
 46 H       -0.2890    -8.6370    -0.7380 H     1 <1>   0.1500 
 47 H       -5.1130    -9.3230    -0.5120 H     1 <1>   0.1500 
 48 H        0.5540   -10.8600    -0.6560 H     1 <1>   0.1500 
 49 H       -2.9110   -13.7020    -0.3350 H     1 <1>   0.1500 
 50 H       -6.4540   -11.3460    -0.3470 H     1 <1>   0.1500 
 51 H       -5.3790   -13.5450    -0.2550 H     1 <1>   0.1500 
@<TRIPOS>BOND
  1   1   2  2   
  2   2   3  am  
  3   2   4  1   
  4   3   5  1   
  5   3  27  1   
  6   4   6  1   
  7   4   7  1   
  8   4  28  1   
  9   5   8  1   
 10   5  29  1   
 11   5  30  1   
 12   6  31  1   
 13   6  32  1   
 14   6  33  1   
 15   7  34  1   
 16   7  35  1   
 17   7  36  1   
 18   8   9  2   
 19   8  10  am  
 20  10  11  1   
 21  10  12  1   
 22  11  13  1   
 23  11  37  1   
 24  11  38  1   
 25  12  14  1   
 26  12  39  1   
 27  12  40  1   
 28  13  14  1   
 29  13  15  1   
 30  13  41  1   
 31  14  16  1   
 32  14  42  1   
 33  15  43  1   
 34  16  17  1   
 35  16  44  1   
 36  16  45  1   
 37  17  18  ar  
 38  17  19  ar  
 39  18  20  ar  
 40  18  21  ar  
 41  19  22  ar  
 42  19  46  1   
 43  20  23  ar  
 44  20  24  ar  
 45  21  25  ar  
 46  21  47  1   
 47  22  23  ar  
 48  22  48  1   
 49  24  26  ar  
 50  24  49  1   
 51  25  26  ar  
 52  25  50  1   
 53  26  51  1   
@<TRIPOS>SUBSTRUCTURE
  1 ****  14 GROUP 4 **** **** 0

# MOE 2024.06 (io_trps.svl 2023.06)
