@<TRIPOS>MOLECULE
NONAME
53 55 1 0 0 
SMALL
USER_CHARGES


@<TRIPOS>ATOM
  1 O        0.7520    -0.7730    -2.1820 O.2   1 <1>  -0.5700 
  2 C        1.4700    -1.0790    -1.2490 C.2   1 <1>   0.5440 
  3 N        2.1580    -0.0880    -0.5870 N.am  1 <1>  -0.6600 
  4 C        1.5720    -2.4700    -0.8540 C.ar  1 <1>   0.0860 
  5 C        2.7190    -0.2130     0.7770 C.3   1 <1>   0.1400 
  6 C        2.0650     1.3330    -0.9900 C.3   1 <1>   0.1400 
  7 C        0.4560    -3.2650    -0.6790 C.ar  1 <1>  -0.1500 
  8 C        2.7860    -3.1070    -0.6330 C.ar  1 <1>  -0.1500 
  9 C        2.6940     1.2040     1.3370 C.3   1 <1>  -0.1600 
 10 C        2.7910     2.1030     0.1070 C.3   1 <1>  -0.1600 
 11 C        0.5750    -4.5910    -0.2900 C.ar  1 <1>   0.4100 
 12 C        2.8110    -4.4320    -0.2470 C.ar  1 <1>   0.1600 
 13 N        1.7400    -5.1830    -0.0660 N.ar  1 <1>  -0.6200 
 14 N       -0.5640    -5.3440    -0.1230 N.pl3 1 <1>  -0.8690 
 15 C       -0.5080    -6.8120     0.0260 C.3   1 <1>   0.2090 
 16 C       -1.9290    -7.3670     0.0310 C.3   1 <1>  -0.1600 
 17 C       -1.9150    -8.8820     0.2140 C.3   1 <1>   0.1200 
 18 O       -3.2330    -9.3220     0.1730 O.3   1 <1>  -0.5600 
 19 C       -3.4130   -10.6910     0.3520 C.3   1 <1>   0.2000 
 20 C       -3.2330   -11.4100    -0.9940 C.3   1 <1>  -0.1600 
 21 C       -4.8280   -10.8920     0.9020 C.3   1 <1>  -0.1600 
 22 C       -3.5810   -12.9020    -0.8790 C.3   1 <1>  -0.1600 
 23 C       -5.1740   -12.3840     1.0230 C.3   1 <1>  -0.1600 
 24 C       -4.9960   -13.1020    -0.3210 C.3   1 <1>  -0.1600 
 25 H        3.7330    -0.5670     0.7110 H     1 <1>   0.0800 
 26 H        2.1340    -0.8850     1.3830 H     1 <1>   0.0800 
 27 H        1.0270     1.6190    -1.0320 H     1 <1>   0.0800 
 28 H        2.5180     1.4840    -1.9550 H     1 <1>   0.0800 
 29 H       -0.5190    -2.8480    -0.8440 H     1 <1>   0.1500 
 30 H        3.7040    -2.5650    -0.7680 H     1 <1>   0.1500 
 31 H        3.4950     1.3740     2.0350 H     1 <1>   0.0800 
 32 H        1.7540     1.3670     1.8340 H     1 <1>   0.0800 
 33 H        2.3540     3.0720     0.2700 H     1 <1>   0.0800 
 34 H        3.8220     2.2260    -0.1780 H     1 <1>   0.0800 
 35 H        3.7640    -4.9040    -0.0790 H     1 <1>   0.1500 
 36 H       -1.3940    -5.0100    -0.6150 H     1 <1>   0.4000 
 37 H       -0.0080    -7.0530     0.9500 H     1 <1>   0.0800 
 38 H        0.0550    -7.2330    -0.7900 H     1 <1>   0.0800 
 39 H       -2.4070    -7.1330    -0.9030 H     1 <1>   0.0800 
 40 H       -2.4810    -6.9230     0.8410 H     1 <1>   0.0800 
 41 H       -1.4910    -9.1450     1.1690 H     1 <1>   0.0800 
 42 H       -1.3630    -9.3540    -0.5800 H     1 <1>   0.0800 
 43 H       -2.6980   -11.0530     1.0730 H     1 <1>   0.0800 
 44 H       -2.2170   -11.3150    -1.3300 H     1 <1>   0.0800 
 45 H       -3.8790   -10.9520    -1.7230 H     1 <1>   0.0800 
 46 H       -5.5320   -10.4190     0.2400 H     1 <1>   0.0800 
 47 H       -4.9020   -10.4260     1.8680 H     1 <1>   0.0800 
 48 H       -2.8710   -13.3850    -0.2300 H     1 <1>   0.0800 
 49 H       -3.5080   -13.3640    -1.8490 H     1 <1>   0.0800 
 50 H       -6.1920   -12.4900     1.3580 H     1 <1>   0.0800 
 51 H       -4.5350   -12.8400     1.7600 H     1 <1>   0.0800 
 52 H       -5.1900   -14.1540    -0.1960 H     1 <1>   0.0800 
 53 H       -5.7140   -12.7180    -1.0260 H     1 <1>   0.0800 
@<TRIPOS>BOND
  1   1   2  2   
  2   2   3  am  
  3   2   4  1   
  4   3   5  1   
  5   3   6  1   
  6   4   7  ar  
  7   4   8  ar  
  8   5   9  1   
  9   5  25  1   
 10   5  26  1   
 11   6  10  1   
 12   6  27  1   
 13   6  28  1   
 14   7  11  ar  
 15   7  29  1   
 16   8  12  ar  
 17   8  30  1   
 18   9  10  1   
 19   9  31  1   
 20   9  32  1   
 21  10  33  1   
 22  10  34  1   
 23  11  13  ar  
 24  11  14  1   
 25  12  13  ar  
 26  12  35  1   
 27  14  15  1   
 28  14  36  1   
 29  15  16  1   
 30  15  37  1   
 31  15  38  1   
 32  16  17  1   
 33  16  39  1   
 34  16  40  1   
 35  17  18  1   
 36  17  41  1   
 37  17  42  1   
 38  18  19  1   
 39  19  20  1   
 40  19  21  1   
 41  19  43  1   
 42  20  22  1   
 43  20  44  1   
 44  20  45  1   
 45  21  23  1   
 46  21  46  1   
 47  21  47  1   
 48  22  24  1   
 49  22  48  1   
 50  22  49  1   
 51  23  24  1   
 52  23  50  1   
 53  23  51  1   
 54  24  52  1   
 55  24  53  1   
@<TRIPOS>SUBSTRUCTURE
  1 ****  14 GROUP 4 **** **** 0

# MOE 2024.06 (io_trps.svl 2023.06)
