@<TRIPOS>MOLECULE
NONAME
53 56 1 0 0 
SMALL
USER_CHARGES


@<TRIPOS>ATOM
  1 S       -0.7030    -1.0900     0.5730 S.3   1 <1>  -0.0800 
  2 C       -2.2150    -1.1850    -0.3220 C.2   1 <1>  -0.1400 
  3 C       -0.8870     0.6400     0.8000 C.2   1 <1>  -0.1100 
  4 C       -2.7730     0.0390    -0.4180 C.2   1 <1>  -0.1500 
  5 C       -2.6330    -2.5590    -0.8310 C.3   1 <1>   0.3800 
  6 C       -2.0200     1.0750     0.2220 C.2   1 <1>  -0.1500 
  7 O       -3.7900    -2.4100    -1.5720 O.3   1 <1>  -0.6800 
  8 C       -2.8860    -3.5740     0.3100 C.3   1 <1>  -0.0800 
  9 C       -3.2740    -4.9670    -0.2280 C.3   1 <1>  -0.1600 
 10 C       -3.9400    -3.0960     1.3330 C.3   1 <1>  -0.1600 
 11 C       -3.5000    -5.9780     0.9010 C.3   1 <1>   0.1400 
 12 C       -4.1410    -4.1220     2.4510 C.3   1 <1>   0.1400 
 13 N       -4.5040    -5.4390     1.8590 N.am  1 <1>  -0.6600 
 14 C       -5.7500    -6.0010     2.0600 C.2   1 <1>   0.5440 
 15 O       -6.6440    -5.3030     2.5010 O.2   1 <1>  -0.5700 
 16 C       -6.0280    -7.3920     1.7470 C.ar  1 <1>   0.0860 
 17 C       -7.1530    -7.7470     1.0110 C.ar  1 <1>  -0.1500 
 18 C       -5.1920    -8.4210     2.1760 C.ar  1 <1>  -0.1500 
 19 C       -7.4390    -9.0630     0.6750 C.ar  1 <1>   0.1170 
 20 C       -5.4570    -9.7390     1.8550 C.ar  1 <1>  -0.1500 
 21 N       -8.5840    -9.3370    -0.0890 N.am  1 <1>  -0.4770 
 22 C       -6.5690   -10.0710     1.1000 C.ar  1 <1>  -0.1430 
 23 C       -9.6850   -10.0690     0.2570 C.2   1 <1>   0.6900 
 24 C       -8.7840    -8.7560    -1.4380 C.3   1 <1>   0.1400 
 25 C       -6.8130   -11.5370     0.7620 C.3   1 <1>  -0.0970 
 26 O       -9.8850   -10.6070     1.3260 O.2   1 <1>  -0.5700 
 27 N      -10.5830   -10.1010    -0.7400 N.am  1 <1>  -0.7300 
 28 C      -10.1830    -9.2370    -1.8610 C.3   1 <1>   0.1400 
 29 H       -0.1160     1.1530     1.3470 H     1 <1>   0.1500 
 30 H       -3.6950     0.2670    -0.9230 H     1 <1>   0.1500 
 31 H       -1.8750    -2.9350    -1.4960 H     1 <1>   0.0800 
 32 H       -2.3670     2.0930     0.2140 H     1 <1>   0.1500 
 33 H       -4.4900    -2.0790    -0.9810 H     1 <1>   0.4000 
 34 H       -1.9560    -3.6880     0.8380 H     1 <1>   0.0800 
 35 H       -2.4980    -5.3340    -0.8760 H     1 <1>   0.0800 
 36 H       -4.1780    -4.9020    -0.8090 H     1 <1>   0.0800 
 37 H       -4.8890    -2.9350     0.8530 H     1 <1>   0.0800 
 38 H       -3.6330    -2.1650     1.7770 H     1 <1>   0.0800 
 39 H       -2.5770    -6.1580     1.4250 H     1 <1>   0.0800 
 40 H       -3.8340    -6.9070     0.4750 H     1 <1>   0.0800 
 41 H       -4.9100    -3.7810     3.1240 H     1 <1>   0.0800 
 42 H       -3.2320    -4.2300     3.0170 H     1 <1>   0.0800 
 43 H       -7.8270    -6.9680     0.7050 H     1 <1>   0.1500 
 44 H       -4.3290    -8.1790     2.7710 H     1 <1>   0.1500 
 45 H       -4.7900   -10.5100     2.2010 H     1 <1>   0.1500 
 46 H       -8.0310    -9.1250    -2.1120 H     1 <1>   0.0800 
 47 H       -8.7440    -7.6820    -1.3990 H     1 <1>   0.0800 
 48 H       -7.1340   -11.6400    -0.2580 H     1 <1>   0.0800 
 49 H       -7.5780   -11.9330     1.4060 H     1 <1>   0.0800 
 50 H       -5.9200   -12.1180     0.8950 H     1 <1>   0.0800 
 51 H      -11.5440   -10.3860    -0.5520 H     1 <1>   0.3700 
 52 H      -10.1430    -9.7980    -2.7790 H     1 <1>   0.0800 
 53 H      -10.8620    -8.4080    -1.9600 H     1 <1>   0.0800 
@<TRIPOS>BOND
  1   1   2  1   
  2   1   3  1   
  3   2   4  2   
  4   2   5  1   
  5   3   6  2   
  6   3  29  1   
  7   4   6  1   
  8   4  30  1   
  9   5   7  1   
 10   5   8  1   
 11   5  31  1   
 12   6  32  1   
 13   7  33  1   
 14   8   9  1   
 15   8  10  1   
 16   8  34  1   
 17   9  11  1   
 18   9  35  1   
 19   9  36  1   
 20  10  12  1   
 21  10  37  1   
 22  10  38  1   
 23  11  13  1   
 24  11  39  1   
 25  11  40  1   
 26  12  13  1   
 27  12  41  1   
 28  12  42  1   
 29  13  14  am  
 30  14  15  2   
 31  14  16  1   
 32  16  17  ar  
 33  16  18  ar  
 34  17  19  ar  
 35  17  43  1   
 36  18  20  ar  
 37  18  44  1   
 38  19  21  1   
 39  19  22  ar  
 40  20  22  ar  
 41  20  45  1   
 42  21  23  am  
 43  21  24  1   
 44  22  25  1   
 45  23  26  2   
 46  23  27  am  
 47  24  28  1   
 48  24  46  1   
 49  24  47  1   
 50  25  48  1   
 51  25  49  1   
 52  25  50  1   
 53  27  28  1   
 54  27  51  1   
 55  28  52  1   
 56  28  53  1   
@<TRIPOS>SUBSTRUCTURE
  1 ****  14 GROUP 4 **** **** 0

# MOE 2024.06 (io_trps.svl 2023.06)
