@<TRIPOS>MOLECULE
NONAME
33 34 1 0 0 
SMALL
USER_CHARGES


@<TRIPOS>ATOM
  1 O        0.2780     0.2230     0.4360 O.2   1 <1>  -0.5700 
  2 C        0.8790     1.2480     0.1760 C.2   1 <1>   0.7800 
  3 O        0.2330     2.3720    -0.1420 O.3   1 <1>  -0.4300 
  4 N        2.2410     1.3060     0.2030 N.am  1 <1>  -0.6600 
  5 C       -1.1600     2.5630    -0.2370 C.3   1 <1>   0.2800 
  6 C        3.1010     0.1640     0.5840 C.3   1 <1>   0.1400 
  7 C        3.0420     2.5380     0.0260 C.3   1 <1>   0.1400 
  8 C       -1.8220     2.3270     1.1260 C.3   1 <1>  -0.2400 
  9 C       -1.3340     4.0290    -0.6350 C.3   1 <1>  -0.2400 
 10 C       -1.7450     1.6680    -1.3350 C.3   1 <1>  -0.2400 
 11 C        4.4690     0.7600     0.9140 C.3   1 <1>   0.2000 
 12 C        4.3830     2.2590     0.7070 C.3   1 <1>  -0.0190 
 13 O        5.4340     0.3580    -0.0320 O.3   1 <1>  -0.2170 
 14 C        5.5520     2.4890    -0.2170 C.2   1 <1>   0.2420 
 15 N        6.0680     1.3720    -0.5770 N.2   1 <1>  -0.5130 
 16 C        5.8740     3.8790    -0.5300 C.2   1 <1>   0.9470 
 17 O        6.8380     4.2190    -1.2430 O.co2 1 <1>  -0.9000 
 18 O        5.1550     4.7940    -0.0680 O.co2 1 <1>  -0.9000 
 19 H        2.6840    -0.3250     1.4470 H     1 <1>   0.0800 
 20 H        3.1710    -0.5320    -0.2330 H     1 <1>   0.0800 
 21 H        3.1790     2.7230    -1.0260 H     1 <1>   0.0800 
 22 H        2.5560     3.3900     0.4720 H     1 <1>   0.0800 
 23 H       -2.8570     2.6100     1.0850 H     1 <1>   0.0800 
 24 H       -1.3360     2.9160     1.8830 H     1 <1>   0.0800 
 25 H       -1.7800     1.2900     1.4030 H     1 <1>   0.0800 
 26 H       -2.3770     4.2710    -0.7330 H     1 <1>   0.0800 
 27 H       -0.8510     4.2180    -1.5770 H     1 <1>   0.0800 
 28 H       -0.9040     4.6710     0.1130 H     1 <1>   0.0800 
 29 H       -2.7760     1.9180    -1.5030 H     1 <1>   0.0800 
 30 H       -1.7030     0.6320    -1.0540 H     1 <1>   0.0800 
 31 H       -1.2050     1.8060    -2.2550 H     1 <1>   0.0800 
 32 H        4.8250     0.4880     1.8910 H     1 <1>   0.0800 
 33 H        4.4790     2.8020     1.6290 H     1 <1>   0.0800 
@<TRIPOS>BOND
  1   1   2  2   
  2   2   3  1   
  3   2   4  am  
  4   3   5  1   
  5   4   6  1   
  6   4   7  1   
  7   5   8  1   
  8   5   9  1   
  9   5  10  1   
 10   6  11  1   
 11   6  19  1   
 12   6  20  1   
 13   7  12  1   
 14   7  21  1   
 15   7  22  1   
 16   8  23  1   
 17   8  24  1   
 18   8  25  1   
 19   9  26  1   
 20   9  27  1   
 21   9  28  1   
 22  10  29  1   
 23  10  30  1   
 24  10  31  1   
 25  11  12  1   
 26  11  13  1   
 27  11  32  1   
 28  12  14  1   
 29  12  33  1   
 30  13  15  1   
 31  14  15  2   
 32  14  16  1   
 33  16  17  ar  
 34  16  18  ar  
@<TRIPOS>SUBSTRUCTURE
  1 ****   7 GROUP 4 **** **** 0

# MOE 2024.06 (io_trps.svl 2023.06)
