@<TRIPOS>MOLECULE
NONAME
42 44 1 0 0 
SMALL
USER_CHARGES


@<TRIPOS>ATOM
  1 F       -0.5880    -0.5290    -0.1380 F     1 <1>  -0.3400 
  2 C       -1.7020    -1.0920    -0.6010 C.3   1 <1>   0.8560 
  3 F       -1.8080    -0.6610    -1.8570 F     1 <1>  -0.3400 
  4 N       -2.8960    -0.6300     0.1940 N.pl3 1 <1>   0.0480 
  5 C       -3.8770    -1.4520     0.7200 C.2   1 <1>  -0.2370 
  6 C       -3.2350     0.6600     0.5120 C.2   1 <1>  -0.3320 
  7 C       -3.8880    -2.8850     0.5770 C.2   1 <1>   0.7150 
  8 C       -4.7810    -0.6560     1.3780 C.2   1 <1>  -0.1500 
  9 C       -4.3820     0.6660     1.2390 C.2   1 <1>  -0.1500 
 10 C       -2.4350     1.8870     0.1030 C.3   1 <1>  -0.0600 
 11 O       -2.8360    -3.4970     0.5600 O.2   1 <1>  -0.5700 
 12 N       -5.0580    -3.5890     0.4260 N.am  1 <1>  -0.6600 
 13 C       -6.3380    -3.0000    -0.0410 C.3   1 <1>   0.1400 
 14 C       -5.0870    -5.0680     0.2940 C.3   1 <1>   0.1400 
 15 C       -7.1120    -4.1710    -0.6460 C.3   1 <1>   0.2000 
 16 C       -6.5540    -5.4190     0.0320 C.3   1 <1>  -0.0800 
 17 O       -8.4730    -4.0680    -0.4030 O.3   1 <1>  -0.6800 
 18 C       -6.7610    -6.6910    -0.8090 C.3   1 <1>  -0.0170 
 19 C       -6.2890    -7.9370    -0.0770 C.ar  1 <1>   0.1670 
 20 N       -4.9900    -8.1900    -0.1150 N.ar  1 <1>  -0.6200 
 21 C       -7.2110    -8.7440     0.5870 C.ar  1 <1>   0.1600 
 22 C       -4.6800    -9.2920     0.5480 C.ar  1 <1>   0.1600 
 23 N       -6.9020    -9.8440     1.2540 N.ar  1 <1>  -0.6200 
 24 C       -5.6040   -10.0910     1.2100 C.ar  1 <1>   0.1600 
 25 H       -1.5580    -2.1540    -0.6200 H     1 <1>   0.0800 
 26 H       -5.6540    -0.9720     1.9220 H     1 <1>   0.1500 
 27 H       -4.9000     1.5180     1.6450 H     1 <1>   0.1500 
 28 H       -2.9390     2.7820     0.4220 H     1 <1>   0.0800 
 29 H       -2.3230     1.9220    -0.9660 H     1 <1>   0.0800 
 30 H       -1.4600     1.8670     0.5580 H     1 <1>   0.0800 
 31 H       -6.8670    -2.5930     0.8020 H     1 <1>   0.0800 
 32 H       -6.1610    -2.2340    -0.7760 H     1 <1>   0.0800 
 33 H       -4.4670    -5.3620    -0.5370 H     1 <1>   0.0800 
 34 H       -4.7200    -5.5400     1.1900 H     1 <1>   0.0800 
 35 H       -6.9560    -4.2000    -1.7110 H     1 <1>   0.0800 
 36 H       -7.0250    -5.5450     0.9910 H     1 <1>   0.0800 
 37 H       -8.6480    -4.0260     0.5570 H     1 <1>   0.4000 
 38 H       -6.2290    -6.6080    -1.7410 H     1 <1>   0.0800 
 39 H       -7.8060    -6.7900    -1.0440 H     1 <1>   0.0800 
 40 H       -8.2500    -8.4680     0.5690 H     1 <1>   0.1500 
 41 H       -3.6430    -9.5780     0.5700 H     1 <1>   0.1500 
 42 H       -5.2530   -10.9690     1.7240 H     1 <1>   0.1500 
@<TRIPOS>BOND
  1   1   2  1   
  2   2   3  1   
  3   2   4  1   
  4   2  25  1   
  5   4   5  1   
  6   4   6  1   
  7   5   7  1   
  8   5   8  2   
  9   6   9  2   
 10   6  10  1   
 11   7  11  2   
 12   7  12  am  
 13   8   9  1   
 14   8  26  1   
 15   9  27  1   
 16  10  28  1   
 17  10  29  1   
 18  10  30  1   
 19  12  13  1   
 20  12  14  1   
 21  13  15  1   
 22  13  31  1   
 23  13  32  1   
 24  14  16  1   
 25  14  33  1   
 26  14  34  1   
 27  15  16  1   
 28  15  17  1   
 29  15  35  1   
 30  16  18  1   
 31  16  36  1   
 32  17  37  1   
 33  18  19  1   
 34  18  38  1   
 35  18  39  1   
 36  19  20  ar  
 37  19  21  ar  
 38  20  22  ar  
 39  21  23  ar  
 40  21  40  1   
 41  22  24  ar  
 42  22  41  1   
 43  23  24  ar  
 44  24  42  1   
@<TRIPOS>SUBSTRUCTURE
  1 ****  12 GROUP 4 **** **** 0

# MOE 2024.06 (io_trps.svl 2023.06)
