@<TRIPOS>MOLECULE
NONAME
45 46 1 0 0 
SMALL
USER_CHARGES


@<TRIPOS>ATOM
  1 CL       1.1120     0.7190     1.0300 Cl    1 <1>  -0.1770 
  2 C        1.9420    -0.4180    -0.0100 C.ar  1 <1>   0.1770 
  3 C        2.7080     0.0750    -1.0630 C.ar  1 <1>   0.0860 
  4 C        1.8260    -1.7790     0.2550 C.ar  1 <1>  -0.1440 
  5 C        3.3680    -0.8730    -1.8360 C.ar  1 <1>   0.1900 
  6 C        2.8090     1.4840    -1.3350 C.2   1 <1>   0.5440 
  7 C        2.4990    -2.6860    -0.5530 C.ar  1 <1>  -0.1500 
  8 C        0.9740    -2.2860     1.4100 C.3   1 <1>  -0.0970 
  9 F        4.1250    -0.4780    -2.8210 F     1 <1>  -0.1900 
 10 C        3.2770    -2.2320    -1.6040 C.ar  1 <1>  -0.1500 
 11 O        2.0720     1.9770    -2.1670 O.2   1 <1>  -0.5700 
 12 N        3.7100     2.2850    -0.6680 N.am  1 <1>  -0.6600 
 13 C        3.8110     3.7570    -1.0040 C.3   1 <1>   0.2810 
 14 C        4.7360     1.7180     0.2680 C.3   1 <1>   0.1400 
 15 C        5.2140     4.3500    -0.7420 C.2   1 <1>   0.5690 
 16 C        2.7140     4.5000    -0.2140 C.3   1 <1>  -0.1600 
 17 C        5.4180     2.7740     1.1550 C.3   1 <1>   0.1400 
 18 O        5.6460     5.2020    -1.4880 O.2   1 <1>  -0.5700 
 19 N        5.9350     3.9010     0.3380 N.am  1 <1>  -0.6600 
 20 C        2.6040     5.9880    -0.5840 C.3   1 <1>  -0.1600 
 21 C        7.2470     4.4790     0.7330 C.3   1 <1>   0.0600 
 22 C        1.4480     6.6580     0.1670 C.3   1 <1>  -0.1600 
 23 C        1.3400     8.1400    -0.2000 C.3   1 <1>  -0.2400 
 24 H        2.4220    -3.7450    -0.3690 H     1 <1>   0.1500 
 25 H       -0.0450    -1.9650     1.2850 H     1 <1>   0.0800 
 26 H        1.3460    -1.8990     2.3430 H     1 <1>   0.0800 
 27 H        0.9860    -3.3600     1.4610 H     1 <1>   0.0800 
 28 H        3.8070    -2.9220    -2.2380 H     1 <1>   0.1500 
 29 H        3.6140     3.8810    -2.0540 H     1 <1>   0.0800 
 30 H        5.4930     1.2220    -0.3150 H     1 <1>   0.0800 
 31 H        4.2760     0.9850     0.9070 H     1 <1>   0.0800 
 32 H        2.9110     4.4110     0.8390 H     1 <1>   0.0800 
 33 H        1.7680     4.0290    -0.4200 H     1 <1>   0.0800 
 34 H        6.2300     2.3110     1.6890 H     1 <1>   0.0800 
 35 H        4.7150     3.1510     1.8770 H     1 <1>   0.0800 
 36 H        2.4420     6.0800    -1.6450 H     1 <1>   0.0800 
 37 H        3.5230     6.4950    -0.3430 H     1 <1>   0.0800 
 38 H        7.4920     5.3220     0.1090 H     1 <1>   0.0800 
 39 H        8.0180     3.7370     0.6250 H     1 <1>   0.0800 
 40 H        7.2070     4.8090     1.7560 H     1 <1>   0.0800 
 41 H        1.6040     6.5670     1.2290 H     1 <1>   0.0800 
 42 H        0.5230     6.1640    -0.0780 H     1 <1>   0.0800 
 43 H        2.2480     8.6580     0.0550 H     1 <1>   0.0800 
 44 H        0.5250     8.5940     0.3360 H     1 <1>   0.0800 
 45 H        1.1620     8.2530    -1.2550 H     1 <1>   0.0800 
@<TRIPOS>BOND
  1   1   2  1   
  2   2   3  ar  
  3   2   4  ar  
  4   3   5  ar  
  5   3   6  1   
  6   4   7  ar  
  7   4   8  1   
  8   5   9  1   
  9   5  10  ar  
 10   6  11  2   
 11   6  12  am  
 12   7  10  ar  
 13   7  24  1   
 14   8  25  1   
 15   8  26  1   
 16   8  27  1   
 17  10  28  1   
 18  12  13  1   
 19  12  14  1   
 20  13  15  1   
 21  13  16  1   
 22  13  29  1   
 23  14  17  1   
 24  14  30  1   
 25  14  31  1   
 26  15  18  2   
 27  15  19  am  
 28  16  20  1   
 29  16  32  1   
 30  16  33  1   
 31  17  19  1   
 32  17  34  1   
 33  17  35  1   
 34  19  21  1   
 35  20  22  1   
 36  20  36  1   
 37  20  37  1   
 38  21  38  1   
 39  21  39  1   
 40  21  40  1   
 41  22  23  1   
 42  22  41  1   
 43  22  42  1   
 44  23  43  1   
 45  23  44  1   
 46  23  45  1   
@<TRIPOS>SUBSTRUCTURE
  1 ****  12 GROUP 4 **** **** 0

# MOE 2024.06 (io_trps.svl 2023.06)
