@<TRIPOS>MOLECULE
NONAME
50 53 1 0 0 
SMALL
USER_CHARGES


@<TRIPOS>ATOM
  1 O        1.3850     0.9100    -2.4080 O.2   1 <1>  -0.5700 
  2 C        1.7570     0.9930    -1.2510 C.2   1 <1>   0.5440 
  3 N        1.3030     2.0500    -0.4920 N.am  1 <1>  -0.6600 
  4 C        2.6800     0.0370    -0.6980 C.ar  1 <1>   0.0860 
  5 C        0.3230     3.0350    -0.9980 C.3   1 <1>   0.1400 
  6 C        1.5600     2.2410     0.9510 C.3   1 <1>   0.1400 
  7 C        2.3120    -1.2880    -0.3780 C.ar  1 <1>   0.4100 
  8 C        3.9930     0.4240    -0.4660 C.ar  1 <1>  -0.1500 
  9 C        0.0700     3.9730     0.1770 C.3   1 <1>  -0.1600 
 10 C        0.4360     3.1590     1.4160 C.3   1 <1>  -0.1600 
 11 N        3.1680    -2.1750     0.1330 N.ar  1 <1>  -0.6200 
 12 N        1.0350    -1.7920    -0.5680 N.pl3 1 <1>  -0.8380 
 13 C        4.8650    -0.4980     0.0640 C.ar  1 <1>  -0.1500 
 14 C        4.4030    -1.7700     0.3410 C.ar  1 <1>   0.1600 
 15 C        0.8630    -3.1000    -1.2700 C.3   1 <1>   0.2090 
 16 C       -0.1920    -1.0890    -0.1260 C.3   1 <1>   0.2090 
 17 C        0.4960    -4.2320    -0.3000 C.3   1 <1>   0.2090 
 18 C       -1.0310    -1.9450     0.8250 C.3   1 <1>  -0.1600 
 19 N       -0.9760    -4.3310    -0.0070 N.pl3 1 <1>  -0.8380 
 20 C       -1.7810    -3.0830     0.1270 C.3   1 <1>   0.2090 
 21 C       -1.5870    -5.5650     0.0770 C.ar  1 <1>   0.7200 
 22 N       -0.8170    -6.6060     0.3950 N.ar  1 <1>  -0.6200 
 23 N       -2.8970    -5.6130    -0.1710 N.ar  1 <1>  -0.6200 
 24 C       -1.4130    -7.7700     0.4750 C.ar  1 <1>   0.1600 
 25 C       -3.4640    -6.7910    -0.0870 C.ar  1 <1>   0.1600 
 26 C       -2.7560    -7.9210     0.2390 C.ar  1 <1>  -0.1500 
 27 H       -0.5790     2.5190    -1.2790 H     1 <1>   0.0800 
 28 H        0.7190     3.5580    -1.8520 H     1 <1>   0.0800 
 29 H        2.5130     2.7240     1.0770 H     1 <1>   0.0800 
 30 H        1.5520     1.3040     1.4830 H     1 <1>   0.0800 
 31 H        4.3130     1.4240    -0.7040 H     1 <1>   0.1500 
 32 H       -0.9490     4.3190     0.1980 H     1 <1>   0.0800 
 33 H        0.7250     4.8230     0.0910 H     1 <1>   0.0800 
 34 H        0.7410     3.7790     2.2410 H     1 <1>   0.0800 
 35 H       -0.4030     2.5580     1.7200 H     1 <1>   0.0800 
 36 H        5.8910    -0.2400     0.2580 H     1 <1>   0.1500 
 37 H        5.0880    -2.4910     0.7540 H     1 <1>   0.1500 
 38 H        1.7930    -3.3560    -1.7470 H     1 <1>   0.0800 
 39 H        0.1180    -3.0160    -2.0410 H     1 <1>   0.0800 
 40 H       -0.7690    -0.8020    -0.9890 H     1 <1>   0.0800 
 41 H        0.0830    -0.1940     0.4000 H     1 <1>   0.0800 
 42 H        1.0430    -4.1060     0.6180 H     1 <1>   0.0800 
 43 H        0.8270    -5.1510    -0.7500 H     1 <1>   0.0800 
 44 H       -1.7720    -1.2960     1.2540 H     1 <1>   0.0800 
 45 H       -0.4310    -2.3200     1.6340 H     1 <1>   0.0800 
 46 H       -2.1160    -2.7710    -0.8470 H     1 <1>   0.0800 
 47 H       -2.6570    -3.3000     0.7150 H     1 <1>   0.0800 
 48 H       -0.8120    -8.6260     0.7340 H     1 <1>   0.1500 
 49 H       -4.5210    -6.8560    -0.2820 H     1 <1>   0.1500 
 50 H       -3.2330    -8.8800     0.3070 H     1 <1>   0.1500 
@<TRIPOS>BOND
  1   1   2  2   
  2   2   3  am  
  3   2   4  1   
  4   3   5  1   
  5   3   6  1   
  6   4   7  ar  
  7   4   8  ar  
  8   5   9  1   
  9   5  27  1   
 10   5  28  1   
 11   6  10  1   
 12   6  29  1   
 13   6  30  1   
 14   7  11  ar  
 15   7  12  1   
 16   8  13  ar  
 17   8  31  1   
 18   9  10  1   
 19   9  32  1   
 20   9  33  1   
 21  10  34  1   
 22  10  35  1   
 23  11  14  ar  
 24  12  15  1   
 25  12  16  1   
 26  13  14  ar  
 27  13  36  1   
 28  14  37  1   
 29  15  17  1   
 30  15  38  1   
 31  15  39  1   
 32  16  18  1   
 33  16  40  1   
 34  16  41  1   
 35  17  19  1   
 36  17  42  1   
 37  17  43  1   
 38  18  20  1   
 39  18  44  1   
 40  18  45  1   
 41  19  20  1   
 42  19  21  1   
 43  20  46  1   
 44  20  47  1   
 45  21  22  ar  
 46  21  23  ar  
 47  22  24  ar  
 48  23  25  ar  
 49  24  26  ar  
 50  24  48  1   
 51  25  26  ar  
 52  25  49  1   
 53  26  50  1   
@<TRIPOS>SUBSTRUCTURE
  1 ****  12 GROUP 4 **** **** 0

# MOE 2024.06 (io_trps.svl 2023.06)
