@<TRIPOS>MOLECULE
NONAME
46 47 1 0 0 
SMALL
USER_CHARGES


@<TRIPOS>ATOM
  1 O        0.5270    -0.0530     0.1380 O.3   1 <1>  -0.3630 
  2 C        0.3120    -1.3710    -0.0970 C.ar  1 <1>   0.0830 
  3 C        1.8230     0.5090     0.0480 C.3   1 <1>   0.1200 
  4 C       -0.9850    -1.8280     0.0620 C.ar  1 <1>  -0.1500 
  5 C        1.3100    -2.2630    -0.4820 C.ar  1 <1>  -0.1500 
  6 C        1.7470     2.0050     0.3710 C.3   1 <1>   0.2000 
  7 C       -1.3000    -3.1580    -0.1550 C.ar  1 <1>   0.0830 
  8 C        1.0010    -3.5950    -0.7010 C.ar  1 <1>  -0.1500 
  9 O        0.7690     2.5910    -0.4330 O.3   1 <1>  -0.6800 
 10 C        3.1010     2.7050     0.1630 C.3   1 <1>   0.2090 
 11 O       -2.5970    -3.5150     0.0250 O.3   1 <1>  -0.3630 
 12 C       -0.2980    -4.0460    -0.5390 C.ar  1 <1>  -0.1500 
 13 N        2.9500     4.1740     0.2800 N.pl3 1 <1>  -0.8690 
 14 C       -3.0260    -4.8430    -0.1750 C.3   1 <1>   0.0400 
 15 C        3.9930     5.0510     0.1240 C.ar  1 <1>   0.4100 
 16 N        5.2090     4.5490     0.1930 N.ar  1 <1>  -0.6200 
 17 C        3.7740     6.4060    -0.0960 C.ar  1 <1>  -0.1430 
 18 C        6.1960     5.4060     0.0400 C.ar  1 <1>   0.4770 
 19 C        4.8940     7.1880    -0.2410 C.ar  1 <1>   0.1600 
 20 C        2.3440     6.9530    -0.1650 C.3   1 <1>  -0.0170 
 21 N        6.1180     6.7040    -0.1760 N.ar  1 <1>  -0.6200 
 22 C        7.5940     4.8420     0.1210 C.3   1 <1>  -0.0970 
 23 C        2.2310     8.4720    -0.3460 C.3   1 <1>  -0.2400 
 24 H        2.1910     0.3620    -0.9520 H     1 <1>   0.0800 
 25 H        2.4620     0.0060     0.7530 H     1 <1>   0.0800 
 26 H       -1.7580    -1.1460     0.3590 H     1 <1>   0.1500 
 27 H        2.3260    -1.9460    -0.6170 H     1 <1>   0.1500 
 28 H        1.4460     2.1290     1.3970 H     1 <1>   0.0800 
 29 H        1.7730    -4.2830    -0.9980 H     1 <1>   0.1500 
 30 H       -0.0140     2.0000    -0.4390 H     1 <1>   0.4000 
 31 H        3.4880     2.4700    -0.8140 H     1 <1>   0.0800 
 32 H        3.8080     2.3610     0.8970 H     1 <1>   0.0800 
 33 H       -0.5100    -5.0830    -0.7160 H     1 <1>   0.1500 
 34 H        2.0290     4.4680    -0.0600 H     1 <1>   0.4000 
 35 H       -4.0810    -4.8860     0.0230 H     1 <1>   0.0800 
 36 H       -2.4990    -5.4870     0.5070 H     1 <1>   0.0800 
 37 H       -2.8340    -5.1210    -1.1960 H     1 <1>   0.0800 
 38 H        4.8110     8.2460    -0.4160 H     1 <1>   0.1500 
 39 H        1.8330     6.6810     0.7430 H     1 <1>   0.0800 
 40 H        1.8340     6.4730    -0.9820 H     1 <1>   0.0800 
 41 H        7.5650     3.7800     0.2780 H     1 <1>   0.0800 
 42 H        8.1170     5.3030     0.9370 H     1 <1>   0.0800 
 43 H        8.1150     5.0480    -0.7940 H     1 <1>   0.0800 
 44 H        2.7080     8.9850     0.4710 H     1 <1>   0.0800 
 45 H        1.1950     8.7590    -0.3660 H     1 <1>   0.0800 
 46 H        2.6840     8.7770    -1.2730 H     1 <1>   0.0800 
@<TRIPOS>BOND
  1   1   2  1   
  2   1   3  1   
  3   2   4  ar  
  4   2   5  ar  
  5   3   6  1   
  6   3  24  1   
  7   3  25  1   
  8   4   7  ar  
  9   4  26  1   
 10   5   8  ar  
 11   5  27  1   
 12   6   9  1   
 13   6  10  1   
 14   6  28  1   
 15   7  11  1   
 16   7  12  ar  
 17   8  12  ar  
 18   8  29  1   
 19   9  30  1   
 20  10  13  1   
 21  10  31  1   
 22  10  32  1   
 23  11  14  1   
 24  12  33  1   
 25  13  15  1   
 26  13  34  1   
 27  14  35  1   
 28  14  36  1   
 29  14  37  1   
 30  15  16  ar  
 31  15  17  ar  
 32  16  18  ar  
 33  17  19  ar  
 34  17  20  1   
 35  18  21  ar  
 36  18  22  1   
 37  19  21  ar  
 38  19  38  1   
 39  20  23  1   
 40  20  39  1   
 41  20  40  1   
 42  22  41  1   
 43  22  42  1   
 44  22  43  1   
 45  23  44  1   
 46  23  45  1   
 47  23  46  1   
@<TRIPOS>SUBSTRUCTURE
  1 ****   6 GROUP 4 **** **** 0

# MOE 2024.06 (io_trps.svl 2023.06)
