@<TRIPOS>MOLECULE
NONAME
43 45 1 0 0 
SMALL
USER_CHARGES


@<TRIPOS>ATOM
  1 F        1.0820    -0.8160    -0.5740 F     1 <1>  -0.3400 
  2 C        2.1570    -0.0660    -0.8100 C.3   1 <1>   1.1640 
  3 F        3.1920    -0.7830    -0.3810 F     1 <1>  -0.3400 
  4 F        2.2670    -0.0060    -2.1340 F     1 <1>  -0.3400 
  5 C        2.0720     1.3350    -0.1460 C.ar  1 <1>   0.1660 
  6 N        3.0760     2.1880    -0.2850 N.ar  1 <1>  -0.6200 
  7 C        0.9580     1.6980     0.5880 C.ar  1 <1>  -0.1500 
  8 C        2.9600     3.3750     0.3020 C.ar  1 <1>   0.7200 
  9 C        0.9340     2.9490     1.1530 C.ar  1 <1>   0.1600 
 10 N        1.9210     3.7940     1.0190 N.ar  1 <1>  -0.6200 
 11 N        4.0110     4.2430     0.1560 N.pl3 1 <1>  -0.8380 
 12 C        3.9370     5.6840     0.5080 C.3   1 <1>   0.2090 
 13 C        5.1660     3.9830    -0.7270 C.3   1 <1>   0.2090 
 14 C        4.9870     6.3600    -0.3700 C.3   1 <1>   0.0640 
 15 C        6.0100     5.2480    -0.6230 C.3   1 <1>  -0.1600 
 16 C        5.4870     7.6890     0.2180 C.ar  1 <1>  -0.1430 
 17 C        4.6640     8.8140     0.1420 C.ar  1 <1>   0.0820 
 18 C        6.7290     7.8140     0.8330 C.ar  1 <1>  -0.1500 
 19 O        3.4290     8.6770    -0.4110 O.3   1 <1>  -0.3620 
 20 C        5.1100    10.0480     0.6330 C.ar  1 <1>   0.0820 
 21 C        7.1510     9.0260     1.3510 C.ar  1 <1>  -0.1500 
 22 C        2.3220     8.9220     0.4310 C.3   1 <1>   0.0400 
 23 O        4.3840    11.1880     0.5250 O.3   1 <1>  -0.3630 
 24 C        6.3430    10.1420     1.2510 C.ar  1 <1>  -0.1500 
 25 C        4.2340    11.7040    -0.7790 C.3   1 <1>   0.0400 
 26 H        0.1220     1.0370     0.7260 H     1 <1>   0.1500 
 27 H        0.0800     3.2610     1.7310 H     1 <1>   0.1500 
 28 H        4.1800     5.8050     1.5490 H     1 <1>   0.0800 
 29 H        2.9570     6.0840     0.3150 H     1 <1>   0.0800 
 30 H        4.8170     3.8380    -1.7350 H     1 <1>   0.0800 
 31 H        5.7090     3.1120    -0.4010 H     1 <1>   0.0800 
 32 H        4.5170     6.5720    -1.3150 H     1 <1>   0.0800 
 33 H        6.5910     5.4190    -1.5110 H     1 <1>   0.0800 
 34 H        6.6660     5.1180     0.2160 H     1 <1>   0.0800 
 35 H        7.3940     6.9770     0.9260 H     1 <1>   0.1500 
 36 H        8.1110     9.1010     1.8300 H     1 <1>   0.1500 
 37 H        1.4390     8.5540    -0.0590 H     1 <1>   0.0800 
 38 H        2.2300     9.9790     0.6020 H     1 <1>   0.0800 
 39 H        2.4690     8.4060     1.3630 H     1 <1>   0.0800 
 40 H        6.6660    11.0890     1.6440 H     1 <1>   0.1500 
 41 H        3.6960    12.6320    -0.7130 H     1 <1>   0.0800 
 42 H        3.6850    11.0020    -1.3790 H     1 <1>   0.0800 
 43 H        5.2100    11.8710    -1.1990 H     1 <1>   0.0800 
@<TRIPOS>BOND
  1   1   2  1   
  2   2   3  1   
  3   2   4  1   
  4   2   5  1   
  5   5   6  ar  
  6   5   7  ar  
  7   6   8  ar  
  8   7   9  ar  
  9   7  26  1   
 10   8  10  ar  
 11   8  11  1   
 12   9  10  ar  
 13   9  27  1   
 14  11  12  1   
 15  11  13  1   
 16  12  14  1   
 17  12  28  1   
 18  12  29  1   
 19  13  15  1   
 20  13  30  1   
 21  13  31  1   
 22  14  15  1   
 23  14  16  1   
 24  14  32  1   
 25  15  33  1   
 26  15  34  1   
 27  16  17  ar  
 28  16  18  ar  
 29  17  19  1   
 30  17  20  ar  
 31  18  21  ar  
 32  18  35  1   
 33  19  22  1   
 34  20  23  1   
 35  20  24  ar  
 36  21  24  ar  
 37  21  36  1   
 38  22  37  1   
 39  22  38  1   
 40  22  39  1   
 41  23  25  1   
 42  24  40  1   
 43  25  41  1   
 44  25  42  1   
 45  25  43  1   
@<TRIPOS>SUBSTRUCTURE
  1 ****  12 GROUP 4 **** **** 0

# MOE 2024.06 (io_trps.svl 2023.06)
