@<TRIPOS>MOLECULE
Untitled Document
48 51 1 0 0 
SMALL
USER_CHARGES


@<TRIPOS>ATOM
  1 F        1.2060    -1.4330     2.2400 F     1 <1>  -0.3400 
  2 C        1.6390    -0.9660     1.0730 C.3   1 <1>   0.6000 
  3 F        1.0340     0.2100     0.9440 F     1 <1>  -0.3400 
  4 C        1.2080    -1.8870    -0.0860 C.3   1 <1>   0.2200 
  5 N        1.7560    -3.2480     0.0280 N.am  1 <1>  -0.4230 
  6 C       -0.3060    -2.1440    -0.1220 C.3   1 <1>   0.1200 
  7 C        0.7340    -4.1360     0.0980 C.2   1 <1>   0.7800 
  8 C        3.1390    -3.4930    -0.0150 C.2   1 <1>   0.2900 
  9 O       -0.4490    -3.5420     0.0230 O.3   1 <1>  -0.4300 
 10 O        0.8180    -5.3430     0.1980 O.2   1 <1>  -0.5700 
 11 N        4.0010    -2.4940    -0.2520 N.2   1 <1>  -0.5650 
 12 C        3.7930    -4.6550     0.1600 C.2   1 <1>  -0.3020 
 13 C        5.1920    -3.0470    -0.2190 C.2   1 <1>   0.1330 
 14 N        5.1060    -4.3920     0.0330 N.pl3 1 <1>   0.0480 
 15 C        6.4110    -2.2800    -0.4250 C.ar  1 <1>   0.0530 
 16 C        6.1210    -5.4580     0.1500 C.3   1 <1>   0.0960 
 17 C        7.7110    -2.7260    -0.1200 C.ar  1 <1>   0.0830 
 18 C        6.3180    -0.9820    -0.9410 C.ar  1 <1>  -0.1500 
 19 C        7.4710    -5.0480    -0.4160 C.3   1 <1>   0.1200 
 20 O        7.9680    -3.9690     0.3330 O.3   1 <1>  -0.3630 
 21 C        8.8130    -1.9070    -0.2760 C.ar  1 <1>  -0.1500 
 22 C        7.4220    -0.1700    -1.1100 C.ar  1 <1>  -0.1500 
 23 C        8.6870    -0.6190    -0.7660 C.ar  1 <1>   0.1000 
 24 N        9.7940     0.1970    -0.9240 N.pl3 1 <1>  -0.8690 
 25 C       10.1890     1.0350     0.2550 C.3   1 <1>   0.3500 
 26 C       10.8170     2.3790    -0.1790 C.2   1 <1>   0.5690 
 27 C       11.1620     0.2250     1.1150 C.3   1 <1>  -0.2400 
 28 O       10.5540     3.3950     0.4130 O.2   1 <1>  -0.5700 
 29 N       11.6620     2.4190    -1.2350 N.am  1 <1>  -0.8000 
 30 H        2.6990    -0.7960     1.1400 H     1 <1>   0.0800 
 31 H        1.5390    -1.4550    -1.0130 H     1 <1>   0.0800 
 32 H       -0.7330    -1.8500    -1.0650 H     1 <1>   0.0800 
 33 H       -0.8320    -1.6600     0.6830 H     1 <1>   0.0800 
 34 H        3.3890    -5.6300     0.3640 H     1 <1>   0.1500 
 35 H        6.2290    -5.7200     1.1870 H     1 <1>   0.0800 
 36 H        5.7650    -6.3220    -0.3810 H     1 <1>   0.0800 
 37 H        5.3530    -0.5930    -1.2120 H     1 <1>   0.1500 
 38 H        7.4030    -4.7680    -1.4540 H     1 <1>   0.0800 
 39 H        8.1720    -5.8570    -0.3170 H     1 <1>   0.0800 
 40 H        9.7890    -2.2770    -0.0260 H     1 <1>   0.1500 
 41 H        7.3030     0.8230    -1.5050 H     1 <1>   0.1500 
 42 H        9.6890     0.8210    -1.7310 H     1 <1>   0.4000 
 43 H        9.3110     1.2580     0.8380 H     1 <1>   0.0800 
 44 H       12.0160    -0.0730     0.5340 H     1 <1>   0.0800 
 45 H       10.6730    -0.6460     1.5090 H     1 <1>   0.0800 
 46 H       11.4970     0.8250     1.9410 H     1 <1>   0.0800 
 47 H       12.0950     3.3010    -1.5090 H     1 <1>   0.3700 
 48 H       11.9520     1.5760    -1.7350 H     1 <1>   0.3700 
@<TRIPOS>BOND
  1   1   2  1   
  2   2   3  1   
  3   2   4  1   
  4   2  30  1   
  5   4   5  1   
  6   4   6  1   
  7   4  31  1   
  8   5   7  am  
  9   5   8  1   
 10   6   9  1   
 11   6  32  1   
 12   6  33  1   
 13   7   9  1   
 14   7  10  2   
 15   8  11  1   
 16   8  12  2   
 17  11  13  2   
 18  12  14  1   
 19  12  34  1   
 20  13  14  1   
 21  13  15  1   
 22  14  16  1   
 23  15  17  ar  
 24  15  18  ar  
 25  16  19  1   
 26  16  35  1   
 27  16  36  1   
 28  17  20  1   
 29  17  21  ar  
 30  18  22  ar  
 31  18  37  1   
 32  19  20  1   
 33  19  38  1   
 34  19  39  1   
 35  21  23  ar  
 36  21  40  1   
 37  22  23  ar  
 38  22  41  1   
 39  23  24  1   
 40  24  25  1   
 41  24  42  1   
 42  25  26  1   
 43  25  27  1   
 44  25  43  1   
 45  26  28  2   
 46  26  29  am  
 47  27  44  1   
 48  27  45  1   
 49  27  46  1   
 50  29  47  1   
 51  29  48  1   
@<TRIPOS>SUBSTRUCTURE
  1 ****  15 GROUP 4 **** **** 0

# MOE 2024.06 (io_trps.svl 2023.06)
