@<TRIPOS>MOLECULE
NONAME
55 59 1 0 0 
SMALL
USER_CHARGES


@<TRIPOS>ATOM
  1 O       -2.4590     2.2420     2.2810 O.2   1 <1>  -0.5700 
  2 C       -2.5810     1.9050     1.1260 C.2   1 <1>   0.6300 
  3 N       -3.6410     1.1460     0.6970 N.am  1 <1>  -0.6600 
  4 C       -1.4980     2.3360     0.1470 C.3   1 <1>  -0.1000 
  5 C       -3.8090     0.6170    -0.6850 C.3   1 <1>   0.1400 
  6 C       -4.7400     0.7530     1.6210 C.3   1 <1>   0.1400 
  7 C       -0.8920     3.7060     0.2460 C.3   1 <1>  -0.0680 
  8 C       -1.7640     3.3590    -0.9200 C.3   1 <1>  -0.2000 
  9 C       -3.8660    -0.9120    -0.6310 C.3   1 <1>  -0.1600 
 10 C       -4.8080    -0.7730     1.7000 C.3   1 <1>  -0.1600 
 11 C        0.6090     3.8530     0.0820 C.ar  1 <1>  -0.0320 
 12 C       -4.9730    -1.4120     0.3090 C.3   1 <1>   0.4240 
 13 C        1.4630     3.2100     0.9630 C.ar  1 <1>  -0.1500 
 14 C        1.1390     4.6290    -0.9370 C.ar  1 <1>  -0.1500 
 15 O       -6.1740    -0.9350    -0.2530 O.3   1 <1>  -0.5600 
 16 C       -4.9510    -2.9540     0.3940 C.ar  1 <1>  -0.1440 
 17 C        2.8350     3.3320     0.8230 C.ar  1 <1>  -0.1500 
 18 C        2.5110     4.7530    -1.0790 C.ar  1 <1>  -0.1500 
 19 C       -7.3530    -1.5880     0.1010 C.3   1 <1>   0.1200 
 20 C       -6.0590    -3.7110     0.0280 C.ar  1 <1>  -0.1440 
 21 C       -3.8160    -3.6180     0.8470 C.ar  1 <1>  -0.1500 
 22 C        3.3590     4.1040    -0.1990 C.ar  1 <1>  -0.1500 
 23 C       -7.3140    -3.0090    -0.4530 C.3   1 <1>  -0.0170 
 24 C       -6.0280    -5.0950     0.1010 C.ar  1 <1>  -0.1500 
 25 C       -3.7850    -4.9990     0.9240 C.ar  1 <1>  -0.1500 
 26 C       -4.8860    -5.7480     0.5510 C.ar  1 <1>   0.0820 
 27 O       -4.7720    -7.0960     0.6530 O.3   1 <1>  -0.3620 
 28 C       -5.8280    -7.9510     0.2770 C.3   1 <1>   0.0400 
 29 H       -0.8310     1.5280    -0.0840 H     1 <1>   0.1000 
 30 H       -4.7240     1.0050    -1.1000 H     1 <1>   0.0800 
 31 H       -3.0000     0.9190    -1.3240 H     1 <1>   0.0800 
 32 H       -4.5760     1.1590     2.6050 H     1 <1>   0.0800 
 33 H       -5.6700     1.1460     1.2490 H     1 <1>   0.0800 
 34 H       -1.2930     4.3720     0.9920 H     1 <1>   0.1000 
 35 H       -1.3120     3.2190    -1.8860 H     1 <1>   0.1000 
 36 H       -2.7400     3.8080    -0.9770 H     1 <1>   0.1000 
 37 H       -2.9100    -1.2720    -0.3030 H     1 <1>   0.0800 
 38 H       -4.0400    -1.3060    -1.6150 H     1 <1>   0.0800 
 39 H       -5.6130    -1.0730     2.3430 H     1 <1>   0.0800 
 40 H       -3.8990    -1.1230     2.1520 H     1 <1>   0.0800 
 41 H        1.0540     2.6140     1.7600 H     1 <1>   0.1500 
 42 H        0.4820     5.1380    -1.6190 H     1 <1>   0.1500 
 43 H        3.4920     2.8280     1.5110 H     1 <1>   0.1500 
 44 H        2.9170     5.3560    -1.8730 H     1 <1>   0.1500 
 45 H       -7.4510    -1.5920     1.1720 H     1 <1>   0.0800 
 46 H       -8.1740    -1.0400    -0.3260 H     1 <1>   0.0800 
 47 H       -2.9430    -3.0680     1.1480 H     1 <1>   0.1500 
 48 H        4.4250     4.1990    -0.3090 H     1 <1>   0.1500 
 49 H       -8.1880    -3.5400    -0.1240 H     1 <1>   0.0800 
 50 H       -7.3220    -2.9740    -1.5270 H     1 <1>   0.0800 
 51 H       -6.8970    -5.6500    -0.1940 H     1 <1>   0.1500 
 52 H       -2.9040    -5.5050     1.2740 H     1 <1>   0.1500 
 53 H       -5.5080    -8.9650     0.4340 H     1 <1>   0.0800 
 54 H       -6.0500    -7.7940    -0.7640 H     1 <1>   0.0800 
 55 H       -6.6850    -7.7380     0.8910 H     1 <1>   0.0800 
@<TRIPOS>BOND
  1   1   2  2   
  2   2   3  am  
  3   2   4  1   
  4   3   5  1   
  5   3   6  1   
  6   4   7  1   
  7   4   8  1   
  8   4  29  1   
  9   5   9  1   
 10   5  30  1   
 11   5  31  1   
 12   6  10  1   
 13   6  32  1   
 14   6  33  1   
 15   7   8  1   
 16   7  11  1   
 17   7  34  1   
 18   8  35  1   
 19   8  36  1   
 20   9  12  1   
 21   9  37  1   
 22   9  38  1   
 23  10  12  1   
 24  10  39  1   
 25  10  40  1   
 26  11  13  ar  
 27  11  14  ar  
 28  12  15  1   
 29  12  16  1   
 30  13  17  ar  
 31  13  41  1   
 32  14  18  ar  
 33  14  42  1   
 34  15  19  1   
 35  16  20  ar  
 36  16  21  ar  
 37  17  22  ar  
 38  17  43  1   
 39  18  22  ar  
 40  18  44  1   
 41  19  23  1   
 42  19  45  1   
 43  19  46  1   
 44  20  23  1   
 45  20  24  ar  
 46  21  25  ar  
 47  21  47  1   
 48  22  48  1   
 49  23  49  1   
 50  23  50  1   
 51  24  26  ar  
 52  24  51  1   
 53  25  26  ar  
 54  25  52  1   
 55  26  27  1   
 56  27  28  1   
 57  28  53  1   
 58  28  54  1   
 59  28  55  1   
@<TRIPOS>SUBSTRUCTURE
  1 ****   9 GROUP 4 **** **** 0

# MOE 2024.06 (io_trps.svl 2023.06)
