@<TRIPOS>MOLECULE
NONAME
42 43 1 0 0 
SMALL
USER_CHARGES


@<TRIPOS>ATOM
  1 F       -4.6690    -1.1700    -2.7400 F     1 <1>  -0.1900 
  2 C       -4.7190    -1.6980    -1.5340 C.ar  1 <1>   0.1900 
  3 C       -4.1190    -1.0840    -0.4330 C.ar  1 <1>   0.4100 
  4 C       -5.3680    -2.8890    -1.3630 C.ar  1 <1>   0.1600 
  5 N       -4.1800    -1.6690     0.7500 N.ar  1 <1>  -0.6200 
  6 N       -3.4420     0.1330    -0.4950 N.pl3 1 <1>  -0.8380 
  7 N       -5.4400    -3.4680    -0.1810 N.ar  1 <1>  -0.6200 
  8 C       -4.8360    -2.8140     0.8060 C.ar  1 <1>   0.7200 
  9 C       -2.4020     0.4790     0.5140 C.3   1 <1>   0.1290 
 10 C       -4.0110     1.2910    -1.2370 C.3   1 <1>   0.1290 
 11 N       -4.8740    -3.3710     2.0410 N.pl3 1 <1>  -0.8690 
 12 C       -4.9530    -4.8360     2.2540 C.3   1 <1>   0.2090 
 13 C       -6.4170    -5.2710     2.3380 C.3   1 <1>   0.0200 
 14 C       -6.5600    -6.7550     2.0510 C.2   1 <1>   0.0070 
 15 N       -6.7240    -7.6390     2.9730 N.2   1 <1>  -0.3380 
 16 N       -6.5340    -7.3150     0.8320 N.pl3 1 <1>   0.0480 
 17 N       -6.8120    -8.8250     2.3710 N.2   1 <1>  -0.3380 
 18 C       -6.6970    -8.6100     1.1070 C.2   1 <1>   0.0360 
 19 C       -6.3520    -6.7210    -0.5100 C.3   1 <1>   0.0960 
 20 C       -7.6300    -6.0290    -0.9810 C.3   1 <1>   0.1200 
 21 O       -7.4310    -5.6050    -2.2920 O.3   1 <1>  -0.5600 
 22 C       -8.5190    -4.9260    -2.8320 C.3   1 <1>   0.0400 
 23 H       -5.8320    -3.3760    -2.2030 H     1 <1>   0.1500 
 24 H       -1.8940    -0.4110     0.8430 H     1 <1>   0.0800 
 25 H       -2.8640     0.9520     1.3630 H     1 <1>   0.0800 
 26 H       -1.6780     1.1470     0.0810 H     1 <1>   0.0800 
 27 H       -5.0170     1.0810    -1.5530 H     1 <1>   0.0800 
 28 H       -3.4060     1.4970    -2.1030 H     1 <1>   0.0800 
 29 H       -4.0300     2.1620    -0.6040 H     1 <1>   0.0800 
 30 H       -4.2690    -2.8610     2.6850 H     1 <1>   0.4000 
 31 H       -4.4430    -5.1060     3.1630 H     1 <1>   0.0800 
 32 H       -4.4630    -5.3390     1.4380 H     1 <1>   0.0800 
 33 H       -7.0140    -4.7150     1.6420 H     1 <1>   0.0800 
 34 H       -6.7860    -5.0630     3.3260 H     1 <1>   0.0800 
 35 H       -6.7250    -9.3750     0.3530 H     1 <1>   0.1500 
 36 H       -6.1000    -7.5040    -1.2010 H     1 <1>   0.0800 
 37 H       -5.5420    -6.0190    -0.4770 H     1 <1>   0.0800 
 38 H       -7.8450    -5.1670    -0.3740 H     1 <1>   0.0800 
 39 H       -8.4600    -6.7150    -0.9660 H     1 <1>   0.0800 
 40 H       -8.2720    -4.6450    -3.8410 H     1 <1>   0.0800 
 41 H       -8.7150    -4.0430    -2.2480 H     1 <1>   0.0800 
 42 H       -9.3780    -5.5750    -2.8380 H     1 <1>   0.0800 
@<TRIPOS>BOND
  1   1   2  1   
  2   2   3  ar  
  3   2   4  ar  
  4   3   5  ar  
  5   3   6  1   
  6   4   7  ar  
  7   4  23  1   
  8   5   8  ar  
  9   6   9  1   
 10   6  10  1   
 11   7   8  ar  
 12   8  11  1   
 13   9  24  1   
 14   9  25  1   
 15   9  26  1   
 16  10  27  1   
 17  10  28  1   
 18  10  29  1   
 19  11  12  1   
 20  11  30  1   
 21  12  13  1   
 22  12  31  1   
 23  12  32  1   
 24  13  14  1   
 25  13  33  1   
 26  13  34  1   
 27  14  15  2   
 28  14  16  1   
 29  15  17  1   
 30  16  18  1   
 31  16  19  1   
 32  17  18  2   
 33  18  35  1   
 34  19  20  1   
 35  19  36  1   
 36  19  37  1   
 37  20  21  1   
 38  20  38  1   
 39  20  39  1   
 40  21  22  1   
 41  22  40  1   
 42  22  41  1   
 43  22  42  1   
@<TRIPOS>SUBSTRUCTURE
  1 ****   7 GROUP 4 **** **** 0

# MOE 2024.06 (io_trps.svl 2023.06)
