@<TRIPOS>MOLECULE
NONAME
49 50 1 0 0 
SMALL
USER_CHARGES


@<TRIPOS>ATOM
  1 S       -0.4810     0.5270     1.5820 S.o2  1 <1>   1.4470 
  2 O       -0.0630    -0.5700     2.4290 O.2   1 <1>  -0.6500 
  3 O       -1.2340     1.6160     2.1670 O.2   1 <1>  -0.6500 
  4 N       -1.3930    -0.0970     0.2930 N.am  1 <1>  -0.8490 
  5 C        0.9790     1.2240     0.7580 C.ar  1 <1>  -0.0090 
  6 C       -0.8840    -1.3510    -0.3090 C.3   1 <1>   0.1960 
  7 C       -2.8420    -0.1070     0.4850 C.3   1 <1>   0.1960 
  8 C        0.8830     1.8540    -0.4770 C.ar  1 <1>  -0.1500 
  9 C        2.2320     1.1620     1.3560 C.ar  1 <1>  -0.1500 
 10 C       -1.7160    -2.6310    -0.0040 C.3   1 <1>  -0.1060 
 11 C       -3.2630    -1.1890     1.4830 C.3   1 <1>  -0.1600 
 12 C        1.9900     2.4010    -1.1060 C.ar  1 <1>  -0.1440 
 13 C        3.3490     1.7040     0.7460 C.ar  1 <1>  -0.1500 
 14 C       -2.7460    -2.8150    -1.1350 C.2   1 <1>   0.9060 
 15 C       -2.4140    -2.4650     1.3720 C.3   1 <1>   0.2000 
 16 C       -0.7840    -3.8810    -0.0270 C.3   1 <1>  -0.1600 
 17 C        3.2360     2.3280    -0.4930 C.ar  1 <1>   0.0820 
 18 C        1.8310     3.0750    -2.4620 C.3   1 <1>  -0.0970 
 19 O       -3.9120    -3.1500    -0.8720 O.co2 1 <1>  -0.9000 
 20 O       -2.3870    -2.6580    -2.3080 O.co2 1 <1>  -0.9000 
 21 O       -3.2410    -3.5430     1.6140 O.3   1 <1>  -0.6800 
 22 C        0.2260    -4.0090     1.1300 C.3   1 <1>  -0.1600 
 23 O        4.2950     2.8790    -1.1410 O.3   1 <1>  -0.3630 
 24 C        1.1700    -5.1920     0.8980 C.3   1 <1>  -0.2400 
 25 C        5.5920     2.8760    -0.5860 C.3   1 <1>   0.0400 
 26 H       -0.8220    -1.2030    -1.3730 H     1 <1>   0.0800 
 27 H        0.1300    -1.4960     0.0130 H     1 <1>   0.0800 
 28 H       -3.1860     0.8580     0.8160 H     1 <1>   0.0800 
 29 H       -3.3110    -0.3030    -0.4660 H     1 <1>   0.0800 
 30 H       -0.0830     1.9120    -0.9500 H     1 <1>   0.1500 
 31 H        2.3310     0.6810     2.3150 H     1 <1>   0.1500 
 32 H       -4.3000    -1.4120     1.3010 H     1 <1>   0.0800 
 33 H       -3.1790    -0.8020     2.4820 H     1 <1>   0.0800 
 34 H        4.2940     1.6300     1.2490 H     1 <1>   0.1500 
 35 H       -1.6800    -2.4460     2.1560 H     1 <1>   0.0800 
 36 H       -1.4070    -4.7610    -0.0230 H     1 <1>   0.0800 
 37 H       -0.2540    -3.8850    -0.9650 H     1 <1>   0.0800 
 38 H        0.8100     3.0430    -2.7960 H     1 <1>   0.0800 
 39 H        2.4460     2.5760    -3.1890 H     1 <1>   0.0800 
 40 H        2.1400     4.1030    -2.3950 H     1 <1>   0.0800 
 41 H       -3.7690    -3.6470     0.7690 H     1 <1>   0.4000 
 42 H        0.8100    -3.1130     1.2360 H     1 <1>   0.0800 
 43 H       -0.3030    -4.1710     2.0540 H     1 <1>   0.0800 
 44 H        1.7340    -5.0500    -0.0060 H     1 <1>   0.0800 
 45 H        0.6080    -6.1060     0.8180 H     1 <1>   0.0800 
 46 H        1.8560    -5.2810     1.7220 H     1 <1>   0.0800 
 47 H        6.2500     3.3730    -1.2750 H     1 <1>   0.0800 
 48 H        5.9090     1.8570    -0.4470 H     1 <1>   0.0800 
 49 H        5.5720     3.4070     0.3490 H     1 <1>   0.0800 
@<TRIPOS>BOND
  1   1   2  2   
  2   1   3  2   
  3   1   4  am  
  4   1   5  1   
  5   4   6  1   
  6   4   7  1   
  7   5   8  ar  
  8   5   9  ar  
  9   6  10  1   
 10   6  26  1   
 11   6  27  1   
 12   7  11  1   
 13   7  28  1   
 14   7  29  1   
 15   8  12  ar  
 16   8  30  1   
 17   9  13  ar  
 18   9  31  1   
 19  10  14  1   
 20  10  15  1   
 21  10  16  1   
 22  11  15  1   
 23  11  32  1   
 24  11  33  1   
 25  12  17  ar  
 26  12  18  1   
 27  13  17  ar  
 28  13  34  1   
 29  14  19  ar  
 30  14  20  ar  
 31  15  21  1   
 32  15  35  1   
 33  16  22  1   
 34  16  36  1   
 35  16  37  1   
 36  17  23  1   
 37  18  38  1   
 38  18  39  1   
 39  18  40  1   
 40  21  41  1   
 41  22  24  1   
 42  22  42  1   
 43  22  43  1   
 44  23  25  1   
 45  24  44  1   
 46  24  45  1   
 47  24  46  1   
 48  25  47  1   
 49  25  48  1   
 50  25  49  1   
@<TRIPOS>SUBSTRUCTURE
  1 ****   6 GROUP 4 **** **** 0

# MOE 2024.06 (io_trps.svl 2023.06)
