@<TRIPOS>MOLECULE
NONAME
50 52 1 0 0 
SMALL
USER_CHARGES


@<TRIPOS>ATOM
  1 CL       0.5600    -0.0500    -0.4600 Cl    1 <1>  -0.1770 
  2 C        0.4780     1.6440    -0.0560 C.ar  1 <1>   0.1770 
  3 C       -0.7120     2.3230    -0.1970 C.ar  1 <1>  -0.1500 
  4 C        1.6130     2.2800     0.4090 C.ar  1 <1>  -0.1500 
  5 C       -0.7900     3.6760     0.1230 C.ar  1 <1>   0.1170 
  6 C        1.5470     3.6220     0.7240 C.ar  1 <1>  -0.1500 
  7 N       -2.0010     4.3770     0.0350 N.am  1 <1>  -0.5470 
  8 C        0.3610     4.3470     0.5730 C.ar  1 <1>   0.0860 
  9 C       -3.1080     4.1840    -0.7400 C.2   1 <1>   0.5690 
 10 C        0.3180     5.7640     0.8710 C.2   1 <1>   0.5440 
 11 O       -3.1840     3.3310    -1.5880 O.2   1 <1>  -0.5700 
 12 C       -4.2870     5.1190    -0.5330 C.3   1 <1>  -0.0990 
 13 O       -0.5120     6.1760     1.6640 O.2   1 <1>  -0.5700 
 14 N        1.1520     6.6880     0.2640 N.am  1 <1>  -0.6600 
 15 C       -4.8290     5.1080     0.9060 C.3   1 <1>  -0.2400 
 16 C        1.3210     8.0490     0.8860 C.3   1 <1>   0.1400 
 17 C        1.7910     6.4000    -1.0620 C.3   1 <1>   0.1400 
 18 C        2.7810     8.4720     1.1920 C.3   1 <1>   0.4230 
 19 C        3.2200     6.9490    -1.2480 C.3   1 <1>  -0.0800 
 20 N        3.4880     9.1190     0.0260 N.4   1 <1>  -0.9590 
 21 C        3.6550     7.3460     1.8010 C.3   1 <1>   0.1200 
 22 C        4.2910     6.3440    -0.3150 C.3   1 <1>   0.1200 
 23 C        3.2200     8.4770    -1.2930 C.3   1 <1>   0.3430 
 24 C        3.2000    10.5860    -0.0430 C.3   1 <1>   0.2630 
 25 O        3.8370     6.2120     0.9950 O.3   1 <1>  -0.5600 
 26 H       -1.5770     1.7910    -0.5480 H     1 <1>   0.1500 
 27 H        2.5280     1.7240     0.5220 H     1 <1>   0.1500 
 28 H        2.4240     4.1230     1.0950 H     1 <1>   0.1500 
 29 H       -2.0500     5.1890     0.6630 H     1 <1>   0.3700 
 30 H       -3.9860     6.1150    -0.8000 H     1 <1>   0.0800 
 31 H       -5.0740     4.8260    -1.2060 H     1 <1>   0.0800 
 32 H       -4.0850     5.4580     1.6000 H     1 <1>   0.0800 
 33 H       -5.1180     4.1090     1.1840 H     1 <1>   0.0800 
 34 H       -5.6920     5.7470     0.9800 H     1 <1>   0.0800 
 35 H        0.8410     8.7840     0.2660 H     1 <1>   0.0800 
 36 H        0.8060     8.0670     1.8300 H     1 <1>   0.0800 
 37 H        1.8220     5.3390    -1.2330 H     1 <1>   0.0800 
 38 H        1.1550     6.8110    -1.8290 H     1 <1>   0.0800 
 39 H        2.7090     9.2230     1.9610 H     1 <1>   0.0800 
 40 H        3.5030     6.6490    -2.2410 H     1 <1>   0.0800 
 41 H        4.4930     9.0010     0.2150 H     1 <1>   0.4500 
 42 H        3.1860     6.9980     2.7050 H     1 <1>   0.0800 
 43 H        4.6260     7.7250     2.0650 H     1 <1>   0.0800 
 44 H        5.2070     6.9100    -0.3170 H     1 <1>   0.0800 
 45 H        4.5220     5.3460    -0.6500 H     1 <1>   0.0800 
 46 H        2.2670     8.8090    -1.6720 H     1 <1>   0.0800 
 47 H        3.9750     8.8010    -1.9930 H     1 <1>   0.0800 
 48 H        2.1530    10.7560    -0.2370 H     1 <1>   0.0800 
 49 H        3.7730    11.0440    -0.8340 H     1 <1>   0.0800 
 50 H        3.4600    11.0650     0.8870 H     1 <1>   0.0800 
@<TRIPOS>BOND
  1   1   2  1   
  2   2   3  ar  
  3   2   4  ar  
  4   3   5  ar  
  5   3  26  1   
  6   4   6  ar  
  7   4  27  1   
  8   5   7  1   
  9   5   8  ar  
 10   6   8  ar  
 11   6  28  1   
 12   7   9  am  
 13   7  29  1   
 14   8  10  1   
 15   9  11  2   
 16   9  12  1   
 17  10  13  2   
 18  10  14  am  
 19  12  15  1   
 20  12  30  1   
 21  12  31  1   
 22  14  16  1   
 23  14  17  1   
 24  15  32  1   
 25  15  33  1   
 26  15  34  1   
 27  16  18  1   
 28  16  35  1   
 29  16  36  1   
 30  17  19  1   
 31  17  37  1   
 32  17  38  1   
 33  18  20  1   
 34  18  21  1   
 35  18  39  1   
 36  19  22  1   
 37  19  23  1   
 38  19  40  1   
 39  20  23  1   
 40  20  24  1   
 41  20  41  1   
 42  21  25  1   
 43  21  42  1   
 44  21  43  1   
 45  22  25  1   
 46  22  44  1   
 47  22  45  1   
 48  23  46  1   
 49  23  47  1   
 50  24  48  1   
 51  24  49  1   
 52  24  50  1   
@<TRIPOS>SUBSTRUCTURE
  1 ****  10 GROUP 4 **** **** 0

# MOE 2024.06 (io_trps.svl 2023.06)
