@<TRIPOS>MOLECULE
NONAME
54 57 1 0 0 
SMALL
USER_CHARGES


@<TRIPOS>ATOM
  1 O       -5.2950     0.1240    -2.3560 O.2   1 <1>  -0.5700 
  2 C       -4.6730    -0.4200    -1.4870 C.2   1 <1>   0.5690 
  3 N       -4.1840     0.2870    -0.4540 N.am  1 <1>  -0.7300 
  4 C       -4.4780    -1.9110    -1.5320 C.3   1 <1>  -0.0190 
  5 C       -3.4280    -0.2680     0.6920 C.3   1 <1>   0.2200 
  6 C       -2.9810    -2.2910    -1.5910 C.3   1 <1>   0.1200 
  7 C       -5.3080    -2.5430    -0.4070 C.3   1 <1>   0.3430 
  8 C       -2.1250    -0.9480     0.2010 C.3   1 <1>   0.1200 
  9 C       -4.3360    -1.2020     1.5430 C.3   1 <1>   0.3430 
 10 O       -2.3430    -2.2250    -0.3430 O.3   1 <1>  -0.5600 
 11 N       -4.6300    -2.5490     0.9330 N.4   1 <1>  -0.9590 
 12 C       -5.3080    -3.4650     1.8880 C.3   1 <1>   0.4860 
 13 C       -5.2320    -4.8820     1.3550 C.ar  1 <1>  -0.1430 
 14 C       -6.3420    -5.4450     0.7340 C.ar  1 <1>   0.0820 
 15 C       -4.0630    -5.6160     1.4820 C.ar  1 <1>  -0.1500 
 16 O       -7.4500    -4.6690     0.6250 O.3   1 <1>  -0.3630 
 17 C       -6.2710    -6.7470     0.2470 C.ar  1 <1>  -0.1500 
 18 C       -3.9980    -6.9090     0.9930 C.ar  1 <1>  -0.1500 
 19 C       -8.6830    -5.2050     0.1950 C.3   1 <1>   0.1200 
 20 C       -5.1010    -7.4730     0.3780 C.ar  1 <1>  -0.1500 
 21 C       -9.7320    -4.0980     0.2920 C.3   1 <1>  -0.1600 
 22 C      -11.1150    -4.6010    -0.1380 C.3   1 <1>   0.0960 
 23 N      -12.1010    -3.5090    -0.0400 N.pl3 1 <1>   0.0480 
 24 C      -12.8630    -3.1740     1.0250 C.2   1 <1>   0.0360 
 25 C      -12.4200    -2.6070    -0.9850 C.2   1 <1>  -0.3020 
 26 N      -13.6240    -2.1480     0.8260 N.2   1 <1>  -0.5650 
 27 C      -13.3470    -1.7890    -0.4410 C.2   1 <1>   0.0770 
 28 H       -4.3080     1.3040    -0.5070 H     1 <1>   0.3700 
 29 H       -4.9150    -2.2340    -2.4600 H     1 <1>   0.0800 
 30 H       -3.1450     0.5660     1.3110 H     1 <1>   0.0800 
 31 H       -2.4510    -1.6600    -2.2860 H     1 <1>   0.0800 
 32 H       -2.8870    -3.3090    -1.9320 H     1 <1>   0.0800 
 33 H       -5.5100    -3.5610    -0.6970 H     1 <1>   0.0800 
 34 H       -6.2580    -2.0370    -0.3360 H     1 <1>   0.0800 
 35 H       -1.4600    -1.0800     1.0370 H     1 <1>   0.0800 
 36 H       -1.6210    -0.3350    -0.5270 H     1 <1>   0.0800 
 37 H       -5.2600    -0.6870     1.7470 H     1 <1>   0.0800 
 38 H       -3.8390    -1.3600     2.4860 H     1 <1>   0.0800 
 39 H       -3.6970    -2.9580     0.7250 H     1 <1>   0.4500 
 40 H       -4.8220    -3.4280     2.8480 H     1 <1>   0.0800 
 41 H       -6.3380    -3.1730     2.0170 H     1 <1>   0.0800 
 42 H       -3.1930    -5.2000     1.9620 H     1 <1>   0.1500 
 43 H       -7.1070    -7.2160    -0.2380 H     1 <1>   0.1500 
 44 H       -3.0900    -7.4810     1.0920 H     1 <1>   0.1500 
 45 H       -8.5740    -5.5410    -0.8220 H     1 <1>   0.0800 
 46 H       -8.9360    -6.0320     0.8370 H     1 <1>   0.0800 
 47 H       -5.0460    -8.4810     0.0010 H     1 <1>   0.1500 
 48 H       -9.7860    -3.7540     1.3110 H     1 <1>   0.0800 
 49 H       -9.4420    -3.2810    -0.3440 H     1 <1>   0.0800 
 50 H      -11.4360    -5.4110     0.4930 H     1 <1>   0.0800 
 51 H      -11.0900    -4.9470    -1.1570 H     1 <1>   0.0800 
 52 H      -12.8260    -3.7220     1.9500 H     1 <1>   0.1500 
 53 H      -11.9860    -2.5910    -1.9680 H     1 <1>   0.1500 
 54 H      -13.8380    -0.9470    -0.9020 H     1 <1>   0.1500 
@<TRIPOS>BOND
  1   1   2  2   
  2   2   3  am  
  3   2   4  1   
  4   3   5  1   
  5   3  28  1   
  6   4   6  1   
  7   4   7  1   
  8   4  29  1   
  9   5   8  1   
 10   5   9  1   
 11   5  30  1   
 12   6  10  1   
 13   6  31  1   
 14   6  32  1   
 15   7  11  1   
 16   7  33  1   
 17   7  34  1   
 18   8  10  1   
 19   8  35  1   
 20   8  36  1   
 21   9  11  1   
 22   9  37  1   
 23   9  38  1   
 24  11  12  1   
 25  11  39  1   
 26  12  13  1   
 27  12  40  1   
 28  12  41  1   
 29  13  14  ar  
 30  13  15  ar  
 31  14  16  1   
 32  14  17  ar  
 33  15  18  ar  
 34  15  42  1   
 35  16  19  1   
 36  17  20  ar  
 37  17  43  1   
 38  18  20  ar  
 39  18  44  1   
 40  19  21  1   
 41  19  45  1   
 42  19  46  1   
 43  20  47  1   
 44  21  22  1   
 45  21  48  1   
 46  21  49  1   
 47  22  23  1   
 48  22  50  1   
 49  22  51  1   
 50  23  24  1   
 51  23  25  1   
 52  24  26  2   
 53  24  52  1   
 54  25  27  2   
 55  25  53  1   
 56  26  27  1   
 57  27  54  1   
@<TRIPOS>SUBSTRUCTURE
  1 ****   7 GROUP 4 **** **** 0

# MOE 2024.06 (io_trps.svl 2023.06)
