@<TRIPOS>MOLECULE
NONAME
50 53 1 0 0 
SMALL
USER_CHARGES


@<TRIPOS>ATOM
  1 O       -2.6770     0.5060     1.6140 O.2   1 <1>  -0.5700 
  2 C       -1.9270     1.2320     0.9920 C.2   1 <1>   0.6900 
  3 N       -2.3320     2.0660    -0.0090 N.am  1 <1>  -0.4200 
  4 N       -0.5800     1.2970     1.1750 N.am  1 <1>  -0.6600 
  5 C       -1.2560     2.7120    -0.5340 C.2   1 <1>   0.5690 
  6 C       -3.7340     2.2020    -0.4930 C.3   1 <1>   0.2010 
  7 C       -0.0020     2.2580     0.1980 C.3   1 <1>   0.2010 
  8 C        0.2480     0.4920     2.1050 C.3   1 <1>   0.0600 
  9 O       -1.2750     3.5190    -1.4290 O.2   1 <1>  -0.5700 
 10 C       -4.2170     0.9810    -1.2720 C.2   1 <1>   0.5690 
 11 O       -4.7050     1.1360    -2.3650 O.2   1 <1>  -0.5700 
 12 N       -4.1020    -0.2530    -0.7170 N.am  1 <1>  -0.7300 
 13 C       -4.4630    -1.5320    -1.3640 C.3   1 <1>   0.2200 
 14 C       -5.4390    -2.2820    -0.4730 C.3   1 <1>  -0.0800 
 15 C       -3.2500    -2.4650    -1.3870 C.3   1 <1>   0.1200 
 16 C       -4.4830    -2.9930     0.4840 C.3   1 <1>   0.1200 
 17 C       -6.2890    -3.2760    -1.2900 C.3   1 <1>  -0.0160 
 18 O       -3.3470    -3.2980    -0.2660 O.3   1 <1>  -0.5600 
 19 C       -7.3020    -4.0100    -0.4170 C.ar  1 <1>  -0.1440 
 20 C       -8.5020    -3.4060     0.0290 C.ar  1 <1>   0.0000 
 21 C       -7.0690    -5.3000    -0.0400 C.ar  1 <1>  -0.1500 
 22 C       -9.3670    -4.1820     0.8390 C.ar  1 <1>   0.3100 
 23 C       -8.8970    -2.0850    -0.2850 C.ar  1 <1>  -0.1500 
 24 C       -7.9920    -5.9790     0.7640 C.ar  1 <1>   0.1600 
 25 N       -9.0980    -5.4630     1.1980 N.ar  1 <1>  -0.6200 
 26 C      -10.5640    -3.6090     1.2990 C.ar  1 <1>  -0.1500 
 27 C      -10.0710    -1.5560     0.1790 C.ar  1 <1>  -0.1500 
 28 C      -10.9170    -2.3260     0.9820 C.ar  1 <1>  -0.1500 
 29 H       -4.3820     2.3500     0.3510 H     1 <1>   0.0800 
 30 H       -3.8080     3.0660    -1.1290 H     1 <1>   0.0800 
 31 H        0.4700     3.0840     0.6980 H     1 <1>   0.0800 
 32 H        0.6760     1.7670    -0.4760 H     1 <1>   0.0800 
 33 H        0.7930     1.1430     2.7660 H     1 <1>   0.0800 
 34 H        0.9410    -0.1140     1.5480 H     1 <1>   0.0800 
 35 H       -0.3840    -0.1530     2.6930 H     1 <1>   0.0800 
 36 H       -3.6660    -0.3390     0.2150 H     1 <1>   0.3700 
 37 H       -4.8470    -1.3520    -2.3540 H     1 <1>   0.0800 
 38 H       -6.0850    -1.6070     0.0590 H     1 <1>   0.0800 
 39 H       -2.3200    -1.9250    -1.3510 H     1 <1>   0.0800 
 40 H       -3.2720    -3.0940    -2.2580 H     1 <1>   0.0800 
 41 H       -4.8870    -3.8960     0.9040 H     1 <1>   0.0800 
 42 H       -4.1800    -2.3320     1.2790 H     1 <1>   0.0800 
 43 H       -5.6440    -3.9940    -1.7670 H     1 <1>   0.0800 
 44 H       -6.8090    -2.7580    -2.0760 H     1 <1>   0.0800 
 45 H       -6.1790    -5.8230    -0.3420 H     1 <1>   0.1500 
 46 H       -8.2640    -1.4750    -0.9020 H     1 <1>   0.1500 
 47 H       -7.7660    -6.9960     1.0390 H     1 <1>   0.1500 
 48 H      -11.1980    -4.2200     1.9130 H     1 <1>   0.1500 
 49 H      -10.3590    -0.5480    -0.0670 H     1 <1>   0.1500 
 50 H      -11.8380    -1.9000     1.3410 H     1 <1>   0.1500 
@<TRIPOS>BOND
  1   1   2  2   
  2   2   3  am  
  3   2   4  am  
  4   3   5  am  
  5   3   6  1   
  6   4   7  1   
  7   4   8  1   
  8   5   7  1   
  9   5   9  2   
 10   6  10  1   
 11   6  29  1   
 12   6  30  1   
 13   7  31  1   
 14   7  32  1   
 15   8  33  1   
 16   8  34  1   
 17   8  35  1   
 18  10  11  2   
 19  10  12  am  
 20  12  13  1   
 21  12  36  1   
 22  13  14  1   
 23  13  15  1   
 24  13  37  1   
 25  14  16  1   
 26  14  17  1   
 27  14  38  1   
 28  15  18  1   
 29  15  39  1   
 30  15  40  1   
 31  16  18  1   
 32  16  41  1   
 33  16  42  1   
 34  17  19  1   
 35  17  43  1   
 36  17  44  1   
 37  19  20  ar  
 38  19  21  ar  
 39  20  22  ar  
 40  20  23  ar  
 41  21  24  ar  
 42  21  45  1   
 43  22  25  ar  
 44  22  26  ar  
 45  23  27  ar  
 46  23  46  1   
 47  24  25  ar  
 48  24  47  1   
 49  26  28  ar  
 50  26  48  1   
 51  27  28  ar  
 52  27  49  1   
 53  28  50  1   
@<TRIPOS>SUBSTRUCTURE
  1 ****  14 GROUP 4 **** **** 0

# MOE 2024.06 (io_trps.svl 2023.06)
