@<TRIPOS>MOLECULE
NONAME
49 50 1 0 0 
SMALL
USER_CHARGES


@<TRIPOS>ATOM
  1 O       -0.3920    -0.7100    -0.1060 O.2   1 <1>  -0.5700 
  2 C       -1.4730    -1.2280     0.0720 C.2   1 <1>   0.6900 
  3 N       -2.2910    -0.8990     1.1330 N.am  1 <1>  -0.4200 
  4 N       -1.8960    -2.1730    -0.8190 N.am  1 <1>  -0.5390 
  5 C       -3.5300    -1.5030     1.2640 C.2   1 <1>   0.6160 
  6 C       -1.8530     0.1330     2.1160 C.3   1 <1>   0.0600 
  7 C       -3.1140    -2.8130    -0.7200 C.2   1 <1>  -0.0410 
  8 O       -4.2670    -1.1910     2.1830 O.2   1 <1>  -0.5700 
  9 C       -3.9410    -2.4960     0.3060 C.2   1 <1>  -0.1240 
 10 C       -5.3190    -3.1210     0.5410 C.3   1 <1>  -0.0220 
 11 C       -5.7260    -4.1780    -0.4910 C.3   1 <1>   0.3430 
 12 N       -7.0310    -4.8230    -0.1380 N.4   1 <1>  -0.9590 
 13 C       -7.2310    -6.0630    -0.9440 C.3   1 <1>   0.3430 
 14 C       -8.1880    -3.8750    -0.2740 C.3   1 <1>   0.2630 
 15 C       -8.3210    -6.9230    -0.3130 C.3   1 <1>  -0.1600 
 16 C       -8.3740    -8.3210    -0.9530 C.3   1 <1>   0.0960 
 17 N       -9.2620    -9.1980    -0.1680 N.pl3 1 <1>   0.3140 
 18 N       -8.9330    -9.5270     1.0930 N.2   1 <1>  -0.7070 
 19 C      -10.4440    -9.7450    -0.5310 C.2   1 <1>  -0.3320 
 20 C       -9.9040   -10.2790     1.5040 C.2   1 <1>   0.1080 
 21 C      -10.8820   -10.4510     0.5330 C.2   1 <1>  -0.1500 
 22 C      -11.1230    -9.5830    -1.8810 C.3   1 <1>  -0.0600 
 23 C       -9.9330   -10.8820     2.8890 C.3   1 <1>  -0.0590 
 24 H       -1.2250    -2.3560    -1.5690 H     1 <1>   0.3700 
 25 H       -0.7790     0.1930     2.1480 H     1 <1>   0.0800 
 26 H       -2.2090    -0.1160     3.1010 H     1 <1>   0.0800 
 27 H       -2.2500     1.0910     1.8300 H     1 <1>   0.0800 
 28 H       -3.3300    -3.5390    -1.4860 H     1 <1>   0.1500 
 29 H       -6.0410    -2.3240     0.5430 H     1 <1>   0.0800 
 30 H       -5.3150    -3.5720     1.5190 H     1 <1>   0.0800 
 31 H       -4.9550    -4.9310    -0.5230 H     1 <1>   0.0800 
 32 H       -5.7920    -3.7230    -1.4670 H     1 <1>   0.0800 
 33 H       -6.9770    -5.1190     0.8510 H     1 <1>   0.4500 
 34 H       -6.3130    -6.6300    -0.9590 H     1 <1>   0.0800 
 35 H       -7.4910    -5.8140    -1.9610 H     1 <1>   0.0800 
 36 H       -8.2820    -3.5390    -1.2940 H     1 <1>   0.0800 
 37 H       -8.0510    -3.0150     0.3610 H     1 <1>   0.0800 
 38 H       -9.1080    -4.3590     0.0150 H     1 <1>   0.0800 
 39 H       -9.2850    -6.4600    -0.4250 H     1 <1>   0.0800 
 40 H       -8.1060    -7.0390     0.7360 H     1 <1>   0.0800 
 41 H       -7.3990    -8.7730    -0.9500 H     1 <1>   0.0800 
 42 H       -8.7290    -8.2700    -1.9650 H     1 <1>   0.0800 
 43 H      -11.7820   -11.0300     0.6370 H     1 <1>   0.1500 
 44 H      -10.4960    -9.9710    -2.6630 H     1 <1>   0.0800 
 45 H      -11.3330    -8.5460    -2.0730 H     1 <1>   0.0800 
 46 H      -12.0520   -10.1250    -1.8920 H     1 <1>   0.0800 
 47 H       -9.9070   -10.0980     3.6230 H     1 <1>   0.0800 
 48 H       -9.0750   -11.5140     3.0210 H     1 <1>   0.0800 
 49 H      -10.8250   -11.4650     3.0260 H     1 <1>   0.0800 
@<TRIPOS>BOND
  1   1   2  2   
  2   2   3  am  
  3   2   4  am  
  4   3   5  am  
  5   3   6  1   
  6   4   7  1   
  7   4  24  1   
  8   5   8  2   
  9   5   9  1   
 10   6  25  1   
 11   6  26  1   
 12   6  27  1   
 13   7   9  2   
 14   7  28  1   
 15   9  10  1   
 16  10  11  1   
 17  10  29  1   
 18  10  30  1   
 19  11  12  1   
 20  11  31  1   
 21  11  32  1   
 22  12  13  1   
 23  12  14  1   
 24  12  33  1   
 25  13  15  1   
 26  13  34  1   
 27  13  35  1   
 28  14  36  1   
 29  14  37  1   
 30  14  38  1   
 31  15  16  1   
 32  15  39  1   
 33  15  40  1   
 34  16  17  1   
 35  16  41  1   
 36  16  42  1   
 37  17  18  1   
 38  17  19  1   
 39  18  20  2   
 40  19  21  2   
 41  19  22  1   
 42  20  21  1   
 43  20  23  1   
 44  21  43  1   
 45  22  44  1   
 46  22  45  1   
 47  22  46  1   
 48  23  47  1   
 49  23  48  1   
 50  23  49  1   
@<TRIPOS>SUBSTRUCTURE
  1 ****  12 GROUP 4 **** **** 0

# MOE 2024.06 (io_trps.svl 2023.06)
