@<TRIPOS>MOLECULE
NONAME
43 46 1 0 0 
SMALL
USER_CHARGES


@<TRIPOS>ATOM
  1 S       -0.3550     0.5060    -1.4830 S.3   1 <1>  -0.0800 
  2 C       -0.2120     1.9240    -0.4660 C.2   1 <1>  -0.1400 
  3 C        1.2690     0.7650    -2.1030 C.2   1 <1>  -0.1100 
  4 C        0.9820     2.5160    -0.5960 C.2   1 <1>  -0.1810 
  5 C       -1.3240     2.3950     0.4320 C.3   1 <1>   0.0200 
  6 C        1.8330     1.8540    -1.5430 C.2   1 <1>  -0.1500 
  7 C        1.3360     3.7680     0.2110 C.3   1 <1>   0.4610 
  8 C       -1.0200     3.8550     0.8040 C.3   1 <1>   0.1200 
  9 O        0.3280     4.0150     1.1780 O.3   1 <1>  -0.5600 
 10 C        1.4680     4.9920    -0.7040 C.3   1 <1>  -0.1600 
 11 C        2.6310     3.5440     0.9960 C.3   1 <1>  -0.1600 
 12 C        1.8880     6.2360     0.0760 C.3   1 <1>   0.2090 
 13 C        3.0510     4.8000     1.7570 C.3   1 <1>   0.2090 
 14 N        3.1460     5.9420     0.8070 N.pl3 1 <1>  -0.8380 
 15 C        4.3730     6.4040     0.3480 C.ar  1 <1>   0.4100 
 16 N        5.3260     5.4980     0.1940 N.ar  1 <1>  -0.6200 
 17 C        4.6420     7.7400     0.0440 C.ar  1 <1>   0.1900 
 18 C        6.4870     5.9420    -0.2570 C.ar  1 <1>   0.4700 
 19 F        3.7190     8.6630     0.2140 F     1 <1>  -0.1900 
 20 C        5.8860     8.0930    -0.4210 C.ar  1 <1>   0.1670 
 21 N        6.8310     7.1790    -0.5800 N.ar  1 <1>  -0.6200 
 22 C        6.2550     9.5290    -0.7730 C.3   1 <1>  -0.0170 
 23 C        6.9980    10.2130     0.3810 C.3   1 <1>  -0.2400 
 24 H        1.6350     0.0630    -2.8310 H     1 <1>   0.1500 
 25 H       -1.3660     1.7850     1.3160 H     1 <1>   0.0800 
 26 H       -2.2690     2.3370    -0.0770 H     1 <1>   0.0800 
 27 H        2.8210     2.2210    -1.7590 H     1 <1>   0.1500 
 28 H       -1.6300     4.1610     1.6350 H     1 <1>   0.0800 
 29 H       -1.2220     4.5040    -0.0290 H     1 <1>   0.0800 
 30 H        0.5470     5.1720    -1.2230 H     1 <1>   0.0800 
 31 H        2.2180     4.7930    -1.4480 H     1 <1>   0.0800 
 32 H        3.4250     3.2800     0.3240 H     1 <1>   0.0800 
 33 H        2.4960     2.7270     1.6810 H     1 <1>   0.0800 
 34 H        1.1240     6.5110     0.7820 H     1 <1>   0.0800 
 35 H        2.0290     7.0540    -0.6080 H     1 <1>   0.0800 
 36 H        3.9980     4.6380     2.2420 H     1 <1>   0.0800 
 37 H        2.3230     5.0320     2.5150 H     1 <1>   0.0800 
 38 H        7.2550     5.1960    -0.3800 H     1 <1>   0.1500 
 39 H        5.3710    10.0940    -1.0120 H     1 <1>   0.0800 
 40 H        6.8810     9.5240    -1.6480 H     1 <1>   0.0800 
 41 H        6.3780    10.2380     1.2600 H     1 <1>   0.0800 
 42 H        7.2570    11.2200     0.1100 H     1 <1>   0.0800 
 43 H        7.9010     9.6730     0.6090 H     1 <1>   0.0800 
@<TRIPOS>BOND
  1   1   2  1   
  2   1   3  1   
  3   2   4  2   
  4   2   5  1   
  5   3   6  2   
  6   3  24  1   
  7   4   6  1   
  8   4   7  1   
  9   5   8  1   
 10   5  25  1   
 11   5  26  1   
 12   6  27  1   
 13   7   9  1   
 14   7  10  1   
 15   7  11  1   
 16   8   9  1   
 17   8  28  1   
 18   8  29  1   
 19  10  12  1   
 20  10  30  1   
 21  10  31  1   
 22  11  13  1   
 23  11  32  1   
 24  11  33  1   
 25  12  14  1   
 26  12  34  1   
 27  12  35  1   
 28  13  14  1   
 29  13  36  1   
 30  13  37  1   
 31  14  15  1   
 32  15  16  ar  
 33  15  17  ar  
 34  16  18  ar  
 35  17  19  1   
 36  17  20  ar  
 37  18  21  ar  
 38  18  38  1   
 39  20  21  ar  
 40  20  22  1   
 41  22  23  1   
 42  22  39  1   
 43  22  40  1   
 44  23  41  1   
 45  23  42  1   
 46  23  43  1   
@<TRIPOS>SUBSTRUCTURE
  1 ****  14 GROUP 4 **** **** 0

# MOE 2024.06 (io_trps.svl 2023.06)
