@<TRIPOS>MOLECULE
NONAME
46 49 1 0 0 
SMALL
USER_CHARGES


@<TRIPOS>ATOM
  1 CL      -2.6870     1.3920    -4.0800 Cl    1 <1>  -0.1240 
  2 C       -3.6260     0.7060    -2.7850 C.2   1 <1>   0.1640 
  3 S       -3.8610    -1.0230    -2.8080 S.3   1 <1>  -0.0800 
  4 C       -4.2280     1.2790    -1.7290 C.2   1 <1>  -0.1500 
  5 C       -4.8260    -0.9620    -1.3230 C.2   1 <1>  -0.0450 
  6 C       -4.9010     0.3320    -0.9030 C.2   1 <1>  -0.1500 
  7 C       -5.3460    -2.2060    -0.8070 C.2   1 <1>   0.7150 
  8 O       -4.6340    -3.1940    -0.8150 O.2   1 <1>  -0.5700 
  9 N       -6.6280    -2.3190    -0.3000 N.am  1 <1>  -0.6600 
 10 C       -7.7370    -1.3710    -0.6470 C.3   1 <1>   0.1400 
 11 C       -7.1020    -3.6010     0.3030 C.3   1 <1>   0.1400 
 12 C       -8.6200    -1.0570     0.5770 C.3   1 <1>   0.1440 
 13 C       -7.9940    -3.3320     1.5210 C.3   1 <1>  -0.1600 
 14 C       -9.7380    -0.1360     0.1300 C.ar  1 <1>   0.1670 
 15 C       -9.1480    -2.3730     1.1840 C.3   1 <1>  -0.1600 
 16 C       -7.8780    -0.1940     1.6340 C.3   1 <1>  -0.1600 
 17 N      -10.7550    -0.4880    -0.6160 N.ar  1 <1>  -0.6200 
 18 C       -9.5530     1.1360     0.5810 C.ar  1 <1>  -0.1430 
 19 C       -8.2910     1.2700     1.3950 C.3   1 <1>  -0.0170 
 20 C      -11.6200     0.4900    -0.8990 C.ar  1 <1>   0.7200 
 21 C      -10.4920     2.0750     0.2400 C.ar  1 <1>   0.1600 
 22 N      -11.5290     1.7630    -0.5000 N.ar  1 <1>  -0.6200 
 23 N      -12.7080     0.1530    -1.6810 N.pl3 1 <1>  -0.8380 
 24 C      -13.1050    -1.2630    -1.9180 C.3   1 <1>   0.1290 
 25 C      -13.5860     1.1840    -2.3000 C.3   1 <1>   0.1290 
 26 H       -4.2180     2.3310    -1.5070 H     1 <1>   0.1500 
 27 H       -5.4130     0.6540    -0.0150 H     1 <1>   0.1500 
 28 H       -8.3510    -1.8300    -1.4030 H     1 <1>   0.0800 
 29 H       -7.3580    -0.4560    -1.0600 H     1 <1>   0.0800 
 30 H       -6.2650    -4.2080     0.6080 H     1 <1>   0.0800 
 31 H       -7.6550    -4.1490    -0.4410 H     1 <1>   0.0800 
 32 H       -7.3890    -2.9250     2.3120 H     1 <1>   0.0800 
 33 H       -8.3960    -4.2660     1.8720 H     1 <1>   0.0800 
 34 H       -9.7990    -2.8500     0.4710 H     1 <1>   0.0800 
 35 H       -9.7330    -2.1690     2.0640 H     1 <1>   0.0800 
 36 H       -6.8120    -0.3250     1.6000 H     1 <1>   0.0800 
 37 H       -8.2130    -0.4710     2.6180 H     1 <1>   0.0800 
 38 H       -7.5450     1.7920     0.8220 H     1 <1>   0.0800 
 39 H       -8.4700     1.7860     2.3220 H     1 <1>   0.0800 
 40 H      -10.3930     3.0930     0.5740 H     1 <1>   0.1500 
 41 H      -12.7980    -1.8850    -1.0950 H     1 <1>   0.0800 
 42 H      -12.6390    -1.6200    -2.8190 H     1 <1>   0.0800 
 43 H      -14.1740    -1.3360    -2.0160 H     1 <1>   0.0800 
 44 H      -13.0280     2.0800    -2.5070 H     1 <1>   0.0800 
 45 H      -14.3910     1.4210    -1.6280 H     1 <1>   0.0800 
 46 H      -13.9900     0.8170    -3.2270 H     1 <1>   0.0800 
@<TRIPOS>BOND
  1   1   2  1   
  2   2   3  1   
  3   2   4  2   
  4   3   5  1   
  5   4   6  1   
  6   4  26  1   
  7   5   6  2   
  8   5   7  1   
  9   6  27  1   
 10   7   8  2   
 11   7   9  am  
 12   9  10  1   
 13   9  11  1   
 14  10  12  1   
 15  10  28  1   
 16  10  29  1   
 17  11  13  1   
 18  11  30  1   
 19  11  31  1   
 20  12  14  1   
 21  12  15  1   
 22  12  16  1   
 23  13  15  1   
 24  13  32  1   
 25  13  33  1   
 26  14  17  ar  
 27  14  18  ar  
 28  15  34  1   
 29  15  35  1   
 30  16  19  1   
 31  16  36  1   
 32  16  37  1   
 33  17  20  ar  
 34  18  19  1   
 35  18  21  ar  
 36  19  38  1   
 37  19  39  1   
 38  20  22  ar  
 39  20  23  1   
 40  21  22  ar  
 41  21  40  1   
 42  23  24  1   
 43  23  25  1   
 44  24  41  1   
 45  24  42  1   
 46  24  43  1   
 47  25  44  1   
 48  25  45  1   
 49  25  46  1   
@<TRIPOS>SUBSTRUCTURE
  1 ****  10 GROUP 4 **** **** 0

# MOE 2024.06 (io_trps.svl 2023.06)
