@<TRIPOS>MOLECULE
NONAME
46 47 1 0 0 
SMALL
USER_CHARGES


@<TRIPOS>ATOM
  1 O       -0.5500    -0.1150     0.1690 O.2   1 <1>  -0.5700 
  2 C       -1.5340    -0.8260     0.1610 C.2   1 <1>   0.7800 
  3 O       -1.4460    -2.0990    -0.2380 O.3   1 <1>  -0.4300 
  4 N       -2.7640    -0.3660     0.5510 N.am  1 <1>  -0.6600 
  5 C       -0.2960    -2.7800    -0.6950 C.3   1 <1>   0.2800 
  6 C       -3.9920    -1.2340     0.4280 C.3   1 <1>   0.4000 
  7 C       -2.9140     1.1210     0.7690 C.3   1 <1>   0.1400 
  8 C        0.7530    -2.8560     0.4200 C.3   1 <1>  -0.2400 
  9 C       -0.7750    -4.1930    -1.0310 C.3   1 <1>  -0.2400 
 10 C        0.2450    -2.1180    -1.9680 C.3   1 <1>  -0.2400 
 11 C       -5.2560    -0.3990     0.5030 C.2   1 <1>  -0.3320 
 12 C       -4.0520    -2.2780     1.5660 C.3   1 <1>   0.1200 
 13 C       -4.1340     1.5320     1.6020 C.3   1 <1>   0.0210 
 14 N       -6.5010    -0.7230     0.0970 N.pl3 1 <1>   0.0480 
 15 C       -5.3340     0.8250     1.0430 C.2   1 <1>   0.0460 
 16 O       -3.2700    -3.3950     1.2910 O.3   1 <1>  -0.6800 
 17 C       -7.2480     0.3570     0.4380 C.2   1 <1>   0.0360 
 18 C       -6.9620    -1.9710    -0.5670 C.3   1 <1>   0.1760 
 19 N       -6.5830     1.3090     1.0120 N.2   1 <1>  -0.5650 
 20 C       -7.4880    -1.6600    -1.9720 C.3   1 <1>  -0.2400 
 21 C       -8.0320    -2.6640     0.2840 C.3   1 <1>  -0.2400 
 22 H       -3.9750    -1.7370    -0.5240 H     1 <1>   0.0800 
 23 H       -2.9960     1.5870    -0.1990 H     1 <1>   0.0800 
 24 H       -2.0290     1.5110     1.2430 H     1 <1>   0.0800 
 25 H        0.3210    -3.2650     1.3160 H     1 <1>   0.0800 
 26 H        1.1620    -1.8860     0.6360 H     1 <1>   0.0800 
 27 H        1.5660    -3.4890     0.1160 H     1 <1>   0.0800 
 28 H       -1.1620    -4.6810    -0.1550 H     1 <1>   0.0800 
 29 H        0.0400    -4.7830    -1.4090 H     1 <1>   0.0800 
 30 H       -1.5440    -4.1590    -1.7820 H     1 <1>   0.0800 
 31 H        0.6600    -1.1490    -1.7570 H     1 <1>   0.0800 
 32 H       -0.5360    -2.0160    -2.6990 H     1 <1>   0.0800 
 33 H        1.0300    -2.7190    -2.3890 H     1 <1>   0.0800 
 34 H       -5.0600    -2.6280     1.7000 H     1 <1>   0.0800 
 35 H       -3.7180    -1.8380     2.4890 H     1 <1>   0.0800 
 36 H       -4.2750     2.5950     1.5380 H     1 <1>   0.0800 
 37 H       -3.9980     1.2620     2.6330 H     1 <1>   0.0800 
 38 H       -2.4090    -3.1040     0.9070 H     1 <1>   0.4000 
 39 H       -8.3040     0.4010     0.2410 H     1 <1>   0.1500 
 40 H       -6.1200    -2.6340    -0.6580 H     1 <1>   0.0800 
 41 H       -8.3500    -1.0180    -1.9250 H     1 <1>   0.0800 
 42 H       -7.7690    -2.5710    -2.4700 H     1 <1>   0.0800 
 43 H       -6.7220    -1.1790    -2.5550 H     1 <1>   0.0800 
 44 H       -8.9100    -2.0490     0.3740 H     1 <1>   0.0800 
 45 H       -7.6460    -2.8750     1.2650 H     1 <1>   0.0800 
 46 H       -8.3170    -3.5960    -0.1730 H     1 <1>   0.0800 
@<TRIPOS>BOND
  1   1   2  2   
  2   2   3  1   
  3   2   4  am  
  4   3   5  1   
  5   4   6  1   
  6   4   7  1   
  7   5   8  1   
  8   5   9  1   
  9   5  10  1   
 10   6  11  1   
 11   6  12  1   
 12   6  22  1   
 13   7  13  1   
 14   7  23  1   
 15   7  24  1   
 16   8  25  1   
 17   8  26  1   
 18   8  27  1   
 19   9  28  1   
 20   9  29  1   
 21   9  30  1   
 22  10  31  1   
 23  10  32  1   
 24  10  33  1   
 25  11  14  1   
 26  11  15  2   
 27  12  16  1   
 28  12  34  1   
 29  12  35  1   
 30  13  15  1   
 31  13  36  1   
 32  13  37  1   
 33  14  17  1   
 34  14  18  1   
 35  15  19  1   
 36  16  38  1   
 37  17  19  2   
 38  17  39  1   
 39  18  20  1   
 40  18  21  1   
 41  18  40  1   
 42  20  41  1   
 43  20  42  1   
 44  20  43  1   
 45  21  44  1   
 46  21  45  1   
 47  21  46  1   
@<TRIPOS>SUBSTRUCTURE
  1 ****   6 GROUP 4 **** **** 0

# MOE 2024.06 (io_trps.svl 2023.06)
