@<TRIPOS>MOLECULE
NONAME
46 49 1 0 0 
SMALL
USER_CHARGES


@<TRIPOS>ATOM
  1 F       -0.8390     3.6920     1.5300 F     1 <1>  -0.3400 
  2 C       -0.6420     3.5820     0.2220 C.3   1 <1>   1.1640 
  3 F       -0.9020     4.7760    -0.2950 F     1 <1>  -0.3400 
  4 F       -1.5850     2.7650    -0.2330 F     1 <1>  -0.3400 
  5 C        0.7870     3.1120    -0.1010 C.ar  1 <1>  -0.1440 
  6 C        1.8630     3.9740     0.0900 C.ar  1 <1>  -0.1500 
  7 C        1.0420     1.8330    -0.5790 C.ar  1 <1>  -0.1500 
  8 C        3.1720     3.5920    -0.1870 C.ar  1 <1>  -0.1440 
  9 C        2.3340     1.4360    -0.8620 C.ar  1 <1>  -0.1500 
 10 C        3.3910     2.3070    -0.6700 C.ar  1 <1>  -0.1500 
 11 C        4.3120     4.5970     0.0420 C.3   1 <1>   0.4240 
 12 O        4.1710     5.0590     1.3350 O.3   1 <1>  -0.6800 
 13 C        5.7320     4.0220    -0.0560 C.3   1 <1>  -0.1600 
 14 C        4.1790     5.8040    -0.9010 C.3   1 <1>  -0.1600 
 15 C        6.8200     5.0480     0.2940 C.3   1 <1>   0.3430 
 16 C        5.4580     6.6370    -1.0430 C.3   1 <1>   0.3430 
 17 N        6.3200     6.4440     0.1550 N.4   1 <1>  -0.9590 
 18 C        7.4080     7.4740     0.2710 C.3   1 <1>   0.5240 
 19 C        6.8410     8.8910     0.4050 C.2   1 <1>   0.3350 
 20 N        6.5810     9.4330     1.5550 N.2   1 <1>  -0.7070 
 21 N        6.5640     9.6070    -0.6840 N.2   1 <1>  -0.5650 
 22 N        6.1060    10.6230     1.1970 N.pl3 1 <1>   0.6010 
 23 C        6.0990    10.7000    -0.1650 C.2   1 <1>   0.3120 
 24 C        5.6450    11.6790     1.9530 C.2   1 <1>  -0.1810 
 25 N        5.6450    11.7930    -0.8570 N.2   1 <1>  -0.5760 
 26 C        5.1950    12.7730     1.2820 C.2   1 <1>  -0.1360 
 27 C        5.2160    12.7830    -0.1420 C.2   1 <1>   0.3760 
 28 H        1.6670     4.9680     0.4620 H     1 <1>   0.1500 
 29 H        0.2370     1.1320    -0.7380 H     1 <1>   0.1500 
 30 H        2.5170     0.4420    -1.2350 H     1 <1>   0.1500 
 31 H        4.3750     1.9480    -0.9090 H     1 <1>   0.1500 
 32 H        3.6430     4.3980     1.8310 H     1 <1>   0.4000 
 33 H        5.9030     3.6840    -1.0620 H     1 <1>   0.0800 
 34 H        5.8330     3.1660     0.5880 H     1 <1>   0.0800 
 35 H        3.3740     6.4370    -0.5720 H     1 <1>   0.0800 
 36 H        3.9130     5.4550    -1.8820 H     1 <1>   0.0800 
 37 H        7.6740     4.8900    -0.3450 H     1 <1>   0.0800 
 38 H        7.1310     4.8910     1.3150 H     1 <1>   0.0800 
 39 H        5.1900     7.6750    -1.1620 H     1 <1>   0.0800 
 40 H        5.9970     6.3280    -1.9250 H     1 <1>   0.0800 
 41 H        5.6820     6.5910     0.9600 H     1 <1>   0.4500 
 42 H        8.0460     7.4390    -0.5960 H     1 <1>   0.0800 
 43 H        8.0060     7.2730     1.1430 H     1 <1>   0.0800 
 44 H        5.6740    11.5660     3.0210 H     1 <1>   0.1500 
 45 H        4.8180    13.6440     1.7890 H     1 <1>   0.1500 
 46 H        4.8520    13.6650    -0.6390 H     1 <1>   0.0600 
@<TRIPOS>BOND
  1   1   2  1   
  2   2   3  1   
  3   2   4  1   
  4   2   5  1   
  5   5   6  ar  
  6   5   7  ar  
  7   6   8  ar  
  8   6  28  1   
  9   7   9  ar  
 10   7  29  1   
 11   8  10  ar  
 12   8  11  1   
 13   9  10  ar  
 14   9  30  1   
 15  10  31  1   
 16  11  12  1   
 17  11  13  1   
 18  11  14  1   
 19  12  32  1   
 20  13  15  1   
 21  13  33  1   
 22  13  34  1   
 23  14  16  1   
 24  14  35  1   
 25  14  36  1   
 26  15  17  1   
 27  15  37  1   
 28  15  38  1   
 29  16  17  1   
 30  16  39  1   
 31  16  40  1   
 32  17  18  1   
 33  17  41  1   
 34  18  19  1   
 35  18  42  1   
 36  18  43  1   
 37  19  20  2   
 38  19  21  1   
 39  20  22  1   
 40  21  23  2   
 41  22  23  1   
 42  22  24  1   
 43  23  25  1   
 44  24  26  2   
 45  24  44  1   
 46  25  27  2   
 47  26  27  1   
 48  26  45  1   
 49  27  46  1   
@<TRIPOS>SUBSTRUCTURE
  1 ****  14 GROUP 4 **** **** 0

# MOE 2024.06 (io_trps.svl 2023.06)
