@<TRIPOS>MOLECULE
NONAME
35 37 1 0 0 
SMALL
USER_CHARGES


@<TRIPOS>ATOM
  1 O       -0.1030     0.5240    -0.8260 O.3   1 <1>  -0.5600 
  2 C        0.6600    -0.2070     0.1030 C.3   1 <1>   0.4560 
  3 C       -1.2910     1.0040    -0.2570 C.3   1 <1>   0.2000 
  4 N        0.7060    -1.6220    -0.3370 N.pl3 1 <1>   0.0480 
  5 C       -0.0460    -0.0510     1.4520 C.3   1 <1>  -0.1600 
  6 C       -1.4730     0.2400     1.0620 C.3   1 <1>   0.2000 
  7 C       -2.4380     0.8850    -1.2730 C.3   1 <1>   0.1200 
  8 C        1.4230    -2.6120     0.2410 C.2   1 <1>  -0.0260 
  9 C        0.0400    -2.2120    -1.3580 C.2   1 <1>   0.0360 
 10 O       -2.1420    -0.9690     0.8820 O.3   1 <1>  -0.6800 
 11 O       -3.6560     1.0890    -0.6390 O.3   1 <1>  -0.6800 
 12 N        2.2740    -2.3450     1.3090 N.2   1 <1>  -0.5760 
 13 C        1.1230    -3.7370    -0.4610 C.2   1 <1>   0.0460 
 14 N        0.2500    -3.4830    -1.4640 N.2   1 <1>  -0.5650 
 15 C        2.9000    -3.2120     2.0030 C.2   1 <1>   0.4400 
 16 C        1.6610    -5.1340    -0.2120 C.3   1 <1>   0.3810 
 17 N        2.8590    -4.5830     1.9340 N.pl3 1 <1>  -0.8190 
 18 O        0.7500    -6.0290    -0.7460 O.3   1 <1>  -0.6800 
 19 C        1.8030    -5.4130     1.2860 C.3   1 <1>   0.2090 
 20 H        1.6610     0.1890     0.1270 H     1 <1>   0.0800 
 21 H       -1.1240     2.0440    -0.0380 H     1 <1>   0.0800 
 22 H        0.3690     0.8060     1.9490 H     1 <1>   0.0800 
 23 H        0.0580    -0.9030     2.1010 H     1 <1>   0.0800 
 24 H       -2.0110     0.8160     1.7960 H     1 <1>   0.0800 
 25 H       -2.4590    -0.0960    -1.7120 H     1 <1>   0.0800 
 26 H       -2.3350     1.6270    -2.0450 H     1 <1>   0.0800 
 27 H       -0.6040    -1.6500    -2.0130 H     1 <1>   0.1500 
 28 H       -1.5890    -1.6050     0.3820 H     1 <1>   0.4000 
 29 H       -3.8010     0.3620     0.0070 H     1 <1>   0.4000 
 30 H        3.5650    -2.8410     2.7640 H     1 <1>   0.0600 
 31 H        2.5970    -5.2730    -0.7230 H     1 <1>   0.0800 
 32 H        3.4420    -5.0970     2.6000 H     1 <1>   0.4000 
 33 H        0.2080    -5.4880    -1.3680 H     1 <1>   0.4000 
 34 H        2.0490    -6.4510     1.4180 H     1 <1>   0.0800 
 35 H        0.8610    -5.2170     1.7680 H     1 <1>   0.0800 
@<TRIPOS>BOND
  1   1   2  1   
  2   1   3  1   
  3   2   4  1   
  4   2   5  1   
  5   2  20  1   
  6   3   6  1   
  7   3   7  1   
  8   3  21  1   
  9   4   8  1   
 10   4   9  1   
 11   5   6  1   
 12   5  22  1   
 13   5  23  1   
 14   6  10  1   
 15   6  24  1   
 16   7  11  1   
 17   7  25  1   
 18   7  26  1   
 19   8  12  1   
 20   8  13  2   
 21   9  14  2   
 22   9  27  1   
 23  10  28  1   
 24  11  29  1   
 25  12  15  2   
 26  13  14  1   
 27  13  16  1   
 28  15  17  1   
 29  15  30  1   
 30  16  18  1   
 31  16  19  1   
 32  16  31  1   
 33  17  19  1   
 34  17  32  1   
 35  18  33  1   
 36  19  34  1   
 37  19  35  1   
@<TRIPOS>SUBSTRUCTURE
  1 ****   4 GROUP 4 **** **** 0

# MOE 2024.06 (io_trps.svl 2023.06)
