@<TRIPOS>MOLECULE
NONAME
47 50 1 0 0 
SMALL
USER_CHARGES


@<TRIPOS>ATOM
  1 O       -0.6870    -0.2510    -0.1310 O.2   1 <1>  -0.5700 
  2 C       -1.6820     0.4090    -0.3230 C.2   1 <1>   0.6300 
  3 N       -2.8640    -0.1620    -0.7290 N.am  1 <1>  -0.6600 
  4 C       -1.5870     1.9160    -0.1010 C.3   1 <1>  -0.1000 
  5 C       -2.9890    -1.6320    -0.9010 C.3   1 <1>   0.1400 
  6 C       -4.1200     0.5820    -1.0010 C.3   1 <1>   0.1400 
  7 C       -0.7740     2.4850     1.0270 C.3   1 <1>  -0.2000 
  8 C       -2.2660     2.5760     1.0680 C.3   1 <1>  -0.2000 
  9 C       -4.0550    -2.1590     0.0630 C.3   1 <1>  -0.1600 
 10 C       -5.2030     0.0940    -0.0330 C.3   1 <1>  -0.1600 
 11 C       -5.4070    -1.4330    -0.1130 C.3   1 <1>  -0.0800 
 12 C       -6.4440    -1.8780     0.9320 C.3   1 <1>   0.2090 
 13 N       -6.6740    -3.3470     0.8380 N.pl3 1 <1>  -0.8690 
 14 C       -7.7310    -4.0780     0.4490 C.ar  1 <1>   0.4610 
 15 N       -8.8500    -3.4590     0.0580 N.ar  1 <1>  -0.1790 
 16 C       -7.6920    -5.5140     0.4350 C.ar  1 <1>   0.0000 
 17 C       -9.9760    -4.1310    -0.3600 C.ar  1 <1>   0.2110 
 18 C       -8.8350    -6.2230     0.0080 C.ar  1 <1>   0.0000 
 19 C       -6.5670    -6.2630     0.8270 C.ar  1 <1>  -0.1500 
 20 C       -9.9820    -5.4840    -0.3900 C.ar  1 <1>  -0.1500 
 21 C       -8.8170    -7.6230    -0.0170 C.ar  1 <1>  -0.1500 
 22 C       -6.5690    -7.6360     0.7960 C.ar  1 <1>  -0.1500 
 23 C       -7.7020    -8.3210     0.3710 C.ar  1 <1>  -0.1500 
 24 H       -1.5440     2.4460    -1.0340 H     1 <1>   0.1000 
 25 H       -2.0490    -2.1220    -0.7050 H     1 <1>   0.0800 
 26 H       -3.2660    -1.8450    -1.9190 H     1 <1>   0.0800 
 27 H       -4.4220     0.3950    -2.0170 H     1 <1>   0.0800 
 28 H       -3.9800     1.6420    -0.8890 H     1 <1>   0.0800 
 29 H       -0.1970     3.3740     0.8450 H     1 <1>   0.1000 
 30 H       -0.2720     1.7970     1.6870 H     1 <1>   0.1000 
 31 H       -2.7910     1.9630     1.7800 H     1 <1>   0.1000 
 32 H       -2.7270     3.5380     0.9270 H     1 <1>   0.1000 
 33 H       -3.6920    -2.0300     1.0680 H     1 <1>   0.0800 
 34 H       -4.1690    -3.2130    -0.1150 H     1 <1>   0.0800 
 35 H       -6.1230     0.6030    -0.2620 H     1 <1>   0.0800 
 36 H       -4.9120     0.3760     0.9650 H     1 <1>   0.0800 
 37 H       -5.7910    -1.6620    -1.0930 H     1 <1>   0.0800 
 38 H       -7.3610    -1.3360     0.7860 H     1 <1>   0.0800 
 39 H       -6.0790    -1.6450     1.9200 H     1 <1>   0.0800 
 40 H       -5.8310    -3.8600     1.1280 H     1 <1>   0.4000 
 41 H       -8.8420    -2.4430     0.0790 H     1 <1>   0.4570 
 42 H      -10.8330    -3.5460    -0.6560 H     1 <1>   0.1500 
 43 H       -5.6750    -5.7660     1.1620 H     1 <1>   0.1500 
 44 H      -10.8500    -6.0340    -0.7120 H     1 <1>   0.1500 
 45 H       -9.6900    -8.1600    -0.3440 H     1 <1>   0.1500 
 46 H       -5.6990    -8.1950     1.0990 H     1 <1>   0.1500 
 47 H       -7.6920    -9.3990     0.3500 H     1 <1>   0.1500 
@<TRIPOS>BOND
  1   1   2  2   
  2   2   3  am  
  3   2   4  1   
  4   3   5  1   
  5   3   6  1   
  6   4   7  1   
  7   4   8  1   
  8   4  24  1   
  9   5   9  1   
 10   5  25  1   
 11   5  26  1   
 12   6  10  1   
 13   6  27  1   
 14   6  28  1   
 15   7   8  1   
 16   7  29  1   
 17   7  30  1   
 18   8  31  1   
 19   8  32  1   
 20   9  11  1   
 21   9  33  1   
 22   9  34  1   
 23  10  11  1   
 24  10  35  1   
 25  10  36  1   
 26  11  12  1   
 27  11  37  1   
 28  12  13  1   
 29  12  38  1   
 30  12  39  1   
 31  13  14  1   
 32  13  40  1   
 33  14  15  ar  
 34  14  16  ar  
 35  15  17  ar  
 36  15  41  1   
 37  16  18  ar  
 38  16  19  ar  
 39  17  20  ar  
 40  17  42  1   
 41  18  20  ar  
 42  18  21  ar  
 43  19  22  ar  
 44  19  43  1   
 45  20  44  1   
 46  21  23  ar  
 47  21  45  1   
 48  22  23  ar  
 49  22  46  1   
 50  23  47  1   
@<TRIPOS>SUBSTRUCTURE
  1 ****  11 GROUP 4 **** **** 0

# MOE 2024.06 (io_trps.svl 2023.06)
