@<TRIPOS>MOLECULE
NONAME
39 41 1 0 0 
SMALL
USER_CHARGES


@<TRIPOS>ATOM
  1 O        1.5260    -0.2490     1.2520 O.3   1 <1>  -0.6800 
  2 C        2.5590    -0.9940     0.7260 C.3   1 <1>   0.1200 
  3 C        2.0710    -1.6870    -0.5590 C.3   1 <1>  -0.0800 
  4 C        1.0540    -2.8140    -0.3310 C.3   1 <1>   0.0000 
  5 C        3.2470    -2.4250    -1.2020 C.3   1 <1>   0.3430 
  6 C        1.9060    -4.0220     0.0330 C.3   1 <1>   0.3430 
  7 C        0.1210    -3.1010    -1.5430 C.3   1 <1>   0.0000 
  8 C       -0.2330    -2.6010     0.5140 C.3   1 <1>   0.0000 
  9 N        3.1400    -3.8630    -0.7950 N.4   1 <1>  -0.9590 
 10 C       -0.9670    -3.5060    -0.5120 C.3   1 <1>   0.0000 
 11 C        4.3560    -4.4090    -0.1350 C.3   1 <1>   0.4860 
 12 C        4.1590    -5.8990     0.0570 C.ar  1 <1>  -0.1440 
 13 C        4.2990    -6.7670    -1.0180 C.ar  1 <1>  -0.1500 
 14 C        3.8310    -6.4070     1.3060 C.ar  1 <1>  -0.1500 
 15 C        4.1020    -8.1260    -0.8460 C.ar  1 <1>  -0.1500 
 16 C        3.6330    -7.7660     1.4750 C.ar  1 <1>  -0.1500 
 17 C        3.7670    -8.6250     0.4000 C.ar  1 <1>  -0.1500 
 18 H        1.8130     0.2820     2.0240 H     1 <1>   0.4000 
 19 H        2.8750    -1.7040     1.4710 H     1 <1>   0.0800 
 20 H        3.3680    -0.3160     0.5090 H     1 <1>   0.0800 
 21 H        1.6970    -0.9340    -1.2320 H     1 <1>   0.0800 
 22 H        4.1860    -1.9930    -0.8950 H     1 <1>   0.0800 
 23 H        3.1680    -2.3500    -2.2750 H     1 <1>   0.0800 
 24 H        1.4020    -4.9530    -0.1770 H     1 <1>   0.0800 
 25 H        2.1520    -3.9800     1.0810 H     1 <1>   0.0800 
 26 H        0.4410    -3.9090    -2.1770 H     1 <1>   0.0000 
 27 H       -0.1510    -2.2130    -2.0890 H     1 <1>   0.0000 
 28 H       -0.6040    -1.5920     0.4840 H     1 <1>   0.0000 
 29 H       -0.1850    -3.0150     1.5060 H     1 <1>   0.0000 
 30 H        2.9920    -4.4290    -1.6410 H     1 <1>   0.4500 
 31 H       -0.9290    -4.5500    -0.2510 H     1 <1>   0.0000 
 32 H       -1.9540    -3.1630    -0.7650 H     1 <1>   0.0000 
 33 H        4.5130    -3.9320     0.8180 H     1 <1>   0.0800 
 34 H        5.2230    -4.2410    -0.7520 H     1 <1>   0.0800 
 35 H        4.5680    -6.4060    -1.9960 H     1 <1>   0.1500 
 36 H        3.7270    -5.7610     2.1610 H     1 <1>   0.1500 
 37 H        4.2110    -8.8010    -1.6790 H     1 <1>   0.1500 
 38 H        3.3790    -8.1620     2.4450 H     1 <1>   0.1500 
 39 H        3.6140    -9.6830     0.5330 H     1 <1>   0.1500 
@<TRIPOS>BOND
  1   1   2  1   
  2   1  18  1   
  3   2   3  1   
  4   2  19  1   
  5   2  20  1   
  6   3   4  1   
  7   3   5  1   
  8   3  21  1   
  9   4   6  1   
 10   4   7  1   
 11   4   8  1   
 12   5   9  1   
 13   5  22  1   
 14   5  23  1   
 15   6   9  1   
 16   6  24  1   
 17   6  25  1   
 18   7  10  1   
 19   7  26  1   
 20   7  27  1   
 21   8  10  1   
 22   8  28  1   
 23   8  29  1   
 24   9  11  1   
 25   9  30  1   
 26  10  31  1   
 27  10  32  1   
 28  11  12  1   
 29  11  33  1   
 30  11  34  1   
 31  12  13  ar  
 32  12  14  ar  
 33  13  15  ar  
 34  13  35  1   
 35  14  16  ar  
 36  14  36  1   
 37  15  17  ar  
 38  15  37  1   
 39  16  17  ar  
 40  16  38  1   
 41  17  39  1   
@<TRIPOS>SUBSTRUCTURE
  1 ****   6 GROUP 4 **** **** 0

# MOE 2024.06 (io_trps.svl 2023.06)
