@<TRIPOS>MOLECULE
NONAME
50 53 1 0 0 
SMALL
USER_CHARGES


@<TRIPOS>ATOM
  1 O       -0.5670     0.4400     1.4260 O.2   1 <1>  -0.5700 
  2 C       -1.5150     1.0680     0.9970 C.2   1 <1>   0.5440 
  3 N       -2.6380     0.3760     0.5970 N.am  1 <1>  -0.6600 
  4 C       -1.4250     2.5000     0.9020 C.ar  1 <1>   0.0860 
  5 C       -3.6150     0.8640    -0.4170 C.3   1 <1>   0.1400 
  6 C       -2.7330    -1.1060     0.7150 C.3   1 <1>   0.1400 
  7 C       -0.3000     3.1280     0.4070 C.ar  1 <1>   0.1600 
  8 C       -2.4380     3.3500     1.3000 C.ar  1 <1>   0.1600 
  9 C       -4.5760    -0.3060    -0.6250 C.3   1 <1>   0.2000 
 10 C       -3.7020    -1.5410    -0.3910 C.3   1 <1>  -0.0800 
 11 N       -0.2000     4.4290     0.2790 N.ar  1 <1>  -0.6200 
 12 N       -2.3730     4.6530     1.1850 N.ar  1 <1>  -0.6200 
 13 O       -5.5560    -0.2370     0.3540 O.3   1 <1>  -0.6800 
 14 C       -4.4760    -2.8350    -0.0730 C.3   1 <1>   0.0200 
 15 C       -1.2480     5.1540     0.6710 C.ar  1 <1>   0.7200 
 16 C       -3.5820    -4.0610     0.0150 C.2   1 <1>  -0.0400 
 17 N       -1.1630     6.5170     0.5390 N.pl3 1 <1>  -0.8380 
 18 O       -4.1070    -5.1890     0.4140 O.3   1 <1>  -0.0190 
 19 C       -2.2830    -4.2850    -0.2410 C.2   1 <1>  -0.1500 
 20 C       -2.2410     7.4600     0.9770 C.3   1 <1>   0.2090 
 21 C        0.0650     7.2250     0.0570 C.3   1 <1>   0.2090 
 22 N       -3.2320    -6.1510     0.4430 N.2   1 <1>  -0.4100 
 23 C       -2.1230    -5.6360     0.0540 C.2   1 <1>   0.1080 
 24 C       -2.4660     8.5610    -0.0740 C.3   1 <1>   0.1200 
 25 C       -0.3000     8.3400    -0.9390 C.3   1 <1>   0.1200 
 26 C       -0.8240    -6.4020    -0.0640 C.3   1 <1>  -0.0590 
 27 O       -1.2650     9.2030    -0.4020 O.3   1 <1>  -0.5600 
 28 H       -4.1410     1.7440    -0.0920 H     1 <1>   0.0800 
 29 H       -3.0930     1.0740    -1.3340 H     1 <1>   0.0800 
 30 H       -1.7680    -1.5670     0.5940 H     1 <1>   0.0800 
 31 H       -3.1210    -1.3540     1.6880 H     1 <1>   0.0800 
 32 H        0.5400     2.5240     0.1060 H     1 <1>   0.1500 
 33 H       -3.3300     2.9300     1.7310 H     1 <1>   0.1500 
 34 H       -5.0550    -0.2940    -1.5900 H     1 <1>   0.0800 
 35 H       -3.1260    -1.7010    -1.2860 H     1 <1>   0.0800 
 36 H       -5.1290    -0.1330     1.2280 H     1 <1>   0.4000 
 37 H       -5.2120    -3.0070    -0.8380 H     1 <1>   0.0800 
 38 H       -4.9990    -2.7310     0.8610 H     1 <1>   0.0800 
 39 H       -1.5130    -3.6230    -0.5900 H     1 <1>   0.1500 
 40 H       -3.1710     6.9450     1.1350 H     1 <1>   0.0800 
 41 H       -1.9530     7.9150     1.9080 H     1 <1>   0.0800 
 42 H        0.5750     7.6570     0.9000 H     1 <1>   0.0800 
 43 H        0.7450     6.5470    -0.4260 H     1 <1>   0.0800 
 44 H       -3.1420     9.3050     0.3090 H     1 <1>   0.0800 
 45 H       -2.8870     8.1400    -0.9700 H     1 <1>   0.0800 
 46 H       -0.6860     7.9150    -1.8490 H     1 <1>   0.0800 
 47 H        0.5700     8.9260    -1.1730 H     1 <1>   0.0800 
 48 H       -0.4500    -6.3350    -1.0690 H     1 <1>   0.0800 
 49 H       -0.9850    -7.4360     0.1790 H     1 <1>   0.0800 
 50 H       -0.0980    -5.9940     0.6140 H     1 <1>   0.0800 
@<TRIPOS>BOND
  1   1   2  2   
  2   2   3  am  
  3   2   4  1   
  4   3   5  1   
  5   3   6  1   
  6   4   7  ar  
  7   4   8  ar  
  8   5   9  1   
  9   5  28  1   
 10   5  29  1   
 11   6  10  1   
 12   6  30  1   
 13   6  31  1   
 14   7  11  ar  
 15   7  32  1   
 16   8  12  ar  
 17   8  33  1   
 18   9  10  1   
 19   9  13  1   
 20   9  34  1   
 21  10  14  1   
 22  10  35  1   
 23  11  15  ar  
 24  12  15  ar  
 25  13  36  1   
 26  14  16  1   
 27  14  37  1   
 28  14  38  1   
 29  15  17  1   
 30  16  18  1   
 31  16  19  2   
 32  17  20  1   
 33  17  21  1   
 34  18  22  1   
 35  19  23  1   
 36  19  39  1   
 37  20  24  1   
 38  20  40  1   
 39  20  41  1   
 40  21  25  1   
 41  21  42  1   
 42  21  43  1   
 43  22  23  2   
 44  23  26  1   
 45  24  27  1   
 46  24  44  1   
 47  24  45  1   
 48  25  27  1   
 49  25  46  1   
 50  25  47  1   
 51  26  48  1   
 52  26  49  1   
 53  26  50  1   
@<TRIPOS>SUBSTRUCTURE
  1 ****   2 GROUP 4 **** **** 0

# MOE 2024.06 (io_trps.svl 2023.06)
