@<TRIPOS>MOLECULE
NONAME
52 54 1 0 0 
SMALL
USER_CHARGES


@<TRIPOS>ATOM
  1 S       -2.0180    -1.9820     2.9590 S.3   1 <1>  -0.0800 
  2 C       -2.5340    -1.6520     1.3380 C.2   1 <1>   0.4420 
  3 C       -2.2270    -0.2980     3.2860 C.2   1 <1>   0.2280 
  4 N       -2.8090    -0.4110     1.1590 N.2   1 <1>  -0.3380 
  5 N       -2.5940    -2.7250     0.4770 N.am  1 <1>  -0.4940 
  6 N       -2.6320     0.3580     2.2760 N.2   1 <1>  -0.3380 
  7 C       -2.9430    -2.7720    -0.8430 C.2   1 <1>   0.5690 
  8 O       -3.2630    -1.8080    -1.4910 O.2   1 <1>  -0.5700 
  9 C       -2.9680    -4.1610    -1.5120 C.3   1 <1>   0.2510 
 10 N       -3.8190    -5.1550    -0.7630 N.3   1 <1>  -0.8100 
 11 C       -1.5240    -4.6710    -1.6560 C.3   1 <1>  -0.2400 
 12 C       -5.1830    -4.6200    -0.6110 C.3   1 <1>   0.1100 
 13 C       -3.8560    -6.4650    -1.4330 C.3   1 <1>   0.1100 
 14 C       -6.0190    -5.5640     0.2550 C.3   1 <1>  -0.1600 
 15 C       -4.6390    -7.4540    -0.5730 C.3   1 <1>  -0.1600 
 16 C       -6.0920    -6.9930    -0.3280 C.3   1 <1>   0.5640 
 17 N       -6.7020    -7.9010     0.7340 N.4   1 <1>  -0.9590 
 18 C       -6.9060    -7.0400    -1.6760 C.2   1 <1>   0.5690 
 19 C       -6.7050    -9.3460     0.3180 C.3   1 <1>   0.3430 
 20 C       -8.0920    -7.4960     1.1210 C.3   1 <1>   0.3430 
 21 O       -6.8340    -8.0310    -2.3590 O.2   1 <1>  -0.5700 
 22 N       -7.7380    -6.0520    -2.0930 N.am  1 <1>  -0.8000 
 23 C       -7.1490   -10.2300     1.4840 C.3   1 <1>  -0.1600 
 24 C       -8.5720    -8.3290     2.3100 C.3   1 <1>  -0.1600 
 25 C       -8.5340    -9.8290     2.0010 C.3   1 <1>  -0.1600 
 26 H       -2.0090     0.0580     4.2770 H     1 <1>   0.1500 
 27 H       -2.3960    -3.6360     0.8840 H     1 <1>   0.3700 
 28 H       -3.3770    -4.0260    -2.5000 H     1 <1>   0.0800 
 29 H       -1.1400    -5.0090    -0.7110 H     1 <1>   0.0800 
 30 H       -0.8960    -3.8720    -2.0120 H     1 <1>   0.0800 
 31 H       -1.4600    -5.4610    -2.3800 H     1 <1>   0.0800 
 32 H       -5.6290    -4.4780    -1.5820 H     1 <1>   0.0800 
 33 H       -5.1610    -3.6610    -0.1210 H     1 <1>   0.0800 
 34 H       -2.8610    -6.8580    -1.5460 H     1 <1>   0.0800 
 35 H       -4.2930    -6.3740    -2.4150 H     1 <1>   0.0800 
 36 H       -6.9970    -5.1320     0.3520 H     1 <1>   0.0800 
 37 H       -5.5690    -5.5890     1.2320 H     1 <1>   0.0800 
 38 H       -4.1170    -7.5660     0.3600 H     1 <1>   0.0800 
 39 H       -4.6160    -8.3970    -1.0880 H     1 <1>   0.0800 
 40 H       -6.1100    -7.8290     1.5670 H     1 <1>   0.4500 
 41 H       -5.7210    -9.6560     0.0090 H     1 <1>   0.0800 
 42 H       -7.3750    -9.4860    -0.5160 H     1 <1>   0.0800 
 43 H       -8.7600    -7.6440     0.2870 H     1 <1>   0.0800 
 44 H       -8.1210    -6.4560     1.4000 H     1 <1>   0.0800 
 45 H       -8.2240    -6.1730    -2.9880 H     1 <1>   0.3700 
 46 H       -7.8610    -5.1330    -1.6630 H     1 <1>   0.3700 
 47 H       -6.4250   -10.1680     2.2780 H     1 <1>   0.0800 
 48 H       -7.1770   -11.2540     1.1550 H     1 <1>   0.0800 
 49 H       -9.5810    -8.0450     2.5540 H     1 <1>   0.0800 
 50 H       -7.9620    -8.1140     3.1710 H     1 <1>   0.0800 
 51 H       -8.7740   -10.3940     2.8870 H     1 <1>   0.0800 
 52 H       -9.2770   -10.0610     1.2550 H     1 <1>   0.0800 
@<TRIPOS>BOND
  1   1   2  1   
  2   1   3  1   
  3   2   4  2   
  4   2   5  1   
  5   3   6  2   
  6   3  26  1   
  7   4   6  1   
  8   5   7  am  
  9   5  27  1   
 10   7   8  2   
 11   7   9  1   
 12   9  10  1   
 13   9  11  1   
 14   9  28  1   
 15  10  12  1   
 16  10  13  1   
 17  11  29  1   
 18  11  30  1   
 19  11  31  1   
 20  12  14  1   
 21  12  32  1   
 22  12  33  1   
 23  13  15  1   
 24  13  34  1   
 25  13  35  1   
 26  14  16  1   
 27  14  36  1   
 28  14  37  1   
 29  15  16  1   
 30  15  38  1   
 31  15  39  1   
 32  16  17  1   
 33  16  18  1   
 34  17  19  1   
 35  17  20  1   
 36  17  40  1   
 37  18  21  2   
 38  18  22  am  
 39  19  23  1   
 40  19  41  1   
 41  19  42  1   
 42  20  24  1   
 43  20  43  1   
 44  20  44  1   
 45  22  45  1   
 46  22  46  1   
 47  23  25  1   
 48  23  47  1   
 49  23  48  1   
 50  24  25  1   
 51  24  49  1   
 52  24  50  1   
 53  25  51  1   
 54  25  52  1   
@<TRIPOS>SUBSTRUCTURE
  1 ****  12 GROUP 4 **** **** 0

# MOE 2024.06 (io_trps.svl 2023.06)
