@<TRIPOS>MOLECULE
NONAME
48 49 1 0 0 
SMALL
USER_CHARGES


@<TRIPOS>ATOM
  1 CL       3.1010    -3.9480    -4.1140 Cl    1 <1>  -0.1770 
  2 C        2.8360    -3.4140    -2.4750 C.ar  1 <1>   0.1770 
  3 C        3.8970    -2.9090    -1.7510 C.ar  1 <1>  -0.1500 
  4 C        1.5720    -3.5210    -1.9330 C.ar  1 <1>  -0.1500 
  5 C        3.6760    -2.4970    -0.4420 C.ar  1 <1>   0.0830 
  6 C        1.3350    -3.1220    -0.6190 C.ar  1 <1>   0.0860 
  7 O        4.6420    -1.9920     0.3600 O.3   1 <1>  -0.3630 
  8 C        2.4070    -2.6000     0.1030 C.ar  1 <1>  -0.1500 
  9 C        0.0150    -3.2520    -0.0350 C.2   1 <1>   0.5440 
 10 C        5.9470    -1.7500    -0.1220 C.3   1 <1>   0.0400 
 11 O       -0.9150    -2.6290    -0.5140 O.2   1 <1>  -0.5700 
 12 N       -0.2500    -4.0990     1.0170 N.am  1 <1>  -0.6600 
 13 C        0.7310    -5.1310     1.4880 C.3   1 <1>   0.3210 
 14 C       -1.5510    -4.0560     1.7630 C.3   1 <1>   0.1400 
 15 C        0.6320    -6.4170     0.6710 C.2   1 <1>   0.0460 
 16 C       -2.6610    -4.9200     1.1260 C.3   1 <1>   0.3430 
 17 N       -0.4660    -7.2030     0.7360 N.2   1 <1>  -0.5650 
 18 C        1.5600    -6.9600    -0.1540 C.2   1 <1>  -0.3320 
 19 N       -2.8860    -4.5690    -0.3120 N.4   1 <1>  -0.9590 
 20 C       -0.1770    -8.2070    -0.0280 C.2   1 <1>   0.0360 
 21 N        1.0380    -8.1160    -0.6040 N.pl3 1 <1>   0.0330 
 22 C        2.9520    -6.4970    -0.5580 C.3   1 <1>  -0.0600 
 23 C       -4.3090    -4.2630    -0.6230 C.3   1 <1>   0.2630 
 24 C       -2.3260    -5.6220    -1.2040 C.3   1 <1>   0.2630 
 25 H        4.8620    -2.8480    -2.2180 H     1 <1>   0.1500 
 26 H        0.7700    -3.9130    -2.5300 H     1 <1>   0.1500 
 27 H        2.2520    -2.2630     1.1130 H     1 <1>   0.1500 
 28 H        6.5220    -1.3150     0.6760 H     1 <1>   0.0800 
 29 H        5.8940    -1.0630    -0.9490 H     1 <1>   0.0800 
 30 H        6.3890    -2.6830    -0.4230 H     1 <1>   0.0800 
 31 H        0.5460    -5.3680     2.5210 H     1 <1>   0.0800 
 32 H        1.7310    -4.7480     1.4330 H     1 <1>   0.0800 
 33 H       -1.8940    -3.0370     1.8120 H     1 <1>   0.0800 
 34 H       -1.3980    -4.3830     2.7760 H     1 <1>   0.0800 
 35 H       -3.5690    -4.7670     1.6820 H     1 <1>   0.0800 
 36 H       -2.3990    -5.9600     1.2170 H     1 <1>   0.0800 
 37 H       -2.3080    -3.7120    -0.4770 H     1 <1>   0.4500 
 38 H       -0.8240    -9.0500    -0.1990 H     1 <1>   0.1500 
 39 H        1.4790    -8.7980    -1.2300 H     1 <1>   0.2700 
 40 H        3.2060    -5.5670    -0.0830 H     1 <1>   0.0800 
 41 H        3.0040    -6.3600    -1.6240 H     1 <1>   0.0800 
 42 H        3.6830    -7.2310    -0.2690 H     1 <1>   0.0800 
 43 H       -4.9240    -5.1320    -0.4540 H     1 <1>   0.0800 
 44 H       -4.4060    -3.9630    -1.6540 H     1 <1>   0.0800 
 45 H       -4.6620    -3.4580     0.0020 H     1 <1>   0.0800 
 46 H       -2.7980    -6.5700    -1.0090 H     1 <1>   0.0800 
 47 H       -1.2670    -5.7250    -1.0270 H     1 <1>   0.0800 
 48 H       -2.4750    -5.3570    -2.2370 H     1 <1>   0.0800 
@<TRIPOS>BOND
  1   1   2  1   
  2   2   3  ar  
  3   2   4  ar  
  4   3   5  ar  
  5   3  25  1   
  6   4   6  ar  
  7   4  26  1   
  8   5   7  1   
  9   5   8  ar  
 10   6   8  ar  
 11   6   9  1   
 12   7  10  1   
 13   8  27  1   
 14   9  11  2   
 15   9  12  am  
 16  10  28  1   
 17  10  29  1   
 18  10  30  1   
 19  12  13  1   
 20  12  14  1   
 21  13  15  1   
 22  13  31  1   
 23  13  32  1   
 24  14  16  1   
 25  14  33  1   
 26  14  34  1   
 27  15  17  1   
 28  15  18  2   
 29  16  19  1   
 30  16  35  1   
 31  16  36  1   
 32  17  20  2   
 33  18  21  1   
 34  18  22  1   
 35  19  23  1   
 36  19  24  1   
 37  19  37  1   
 38  20  21  1   
 39  20  38  1   
 40  21  39  1   
 41  22  40  1   
 42  22  41  1   
 43  22  42  1   
 44  23  43  1   
 45  23  44  1   
 46  23  45  1   
 47  24  46  1   
 48  24  47  1   
 49  24  48  1   
@<TRIPOS>SUBSTRUCTURE
  1 ****   6 GROUP 4 **** **** 0

# MOE 2024.06 (io_trps.svl 2023.06)
