@<TRIPOS>MOLECULE
NONAME
56 58 1 0 0 
SMALL
USER_CHARGES


@<TRIPOS>ATOM
  1 O        0.5030    -0.1450    -1.1200 O.2   1 <1>  -0.5700 
  2 C        1.6500    -0.2840    -0.7670 C.2   1 <1>   0.5690 
  3 N        2.5040     0.7620    -0.5570 N.am  1 <1>  -0.4940 
  4 C        2.2180    -1.6840    -0.5360 C.3   1 <1>  -0.0190 
  5 C        2.3180     2.1550    -0.7360 C.2   1 <1>  -0.0880 
  6 C        3.0310    -2.1560    -1.7530 C.3   1 <1>  -0.1600 
  7 C        1.1390    -2.7320    -0.2010 C.3   1 <1>  -0.1600 
  8 N        3.2140     3.1320    -0.3950 N.pl3 1 <1>   0.3140 
  9 C        1.2560     2.7880    -1.2850 C.2   1 <1>  -0.1500 
 10 C        3.6440    -3.5370    -1.5130 C.3   1 <1>   0.1400 
 11 C        1.7480    -4.1170     0.0270 C.3   1 <1>   0.1400 
 12 N        2.7410     4.3600    -0.7360 N.2   1 <1>  -0.7070 
 13 C        4.5410     3.0230     0.2940 C.3   1 <1>   0.3190 
 14 C        1.5750     4.1370    -1.2590 C.2   1 <1>   0.1390 
 15 N        2.5790    -4.5120    -1.1470 N.am  1 <1>  -0.6600 
 16 C        5.1570     1.6200     0.1630 C.ar  1 <1>  -0.1430 
 17 C        4.4220     3.5110     1.7480 C.3   1 <1>  -0.2400 
 18 C        2.4750    -5.7240    -1.7970 C.2   1 <1>   0.5690 
 19 C        5.7410     1.2690    -1.0470 C.ar  1 <1>  -0.1500 
 20 C        5.1270     0.6770     1.1870 C.ar  1 <1>  -0.1500 
 21 O        3.2040    -6.0070    -2.7220 O.2   1 <1>  -0.5700 
 22 C        1.4130    -6.7630    -1.4190 C.3   1 <1>   0.1810 
 23 C        6.2790     0.0080    -1.2350 C.ar  1 <1>  -0.1500 
 24 C        5.6640    -0.5840     0.9990 C.ar  1 <1>  -0.1500 
 25 O        1.5140    -7.1850    -0.0790 O.3   1 <1>  -0.5600 
 26 C        6.2400    -0.9210    -0.2120 C.ar  1 <1>  -0.1500 
 27 C        0.6380    -8.2040     0.2600 C.3   1 <1>   0.1200 
 28 C        0.8360    -8.5020     1.7400 C.3   1 <1>  -0.2400 
 29 H        3.4550     0.4880    -0.2880 H     1 <1>   0.3700 
 30 H        2.8820    -1.6250     0.3080 H     1 <1>   0.0800 
 31 H        3.8190    -1.4560    -1.9650 H     1 <1>   0.0800 
 32 H        2.3950    -2.2020    -2.6210 H     1 <1>   0.0800 
 33 H        0.4280    -2.7940    -1.0070 H     1 <1>   0.0800 
 34 H        0.6030    -2.4290     0.6810 H     1 <1>   0.0800 
 35 H        0.3500     2.3550    -1.6710 H     1 <1>   0.1500 
 36 H        4.3610    -3.4890    -0.7120 H     1 <1>   0.0800 
 37 H        4.1630    -3.8550    -2.4020 H     1 <1>   0.0800 
 38 H        0.9540    -4.8200     0.1990 H     1 <1>   0.0800 
 39 H        2.3730    -4.1060     0.9040 H     1 <1>   0.0800 
 40 H        5.1980     3.7070    -0.2130 H     1 <1>   0.0800 
 41 H        0.9330     4.9180    -1.6300 H     1 <1>   0.1500 
 42 H        3.6770     2.9480     2.2810 H     1 <1>   0.0800 
 43 H        4.1400     4.5490     1.7580 H     1 <1>   0.0800 
 44 H        5.3680     3.4150     2.2490 H     1 <1>   0.0800 
 45 H        5.7760     1.9780    -1.8580 H     1 <1>   0.1500 
 46 H        4.6840     0.9030     2.1410 H     1 <1>   0.1500 
 47 H        1.5340    -7.6230    -2.0530 H     1 <1>   0.0800 
 48 H        0.4370    -6.3430    -1.5740 H     1 <1>   0.0800 
 49 H        6.7300    -0.2490    -2.1780 H     1 <1>   0.1500 
 50 H        5.6390    -1.3050     1.7990 H     1 <1>   0.1500 
 51 H        6.6630    -1.9000    -0.3560 H     1 <1>   0.1500 
 52 H        0.8660    -9.0720    -0.3360 H     1 <1>   0.0800 
 53 H       -0.3710    -7.8780     0.0700 H     1 <1>   0.0800 
 54 H        1.8490    -8.8150     1.9200 H     1 <1>   0.0800 
 55 H        0.1730    -9.2910     2.0460 H     1 <1>   0.0800 
 56 H        0.6210    -7.6260     2.3260 H     1 <1>   0.0800 
@<TRIPOS>BOND
  1   1   2  2   
  2   2   3  am  
  3   2   4  1   
  4   3   5  1   
  5   3  29  1   
  6   4   6  1   
  7   4   7  1   
  8   4  30  1   
  9   5   8  1   
 10   5   9  2   
 11   6  10  1   
 12   6  31  1   
 13   6  32  1   
 14   7  11  1   
 15   7  33  1   
 16   7  34  1   
 17   8  12  1   
 18   8  13  1   
 19   9  14  1   
 20   9  35  1   
 21  10  15  1   
 22  10  36  1   
 23  10  37  1   
 24  11  15  1   
 25  11  38  1   
 26  11  39  1   
 27  12  14  2   
 28  13  16  1   
 29  13  17  1   
 30  13  40  1   
 31  14  41  1   
 32  15  18  am  
 33  16  19  ar  
 34  16  20  ar  
 35  17  42  1   
 36  17  43  1   
 37  17  44  1   
 38  18  21  2   
 39  18  22  1   
 40  19  23  ar  
 41  19  45  1   
 42  20  24  ar  
 43  20  46  1   
 44  22  25  1   
 45  22  47  1   
 46  22  48  1   
 47  23  26  ar  
 48  23  49  1   
 49  24  26  ar  
 50  24  50  1   
 51  25  27  1   
 52  26  51  1   
 53  27  28  1   
 54  27  52  1   
 55  27  53  1   
 56  28  54  1   
 57  28  55  1   
 58  28  56  1   
@<TRIPOS>SUBSTRUCTURE
  1 ****   4 GROUP 4 **** **** 0

# MOE 2024.06 (io_trps.svl 2023.06)
