@<TRIPOS>MOLECULE
NONAME
42 44 1 0 0 
SMALL
USER_CHARGES


@<TRIPOS>ATOM
  1 CL      -0.7440    -0.9990    -0.0930 Cl    1 <1>  -0.1770 
  2 C       -2.0680     0.0770     0.2870 C.ar  1 <1>   0.1770 
  3 C       -3.3700    -0.2350    -0.1070 C.ar  1 <1>   0.0860 
  4 C       -1.7650     1.2300     0.9840 C.ar  1 <1>  -0.1500 
  5 C       -4.3800     0.6770     0.2290 C.ar  1 <1>  -0.1440 
  6 C       -3.6420    -1.4610    -0.8260 C.2   1 <1>   0.5440 
  7 C       -2.7750     2.1160     1.3070 C.ar  1 <1>  -0.1500 
  8 C       -4.0760     1.8360     0.9280 C.ar  1 <1>  -0.1500 
  9 C       -5.8290     0.4170    -0.1670 C.3   1 <1>  -0.0960 
 10 O       -4.0860    -1.4400    -1.9580 O.2   1 <1>  -0.5700 
 11 N       -3.4370    -2.6710    -0.2320 N.am  1 <1>  -0.7300 
 12 C       -3.5480    -3.9840    -0.9070 C.3   1 <1>   0.2200 
 13 C       -4.7850    -4.7410    -0.4440 C.3   1 <1>  -0.0800 
 14 C       -2.4480    -4.8980    -0.3860 C.3   1 <1>   0.1200 
 15 C       -4.3100    -5.4240     0.8430 C.3   1 <1>   0.1200 
 16 C       -6.0620    -3.8960    -0.2800 C.3   1 <1>  -0.0170 
 17 O       -2.9130    -5.3630     0.8440 O.3   1 <1>  -0.5600 
 18 C       -7.2530    -4.7730     0.0740 C.ar  1 <1>  -0.1430 
 19 C       -7.6870    -4.9330     1.3750 C.ar  1 <1>  -0.1500 
 20 C       -7.9610    -5.4570    -0.8930 C.ar  1 <1>  -0.1500 
 21 C       -8.7750    -5.7500     1.6380 C.ar  1 <1>   0.1600 
 22 C       -9.0350    -6.2490    -0.5230 C.ar  1 <1>   0.1600 
 23 N       -9.4580    -6.4140     0.7200 N.ar  1 <1>  -0.6200 
 24 H       -0.7470     1.4320     1.2680 H     1 <1>   0.1500 
 25 H       -2.5510     3.0190     1.8490 H     1 <1>   0.1500 
 26 H       -4.8540     2.5360     1.1830 H     1 <1>   0.1500 
 27 H       -6.4870     1.1620     0.2430 H     1 <1>   0.0800 
 28 H       -6.1470    -0.5470     0.1880 H     1 <1>   0.0800 
 29 H       -5.9240     0.4370    -1.2390 H     1 <1>   0.0800 
 30 H       -3.0450    -2.7230     0.7110 H     1 <1>   0.3700 
 31 H       -3.5080    -3.8680    -1.9780 H     1 <1>   0.0800 
 32 H       -4.9840    -5.5140    -1.1640 H     1 <1>   0.0800 
 33 H       -1.5090    -4.3880    -0.2550 H     1 <1>   0.0800 
 34 H       -2.3180    -5.7470    -1.0340 H     1 <1>   0.0800 
 35 H       -4.6170    -6.4550     0.8840 H     1 <1>   0.0800 
 36 H       -4.6570    -4.9070     1.7200 H     1 <1>   0.0800 
 37 H       -6.2640    -3.3740    -1.2000 H     1 <1>   0.0800 
 38 H       -5.9260    -3.1550     0.4880 H     1 <1>   0.0800 
 39 H       -7.1930    -4.4310     2.1860 H     1 <1>   0.1500 
 40 H       -7.6880    -5.3810    -1.9290 H     1 <1>   0.1500 
 41 H       -9.0990    -5.8630     2.6580 H     1 <1>   0.1500 
 42 H       -9.5760    -6.7760    -1.2910 H     1 <1>   0.1500 
@<TRIPOS>BOND
  1   1   2  1   
  2   2   3  ar  
  3   2   4  ar  
  4   3   5  ar  
  5   3   6  1   
  6   4   7  ar  
  7   4  24  1   
  8   5   8  ar  
  9   5   9  1   
 10   6  10  2   
 11   6  11  am  
 12   7   8  ar  
 13   7  25  1   
 14   8  26  1   
 15   9  27  1   
 16   9  28  1   
 17   9  29  1   
 18  11  12  1   
 19  11  30  1   
 20  12  13  1   
 21  12  14  1   
 22  12  31  1   
 23  13  15  1   
 24  13  16  1   
 25  13  32  1   
 26  14  17  1   
 27  14  33  1   
 28  14  34  1   
 29  15  17  1   
 30  15  35  1   
 31  15  36  1   
 32  16  18  1   
 33  16  37  1   
 34  16  38  1   
 35  18  19  ar  
 36  18  20  ar  
 37  19  21  ar  
 38  19  39  1   
 39  20  22  ar  
 40  20  40  1   
 41  21  23  ar  
 42  21  41  1   
 43  22  23  ar  
 44  22  42  1   
@<TRIPOS>SUBSTRUCTURE
  1 ****  11 GROUP 4 **** **** 0

# MOE 2024.06 (io_trps.svl 2023.06)
