@<TRIPOS>MOLECULE
NONAME
47 49 1 0 0 
SMALL
USER_CHARGES


@<TRIPOS>ATOM
  1 O        0.7340    -0.0140    -0.3580 O.2   1 <1>  -0.5700 
  2 C        1.0240     1.1440    -0.1840 C.2   1 <1>   0.5690 
  3 N        2.2400     1.7040    -0.3880 N.am  1 <1>  -0.6600 
  4 C        0.0390     2.1580     0.3210 C.3   1 <1>  -0.0990 
  5 C        2.2730     3.1400    -0.0260 C.3   1 <1>   0.3000 
  6 C        3.4470     0.9270    -0.7880 C.3   1 <1>   0.0600 
  7 C        0.7660     3.4880     0.0780 C.3   1 <1>  -0.1600 
  8 C        2.9570     3.2940     1.3520 C.3   1 <1>  -0.1600 
  9 C        2.9710     3.9700    -1.1240 C.3   1 <1>  -0.1600 
 10 C        4.4000     3.7770     1.2260 C.3   1 <1>   0.2090 
 11 C        3.4490     5.3120    -0.5750 C.3   1 <1>   0.2090 
 12 N        4.4280     5.1040     0.5370 N.pl3 1 <1>  -0.8380 
 13 C        5.6550     5.7360     0.3940 C.ar  1 <1>   0.4100 
 14 N        6.6520     4.9230     0.0520 N.ar  1 <1>  -0.6200 
 15 C        5.8120     7.1290     0.5570 C.ar  1 <1>   0.0860 
 16 C        7.8320     5.4620    -0.1730 C.ar  1 <1>   0.1670 
 17 C        4.7440     8.0020     0.9930 C.2   1 <1>   0.5440 
 18 C        7.0650     7.6630     0.2950 C.ar  1 <1>  -0.1500 
 19 C        8.0930     6.8250    -0.0760 C.ar  1 <1>  -0.1440 
 20 C        8.9250     4.4850    -0.5640 C.3   1 <1>  -0.0970 
 21 O        4.6930     9.1670     0.6580 O.2   1 <1>  -0.5700 
 22 N        3.7540     7.5830     1.8120 N.am  1 <1>  -0.8000 
 23 C        9.4690     7.4150    -0.3610 C.3   1 <1>  -0.0970 
 24 H       -0.1280     1.9880     1.3680 H     1 <1>   0.0800 
 25 H       -0.8870     2.0960    -0.2200 H     1 <1>   0.0800 
 26 H        3.2150    -0.1240    -0.8150 H     1 <1>   0.0800 
 27 H        4.2420     1.0840    -0.0830 H     1 <1>   0.0800 
 28 H        3.7700     1.2270    -1.7690 H     1 <1>   0.0800 
 29 H        0.5470     4.2130     0.8410 H     1 <1>   0.0800 
 30 H        0.4180     3.8880    -0.8570 H     1 <1>   0.0800 
 31 H        2.9310     2.3650     1.8920 H     1 <1>   0.0800 
 32 H        2.4430     4.0220     1.9520 H     1 <1>   0.0800 
 33 H        2.3170     4.1310    -1.9600 H     1 <1>   0.0800 
 34 H        3.8420     3.4630    -1.4960 H     1 <1>   0.0800 
 35 H        4.9800     3.0640     0.6640 H     1 <1>   0.0800 
 36 H        4.8460     3.8750     2.2010 H     1 <1>   0.0800 
 37 H        2.6100     5.8800    -0.2100 H     1 <1>   0.0800 
 38 H        3.9140     5.8760    -1.3670 H     1 <1>   0.0800 
 39 H        7.2180     8.7240     0.3910 H     1 <1>   0.1500 
 40 H        8.5760     3.4730    -0.4670 H     1 <1>   0.0800 
 41 H        9.7800     4.6090     0.0730 H     1 <1>   0.0800 
 42 H        9.2120     4.6500    -1.5860 H     1 <1>   0.0800 
 43 H        2.9950     8.2150     2.0580 H     1 <1>   0.3700 
 44 H        3.6160     6.5740     1.9390 H     1 <1>   0.3700 
 45 H       10.1800     7.0600     0.3630 H     1 <1>   0.0800 
 46 H        9.4440     8.4890    -0.3100 H     1 <1>   0.0800 
 47 H        9.7970     7.1340    -1.3450 H     1 <1>   0.0800 
@<TRIPOS>BOND
  1   1   2  2   
  2   2   3  am  
  3   2   4  1   
  4   3   5  1   
  5   3   6  1   
  6   4   7  1   
  7   4  24  1   
  8   4  25  1   
  9   5   7  1   
 10   5   8  1   
 11   5   9  1   
 12   6  26  1   
 13   6  27  1   
 14   6  28  1   
 15   7  29  1   
 16   7  30  1   
 17   8  10  1   
 18   8  31  1   
 19   8  32  1   
 20   9  11  1   
 21   9  33  1   
 22   9  34  1   
 23  10  12  1   
 24  10  35  1   
 25  10  36  1   
 26  11  12  1   
 27  11  37  1   
 28  11  38  1   
 29  12  13  1   
 30  13  14  ar  
 31  13  15  ar  
 32  14  16  ar  
 33  15  17  1   
 34  15  18  ar  
 35  16  19  ar  
 36  16  20  1   
 37  17  21  2   
 38  17  22  am  
 39  18  19  ar  
 40  18  39  1   
 41  19  23  1   
 42  20  40  1   
 43  20  41  1   
 44  20  42  1   
 45  22  43  1   
 46  22  44  1   
 47  23  45  1   
 48  23  46  1   
 49  23  47  1   
@<TRIPOS>SUBSTRUCTURE
  1 ****  12 GROUP 4 **** **** 0

# MOE 2024.06 (io_trps.svl 2023.06)
