@<TRIPOS>MOLECULE
NONAME
46 48 1 0 0 
SMALL
USER_CHARGES


@<TRIPOS>ATOM
  1 S       -1.6070    -0.7070    -1.1690 S.3   1 <1>  -0.0800 
  2 C       -1.5810    -1.3330     0.4470 C.2   1 <1>   0.4420 
  3 C       -0.8820     0.7350    -0.5420 C.2   1 <1>   0.1980 
  4 N       -1.0840    -0.4970     1.2850 N.2   1 <1>  -0.3380 
  5 N       -2.0800    -2.6030     0.6240 N.am  1 <1>  -0.4940 
  6 N       -0.6870     0.6810     0.7140 N.2   1 <1>  -0.3380 
  7 C       -0.5830     1.8770    -1.4990 C.3   1 <1>   0.3000 
  8 C       -2.2710    -3.3420     1.7520 C.2   1 <1>   0.5690 
  9 O        0.1160     1.4110    -2.6180 O.3   1 <1>  -0.5600 
 10 O       -2.0490    -2.9540     2.8710 O.2   1 <1>  -0.5700 
 11 C       -2.8180    -4.7520     1.5390 C.3   1 <1>   0.1710 
 12 C        0.4880     2.4080    -3.5140 C.3   1 <1>   0.0400 
 13 N       -3.5550    -4.9060     0.2390 N.3   1 <1>  -0.8100 
 14 C       -3.6580    -6.3270    -0.1750 C.3   1 <1>   0.3330 
 15 C       -4.8920    -4.2910     0.3610 C.3   1 <1>   0.1100 
 16 C       -2.2790    -6.9740    -0.3090 C.ar  1 <1>  -0.1440 
 17 C       -4.3900    -6.4340    -1.5220 C.3   1 <1>  -0.1600 
 18 C       -5.6240    -4.3260    -0.9820 C.3   1 <1>  -0.1600 
 19 C       -1.2670    -6.3500    -1.0340 C.ar  1 <1>  -0.1500 
 20 C       -2.0300    -8.2000     0.3000 C.ar  1 <1>  -0.1500 
 21 C       -5.7680    -5.7630    -1.4890 C.3   1 <1>  -0.1600 
 22 C       -0.0180    -6.9380    -1.1500 C.ar  1 <1>  -0.1500 
 23 C       -0.7860    -8.7990     0.1910 C.ar  1 <1>  -0.1500 
 24 C        0.1980    -8.1540    -0.5330 C.ar  1 <1>   0.1900 
 25 F        1.3730    -8.7140    -0.6380 F     1 <1>  -0.1900 
 26 H       -2.4130    -3.0930    -0.2090 H     1 <1>   0.3700 
 27 H        0.0190     2.6150    -0.9980 H     1 <1>   0.0800 
 28 H       -1.5030     2.3230    -1.8310 H     1 <1>   0.0800 
 29 H       -3.4590    -5.0090     2.3640 H     1 <1>   0.0800 
 30 H       -1.9680    -5.4090     1.5760 H     1 <1>   0.0800 
 31 H        1.0100     1.9440    -4.3330 H     1 <1>   0.0800 
 32 H        1.1420     3.1070    -3.0210 H     1 <1>   0.0800 
 33 H       -0.3930     2.9050    -3.8830 H     1 <1>   0.0800 
 34 H       -4.2270    -6.8610     0.5680 H     1 <1>   0.0800 
 35 H       -4.8000    -3.2650     0.6770 H     1 <1>   0.0800 
 36 H       -5.4730    -4.8170     1.1010 H     1 <1>   0.0800 
 37 H       -4.5030    -7.4720    -1.7800 H     1 <1>   0.0800 
 38 H       -3.7890    -5.9740    -2.2860 H     1 <1>   0.0800 
 39 H       -5.0750    -3.7370    -1.6970 H     1 <1>   0.0800 
 40 H       -6.5980    -3.8840    -0.8700 H     1 <1>   0.0800 
 41 H       -1.4550    -5.4020    -1.5070 H     1 <1>   0.1500 
 42 H       -2.8030    -8.6950     0.8620 H     1 <1>   0.1500 
 43 H       -6.4210    -6.3130    -0.8330 H     1 <1>   0.0800 
 44 H       -6.2020    -5.7660    -2.4740 H     1 <1>   0.0800 
 45 H        0.7710    -6.4650    -1.7050 H     1 <1>   0.1500 
 46 H       -0.5780    -9.7460     0.6560 H     1 <1>   0.1500 
@<TRIPOS>BOND
  1   1   2  1   
  2   1   3  1   
  3   2   4  2   
  4   2   5  1   
  5   3   6  2   
  6   3   7  1   
  7   4   6  1   
  8   5   8  am  
  9   5  26  1   
 10   7   9  1   
 11   7  27  1   
 12   7  28  1   
 13   8  10  2   
 14   8  11  1   
 15   9  12  1   
 16  11  13  1   
 17  11  29  1   
 18  11  30  1   
 19  12  31  1   
 20  12  32  1   
 21  12  33  1   
 22  13  14  1   
 23  13  15  1   
 24  14  16  1   
 25  14  17  1   
 26  14  34  1   
 27  15  18  1   
 28  15  35  1   
 29  15  36  1   
 30  16  19  ar  
 31  16  20  ar  
 32  17  21  1   
 33  17  37  1   
 34  17  38  1   
 35  18  21  1   
 36  18  39  1   
 37  18  40  1   
 38  19  22  ar  
 39  19  41  1   
 40  20  23  ar  
 41  20  42  1   
 42  21  43  1   
 43  21  44  1   
 44  22  24  ar  
 45  22  45  1   
 46  23  24  ar  
 47  23  46  1   
 48  24  25  1   
@<TRIPOS>SUBSTRUCTURE
  1 ****   5 GROUP 4 **** **** 0

# MOE 2024.06 (io_trps.svl 2023.06)
