@<TRIPOS>MOLECULE
NONAME
43 45 1 0 0 
SMALL
USER_CHARGES


@<TRIPOS>ATOM
  1 F        1.2060     0.1700    -1.4330 F     1 <1>  -0.3400 
  2 C        1.7440    -0.8610    -2.0730 C.3   1 <1>   1.1640 
  3 F        3.0600    -0.7060    -1.9880 F     1 <1>  -0.3400 
  4 F        1.4340    -0.7110    -3.3540 F     1 <1>  -0.3400 
  5 C        1.2860    -2.2190    -1.5300 C.ar  1 <1>  -0.1440 
  6 C        0.2080    -2.3630    -0.6790 C.ar  1 <1>  -0.1500 
  7 C        1.9360    -3.3940    -1.8740 C.ar  1 <1>  -0.1500 
  8 C       -0.1740    -3.6170    -0.2130 C.ar  1 <1>   0.4100 
  9 C        1.4900    -4.5980    -1.3620 C.ar  1 <1>   0.1600 
 10 N        0.4600    -4.7350    -0.5480 N.ar  1 <1>  -0.6200 
 11 N       -1.2700    -3.7090     0.6230 N.pl3 1 <1>  -0.8380 
 12 C       -2.6010    -3.4140     0.0230 C.3   1 <1>   0.2090 
 13 C       -1.4160    -4.8450     1.5790 C.3   1 <1>   0.2090 
 14 C       -3.6040    -4.2440     0.8260 C.3   1 <1>  -0.0800 
 15 C       -2.7830    -5.4600     1.2730 C.3   1 <1>  -0.0800 
 16 C       -4.9240    -4.5870     0.0950 C.3   1 <1>   0.2800 
 17 C       -2.6520    -6.5320     0.1700 C.3   1 <1>  -0.1600 
 18 O       -5.3610    -3.4530    -0.5560 O.3   1 <1>  -0.6800 
 19 C       -4.7100    -5.6580    -0.9910 C.3   1 <1>  -0.1600 
 20 C       -6.0470    -5.0220     1.0720 C.3   1 <1>  -0.1600 
 21 C       -4.0030    -6.9080    -0.4460 C.3   1 <1>  -0.1600 
 22 C       -6.5730    -3.9400     2.0350 C.3   1 <1>  -0.2400 
 23 H       -0.3640    -1.5160    -0.3490 H     1 <1>   0.1500 
 24 H        2.7860    -3.3820    -2.5340 H     1 <1>   0.1500 
 25 H        2.0080    -5.5010    -1.6380 H     1 <1>   0.1500 
 26 H       -2.8300    -2.3650     0.0930 H     1 <1>   0.0800 
 27 H       -2.6000    -3.7090    -1.0120 H     1 <1>   0.0800 
 28 H       -0.6240    -5.5680     1.4910 H     1 <1>   0.0800 
 29 H       -1.4070    -4.4480     2.5790 H     1 <1>   0.0800 
 30 H       -3.8330    -3.6630     1.6980 H     1 <1>   0.0800 
 31 H       -3.2030    -5.9050     2.1570 H     1 <1>   0.0800 
 32 H       -2.0110    -6.1640    -0.6150 H     1 <1>   0.0800 
 33 H       -2.1820    -7.4100     0.5770 H     1 <1>   0.0800 
 34 H       -6.2460    -3.6190    -0.9270 H     1 <1>   0.4000 
 35 H       -5.6530    -5.9470    -1.4190 H     1 <1>   0.0800 
 36 H       -4.1040    -5.2480    -1.7800 H     1 <1>   0.0800 
 37 H       -6.8790    -5.3930     0.5010 H     1 <1>   0.0800 
 38 H       -5.6910    -5.8460     1.6640 H     1 <1>   0.0800 
 39 H       -4.6160    -7.3960     0.2910 H     1 <1>   0.0800 
 40 H       -3.8430    -7.6060    -1.2500 H     1 <1>   0.0800 
 41 H       -6.9400    -3.0870     1.4920 H     1 <1>   0.0800 
 42 H       -5.8050    -3.6110     2.7100 H     1 <1>   0.0800 
 43 H       -7.3820    -4.3380     2.6210 H     1 <1>   0.0800 
@<TRIPOS>BOND
  1   1   2  1   
  2   2   3  1   
  3   2   4  1   
  4   2   5  1   
  5   5   6  ar  
  6   5   7  ar  
  7   6   8  ar  
  8   6  23  1   
  9   7   9  ar  
 10   7  24  1   
 11   8  10  ar  
 12   8  11  1   
 13   9  10  ar  
 14   9  25  1   
 15  11  12  1   
 16  11  13  1   
 17  12  14  1   
 18  12  26  1   
 19  12  27  1   
 20  13  15  1   
 21  13  28  1   
 22  13  29  1   
 23  14  15  1   
 24  14  16  1   
 25  14  30  1   
 26  15  17  1   
 27  15  31  1   
 28  16  18  1   
 29  16  19  1   
 30  16  20  1   
 31  17  21  1   
 32  17  32  1   
 33  17  33  1   
 34  18  34  1   
 35  19  21  1   
 36  19  35  1   
 37  19  36  1   
 38  20  22  1   
 39  20  37  1   
 40  20  38  1   
 41  21  39  1   
 42  21  40  1   
 43  22  41  1   
 44  22  42  1   
 45  22  43  1   
@<TRIPOS>SUBSTRUCTURE
  1 ****  11 GROUP 4 **** **** 0

# MOE 2024.06 (io_trps.svl 2023.06)
