@<TRIPOS>MOLECULE
NONAME
44 45 1 0 0 
SMALL
USER_CHARGES


@<TRIPOS>ATOM
  1 F       -1.1790    -0.5910    -0.2420 F     1 <1>  -0.3400 
  2 C       -1.7270     0.4050     0.4570 C.3   1 <1>   1.0810 
  3 F       -2.9740     0.0200     0.7210 F     1 <1>  -0.3400 
  4 F       -1.0920     0.4000     1.6320 F     1 <1>  -0.3400 
  5 C       -1.6010     1.7900    -0.2740 C.2   1 <1>   0.5690 
  6 O       -2.6140     2.3680    -0.6200 O.2   1 <1>  -0.5700 
  7 N       -0.3710     2.3970    -0.5240 N.am  1 <1>  -0.6600 
  8 C        0.9700     1.8370    -0.1560 C.3   1 <1>   0.1400 
  9 C       -0.2990     3.7160    -1.2180 C.3   1 <1>   0.1400 
 10 C        1.6000     2.5340     1.0720 C.3   1 <1>   0.2090 
 11 C       -0.4170     4.8720    -0.2190 C.3   1 <1>  -0.1600 
 12 N        1.6500     4.0360     0.9410 N.pl3 1 <1>  -0.8380 
 13 C        0.2920     4.6540     1.1220 C.3   1 <1>   0.2090 
 14 C        2.7370     4.8270     0.7140 C.ar  1 <1>   0.7710 
 15 N        2.5630     6.1260     0.5310 N.ar  1 <1>  -0.6200 
 16 N        3.9630     4.2770     0.6770 N.ar  1 <1>  -0.1790 
 17 C        3.6130     6.8870     0.2880 C.ar  1 <1>   0.4100 
 18 C        5.0740     5.0240     0.4710 C.ar  1 <1>   0.2110 
 19 N        3.3590     8.2000     0.0550 N.pl3 1 <1>  -0.8380 
 20 C        4.9280     6.3580     0.2750 C.ar  1 <1>  -0.1430 
 21 C        2.3240     8.9400     0.8330 C.3   1 <1>   0.1290 
 22 C        3.7860     8.8980    -1.1900 C.3   1 <1>   0.1290 
 23 C        6.1570     7.2470     0.0930 C.3   1 <1>  -0.0970 
 24 H        1.6320     1.9400    -0.9980 H     1 <1>   0.0800 
 25 H        0.8970     0.7830     0.0450 H     1 <1>   0.0800 
 26 H       -1.0860     3.7930    -1.9510 H     1 <1>   0.0800 
 27 H        0.6360     3.7960    -1.7450 H     1 <1>   0.0800 
 28 H        2.5810     2.1270     1.2290 H     1 <1>   0.0800 
 29 H        1.0220     2.2760     1.9440 H     1 <1>   0.0800 
 30 H       -1.4600     5.0490    -0.0240 H     1 <1>   0.0800 
 31 H       -0.0340     5.7650    -0.6790 H     1 <1>   0.0800 
 32 H       -0.3190     4.0160     1.7380 H     1 <1>   0.0800 
 33 H        0.3700     5.5960     1.6410 H     1 <1>   0.0800 
 34 H        4.0100     3.2830     0.8460 H     1 <1>   0.4570 
 35 H        6.0370     4.5400     0.4790 H     1 <1>   0.1500 
 36 H        2.1230     8.4350     1.7620 H     1 <1>   0.0800 
 37 H        1.4110     8.9970     0.2650 H     1 <1>   0.0800 
 38 H        2.6700     9.9350     1.0520 H     1 <1>   0.0800 
 39 H        4.2450     8.2050    -1.8730 H     1 <1>   0.0800 
 40 H        4.4870     9.6790    -0.9500 H     1 <1>   0.0800 
 41 H        2.9310     9.3340    -1.6790 H     1 <1>   0.0800 
 42 H        6.0580     8.1390     0.6880 H     1 <1>   0.0800 
 43 H        6.2670     7.5320    -0.9380 H     1 <1>   0.0800 
 44 H        7.0560     6.7420     0.4000 H     1 <1>   0.0800 
@<TRIPOS>BOND
  1   1   2  1   
  2   2   3  1   
  3   2   4  1   
  4   2   5  1   
  5   5   6  2   
  6   5   7  am  
  7   7   8  1   
  8   7   9  1   
  9   8  10  1   
 10   8  24  1   
 11   8  25  1   
 12   9  11  1   
 13   9  26  1   
 14   9  27  1   
 15  10  12  1   
 16  10  28  1   
 17  10  29  1   
 18  11  13  1   
 19  11  30  1   
 20  11  31  1   
 21  12  13  1   
 22  12  14  1   
 23  13  32  1   
 24  13  33  1   
 25  14  15  ar  
 26  14  16  ar  
 27  15  17  ar  
 28  16  18  ar  
 29  16  34  1   
 30  17  19  1   
 31  17  20  ar  
 32  18  20  ar  
 33  18  35  1   
 34  19  21  1   
 35  19  22  1   
 36  20  23  1   
 37  21  36  1   
 38  21  37  1   
 39  21  38  1   
 40  22  39  1   
 41  22  40  1   
 42  22  41  1   
 43  23  42  1   
 44  23  43  1   
 45  23  44  1   
@<TRIPOS>SUBSTRUCTURE
  1 ****  12 GROUP 4 **** **** 0

# MOE 2024.06 (io_trps.svl 2023.06)
