@<TRIPOS>MOLECULE
NONAME
49 50 1 0 0 
SMALL
USER_CHARGES


@<TRIPOS>ATOM
  1 S       -0.3130     0.7400    -0.3780 S.o2  1 <1>   1.3330 
  2 O       -0.6970    -0.6330    -0.6150 O.2   1 <1>  -0.6500 
  3 O       -1.2710     1.7850    -0.6560 O.2   1 <1>  -0.6500 
  4 N        1.0870     1.0300    -1.2960 N.am  1 <1>  -0.8490 
  5 C        0.2050     0.8700     1.3450 C.3   1 <1>  -0.0550 
  6 C        1.9080    -0.1670    -1.5050 C.3   1 <1>   0.1160 
  7 C        0.7930     1.6600    -2.5920 C.3   1 <1>   0.1160 
  8 C        0.7780     2.2050     1.8870 C.3   1 <1>  -0.0800 
  9 C       -0.0800     3.4360     1.5900 C.3   1 <1>   0.2000 
 10 C        2.1750     2.5580     1.3480 C.3   1 <1>   0.1100 
 11 O        0.0150     4.2770     2.6840 O.3   1 <1>  -0.6800 
 12 C        0.6560     4.1110     0.4390 C.3   1 <1>   0.1100 
 13 N        2.0830     3.8880     0.7260 N.3   1 <1>  -0.8100 
 14 C        2.9100     3.9740    -0.4960 C.3   1 <1>   0.2900 
 15 C        2.7010     5.2720    -1.2690 C.2   1 <1>   0.0060 
 16 N        2.3340     5.2920    -2.5130 N.2   1 <1>  -0.5650 
 17 N        2.8840     6.5080    -0.7360 N.pl3 1 <1>   0.0480 
 18 C        2.2700     6.6020    -2.8100 C.2   1 <1>   0.0770 
 19 C        2.6030     7.3570    -1.7420 C.2   1 <1>  -0.3020 
 20 C        3.3080     6.8910     0.6260 C.3   1 <1>   0.0960 
 21 C        4.8250     6.7870     0.7460 C.3   1 <1>   0.1200 
 22 O        5.1850     7.1750     2.0320 O.3   1 <1>  -0.5600 
 23 C        6.5530     7.1130     2.2790 C.3   1 <1>   0.0400 
 24 H       -0.6520     0.6350     1.9460 H     1 <1>   0.0800 
 25 H        0.9260     0.1000     1.5380 H     1 <1>   0.0800 
 26 H        2.8260     0.0960    -2.0030 H     1 <1>   0.0800 
 27 H        1.3770    -0.8870    -2.1070 H     1 <1>   0.0800 
 28 H        2.1510    -0.6210    -0.5600 H     1 <1>   0.0800 
 29 H        1.7040     1.8500    -3.1330 H     1 <1>   0.0800 
 30 H        0.2940     2.6030    -2.4460 H     1 <1>   0.0800 
 31 H        0.1550     1.0220    -3.1820 H     1 <1>   0.0800 
 32 H        0.8550     2.0790     2.9540 H     1 <1>   0.0800 
 33 H       -1.1200     3.2370     1.3970 H     1 <1>   0.0800 
 34 H        2.5110     1.8200     0.6420 H     1 <1>   0.0800 
 35 H        2.8880     2.5980     2.1550 H     1 <1>   0.0800 
 36 H        0.9320     4.6240     2.6880 H     1 <1>   0.4000 
 37 H        0.4200     5.1590     0.3750 H     1 <1>   0.0800 
 38 H        0.3880     3.6440    -0.4910 H     1 <1>   0.0800 
 39 H        3.9470     3.8890    -0.2280 H     1 <1>   0.0800 
 40 H        2.6740     3.1560    -1.1520 H     1 <1>   0.0800 
 41 H        1.9820     6.9380    -3.7920 H     1 <1>   0.1500 
 42 H        2.6520     8.4260    -1.6480 H     1 <1>   0.1500 
 43 H        2.9980     7.9030     0.8130 H     1 <1>   0.0800 
 44 H        2.8370     6.2450     1.3420 H     1 <1>   0.0800 
 45 H        5.3040     7.4460     0.0410 H     1 <1>   0.0800 
 46 H        5.1470     5.7720     0.5920 H     1 <1>   0.0800 
 47 H        6.7240     7.4330     3.2920 H     1 <1>   0.0800 
 48 H        7.0680     7.7700     1.6000 H     1 <1>   0.0800 
 49 H        6.8910     6.0980     2.1580 H     1 <1>   0.0800 
@<TRIPOS>BOND
  1   1   2  2   
  2   1   3  2   
  3   1   4  am  
  4   1   5  1   
  5   4   6  1   
  6   4   7  1   
  7   5   8  1   
  8   5  24  1   
  9   5  25  1   
 10   6  26  1   
 11   6  27  1   
 12   6  28  1   
 13   7  29  1   
 14   7  30  1   
 15   7  31  1   
 16   8   9  1   
 17   8  10  1   
 18   8  32  1   
 19   9  11  1   
 20   9  12  1   
 21   9  33  1   
 22  10  13  1   
 23  10  34  1   
 24  10  35  1   
 25  11  36  1   
 26  12  13  1   
 27  12  37  1   
 28  12  38  1   
 29  13  14  1   
 30  14  15  1   
 31  14  39  1   
 32  14  40  1   
 33  15  16  2   
 34  15  17  1   
 35  16  18  1   
 36  17  19  1   
 37  17  20  1   
 38  18  19  2   
 39  18  41  1   
 40  19  42  1   
 41  20  21  1   
 42  20  43  1   
 43  20  44  1   
 44  21  22  1   
 45  21  45  1   
 46  21  46  1   
 47  22  23  1   
 48  23  47  1   
 49  23  48  1   
 50  23  49  1   
@<TRIPOS>SUBSTRUCTURE
  1 ****  13 GROUP 4 **** **** 0

# MOE 2024.06 (io_trps.svl 2023.06)
