@<TRIPOS>MOLECULE
NONAME
47 49 1 0 0 
SMALL
USER_CHARGES


@<TRIPOS>ATOM
  1 O       -0.2410     1.5800     0.2770 O.2   1 <1>  -0.5700 
  2 C        0.2670     0.7040    -0.3820 C.2   1 <1>   0.5690 
  3 N        0.6350     0.9110    -1.6700 N.am  1 <1>  -0.7300 
  4 C        0.5220    -0.6640     0.2500 C.3   1 <1>   0.1810 
  5 C        0.5500     2.2010    -2.3890 C.3   1 <1>   0.3210 
  6 O        1.2510    -1.5120    -0.6150 O.3   1 <1>  -0.5600 
  7 C        1.9130     2.8690    -2.4280 C.2   1 <1>   0.1080 
  8 C        1.8130    -2.6460    -0.0110 C.3   1 <1>   0.1200 
  9 N        2.5660     3.1390    -3.5030 N.2   1 <1>  -0.4100 
 10 C        2.6270     3.2710    -1.3070 C.2   1 <1>  -0.1500 
 11 C        0.7580    -3.6970     0.3840 C.3   1 <1>   0.2000 
 12 O        3.6740     3.6980    -3.1110 O.3   1 <1>  -0.0190 
 13 C        3.7650     3.8020    -1.8030 C.2   1 <1>   0.0870 
 14 O        0.0510    -3.3010     1.5160 O.3   1 <1>  -0.5600 
 15 C        1.3580    -5.0380     0.7850 C.3   1 <1>  -0.1600 
 16 C        4.9220     4.3910    -1.1680 C.ar  1 <1>   0.0530 
 17 C       -0.5280    -4.4050     2.1330 C.3   1 <1>   0.1200 
 18 C        0.3120    -5.6130     1.7260 C.3   1 <1>  -0.1600 
 19 C        5.0110     4.4840     0.2190 C.ar  1 <1>  -0.1500 
 20 C        5.9920     4.8860    -1.9140 C.ar  1 <1>  -0.1500 
 21 C        6.1120     5.0430     0.8440 C.ar  1 <1>   0.0820 
 22 C        7.0980     5.4470    -1.3040 C.ar  1 <1>  -0.1500 
 23 O        6.0890     5.0800     2.2000 O.3   1 <1>  -0.3630 
 24 C        7.1640     5.5290     0.0750 C.ar  1 <1>  -0.1500 
 25 C        7.1580     5.6310     2.9360 C.3   1 <1>   0.0400 
 26 H        1.1530     0.1560    -2.1290 H     1 <1>   0.3700 
 27 H       -0.4230    -1.1250     0.4690 H     1 <1>   0.0800 
 28 H        1.0750    -0.5300     1.1620 H     1 <1>   0.0800 
 29 H       -0.1500     2.8510    -1.8950 H     1 <1>   0.0800 
 30 H        0.2030     2.0270    -3.3920 H     1 <1>   0.0800 
 31 H        2.3930    -2.3460     0.8440 H     1 <1>   0.0800 
 32 H        2.4780    -3.0780    -0.7360 H     1 <1>   0.0800 
 33 H        2.3060     3.1610    -0.2870 H     1 <1>   0.1500 
 34 H        0.0530    -3.8370    -0.4180 H     1 <1>   0.0800 
 35 H        2.2820    -4.8800     1.3150 H     1 <1>   0.0800 
 36 H        1.5390    -5.6670    -0.0680 H     1 <1>   0.0800 
 37 H       -1.5420    -4.4950     1.7800 H     1 <1>   0.0800 
 38 H       -0.5210    -4.2440     3.1970 H     1 <1>   0.0800 
 39 H        0.7620    -6.0820     2.5830 H     1 <1>   0.0800 
 40 H       -0.3100    -6.3310     1.2210 H     1 <1>   0.0800 
 41 H        4.2120     4.1150     0.8340 H     1 <1>   0.1500 
 42 H        5.9580     4.8300    -2.9890 H     1 <1>   0.1500 
 43 H        7.9100     5.8220    -1.9040 H     1 <1>   0.1500 
 44 H        8.0330     5.9680     0.5270 H     1 <1>   0.1500 
 45 H        6.9180     5.5520     3.9810 H     1 <1>   0.0800 
 46 H        7.2720     6.6650     2.6650 H     1 <1>   0.0800 
 47 H        8.0530     5.0740     2.7230 H     1 <1>   0.0800 
@<TRIPOS>BOND
  1   1   2  2   
  2   2   3  am  
  3   2   4  1   
  4   3   5  1   
  5   3  26  1   
  6   4   6  1   
  7   4  27  1   
  8   4  28  1   
  9   5   7  1   
 10   5  29  1   
 11   5  30  1   
 12   6   8  1   
 13   7   9  2   
 14   7  10  1   
 15   8  11  1   
 16   8  31  1   
 17   8  32  1   
 18   9  12  1   
 19  10  13  2   
 20  10  33  1   
 21  11  14  1   
 22  11  15  1   
 23  11  34  1   
 24  12  13  1   
 25  13  16  1   
 26  14  17  1   
 27  15  18  1   
 28  15  35  1   
 29  15  36  1   
 30  16  19  ar  
 31  16  20  ar  
 32  17  18  1   
 33  17  37  1   
 34  17  38  1   
 35  18  39  1   
 36  18  40  1   
 37  19  21  ar  
 38  19  41  1   
 39  20  22  ar  
 40  20  42  1   
 41  21  23  1   
 42  21  24  ar  
 43  22  24  ar  
 44  22  43  1   
 45  23  25  1   
 46  24  44  1   
 47  25  45  1   
 48  25  46  1   
 49  25  47  1   
@<TRIPOS>SUBSTRUCTURE
  1 ****  10 GROUP 4 **** **** 0

# MOE 2024.06 (io_trps.svl 2023.06)
