@<TRIPOS>MOLECULE
NONAME
45 48 1 0 0 
SMALL
USER_CHARGES


@<TRIPOS>ATOM
  1 O       -0.6670    -0.0920     0.3360 O.2   1 <1>  -0.5700 
  2 C       -1.7200     0.4540     0.1030 C.2   1 <1>   0.5770 
  3 N       -2.8270    -0.2760    -0.2370 N.am  1 <1>  -0.6600 
  4 C       -1.8060     1.9780     0.1710 C.3   1 <1>   0.0530 
  5 C       -4.1420     0.2590    -0.6670 C.3   1 <1>   0.1400 
  6 C       -2.8040    -1.7550    -0.3190 C.3   1 <1>   0.1400 
  7 C       -0.6030     2.7170     0.8250 C.3   1 <1>   0.0000 
  8 C       -2.6670     2.5260     1.3410 C.3   1 <1>   0.0000 
  9 C       -4.8980    -0.9530    -1.2110 C.3   1 <1>   0.2000 
 10 C       -4.2580    -2.1700    -0.5460 C.3   1 <1>  -0.0800 
 11 C       -1.6410     3.6830     1.4510 C.3   1 <1>   0.0000 
 12 O       -6.2470    -0.8950    -0.8960 O.3   1 <1>  -0.6800 
 13 C       -4.4050    -3.4530    -1.3810 C.3   1 <1>  -0.0160 
 14 C       -3.7850    -4.6480    -0.6630 C.ar  1 <1>  -0.1440 
 15 C       -4.4410    -5.3180     0.3970 C.ar  1 <1>   0.0000 
 16 C       -2.5530    -5.1040    -1.0310 C.ar  1 <1>  -0.1500 
 17 C       -3.7630    -6.4000     1.0100 C.ar  1 <1>   0.3100 
 18 C       -5.7250    -4.9800     0.8850 C.ar  1 <1>  -0.1500 
 19 C       -1.9740    -6.1890    -0.3620 C.ar  1 <1>   0.1600 
 20 N       -2.5340    -6.8230     0.6180 N.ar  1 <1>  -0.6200 
 21 C       -4.3830    -7.0760     2.0730 C.ar  1 <1>  -0.1500 
 22 C       -6.3020    -5.6610     1.9220 C.ar  1 <1>  -0.1500 
 23 C       -5.6240    -6.7210     2.5270 C.ar  1 <1>  -0.1500 
 24 H       -2.0770     2.4250    -0.7710 H     1 <1>   0.0000 
 25 H       -4.6500     0.6770     0.1840 H     1 <1>   0.0800 
 26 H       -4.0170     1.0050    -1.4330 H     1 <1>   0.0800 
 27 H       -2.1820    -2.0440    -1.1490 H     1 <1>   0.0800 
 28 H       -2.4060    -2.1830     0.5860 H     1 <1>   0.0800 
 29 H       -0.0900     2.1380     1.5750 H     1 <1>   0.0000 
 30 H        0.0570     3.1880     0.1190 H     1 <1>   0.0000 
 31 H       -3.6510     2.8450     1.0480 H     1 <1>   0.0000 
 32 H       -2.6610     1.8840     2.2060 H     1 <1>   0.0000 
 33 H       -4.8000    -0.9930    -2.2820 H     1 <1>   0.0800 
 34 H       -4.6960    -2.3160     0.4260 H     1 <1>   0.0800 
 35 H       -1.8790     4.5130     0.8070 H     1 <1>   0.0000 
 36 H       -1.4150     3.9710     2.4620 H     1 <1>   0.0000 
 37 H       -6.3710    -0.8820     0.0730 H     1 <1>   0.4000 
 38 H       -3.9250    -3.3150    -2.3340 H     1 <1>   0.0800 
 39 H       -5.4440    -3.6460    -1.5840 H     1 <1>   0.0800 
 40 H       -1.9960    -4.6490    -1.8290 H     1 <1>   0.1500 
 41 H       -6.2670    -4.1710     0.4320 H     1 <1>   0.1500 
 42 H       -0.9990    -6.5150    -0.6830 H     1 <1>   0.1500 
 43 H       -3.8430    -7.8890     2.5210 H     1 <1>   0.1500 
 44 H       -7.2800    -5.3930     2.2840 H     1 <1>   0.1500 
 45 H       -6.0860    -7.2490     3.3430 H     1 <1>   0.1500 
@<TRIPOS>BOND
  1   1   2  2   
  2   2   3  am  
  3   2   4  1   
  4   3   5  1   
  5   3   6  1   
  6   4   7  1   
  7   4   8  1   
  8   4  24  1   
  9   5   9  1   
 10   5  25  1   
 11   5  26  1   
 12   6  10  1   
 13   6  27  1   
 14   6  28  1   
 15   7  11  1   
 16   7  29  1   
 17   7  30  1   
 18   8  11  1   
 19   8  31  1   
 20   8  32  1   
 21   9  10  1   
 22   9  12  1   
 23   9  33  1   
 24  10  13  1   
 25  10  34  1   
 26  11  35  1   
 27  11  36  1   
 28  12  37  1   
 29  13  14  1   
 30  13  38  1   
 31  13  39  1   
 32  14  15  ar  
 33  14  16  ar  
 34  15  17  ar  
 35  15  18  ar  
 36  16  19  ar  
 37  16  40  1   
 38  17  20  ar  
 39  17  21  ar  
 40  18  22  ar  
 41  18  41  1   
 42  19  20  ar  
 43  19  42  1   
 44  21  23  ar  
 45  21  43  1   
 46  22  23  ar  
 47  22  44  1   
 48  23  45  1   
@<TRIPOS>SUBSTRUCTURE
  1 ****   6 GROUP 4 **** **** 0

# MOE 2024.06 (io_trps.svl 2023.06)
