@<TRIPOS>MOLECULE
NONAME
40 42 1 0 0 
SMALL
USER_CHARGES


@<TRIPOS>ATOM
  1 O       -1.0980    -0.4000    -1.9230 O.2   1 <1>  -0.5700 
  2 C       -1.8650     0.3760    -1.4050 C.2   1 <1>   0.5690 
  3 N       -2.7000     0.0370    -0.3630 N.am  1 <1>  -0.4770 
  4 C       -1.8910     1.7990    -1.9110 C.3   1 <1>  -0.0990 
  5 C       -3.5840     0.9790     0.2130 C.ar  1 <1>   0.1170 
  6 C       -2.6440    -1.3500     0.1840 C.3   1 <1>   0.0600 
  7 C       -2.0800     2.7590    -0.7280 C.3   1 <1>   0.1240 
  8 C       -3.3340     2.3460     0.0530 C.ar  1 <1>  -0.1440 
  9 C       -4.7150     0.5850     0.9260 C.ar  1 <1>  -0.1500 
 10 C       -2.0580     4.2240    -1.1700 C.2   1 <1>   0.5690 
 11 C       -4.2070     3.2780     0.6010 C.ar  1 <1>  -0.1500 
 12 C       -5.5740     1.5180     1.4740 C.ar  1 <1>  -0.1500 
 13 O       -2.4810     4.5230    -2.2630 O.2   1 <1>  -0.5700 
 14 N       -1.5520     5.1440    -0.2960 N.am  1 <1>  -0.4930 
 15 C       -5.3210     2.8660     1.3100 C.ar  1 <1>  -0.1500 
 16 C       -1.4190     6.5460    -0.4530 C.2   1 <1>   0.0630 
 17 C       -0.9910     7.4190     0.4870 C.2   1 <1>  -0.3320 
 18 C       -1.6850     7.3350    -1.5730 C.2   1 <1>   0.1390 
 19 N       -1.0150     8.6480    -0.0890 N.pl3 1 <1>   0.3140 
 20 C       -0.5520     7.1690     1.9230 C.3   1 <1>  -0.0600 
 21 N       -1.4430     8.5940    -1.3600 N.2   1 <1>  -0.7070 
 22 C       -0.6390     9.9280     0.5250 C.3   1 <1>   0.0160 
 23 H       -2.7040     1.9010    -2.6070 H     1 <1>   0.0800 
 24 H       -0.9730     2.0170    -2.4250 H     1 <1>   0.0800 
 25 H       -1.7120    -1.8230    -0.0700 H     1 <1>   0.0800 
 26 H       -3.4500    -1.9310    -0.2270 H     1 <1>   0.0800 
 27 H       -2.7270    -1.3240     1.2560 H     1 <1>   0.0800 
 28 H       -1.2390     2.6160    -0.0730 H     1 <1>   0.0800 
 29 H       -4.9430    -0.4560     1.0530 H     1 <1>   0.1500 
 30 H       -4.0510     4.3360     0.4860 H     1 <1>   0.1500 
 31 H       -6.4430     1.1970     2.0220 H     1 <1>   0.1500 
 32 H       -1.2540     4.8010     0.6130 H     1 <1>   0.3700 
 33 H       -5.9920     3.5950     1.7300 H     1 <1>   0.1500 
 34 H       -2.0480     6.9510    -2.5110 H     1 <1>   0.1500 
 35 H       -0.6250     6.1260     2.1700 H     1 <1>   0.0800 
 36 H       -1.1760     7.7220     2.6020 H     1 <1>   0.0800 
 37 H        0.4700     7.4790     2.0560 H     1 <1>   0.0800 
 38 H       -1.2730    10.1130     1.3710 H     1 <1>   0.0800 
 39 H       -0.7650    10.7140    -0.1970 H     1 <1>   0.0800 
 40 H        0.3880     9.8840     0.8320 H     1 <1>   0.0800 
@<TRIPOS>BOND
  1   1   2  2   
  2   2   3  am  
  3   2   4  1   
  4   3   5  1   
  5   3   6  1   
  6   4   7  1   
  7   4  23  1   
  8   4  24  1   
  9   5   8  ar  
 10   5   9  ar  
 11   6  25  1   
 12   6  26  1   
 13   6  27  1   
 14   7   8  1   
 15   7  10  1   
 16   7  28  1   
 17   8  11  ar  
 18   9  12  ar  
 19   9  29  1   
 20  10  13  2   
 21  10  14  am  
 22  11  15  ar  
 23  11  30  1   
 24  12  15  ar  
 25  12  31  1   
 26  14  16  1   
 27  14  32  1   
 28  15  33  1   
 29  16  17  2   
 30  16  18  1   
 31  17  19  1   
 32  17  20  1   
 33  18  21  2   
 34  18  34  1   
 35  19  21  1   
 36  19  22  1   
 37  20  35  1   
 38  20  36  1   
 39  20  37  1   
 40  22  38  1   
 41  22  39  1   
 42  22  40  1   
@<TRIPOS>SUBSTRUCTURE
  1 ****  10 GROUP 4 **** **** 0

# MOE 2024.06 (io_trps.svl 2023.06)
