@<TRIPOS>MOLECULE
NONAME
46 47 1 0 0 
SMALL
USER_CHARGES


@<TRIPOS>ATOM
  1 S        1.1770     1.1790     0.9420 S.o2  1 <1>   1.3330 
  2 O        1.2900     0.2060    -0.1150 O.2   1 <1>  -0.6500 
  3 O        0.0920     2.1290     0.9760 O.2   1 <1>  -0.6500 
  4 N        2.6110     2.0370     0.8600 N.am  1 <1>  -0.9140 
  5 C        1.2940     0.3690     2.5210 C.3   1 <1>  -0.1350 
  6 C        2.5360     3.1590    -0.0610 C.3   1 <1>   0.1960 
  7 C        3.8740     3.8860    -0.0700 C.3   1 <1>  -0.0990 
  8 C        3.7820     5.1000    -0.9600 C.2   1 <1>   0.5690 
  9 O        4.0560     4.9750    -2.1290 O.2   1 <1>  -0.5700 
 10 N        3.3770     6.2770    -0.4000 N.am  1 <1>  -0.4940 
 11 C        3.3070     7.5640    -0.9790 C.2   1 <1>  -0.0880 
 12 N        4.2600     8.1620    -1.7530 N.pl3 1 <1>   0.3140 
 13 C        2.3030     8.4610    -0.8420 C.2   1 <1>  -0.1810 
 14 N        3.8810     9.4190    -2.1030 N.2   1 <1>  -0.7070 
 15 C        5.5940     7.6480    -2.1450 C.3   1 <1>   0.2390 
 16 C        2.7160     9.5780    -1.5590 C.2   1 <1>   0.1390 
 17 C        0.9910     8.3280    -0.0910 C.3   1 <1>  -0.0590 
 18 C        6.4040     7.1480    -0.9480 C.ar  1 <1>  -0.1430 
 19 C        6.5660     7.9450     0.1760 C.ar  1 <1>  -0.1500 
 20 C        6.9830     5.8890    -0.9750 C.ar  1 <1>  -0.1500 
 21 C        7.2890     7.4910     1.2670 C.ar  1 <1>  -0.1430 
 22 C        7.7100     5.4320     0.1090 C.ar  1 <1>  -0.1500 
 23 C        7.8630     6.2310     1.2280 C.ar  1 <1>  -0.1500 
 24 C        7.4560     8.3750     2.4890 C.3   1 <1>  -0.0970 
 25 H        3.2570     1.3660     0.4430 H     1 <1>   0.4200 
 26 H        0.4260    -0.2390     2.6870 H     1 <1>   0.0800 
 27 H        1.3580     1.0980     3.3040 H     1 <1>   0.0800 
 28 H        2.1640    -0.2560     2.5560 H     1 <1>   0.0800 
 29 H        1.7620     3.8390     0.2580 H     1 <1>   0.0800 
 30 H        2.2940     2.8110    -1.0540 H     1 <1>   0.0800 
 31 H        4.6430     3.2380    -0.4510 H     1 <1>   0.0800 
 32 H        4.1400     4.1910     0.9260 H     1 <1>   0.0800 
 33 H        3.0970     6.2360     0.5790 H     1 <1>   0.3700 
 34 H        6.1310     8.4450    -2.6230 H     1 <1>   0.0800 
 35 H        5.4540     6.8660    -2.8660 H     1 <1>   0.0800 
 36 H        2.1400    10.4830    -1.6580 H     1 <1>   0.1500 
 37 H        0.8670     7.3280     0.2830 H     1 <1>   0.0800 
 38 H        0.1710     8.5490    -0.7500 H     1 <1>   0.0800 
 39 H        0.9700     9.0150     0.7350 H     1 <1>   0.0800 
 40 H        6.1220     8.9270     0.2010 H     1 <1>   0.1500 
 41 H        6.8670     5.2580    -1.8410 H     1 <1>   0.1500 
 42 H        8.1590     4.4540     0.0820 H     1 <1>   0.1500 
 43 H        8.4330     5.8710     2.0660 H     1 <1>   0.1500 
 44 H        6.5810     8.9830     2.6340 H     1 <1>   0.0800 
 45 H        8.3070     9.0180     2.3580 H     1 <1>   0.0800 
 46 H        7.6040     7.7780     3.3700 H     1 <1>   0.0800 
@<TRIPOS>BOND
  1   1   2  2   
  2   1   3  2   
  3   1   4  am  
  4   1   5  1   
  5   4   6  1   
  6   4  25  1   
  7   5  26  1   
  8   5  27  1   
  9   5  28  1   
 10   6   7  1   
 11   6  29  1   
 12   6  30  1   
 13   7   8  1   
 14   7  31  1   
 15   7  32  1   
 16   8   9  2   
 17   8  10  am  
 18  10  11  1   
 19  10  33  1   
 20  11  12  1   
 21  11  13  2   
 22  12  14  1   
 23  12  15  1   
 24  13  16  1   
 25  13  17  1   
 26  14  16  2   
 27  15  18  1   
 28  15  34  1   
 29  15  35  1   
 30  16  36  1   
 31  17  37  1   
 32  17  38  1   
 33  17  39  1   
 34  18  19  ar  
 35  18  20  ar  
 36  19  21  ar  
 37  19  40  1   
 38  20  22  ar  
 39  20  41  1   
 40  21  23  ar  
 41  21  24  1   
 42  22  23  ar  
 43  22  42  1   
 44  23  43  1   
 45  24  44  1   
 46  24  45  1   
 47  24  46  1   
@<TRIPOS>SUBSTRUCTURE
  1 ****  10 GROUP 4 **** **** 0

# MOE 2024.06 (io_trps.svl 2023.06)
