@<TRIPOS>MOLECULE
NONAME
51 55 1 0 0 
SMALL
USER_CHARGES


@<TRIPOS>ATOM
  1 S        1.8820     2.0450    -3.9020 S.3   1 <1>  -0.0800 
  2 C        1.1940     2.9200    -2.5490 C.2   1 <1>  -0.1400 
  3 C        3.5020     2.5090    -3.4030 C.2   1 <1>  -0.1100 
  4 C        2.1390     3.4920    -1.7920 C.2   1 <1>  -0.1810 
  5 C       -0.2870     3.0020    -2.3030 C.3   1 <1>   0.0200 
  6 C        3.4670     3.2630    -2.2860 C.2   1 <1>  -0.1500 
  7 C        1.7690     4.2940    -0.5410 C.3   1 <1>   0.4610 
  8 C       -0.5220     4.1790    -1.3410 C.3   1 <1>   0.1200 
  9 O        0.3870     4.1450    -0.2660 O.3   1 <1>  -0.5600 
 10 C        2.0860     5.7860    -0.7270 C.3   1 <1>  -0.1600 
 11 C        2.5010     3.7360     0.6860 C.3   1 <1>  -0.1600 
 12 C        1.8010     6.5780     0.5490 C.3   1 <1>   0.1400 
 13 C        2.2240     4.5640     1.9430 C.3   1 <1>   0.1400 
 14 N        2.5810     5.9800     1.6630 N.am  1 <1>  -0.6600 
 15 C        3.6210     6.6240     2.3160 C.2   1 <1>   0.7160 
 16 O        4.0020     6.1530     3.3780 O.2   1 <1>  -0.5700 
 17 C        4.2670     7.8270     1.7880 C.2   1 <1>   0.1410 
 18 N        4.5370     8.0170     0.4630 N.2   1 <1>  -0.5650 
 19 C        4.7220     8.9190     2.4780 C.2   1 <1>  -0.3320 
 20 C        5.1220     9.1770     0.3710 C.2   1 <1>   0.1330 
 21 N        5.2590     9.7570     1.5870 N.pl3 1 <1>   0.0330 
 22 C        4.6840     9.2250     3.9680 C.3   1 <1>  -0.0600 
 23 C        5.5850     9.7890    -0.8560 C.ar  1 <1>   0.0530 
 24 C        5.9350     9.0010    -1.9510 C.ar  1 <1>  -0.1500 
 25 C        5.6990    11.1740    -0.9990 C.ar  1 <1>  -0.1500 
 26 C        6.3880     9.5610    -3.1310 C.ar  1 <1>  -0.1500 
 27 C        6.1520    11.7400    -2.1770 C.ar  1 <1>  -0.1500 
 28 C        6.4990    10.9340    -3.2460 C.ar  1 <1>  -0.1500 
 29 H        4.3210     2.1640    -4.0070 H     1 <1>   0.1500 
 30 H       -0.6390     2.0860    -1.8650 H     1 <1>   0.0800 
 31 H       -0.8140     3.1730    -3.2240 H     1 <1>   0.0800 
 32 H        4.3270     3.6730    -1.7860 H     1 <1>   0.1500 
 33 H       -1.5160     4.1330    -0.9330 H     1 <1>   0.0800 
 34 H       -0.4050     5.1140    -1.8590 H     1 <1>   0.0800 
 35 H        1.5250     6.1890    -1.5480 H     1 <1>   0.0800 
 36 H        3.1270     5.9010    -0.9700 H     1 <1>   0.0800 
 37 H        3.5600     3.7380     0.5100 H     1 <1>   0.0800 
 38 H        2.2000     2.7170     0.8440 H     1 <1>   0.0800 
 39 H        0.7520     6.5220     0.7870 H     1 <1>   0.0800 
 40 H        2.0480     7.6150     0.4100 H     1 <1>   0.0800 
 41 H        2.7990     4.1770     2.7660 H     1 <1>   0.0800 
 42 H        1.1810     4.5060     2.2050 H     1 <1>   0.0800 
 43 H        5.7090    10.6570     1.7650 H     1 <1>   0.2700 
 44 H        4.1400     8.4660     4.5010 H     1 <1>   0.0800 
 45 H        4.2010    10.1690     4.1430 H     1 <1>   0.0800 
 46 H        5.6840     9.2630     4.3620 H     1 <1>   0.0800 
 47 H        5.8500     7.9310    -1.8670 H     1 <1>   0.1500 
 48 H        5.4230    11.8220    -0.1880 H     1 <1>   0.1500 
 49 H        6.6520     8.9270    -3.9600 H     1 <1>   0.1500 
 50 H        6.2320    12.8100    -2.2670 H     1 <1>   0.1500 
 51 H        6.8510    11.3730    -4.1640 H     1 <1>   0.1500 
@<TRIPOS>BOND
  1   1   2  1   
  2   1   3  1   
  3   2   4  2   
  4   2   5  1   
  5   3   6  2   
  6   3  29  1   
  7   4   6  1   
  8   4   7  1   
  9   5   8  1   
 10   5  30  1   
 11   5  31  1   
 12   6  32  1   
 13   7   9  1   
 14   7  10  1   
 15   7  11  1   
 16   8   9  1   
 17   8  33  1   
 18   8  34  1   
 19  10  12  1   
 20  10  35  1   
 21  10  36  1   
 22  11  13  1   
 23  11  37  1   
 24  11  38  1   
 25  12  14  1   
 26  12  39  1   
 27  12  40  1   
 28  13  14  1   
 29  13  41  1   
 30  13  42  1   
 31  14  15  am  
 32  15  16  2   
 33  15  17  1   
 34  17  18  1   
 35  17  19  2   
 36  18  20  2   
 37  19  21  1   
 38  19  22  1   
 39  20  21  1   
 40  20  23  1   
 41  21  43  1   
 42  22  44  1   
 43  22  45  1   
 44  22  46  1   
 45  23  24  ar  
 46  23  25  ar  
 47  24  26  ar  
 48  24  47  1   
 49  25  27  ar  
 50  25  48  1   
 51  26  28  ar  
 52  26  49  1   
 53  27  28  ar  
 54  27  50  1   
 55  28  51  1   
@<TRIPOS>SUBSTRUCTURE
  1 ****  10 GROUP 4 **** **** 0

# MOE 2024.06 (io_trps.svl 2023.06)
