@<TRIPOS>MOLECULE
NONAME
46 48 1 0 0 
SMALL
USER_CHARGES


@<TRIPOS>ATOM
  1 S       -0.6010    -0.6980     1.5270 S.3   1 <1>  -0.0800 
  2 C       -0.8750     0.7390     0.5620 C.2   1 <1>   0.1980 
  3 C       -1.9490    -1.4580     0.7350 C.2   1 <1>  -0.1100 
  4 N       -1.8570     0.6400    -0.2450 N.2   1 <1>  -0.5650 
  5 C        0.0730     1.9140     0.7950 C.3   1 <1>   0.1000 
  6 C       -2.4740    -0.6010    -0.1560 C.2   1 <1>   0.0460 
  7 C       -0.5410     3.2420     0.3280 C.3   1 <1>  -0.2400 
  8 C        1.4100     1.6770     0.0810 C.3   1 <1>  -0.2400 
  9 C       -3.6660    -0.8430    -1.0730 C.3   1 <1>   0.3210 
 10 N       -4.0590    -2.2720    -1.0710 N.am  1 <1>  -0.7300 
 11 C       -5.2690    -2.7670    -0.7080 C.2   1 <1>   0.5690 
 12 O       -6.1820    -2.0300    -0.4210 O.2   1 <1>  -0.5700 
 13 C       -5.4580    -4.2900    -0.6520 C.3   1 <1>   0.2610 
 14 O       -4.1960    -4.9360    -0.8190 O.3   1 <1>  -0.5600 
 15 C       -6.1670    -4.6900     0.6760 C.3   1 <1>   0.3640 
 16 C       -4.2350    -6.3430    -0.7480 C.3   1 <1>   0.1810 
 17 N       -5.7430    -6.0180     1.1880 N.am  1 <1>  -0.7300 
 18 C       -7.6850    -4.7190     0.5040 C.ar  1 <1>  -0.1440 
 19 C       -4.8820    -6.8340     0.5450 C.2   1 <1>   0.5690 
 20 C       -8.4540    -3.6600     0.9660 C.ar  1 <1>  -0.1500 
 21 C       -8.3230    -5.7890    -0.1140 C.ar  1 <1>  -0.1500 
 22 O       -4.6470    -7.9390     0.9630 O.2   1 <1>  -0.5700 
 23 C       -9.8300    -3.6680     0.8170 C.ar  1 <1>  -0.1500 
 24 C       -9.6990    -5.7990    -0.2630 C.ar  1 <1>  -0.1500 
 25 C      -10.4540    -4.7380     0.2020 C.ar  1 <1>  -0.1500 
 26 H       -2.2050    -2.4600     1.0240 H     1 <1>   0.1500 
 27 H        0.2540     1.9860     1.8530 H     1 <1>   0.0800 
 28 H       -0.7290     3.2140    -0.7310 H     1 <1>   0.0800 
 29 H        0.1200     4.0610     0.5440 H     1 <1>   0.0800 
 30 H       -1.4750     3.4100     0.8330 H     1 <1>   0.0800 
 31 H        1.2520     1.5830    -0.9790 H     1 <1>   0.0800 
 32 H        1.8680     0.7720     0.4390 H     1 <1>   0.0800 
 33 H        2.0840     2.4960     0.2620 H     1 <1>   0.0800 
 34 H       -3.4010    -0.5560    -2.0750 H     1 <1>   0.0800 
 35 H       -4.4880    -0.2260    -0.7530 H     1 <1>   0.0800 
 36 H       -3.3130    -2.9440    -1.2740 H     1 <1>   0.3700 
 37 H       -6.0770    -4.5740    -1.4830 H     1 <1>   0.0800 
 38 H       -5.9180    -3.9600     1.4270 H     1 <1>   0.0800 
 39 H       -4.7830    -6.7160    -1.5940 H     1 <1>   0.0800 
 40 H       -3.2230    -6.7030    -0.7990 H     1 <1>   0.0800 
 41 H       -6.2280    -6.3710     2.0140 H     1 <1>   0.3700 
 42 H       -7.9860    -2.8120     1.4390 H     1 <1>   0.1500 
 43 H       -7.7560    -6.6270    -0.4810 H     1 <1>   0.1500 
 44 H      -10.4140    -2.8390     1.1770 H     1 <1>   0.1500 
 45 H      -10.1830    -6.6330    -0.7410 H     1 <1>   0.1500 
 46 H      -11.5240    -4.7450     0.0860 H     1 <1>   0.1500 
@<TRIPOS>BOND
  1   1   2  1   
  2   1   3  1   
  3   2   4  2   
  4   2   5  1   
  5   3   6  2   
  6   3  26  1   
  7   4   6  1   
  8   5   7  1   
  9   5   8  1   
 10   5  27  1   
 11   6   9  1   
 12   7  28  1   
 13   7  29  1   
 14   7  30  1   
 15   8  31  1   
 16   8  32  1   
 17   8  33  1   
 18   9  10  1   
 19   9  34  1   
 20   9  35  1   
 21  10  11  am  
 22  10  36  1   
 23  11  12  2   
 24  11  13  1   
 25  13  14  1   
 26  13  15  1   
 27  13  37  1   
 28  14  16  1   
 29  15  17  1   
 30  15  18  1   
 31  15  38  1   
 32  16  19  1   
 33  16  39  1   
 34  16  40  1   
 35  17  19  am  
 36  17  41  1   
 37  18  20  ar  
 38  18  21  ar  
 39  19  22  2   
 40  20  23  ar  
 41  20  42  1   
 42  21  24  ar  
 43  21  43  1   
 44  23  25  ar  
 45  23  44  1   
 46  24  25  ar  
 47  24  45  1   
 48  25  46  1   
@<TRIPOS>SUBSTRUCTURE
  1 ****  11 GROUP 4 **** **** 0

# MOE 2024.06 (io_trps.svl 2023.06)
