@<TRIPOS>MOLECULE
NONAME
53 55 1 0 0 
SMALL
USER_CHARGES


@<TRIPOS>ATOM
  1 O        1.4520    -1.6800    -1.7220 O.2   1 <1>  -0.5700 
  2 C        2.3670    -1.8580    -0.9530 C.2   1 <1>   0.5690 
  3 N        3.5070    -1.0910    -1.0020 N.am  1 <1>  -0.6600 
  4 C        2.2340    -2.9720     0.0820 C.3   1 <1>  -0.0990 
  5 C        3.6270     0.0430    -1.9600 C.3   1 <1>   0.1400 
  6 C        4.7060    -1.2600    -0.1380 C.3   1 <1>   0.1400 
  7 C        0.8340    -3.6120     0.1570 C.3   1 <1>  -0.1600 
  8 C        3.8380     1.3430    -1.1790 C.3   1 <1>  -0.1600 
  9 C        4.9200     0.0180     0.6780 C.3   1 <1>  -0.1600 
 10 C        0.7890    -4.7600     1.1800 C.3   1 <1>  -0.0990 
 11 C        5.0490     1.2560    -0.2290 C.3   1 <1>  -0.0800 
 12 C       -0.6070    -5.3580     1.3140 C.2   1 <1>   0.4230 
 13 C        5.2060     2.5270     0.6260 C.3   1 <1>   0.0960 
 14 O       -1.2560    -4.9770     2.2540 O.2   1 <1>  -0.5700 
 15 C       -1.1020    -6.3380     0.3620 C.ar  1 <1>   0.0860 
 16 N        5.4510     3.7230    -0.2110 N.pl3 1 <1>   0.0480 
 17 C       -2.3570    -6.9230     0.5560 C.ar  1 <1>  -0.1500 
 18 C       -0.3880    -6.7520    -0.7690 C.ar  1 <1>  -0.1500 
 19 C        4.6220     4.7580    -0.4990 C.2   1 <1>   0.0070 
 20 C        6.5920     4.0110    -0.8630 C.2   1 <1>  -0.3020 
 21 C       -2.8720    -7.8630    -0.3170 C.ar  1 <1>  -0.1500 
 22 C       -0.8960    -7.6920    -1.6470 C.ar  1 <1>  -0.1500 
 23 N        5.1520     5.6490    -1.2710 N.2   1 <1>  -0.5650 
 24 C        3.2050     4.8780     0.0250 C.3   1 <1>  -0.0600 
 25 C        6.3920     5.1830    -1.5010 C.2   1 <1>   0.0770 
 26 C       -2.1400    -8.2520    -1.4230 C.ar  1 <1>  -0.1500 
 27 H        2.4700    -2.5650     1.0480 H     1 <1>   0.0800 
 28 H        2.9570    -3.7300    -0.1570 H     1 <1>   0.0800 
 29 H        2.7430     0.1300    -2.5690 H     1 <1>   0.0800 
 30 H        4.4630    -0.1350    -2.6150 H     1 <1>   0.0800 
 31 H        5.5630    -1.4400    -0.7650 H     1 <1>   0.0800 
 32 H        4.6020    -2.1010     0.5240 H     1 <1>   0.0800 
 33 H        0.5550    -3.9760    -0.8170 H     1 <1>   0.0800 
 34 H        0.1170    -2.8580     0.4380 H     1 <1>   0.0800 
 35 H        2.9420     1.5510    -0.6210 H     1 <1>   0.0800 
 36 H        3.9770     2.1440    -1.8850 H     1 <1>   0.0800 
 37 H        5.8100    -0.0930     1.2710 H     1 <1>   0.0800 
 38 H        4.0880     0.1390     1.3510 H     1 <1>   0.0800 
 39 H        1.0810    -4.3810     2.1430 H     1 <1>   0.0800 
 40 H        1.4900    -5.5300     0.9180 H     1 <1>   0.0800 
 41 H        5.9410     1.1380    -0.8230 H     1 <1>   0.0800 
 42 H        6.0400     2.4160     1.2950 H     1 <1>   0.0800 
 43 H        4.3220     2.6850     1.2170 H     1 <1>   0.0800 
 44 H       -2.9410    -6.6300     1.4130 H     1 <1>   0.1500 
 45 H        0.5800    -6.3410    -0.9830 H     1 <1>   0.1500 
 46 H        7.4650     3.3850    -0.8400 H     1 <1>   0.1500 
 47 H       -3.8420    -8.2920    -0.1350 H     1 <1>   0.1500 
 48 H       -0.3250    -7.9900    -2.5100 H     1 <1>   0.1500 
 49 H        2.6130     4.0460    -0.3070 H     1 <1>   0.0800 
 50 H        2.7580     5.7840    -0.3440 H     1 <1>   0.0800 
 51 H        3.2090     4.9130     1.0990 H     1 <1>   0.0800 
 52 H        7.0840     5.7250    -2.1230 H     1 <1>   0.1500 
 53 H       -2.5380    -8.9840    -2.1050 H     1 <1>   0.1500 
@<TRIPOS>BOND
  1   1   2  2   
  2   2   3  am  
  3   2   4  1   
  4   3   5  1   
  5   3   6  1   
  6   4   7  1   
  7   4  27  1   
  8   4  28  1   
  9   5   8  1   
 10   5  29  1   
 11   5  30  1   
 12   6   9  1   
 13   6  31  1   
 14   6  32  1   
 15   7  10  1   
 16   7  33  1   
 17   7  34  1   
 18   8  11  1   
 19   8  35  1   
 20   8  36  1   
 21   9  11  1   
 22   9  37  1   
 23   9  38  1   
 24  10  12  1   
 25  10  39  1   
 26  10  40  1   
 27  11  13  1   
 28  11  41  1   
 29  12  14  2   
 30  12  15  1   
 31  13  16  1   
 32  13  42  1   
 33  13  43  1   
 34  15  17  ar  
 35  15  18  ar  
 36  16  19  1   
 37  16  20  1   
 38  17  21  ar  
 39  17  44  1   
 40  18  22  ar  
 41  18  45  1   
 42  19  23  2   
 43  19  24  1   
 44  20  25  2   
 45  20  46  1   
 46  21  26  ar  
 47  21  47  1   
 48  22  26  ar  
 49  22  48  1   
 50  23  25  1   
 51  24  49  1   
 52  24  50  1   
 53  24  51  1   
 54  25  52  1   
 55  26  53  1   
@<TRIPOS>SUBSTRUCTURE
  1 ****   2 GROUP 4 **** **** 0

# MOE 2024.06 (io_trps.svl 2023.06)
