@<TRIPOS>MOLECULE
NONAME
54 56 1 0 0 
SMALL
USER_CHARGES


@<TRIPOS>ATOM
  1 S       -0.2280     2.9550     0.4060 S.3   1 <1>  -0.0800 
  2 C       -1.6560     2.0730    -0.1100 C.2   1 <1>  -0.1400 
  3 C       -0.4670     2.4570     2.0720 C.2   1 <1>  -0.1100 
  4 C       -2.2350     1.4600     0.9400 C.2   1 <1>  -0.1500 
  5 C       -2.0030     2.1360    -1.5920 C.3   1 <1>   0.0810 
  6 C       -1.5590     1.6800     2.1820 C.2   1 <1>  -0.1500 
  7 C       -3.4110     1.6470    -1.9100 C.2   1 <1>   0.5690 
  8 O       -3.5100     0.6690    -2.6150 O.2   1 <1>  -0.5700 
  9 N       -4.5260     2.2990    -1.4330 N.am  1 <1>  -0.6600 
 10 C       -4.4700     3.5410    -0.6000 C.3   1 <1>   0.1400 
 11 C       -5.8840     1.7380    -1.7060 C.3   1 <1>   0.1400 
 12 C       -5.7270     4.3740    -0.8430 C.3   1 <1>  -0.1600 
 13 C       -6.8550     2.1050    -0.5800 C.3   1 <1>  -0.1600 
 14 C       -7.0000     3.6320    -0.3770 C.3   1 <1>   0.2800 
 15 O       -7.1200     3.7710     1.0100 O.3   1 <1>  -0.5600 
 16 C       -8.2720     4.1900    -1.0900 C.3   1 <1>  -0.1600 
 17 C       -7.5330     5.0010     1.5320 C.3   1 <1>   0.1200 
 18 C       -9.4890     4.5080    -0.0990 C.3   1 <1>   0.3000 
 19 C       -8.5880     5.6440     0.6270 C.3   1 <1>   0.2000 
 20 N      -10.6260     4.7250     0.8450 N.am  1 <1>  -0.7300 
 21 C      -10.4030     3.4460    -0.8450 C.3   1 <1>  -0.2400 
 22 O       -9.2180     6.6680     1.3650 O.3   1 <1>  -0.6800 
 23 C      -10.8360     4.1540     2.0560 C.2   1 <1>   0.5690 
 24 O      -11.4940     4.7510     2.8670 O.2   1 <1>  -0.5700 
 25 C      -10.2250     2.8140     2.4390 C.3   1 <1>  -0.0990 
 26 C      -11.2280     1.6570     2.3180 C.3   1 <1>  -0.2400 
 27 H        0.2450     2.8030     2.7990 H     1 <1>   0.1500 
 28 H       -3.1230     0.8520     0.8970 H     1 <1>   0.1500 
 29 H       -1.9020     3.1430    -1.9470 H     1 <1>   0.0800 
 30 H       -1.2960     1.5340    -2.1330 H     1 <1>   0.0800 
 31 H       -1.9260     1.2420     3.0940 H     1 <1>   0.1500 
 32 H       -4.4070     3.2730     0.4410 H     1 <1>   0.0800 
 33 H       -3.6040     4.1260    -0.8540 H     1 <1>   0.0800 
 34 H       -6.2400     2.1240    -2.6460 H     1 <1>   0.0800 
 35 H       -5.8250     0.6650    -1.7870 H     1 <1>   0.0800 
 36 H       -5.7800     4.5690    -1.9000 H     1 <1>   0.0800 
 37 H       -5.6320     5.3250    -0.3550 H     1 <1>   0.0800 
 38 H       -6.4740     1.6510     0.3190 H     1 <1>   0.0800 
 39 H       -7.8070     1.6500    -0.7750 H     1 <1>   0.0800 
 40 H       -8.0260     5.0710    -1.6580 H     1 <1>   0.0800 
 41 H       -8.4380     3.5080    -1.9070 H     1 <1>   0.0800 
 42 H       -7.9410     4.8060     2.5070 H     1 <1>   0.0800 
 43 H       -6.6740     5.6410     1.6310 H     1 <1>   0.0800 
 44 H       -8.0400     6.2290    -0.0900 H     1 <1>   0.0800 
 45 H      -11.1210     5.6040     0.6800 H     1 <1>   0.3700 
 46 H      -10.5060     3.7090    -1.8850 H     1 <1>   0.0800 
 47 H      -11.4330     3.2970    -0.5450 H     1 <1>   0.0800 
 48 H       -9.9700     2.4630    -0.7750 H     1 <1>   0.0800 
 49 H       -9.8580     6.2590     1.9900 H     1 <1>   0.4000 
 50 H       -9.3670     2.6050     1.8290 H     1 <1>   0.0800 
 51 H       -9.8870     2.8810     3.4580 H     1 <1>   0.0800 
 52 H      -11.5700     1.5610     1.3030 H     1 <1>   0.0800 
 53 H      -12.0790     1.8410     2.9510 H     1 <1>   0.0800 
 54 H      -10.7680     0.7330     2.6180 H     1 <1>   0.0800 
@<TRIPOS>BOND
  1   1   2  1   
  2   1   3  1   
  3   2   4  2   
  4   2   5  1   
  5   3   6  2   
  6   3  27  1   
  7   4   6  1   
  8   4  28  1   
  9   5   7  1   
 10   5  29  1   
 11   5  30  1   
 12   6  31  1   
 13   7   8  2   
 14   7   9  am  
 15   9  10  1   
 16   9  11  1   
 17  10  12  1   
 18  10  32  1   
 19  10  33  1   
 20  11  13  1   
 21  11  34  1   
 22  11  35  1   
 23  12  14  1   
 24  12  36  1   
 25  12  37  1   
 26  13  14  1   
 27  13  38  1   
 28  13  39  1   
 29  14  15  1   
 30  14  16  1   
 31  15  17  1   
 32  16  18  1   
 33  16  40  1   
 34  16  41  1   
 35  17  19  1   
 36  17  42  1   
 37  17  43  1   
 38  18  19  1   
 39  18  20  1   
 40  18  21  1   
 41  19  22  1   
 42  19  44  1   
 43  20  23  am  
 44  20  45  1   
 45  21  46  1   
 46  21  47  1   
 47  21  48  1   
 48  22  49  1   
 49  23  24  2   
 50  23  25  1   
 51  25  26  1   
 52  25  50  1   
 53  25  51  1   
 54  26  52  1   
 55  26  53  1   
 56  26  54  1   
@<TRIPOS>SUBSTRUCTURE
  1 ****  14 GROUP 4 **** **** 0

# MOE 2024.06 (io_trps.svl 2023.06)
