@<TRIPOS>MOLECULE
NONAME
49 52 1 0 0 
SMALL
USER_CHARGES


@<TRIPOS>ATOM
  1 S        0.4430    -0.0990    -1.9410 S.3   1 <1>  -0.0800 
  2 C        1.4230    -1.1460    -0.9160 C.ar  1 <1>   0.2970 
  3 C        0.9970     1.3270    -1.0700 C.2   1 <1>  -0.1400 
  4 N        1.4440    -2.4550    -1.0580 N.ar  1 <1>  -0.5670 
  5 C        2.1170    -0.4140     0.0210 C.ar  1 <1>   0.0000 
  6 C        1.8660     1.0050    -0.0990 C.2   1 <1>  -0.1810 
  7 C        0.4870     2.6960    -1.4620 C.3   1 <1>   0.0200 
  8 C        2.2350    -3.0490    -0.1830 C.ar  1 <1>   0.4770 
  9 C        2.8950    -1.1890     0.8850 C.ar  1 <1>   0.4100 
 10 C        2.4950     2.0830     0.7730 C.3   1 <1>   0.0210 
 11 C        0.8460     3.6980    -0.3500 C.3   1 <1>  -0.1600 
 12 N        2.9530    -2.5000     0.7840 N.ar  1 <1>  -0.6200 
 13 C        2.2850    -4.5760    -0.2720 C.3   1 <1>   0.4870 
 14 N        3.6390    -0.6770     1.8940 N.pl3 1 <1>  -0.9000 
 15 C        2.2820     3.4880     0.1710 C.3   1 <1>  -0.1600 
 16 N        0.9030    -5.1790    -0.3530 N.4   1 <1>  -0.9590 
 17 C        0.9420    -6.6200    -0.7300 C.3   1 <1>   0.3430 
 18 C        0.1180    -4.8950     0.8920 C.3   1 <1>   0.3430 
 19 C       -0.4660    -7.1320    -1.0750 C.3   1 <1>  -0.0800 
 20 C       -1.0110    -5.9100     1.1070 C.3   1 <1>  -0.1600 
 21 C       -1.5520    -6.4310    -0.2240 C.3   1 <1>   0.2000 
 22 C       -0.4850    -8.6670    -0.9930 C.3   1 <1>   0.1200 
 23 O       -2.6130    -7.2720     0.0380 O.3   1 <1>  -0.6800 
 24 O        0.6640    -9.1540    -1.5970 O.3   1 <1>  -0.6800 
 25 H        0.9470     2.9880    -2.3890 H     1 <1>   0.0800 
 26 H       -0.5790     2.6700    -1.6000 H     1 <1>   0.0800 
 27 H        2.0500     2.0370     1.7520 H     1 <1>   0.0800 
 28 H        3.5520     1.9100     0.8660 H     1 <1>   0.0800 
 29 H        0.7330     4.7010    -0.7230 H     1 <1>   0.0800 
 30 H        0.1590     3.5710     0.4680 H     1 <1>   0.0800 
 31 H        2.8060    -4.9570     0.5890 H     1 <1>   0.0800 
 32 H        2.8480    -4.8370    -1.1510 H     1 <1>   0.0800 
 33 H        4.2770    -1.2940     2.4010 H     1 <1>   0.4000 
 34 H        3.8200     0.3220     1.9840 H     1 <1>   0.4000 
 35 H        2.5120     4.2320     0.9130 H     1 <1>   0.0800 
 36 H        2.9680     3.6210    -0.6490 H     1 <1>   0.0800 
 37 H        0.4470    -4.6560    -1.1190 H     1 <1>   0.4500 
 38 H        1.5870    -6.7770    -1.5810 H     1 <1>   0.0800 
 39 H        1.3340    -7.1960     0.0920 H     1 <1>   0.0800 
 40 H        0.7670    -4.9100     1.7540 H     1 <1>   0.0800 
 41 H       -0.3030    -3.9040     0.8200 H     1 <1>   0.0800 
 42 H       -0.6600    -6.8750    -2.1010 H     1 <1>   0.0800 
 43 H       -1.7990    -5.4340     1.6650 H     1 <1>   0.0800 
 44 H       -0.6330    -6.7280     1.6960 H     1 <1>   0.0800 
 45 H       -1.9520    -5.6020    -0.7870 H     1 <1>   0.0800 
 46 H       -1.3430    -9.0650    -1.5120 H     1 <1>   0.0800 
 47 H       -0.4930    -9.0090     0.0280 H     1 <1>   0.0800 
 48 H       -2.4350    -7.8700     0.7890 H     1 <1>   0.4000 
 49 H        0.6080   -10.1260    -1.7170 H     1 <1>   0.4000 
@<TRIPOS>BOND
  1   1   2  1   
  2   1   3  1   
  3   2   4  ar  
  4   2   5  ar  
  5   3   6  2   
  6   3   7  1   
  7   4   8  ar  
  8   5   6  1   
  9   5   9  ar  
 10   6  10  1   
 11   7  11  1   
 12   7  25  1   
 13   7  26  1   
 14   8  12  ar  
 15   8  13  1   
 16   9  12  ar  
 17   9  14  1   
 18  10  15  1   
 19  10  27  1   
 20  10  28  1   
 21  11  15  1   
 22  11  29  1   
 23  11  30  1   
 24  13  16  1   
 25  13  31  1   
 26  13  32  1   
 27  14  33  1   
 28  14  34  1   
 29  15  35  1   
 30  15  36  1   
 31  16  17  1   
 32  16  18  1   
 33  16  37  1   
 34  17  19  1   
 35  17  38  1   
 36  17  39  1   
 37  18  20  1   
 38  18  40  1   
 39  18  41  1   
 40  19  21  1   
 41  19  22  1   
 42  19  42  1   
 43  20  21  1   
 44  20  43  1   
 45  20  44  1   
 46  21  23  1   
 47  21  45  1   
 48  22  24  1   
 49  22  46  1   
 50  22  47  1   
 51  23  48  1   
 52  24  49  1   
@<TRIPOS>SUBSTRUCTURE
  1 ****   4 GROUP 4 **** **** 0

# MOE 2024.06 (io_trps.svl 2023.06)
