@<TRIPOS>MOLECULE
NONAME
51 52 1 0 0 
SMALL
USER_CHARGES


@<TRIPOS>ATOM
  1 O       -1.1830     0.2820     1.2910 O.2   1 <1>  -0.5700 
  2 C       -2.2250     0.8240     1.0000 C.2   1 <1>   0.5690 
  3 N       -3.4210     0.1590     1.1350 N.am  1 <1>  -0.6600 
  4 C       -2.1620     2.2700     0.4810 C.3   1 <1>  -0.0190 
  5 C       -3.4640    -1.1910     1.7620 C.3   1 <1>   0.3200 
  6 C       -4.7560     0.7130     0.7480 C.3   1 <1>   0.1400 
  7 C       -0.9100     2.5410    -0.3770 C.3   1 <1>  -0.1600 
  8 C       -2.2210     3.2700     1.6490 C.3   1 <1>  -0.1600 
  9 C       -3.9170    -2.2090     0.7350 C.2   1 <1>  -0.3320 
 10 C       -5.0320     0.4970    -0.7460 C.3   1 <1>   0.1200 
 11 C       -0.8720     3.9900    -0.8830 C.3   1 <1>  -0.1600 
 12 C       -2.1880     4.7210     1.1490 C.3   1 <1>  -0.1600 
 13 N       -3.1830    -2.6010    -0.3250 N.pl3 1 <1>   0.0480 
 14 C       -5.0830    -2.8910     0.6710 C.2   1 <1>   0.0770 
 15 O       -6.2270     1.1170    -1.0800 O.3   1 <1>  -0.6800 
 16 C       -0.9490     5.0000     0.2790 C.3   1 <1>  -0.0800 
 17 C       -3.9690    -3.4920    -0.9710 C.2   1 <1>   0.0360 
 18 C       -1.8260    -2.1660    -0.7060 C.3   1 <1>   0.0160 
 19 N       -5.1160    -3.6910    -0.4090 N.2   1 <1>  -0.5650 
 20 C       -0.9860     6.4580    -0.2170 C.3   1 <1>  -0.1600 
 21 C        0.2960     6.8920    -0.9440 C.3   1 <1>  -0.1600 
 22 C        0.2530     8.3830    -1.2910 C.3   1 <1>  -0.2400 
 23 H       -3.0060     2.4520    -0.1550 H     1 <1>   0.0800 
 24 H       -4.1530    -1.1730     2.5880 H     1 <1>   0.0800 
 25 H       -2.5020    -1.4750     2.1520 H     1 <1>   0.0800 
 26 H       -4.7910     1.7640     0.9720 H     1 <1>   0.0800 
 27 H       -5.5250     0.2280     1.3240 H     1 <1>   0.0800 
 28 H       -0.8960     1.8670    -1.2150 H     1 <1>   0.0800 
 29 H       -0.0260     2.3520     0.2090 H     1 <1>   0.0800 
 30 H       -1.3820     3.0980     2.3030 H     1 <1>   0.0800 
 31 H       -3.1190     3.1100     2.2200 H     1 <1>   0.0800 
 32 H       -5.1160    -0.5480    -0.9880 H     1 <1>   0.0800 
 33 H       -4.2570     0.9430    -1.3430 H     1 <1>   0.0800 
 34 H       -1.6950     4.1540    -1.5570 H     1 <1>   0.0800 
 35 H        0.0400     4.1310    -1.4340 H     1 <1>   0.0800 
 36 H       -2.1900     5.3840     1.9970 H     1 <1>   0.0800 
 37 H       -3.0790     4.9170     0.5770 H     1 <1>   0.0800 
 38 H       -5.9160    -2.8460     1.3510 H     1 <1>   0.1500 
 39 H       -6.9870     0.5480    -0.8450 H     1 <1>   0.4000 
 40 H       -0.0750     4.8740     0.8970 H     1 <1>   0.0800 
 41 H       -3.6490    -3.9830    -1.8730 H     1 <1>   0.1500 
 42 H       -1.1860    -2.1910     0.1570 H     1 <1>   0.0800 
 43 H       -1.8700    -1.1610    -1.0850 H     1 <1>   0.0800 
 44 H       -1.4330    -2.8200    -1.4620 H     1 <1>   0.0800 
 45 H       -1.1260     7.1040     0.6330 H     1 <1>   0.0800 
 46 H       -1.8300     6.5960    -0.8710 H     1 <1>   0.0800 
 47 H        0.4140     6.3310    -1.8540 H     1 <1>   0.0800 
 48 H        1.1510     6.6990    -0.3170 H     1 <1>   0.0800 
 49 H       -0.5850     8.5960    -1.9300 H     1 <1>   0.0800 
 50 H        1.1550     8.6670    -1.8040 H     1 <1>   0.0800 
 51 H        0.1680     8.9760    -0.3970 H     1 <1>   0.0800 
@<TRIPOS>BOND
  1   1   2  2   
  2   2   3  am  
  3   2   4  1   
  4   3   5  1   
  5   3   6  1   
  6   4   7  1   
  7   4   8  1   
  8   4  23  1   
  9   5   9  1   
 10   5  24  1   
 11   5  25  1   
 12   6  10  1   
 13   6  26  1   
 14   6  27  1   
 15   7  11  1   
 16   7  28  1   
 17   7  29  1   
 18   8  12  1   
 19   8  30  1   
 20   8  31  1   
 21   9  13  1   
 22   9  14  2   
 23  10  15  1   
 24  10  32  1   
 25  10  33  1   
 26  11  16  1   
 27  11  34  1   
 28  11  35  1   
 29  12  16  1   
 30  12  36  1   
 31  12  37  1   
 32  13  17  1   
 33  13  18  1   
 34  14  19  1   
 35  14  38  1   
 36  15  39  1   
 37  16  20  1   
 38  16  40  1   
 39  17  19  2   
 40  17  41  1   
 41  18  42  1   
 42  18  43  1   
 43  18  44  1   
 44  20  21  1   
 45  20  45  1   
 46  20  46  1   
 47  21  22  1   
 48  21  47  1   
 49  21  48  1   
 50  22  49  1   
 51  22  50  1   
 52  22  51  1   
@<TRIPOS>SUBSTRUCTURE
  1 ****   2 GROUP 4 **** **** 0

# MOE 2024.06 (io_trps.svl 2023.06)
