@<TRIPOS>MOLECULE
NONAME
25 26 1 0 0 
SMALL
USER_CHARGES


@<TRIPOS>ATOM
  1 S       -5.7420    -8.3720    -0.4260 S.3   1 <1>  -0.3610 
  2 C       -4.1390    -7.6610    -0.4570 C.cat 1 <1>   0.8400 
  3 C       -5.4910   -10.1920    -0.3180 C.3   1 <1>   0.0700 
  4 N       -3.0780    -8.4250    -0.3300 N.pl3 1 <1>  -0.7940 
  5 N       -4.0830    -6.3630    -0.6090 N.pl3 1 <1>  -0.7680 
  6 C       -4.2490   -10.4520     0.5290 C.3   1 <1>  -0.1600 
  7 C       -2.9890    -9.8890    -0.1270 C.3   1 <1>   0.3290 
  8 C       -5.1400    -5.3040    -0.7130 C.3   1 <1>   0.4570 
  9 C       -3.0170    -5.3110    -0.6470 C.3   1 <1>   0.4570 
 10 C       -4.0920    -4.3120    -0.1100 C.3   1 <1>   0.2100 
 11 N       -4.1090    -4.1670     1.3680 N.3   1 <1>  -0.9300 
 12 H       -5.3850   -10.5660    -1.3220 H     1 <1>   0.0800 
 13 H       -6.3750   -10.6070     0.1350 H     1 <1>   0.0800 
 14 H       -2.1690    -7.9690    -0.3820 H     1 <1>   0.4500 
 15 H       -4.1290   -11.5140     0.6470 H     1 <1>   0.0800 
 16 H       -4.3750   -10.0310     1.5110 H     1 <1>   0.0800 
 17 H       -2.1430   -10.1050     0.5060 H     1 <1>   0.0800 
 18 H       -2.8230   -10.3700    -1.0780 H     1 <1>   0.0800 
 19 H       -5.9870    -5.4900    -0.0780 H     1 <1>   0.0000 
 20 H       -5.3850    -5.1010    -1.7410 H     1 <1>   0.0000 
 21 H       -2.7080    -5.1110    -1.6580 H     1 <1>   0.0000 
 22 H       -2.2120    -5.5140     0.0370 H     1 <1>   0.0000 
 23 H       -4.0640    -3.3550    -0.5990 H     1 <1>   0.0000 
 24 H       -4.3190    -5.0680     1.8160 H     1 <1>   0.3600 
 25 H       -4.8470    -3.5080     1.6520 H     1 <1>   0.3600 
@<TRIPOS>BOND
  1   1   2  1   
  2   1   3  1   
  3   2   4  ar  
  4   2   5  ar  
  5   3   6  1   
  6   3  12  1   
  7   3  13  1   
  8   4   7  1   
  9   4  14  1   
 10   5   8  1   
 11   5   9  1   
 12   6   7  1   
 13   6  15  1   
 14   6  16  1   
 15   7  17  1   
 16   7  18  1   
 17   8  10  1   
 18   8  19  1   
 19   8  20  1   
 20   9  10  1   
 21   9  21  1   
 22   9  22  1   
 23  10  11  1   
 24  10  23  1   
 25  11  24  1   
 26  11  25  1   
@<TRIPOS>SUBSTRUCTURE
  1 ****   2 GROUP 4 **** **** 0

# MOE 2024.06 (io_trps.svl 2023.06)
