@<TRIPOS>MOLECULE
NONAME
58 61 1 0 0 
SMALL
USER_CHARGES


@<TRIPOS>ATOM
  1 O        3.0720    -1.4440     2.7880 O.2   1 <1>  -0.5700 
  2 C        2.3960    -1.6980     1.8090 C.2   1 <1>   0.5440 
  3 N        2.4390    -0.8460     0.7240 N.am  1 <1>  -0.6600 
  4 C        1.5790    -2.8950     1.8140 C.ar  1 <1>   0.0860 
  5 C        2.9870     0.5330     0.8390 C.3   1 <1>   0.1400 
  6 C        2.1000    -1.2510    -0.6690 C.3   1 <1>   0.1400 
  7 C        0.2580    -2.9040     1.4110 C.ar  1 <1>  -0.1500 
  8 C        2.0690    -4.1220     2.2380 C.ar  1 <1>  -0.1500 
  9 C        1.9790     1.5340     0.2610 C.3   1 <1>  -0.1600 
 10 C        1.0740    -0.2740    -1.2530 C.3   1 <1>  -0.1600 
 11 C       -0.4830    -4.0760     1.4010 C.ar  1 <1>   0.4100 
 12 C        1.2580    -5.2380     2.2120 C.ar  1 <1>   0.1600 
 13 C        1.5760     1.1750    -1.1780 C.3   1 <1>  -0.1600 
 14 N        0.0010    -5.2500     1.7980 N.ar  1 <1>  -0.6200 
 15 N       -1.7880    -4.0470     0.9470 N.pl3 1 <1>  -0.8380 
 16 C       -2.7610    -5.0630     1.4520 C.3   1 <1>   0.2090 
 17 C       -2.0340    -3.6670    -0.4730 C.3   1 <1>   0.2090 
 18 C       -2.6740    -6.3500     0.5890 C.3   1 <1>   0.4230 
 19 C       -1.9640    -4.9250    -1.3500 C.3   1 <1>  -0.1600 
 20 N       -3.5530    -7.4810     1.0530 N.4   1 <1>  -0.9590 
 21 C       -2.9710    -6.0150    -0.8890 C.3   1 <1>  -0.1060 
 22 C       -3.3230    -8.7190     0.2680 C.3   1 <1>   0.3430 
 23 C       -3.5400    -7.7240     2.5190 C.3   1 <1>   0.2630 
 24 C       -4.4180    -5.4970    -0.9960 C.2   1 <1>   0.9060 
 25 C       -2.7720    -7.2790    -1.7590 C.3   1 <1>  -0.1600 
 26 C       -3.5840    -8.4660    -1.2180 C.3   1 <1>  -0.1600 
 27 O       -5.2710    -5.9280    -0.2030 O.co2 1 <1>  -0.9000 
 28 O       -4.7000    -4.6660    -1.8580 O.co2 1 <1>  -0.9000 
 29 H        3.1830     0.7790     1.8690 H     1 <1>   0.0800 
 30 H        3.9160     0.5890     0.2990 H     1 <1>   0.0800 
 31 H        2.9980    -1.2250    -1.2620 H     1 <1>   0.0800 
 32 H        1.7160    -2.2550    -0.7010 H     1 <1>   0.0800 
 33 H       -0.2130    -1.9910     1.1050 H     1 <1>   0.1500 
 34 H        3.0830    -4.1900     2.5900 H     1 <1>   0.1500 
 35 H        1.1060     1.5440     0.8910 H     1 <1>   0.0800 
 36 H        2.4070     2.5200     0.2820 H     1 <1>   0.0800 
 37 H        0.8770    -0.5360    -2.2780 H     1 <1>   0.0800 
 38 H        0.1500    -0.3660    -0.7090 H     1 <1>   0.0800 
 39 H        1.6680    -6.1750     2.5490 H     1 <1>   0.1500 
 40 H        2.4290     1.2910    -1.8240 H     1 <1>   0.0800 
 41 H        0.8060     1.8460    -1.5180 H     1 <1>   0.0800 
 42 H       -2.5190    -5.2830     2.4750 H     1 <1>   0.0800 
 43 H       -3.7530    -4.6470     1.4190 H     1 <1>   0.0800 
 44 H       -3.0040    -3.2020    -0.5590 H     1 <1>   0.0800 
 45 H       -1.2990    -2.9550    -0.8050 H     1 <1>   0.0800 
 46 H       -1.6520    -6.6830     0.6500 H     1 <1>   0.0800 
 47 H       -2.1780    -4.6440    -2.3670 H     1 <1>   0.0800 
 48 H       -0.9580    -5.3050    -1.3230 H     1 <1>   0.0800 
 49 H       -4.5030    -7.1190     0.7660 H     1 <1>   0.4500 
 50 H       -2.3060    -9.0480     0.4040 H     1 <1>   0.0800 
 51 H       -3.9840    -9.4970     0.6140 H     1 <1>   0.0800 
 52 H       -2.5440    -7.9730     2.8460 H     1 <1>   0.0800 
 53 H       -4.2050    -8.5340     2.7660 H     1 <1>   0.0800 
 54 H       -3.8700    -6.8430     3.0440 H     1 <1>   0.0800 
 55 H       -3.0770    -7.0670    -2.7710 H     1 <1>   0.0800 
 56 H       -1.7290    -7.5470    -1.7780 H     1 <1>   0.0800 
 57 H       -3.3360    -9.3510    -1.7760 H     1 <1>   0.0800 
 58 H       -4.6360    -8.2830    -1.3630 H     1 <1>   0.0800 
@<TRIPOS>BOND
  1   1   2  2   
  2   2   3  am  
  3   2   4  1   
  4   3   5  1   
  5   3   6  1   
  6   4   7  ar  
  7   4   8  ar  
  8   5   9  1   
  9   5  29  1   
 10   5  30  1   
 11   6  10  1   
 12   6  31  1   
 13   6  32  1   
 14   7  11  ar  
 15   7  33  1   
 16   8  12  ar  
 17   8  34  1   
 18   9  13  1   
 19   9  35  1   
 20   9  36  1   
 21  10  13  1   
 22  10  37  1   
 23  10  38  1   
 24  11  14  ar  
 25  11  15  1   
 26  12  14  ar  
 27  12  39  1   
 28  13  40  1   
 29  13  41  1   
 30  15  16  1   
 31  15  17  1   
 32  16  18  1   
 33  16  42  1   
 34  16  43  1   
 35  17  19  1   
 36  17  44  1   
 37  17  45  1   
 38  18  20  1   
 39  18  21  1   
 40  18  46  1   
 41  19  21  1   
 42  19  47  1   
 43  19  48  1   
 44  20  22  1   
 45  20  23  1   
 46  20  49  1   
 47  21  24  1   
 48  21  25  1   
 49  22  26  1   
 50  22  50  1   
 51  22  51  1   
 52  23  52  1   
 53  23  53  1   
 54  23  54  1   
 55  24  27  ar  
 56  24  28  ar  
 57  25  26  1   
 58  25  55  1   
 59  25  56  1   
 60  26  57  1   
 61  26  58  1   
@<TRIPOS>SUBSTRUCTURE
  1 ****  11 GROUP 4 **** **** 0

# MOE 2024.06 (io_trps.svl 2023.06)
