@<TRIPOS>MOLECULE
NONAME
56 59 1 0 0 
SMALL
USER_CHARGES


@<TRIPOS>ATOM
  1 O        1.4490    -0.2700     1.9950 O.3   1 <1>  -0.5600 
  2 C        1.2550    -1.5880     1.5510 C.3   1 <1>   0.1200 
  3 C        1.9040     0.5940     0.9990 C.3   1 <1>   0.1200 
  4 C        2.5590    -2.1780     0.9710 C.3   1 <1>   0.3340 
  5 C        3.2570     0.0980     0.4520 C.3   1 <1>   0.1900 
  6 N        3.1290    -1.2840    -0.0710 N.3   1 <1>  -0.8100 
  7 C        2.2950    -3.5660     0.3930 C.ar  1 <1>  -0.1440 
  8 C        3.7720     1.0460    -0.6510 C.3   1 <1>   0.3430 
  9 C        4.4180    -1.7840    -0.5960 C.3   1 <1>   0.1100 
 10 C        2.8090    -4.6910     1.0220 C.ar  1 <1>  -0.1500 
 11 C        1.5460    -3.7230    -0.7660 C.ar  1 <1>  -0.1500 
 12 N        5.0590     0.5550    -1.2610 N.4   1 <1>  -0.9590 
 13 C        4.9540    -0.8700    -1.7160 C.3   1 <1>   0.3430 
 14 C        2.5820    -5.9520     0.4980 C.ar  1 <1>  -0.1500 
 15 C        1.3170    -4.9830    -1.2900 C.ar  1 <1>  -0.1500 
 16 C        5.5580     1.4610    -2.3240 C.3   1 <1>   0.4860 
 17 C        1.8360    -6.0990    -0.6580 C.ar  1 <1>  -0.1500 
 18 C        5.8680     2.8000    -1.6880 C.ar  1 <1>  -0.1440 
 19 C        6.8430     2.8950    -0.6980 C.ar  1 <1>   0.0820 
 20 C        5.1720     3.9320    -2.0850 C.ar  1 <1>  -0.1500 
 21 O        7.4970     1.7540    -0.3460 O.3   1 <1>  -0.3620 
 22 C        7.1020     4.1290    -0.1070 C.ar  1 <1>  -0.1500 
 23 C        5.4370     5.1540    -1.4950 C.ar  1 <1>  -0.1500 
 24 C        8.5930     1.7880     0.5500 C.3   1 <1>   0.1200 
 25 C        6.3990     5.2510    -0.5060 C.ar  1 <1>  -0.1500 
 26 C        9.1930     0.3850     0.6440 C.3   1 <1>   0.1200 
 27 O       10.1830     0.3760     1.6130 O.3   1 <1>  -0.6800 
 28 H        0.9280    -2.1750     2.3900 H     1 <1>   0.0800 
 29 H        0.4760    -1.5900     0.8090 H     1 <1>   0.0800 
 30 H        1.1620     0.6390     0.2200 H     1 <1>   0.0800 
 31 H        2.0070     1.5690     1.4420 H     1 <1>   0.0800 
 32 H        3.2630    -2.2670     1.7810 H     1 <1>   0.0800 
 33 H        3.9610     0.1130     1.2670 H     1 <1>   0.0800 
 34 H        3.9180     2.0280    -0.2300 H     1 <1>   0.0800 
 35 H        3.0150     1.1200    -1.4140 H     1 <1>   0.0800 
 36 H        5.1420    -1.8520     0.1980 H     1 <1>   0.0800 
 37 H        4.2860    -2.7710    -1.0060 H     1 <1>   0.0800 
 38 H        3.3890    -4.5970     1.9230 H     1 <1>   0.1500 
 39 H        1.1420    -2.8600    -1.2660 H     1 <1>   0.1500 
 40 H        5.7830     0.6150    -0.5280 H     1 <1>   0.4500 
 41 H        4.2780    -0.9360    -2.5540 H     1 <1>   0.0800 
 42 H        5.9180    -1.2290    -2.0350 H     1 <1>   0.0800 
 43 H        2.9830    -6.8210     0.9910 H     1 <1>   0.1500 
 44 H        0.7350    -5.0970    -2.1870 H     1 <1>   0.1500 
 45 H        6.4600     1.0610    -2.7580 H     1 <1>   0.0800 
 46 H        4.8190     1.5740    -3.1000 H     1 <1>   0.0800 
 47 H        1.6590    -7.0790    -1.0640 H     1 <1>   0.1500 
 48 H        4.4200     3.8820    -2.8560 H     1 <1>   0.1500 
 49 H        7.8420     4.2460     0.6630 H     1 <1>   0.1500 
 50 H        4.8970     6.0340    -1.8030 H     1 <1>   0.1500 
 51 H        9.3230     2.4820     0.1700 H     1 <1>   0.0800 
 52 H        8.2320     2.1030     1.5140 H     1 <1>   0.0800 
 53 H        6.6020     6.2050    -0.0490 H     1 <1>   0.1500 
 54 H        9.6300     0.0810    -0.2910 H     1 <1>   0.0800 
 55 H        8.4420    -0.3230     0.9490 H     1 <1>   0.0800 
 56 H       10.9900     0.8390     1.3100 H     1 <1>   0.4000 
@<TRIPOS>BOND
  1   1   2  1   
  2   1   3  1   
  3   2   4  1   
  4   2  28  1   
  5   2  29  1   
  6   3   5  1   
  7   3  30  1   
  8   3  31  1   
  9   4   6  1   
 10   4   7  1   
 11   4  32  1   
 12   5   6  1   
 13   5   8  1   
 14   5  33  1   
 15   6   9  1   
 16   7  10  ar  
 17   7  11  ar  
 18   8  12  1   
 19   8  34  1   
 20   8  35  1   
 21   9  13  1   
 22   9  36  1   
 23   9  37  1   
 24  10  14  ar  
 25  10  38  1   
 26  11  15  ar  
 27  11  39  1   
 28  12  13  1   
 29  12  16  1   
 30  12  40  1   
 31  13  41  1   
 32  13  42  1   
 33  14  17  ar  
 34  14  43  1   
 35  15  17  ar  
 36  15  44  1   
 37  16  18  1   
 38  16  45  1   
 39  16  46  1   
 40  17  47  1   
 41  18  19  ar  
 42  18  20  ar  
 43  19  21  1   
 44  19  22  ar  
 45  20  23  ar  
 46  20  48  1   
 47  21  24  1   
 48  22  25  ar  
 49  22  49  1   
 50  23  25  ar  
 51  23  50  1   
 52  24  26  1   
 53  24  51  1   
 54  24  52  1   
 55  25  53  1   
 56  26  27  1   
 57  26  54  1   
 58  26  55  1   
 59  27  56  1   
@<TRIPOS>SUBSTRUCTURE
  1 ****  12 GROUP 4 **** **** 0

# MOE 2024.06 (io_trps.svl 2023.06)
