@<TRIPOS>MOLECULE
NONAME
43 45 1 0 0 
SMALL
USER_CHARGES


@<TRIPOS>ATOM
  1 CL      -0.5410    -0.6380     0.9720 Cl    1 <1>  -0.1230 
  2 C       -1.7120     0.1520    -0.0730 C.2   1 <1>   0.1230 
  3 C       -2.8470    -0.4160    -0.6670 C.2   1 <1>   0.2030 
  4 C       -1.6640     1.4430    -0.4370 C.2   1 <1>  -0.3020 
  5 N       -3.4720     0.5220    -1.3690 N.2   1 <1>  -0.7070 
  6 C       -3.2600    -1.8090    -0.5340 C.2   1 <1>   0.7160 
  7 N       -2.7380     1.6410    -1.2230 N.pl3 1 <1>   0.3000 
  8 O       -2.5530    -2.6390     0.0200 O.2   1 <1>  -0.5700 
  9 N       -4.4830    -2.2740    -0.9930 N.am  1 <1>  -0.6600 
 10 C       -4.6910    -3.7240    -1.2050 C.3   1 <1>   0.1400 
 11 C       -5.7490    -1.5460    -0.6890 C.3   1 <1>   0.1400 
 12 C       -5.4180    -4.1860     0.0640 C.3   1 <1>   0.4230 
 13 C       -6.5840    -2.3080     0.3800 C.3   1 <1>  -0.1600 
 14 N       -5.0010    -5.5130     0.6430 N.4   1 <1>  -0.9590 
 15 C       -6.9720    -3.8280    -0.0420 C.3   1 <1>   0.0000 
 16 C       -5.1850    -6.6420    -0.2790 C.3   1 <1>   0.3430 
 17 C       -3.5980    -5.4450     1.1670 C.3   1 <1>   0.2630 
 18 C       -7.3810    -5.3120    -0.5340 C.3   1 <1>  -0.1600 
 19 C       -8.5230    -3.4230    -0.0590 C.3   1 <1>   0.1200 
 20 C       -6.4010    -6.3540    -1.1360 C.3   1 <1>  -0.1600 
 21 O       -8.9630    -3.3690     1.2620 O.3   1 <1>  -0.6800 
 22 H       -0.9490     2.2050    -0.1890 H     1 <1>   0.1500 
 23 H       -2.9940     2.5300    -1.6740 H     1 <1>   0.2700 
 24 H       -5.2950    -3.8700    -2.0830 H     1 <1>   0.0800 
 25 H       -3.7500    -4.2270    -1.3360 H     1 <1>   0.0800 
 26 H       -5.5330    -0.5560    -0.3230 H     1 <1>   0.0800 
 27 H       -6.3170    -1.4400    -1.5980 H     1 <1>   0.0800 
 28 H       -4.9770    -3.5440     0.8020 H     1 <1>   0.0800 
 29 H       -6.0800    -2.2690     1.3330 H     1 <1>   0.0800 
 30 H       -7.3790    -1.6100     0.5930 H     1 <1>   0.0800 
 31 H       -5.6390    -5.6620     1.4390 H     1 <1>   0.4500 
 32 H       -4.3190    -6.7640    -0.9100 H     1 <1>   0.0800 
 33 H       -5.3320    -7.5510     0.2840 H     1 <1>   0.0800 
 34 H       -2.9020    -5.2640     0.3640 H     1 <1>   0.0800 
 35 H       -3.3310    -6.3680     1.6560 H     1 <1>   0.0800 
 36 H       -3.5020    -4.6390     1.8780 H     1 <1>   0.0800 
 37 H       -7.8990    -5.8030     0.2770 H     1 <1>   0.0800 
 38 H       -8.0600    -5.2650    -1.3720 H     1 <1>   0.0800 
 39 H       -9.2460    -4.0620    -0.5370 H     1 <1>   0.0800 
 40 H       -8.7170    -2.4760    -0.5390 H     1 <1>   0.0800 
 41 H       -6.0670    -6.0210    -2.1030 H     1 <1>   0.0800 
 42 H       -6.9220    -7.2810    -1.3070 H     1 <1>   0.0800 
 43 H       -9.9030    -3.0970     1.3120 H     1 <1>   0.4000 
@<TRIPOS>BOND
  1   1   2  1   
  2   2   3  1   
  3   2   4  2   
  4   3   5  2   
  5   3   6  1   
  6   4   7  1   
  7   4  22  1   
  8   5   7  1   
  9   6   8  2   
 10   6   9  am  
 11   7  23  1   
 12   9  10  1   
 13   9  11  1   
 14  10  12  1   
 15  10  24  1   
 16  10  25  1   
 17  11  13  1   
 18  11  26  1   
 19  11  27  1   
 20  12  14  1   
 21  12  15  1   
 22  12  28  1   
 23  13  15  1   
 24  13  29  1   
 25  13  30  1   
 26  14  16  1   
 27  14  17  1   
 28  14  31  1   
 29  15  18  1   
 30  15  19  1   
 31  16  20  1   
 32  16  32  1   
 33  16  33  1   
 34  17  34  1   
 35  17  35  1   
 36  17  36  1   
 37  18  20  1   
 38  18  37  1   
 39  18  38  1   
 40  19  21  1   
 41  19  39  1   
 42  19  40  1   
 43  20  41  1   
 44  20  42  1   
 45  21  43  1   
@<TRIPOS>SUBSTRUCTURE
  1 ****   9 GROUP 4 **** **** 0

# MOE 2024.06 (io_trps.svl 2023.06)
