@<TRIPOS>MOLECULE
NONAME
42 44 1 0 0 
SMALL
USER_CHARGES


@<TRIPOS>ATOM
  1 F       -2.9710     2.3240    -1.4760 F     1 <1>  -0.1900 
  2 C       -1.9090     2.9070    -0.9820 C.ar  1 <1>   0.1900 
  3 C       -1.8910     4.2650    -0.8220 C.ar  1 <1>  -0.1500 
  4 C       -0.8280     2.1070    -0.6320 C.ar  1 <1>  -0.1500 
  5 C       -0.7500     4.8880    -0.2910 C.ar  1 <1>  -0.1710 
  6 C        0.2980     2.7150    -0.1170 C.ar  1 <1>  -0.1500 
  7 O       -0.7970     6.1290    -0.1280 O.3   1 <1>  -0.8290 
  8 C        0.3900     4.1040     0.0580 C.ar  1 <1>   0.0860 
  9 C        1.6100     4.6680     0.5820 C.2   1 <1>   0.5440 
 10 O        2.2950     4.0580     1.3980 O.2   1 <1>  -0.5700 
 11 N        2.1430     5.8660     0.1680 N.am  1 <1>  -0.6600 
 12 C        2.4170     6.9020     1.2200 C.3   1 <1>   0.2200 
 13 C        2.0850     6.2620    -1.2670 C.3   1 <1>   0.1400 
 14 C        1.6000     8.1880     1.0140 C.3   1 <1>   0.1200 
 15 C        3.9320     7.1960     1.2940 C.3   1 <1>   0.3430 
 16 C        2.8940     7.5310    -1.5990 C.3   1 <1>  -0.0800 
 17 O        2.2650     9.0770     0.1600 O.3   1 <1>  -0.5600 
 18 N        4.6370     6.6830     0.0750 N.4   1 <1>  -0.9590 
 19 C        2.1260     8.8000    -1.1930 C.3   1 <1>   0.1200 
 20 C        4.3630     7.5460    -1.1170 C.3   1 <1>   0.3430 
 21 C        6.1300     6.5970     0.3350 C.3   1 <1>   0.2370 
 22 C        6.8320     7.9430     0.5430 C.2   1 <1>   0.9060 
 23 O        6.9430     8.3720     1.6950 O.co2 1 <1>  -0.9000 
 24 O        7.1730     8.5790    -0.4600 O.co2 1 <1>  -0.9000 
 25 H       -2.7290     4.8790    -1.0840 H     1 <1>   0.1500 
 26 H       -0.8880     1.0430    -0.7640 H     1 <1>   0.1500 
 27 H        1.1410     2.1110     0.1650 H     1 <1>   0.1500 
 28 H        2.1090     6.5000     2.1700 H     1 <1>   0.0800 
 29 H        2.4550     5.4400    -1.8550 H     1 <1>   0.0800 
 30 H        1.0590     6.4160    -1.5560 H     1 <1>   0.0800 
 31 H        1.4970     8.6910     1.9580 H     1 <1>   0.0800 
 32 H        0.6120     7.9740     0.6400 H     1 <1>   0.0800 
 33 H        4.3260     6.7030     2.1660 H     1 <1>   0.0800 
 34 H        4.1070     8.2540     1.4140 H     1 <1>   0.0800 
 35 H        2.9330     7.5750    -2.6710 H     1 <1>   0.0800 
 36 H        4.2020     5.7590    -0.0820 H     1 <1>   0.4500 
 37 H        1.0760     8.7160    -1.4250 H     1 <1>   0.0800 
 38 H        2.5220     9.6490    -1.7240 H     1 <1>   0.0800 
 39 H        4.6570     8.5620    -0.8980 H     1 <1>   0.0800 
 40 H        4.9880     7.2080    -1.9260 H     1 <1>   0.0800 
 41 H        6.3100     6.0060     1.2140 H     1 <1>   0.0800 
 42 H        6.6120     6.1190    -0.4970 H     1 <1>   0.0800 
@<TRIPOS>BOND
  1   1   2  1   
  2   2   3  ar  
  3   2   4  ar  
  4   3   5  ar  
  5   3  25  1   
  6   4   6  ar  
  7   4  26  1   
  8   5   7  1   
  9   5   8  ar  
 10   6   8  ar  
 11   6  27  1   
 12   8   9  1   
 13   9  10  2   
 14   9  11  am  
 15  11  12  1   
 16  11  13  1   
 17  12  14  1   
 18  12  15  1   
 19  12  28  1   
 20  13  16  1   
 21  13  29  1   
 22  13  30  1   
 23  14  17  1   
 24  14  31  1   
 25  14  32  1   
 26  15  18  1   
 27  15  33  1   
 28  15  34  1   
 29  16  19  1   
 30  16  20  1   
 31  16  35  1   
 32  17  19  1   
 33  18  20  1   
 34  18  21  1   
 35  18  36  1   
 36  19  37  1   
 37  19  38  1   
 38  20  39  1   
 39  20  40  1   
 40  21  22  1   
 41  21  41  1   
 42  21  42  1   
 43  22  23  ar  
 44  22  24  ar  
@<TRIPOS>SUBSTRUCTURE
  1 ****  11 GROUP 4 **** **** 0

# MOE 2024.06 (io_trps.svl 2023.06)
