@<TRIPOS>MOLECULE
NONAME
51 53 1 0 0 
SMALL
USER_CHARGES


@<TRIPOS>ATOM
  1 F       -1.8050    -2.6260    -3.0970 F     1 <1>  -0.1900 
  2 C       -2.0990    -3.3810    -2.0680 C.ar  1 <1>   0.1900 
  3 C       -1.1870    -3.6140    -1.0330 C.ar  1 <1>   0.0830 
  4 C       -3.3650    -3.9350    -2.0560 C.ar  1 <1>  -0.1500 
  5 O        0.0830    -3.1260    -0.9320 O.3   1 <1>  -0.3630 
  6 C       -1.5960    -4.4250     0.0130 C.ar  1 <1>  -0.1500 
  7 C       -3.7400    -4.7400    -0.9960 C.ar  1 <1>  -0.1500 
  8 C        0.6860    -2.3410    -1.9370 C.3   1 <1>   0.0400 
  9 C       -2.8650    -5.0070     0.0590 C.ar  1 <1>   0.0530 
 10 C       -3.2490    -5.8500     1.1640 C.2   1 <1>   0.0870 
 11 O       -2.7380    -5.6620     2.3580 O.3   1 <1>  -0.0190 
 12 C       -4.1010    -6.9000     1.2670 C.2   1 <1>  -0.2330 
 13 N       -3.2010    -6.5040     3.2460 N.2   1 <1>  -0.4100 
 14 C       -4.0280    -7.2550     2.6150 C.2   1 <1>   0.3720 
 15 C       -4.8850    -7.5340     0.2660 C.2   1 <1>   1.0330 
 16 N       -4.7170    -8.2500     3.3020 N.pl3 1 <1>  -0.8520 
 17 O       -4.5330    -8.5980    -0.2710 O.co2 1 <1>  -0.9000 
 18 O       -6.0170    -7.1350    -0.0520 O.co2 1 <1>  -0.9000 
 19 C       -4.7810    -9.6030     2.6970 C.3   1 <1>   0.2090 
 20 C       -6.2190   -10.0380     2.3100 C.3   1 <1>  -0.0800 
 21 C       -6.2400   -10.6520     0.9070 C.3   1 <1>   0.3430 
 22 C       -7.3280    -8.9590     2.2920 C.3   1 <1>  -0.1600 
 23 N       -7.0580    -9.7390     0.0870 N.4   1 <1>  -0.9590 
 24 C       -8.0570    -9.1150     0.9670 C.3   1 <1>   0.3430 
 25 C       -7.5070   -10.2700    -1.2110 C.3   1 <1>   0.3430 
 26 C       -8.0120    -9.1290    -2.0960 C.3   1 <1>  -0.1600 
 27 C       -8.4050    -9.6370    -3.4890 C.3   1 <1>  -0.2400 
 28 H       -4.0470    -3.7400    -2.8630 H     1 <1>   0.1500 
 29 H       -0.9050    -4.6140     0.8140 H     1 <1>   0.1500 
 30 H       -4.7310    -5.1610    -0.9870 H     1 <1>   0.1500 
 31 H        1.6920    -2.1190    -1.6290 H     1 <1>   0.0800 
 32 H        0.1300    -1.4280    -2.0480 H     1 <1>   0.0800 
 33 H        0.7010    -2.9000    -2.8560 H     1 <1>   0.0800 
 34 H       -4.3470    -8.2770     4.2570 H     1 <1>   0.4000 
 35 H       -4.3860   -10.3080     3.4080 H     1 <1>   0.0800 
 36 H       -4.1240    -9.6410     1.8450 H     1 <1>   0.0800 
 37 H       -6.5090   -10.8140     2.9960 H     1 <1>   0.0800 
 38 H       -6.6980   -11.6260     0.9390 H     1 <1>   0.0800 
 39 H       -5.2470   -10.7320     0.4930 H     1 <1>   0.0800 
 40 H       -6.9380    -7.9590     2.3130 H     1 <1>   0.0800 
 41 H       -8.0050    -9.0650     3.1190 H     1 <1>   0.0800 
 42 H       -6.3940    -8.9470    -0.1510 H     1 <1>   0.4500 
 43 H       -8.3640    -8.1560     0.5800 H     1 <1>   0.0800 
 44 H       -8.9080    -9.7640     1.0800 H     1 <1>   0.0800 
 45 H       -8.2840   -11.0010    -1.0660 H     1 <1>   0.0800 
 46 H       -6.6730   -10.7430    -1.7040 H     1 <1>   0.0800 
 47 H       -7.2310    -8.3930    -2.1990 H     1 <1>   0.0800 
 48 H       -8.8660    -8.6580    -1.6440 H     1 <1>   0.0800 
 49 H       -7.5570   -10.0840    -3.9790 H     1 <1>   0.0800 
 50 H       -8.7480    -8.8140    -4.0920 H     1 <1>   0.0800 
 51 H       -9.1950   -10.3630    -3.4220 H     1 <1>   0.0800 
@<TRIPOS>BOND
  1   1   2  1   
  2   2   3  ar  
  3   2   4  ar  
  4   3   5  1   
  5   3   6  ar  
  6   4   7  ar  
  7   4  28  1   
  8   5   8  1   
  9   6   9  ar  
 10   6  29  1   
 11   7   9  ar  
 12   7  30  1   
 13   8  31  1   
 14   8  32  1   
 15   8  33  1   
 16   9  10  1   
 17  10  11  1   
 18  10  12  2   
 19  11  13  1   
 20  12  14  1   
 21  12  15  1   
 22  13  14  2   
 23  14  16  1   
 24  15  17  ar  
 25  15  18  ar  
 26  16  19  1   
 27  16  34  1   
 28  19  20  1   
 29  19  35  1   
 30  19  36  1   
 31  20  21  1   
 32  20  22  1   
 33  20  37  1   
 34  21  23  1   
 35  21  38  1   
 36  21  39  1   
 37  22  24  1   
 38  22  40  1   
 39  22  41  1   
 40  23  24  1   
 41  23  25  1   
 42  23  42  1   
 43  24  43  1   
 44  24  44  1   
 45  25  26  1   
 46  25  45  1   
 47  25  46  1   
 48  26  27  1   
 49  26  47  1   
 50  26  48  1   
 51  27  49  1   
 52  27  50  1   
 53  27  51  1   
@<TRIPOS>SUBSTRUCTURE
  1 ****  15 GROUP 4 **** **** 0

# MOE 2024.06 (io_trps.svl 2023.06)
