@<TRIPOS>MOLECULE
NONAME
59 61 1 0 0 
SMALL
USER_CHARGES


@<TRIPOS>ATOM
  1 O        1.4400    -0.0370    -2.1020 O.2   1 <1>  -0.5700 
  2 C        1.9100    -0.2560    -0.9970 C.2   1 <1>   0.6160 
  3 N        2.1050     0.8130    -0.1430 N.am  1 <1>  -0.6600 
  4 C        2.2610    -1.6090    -0.6510 C.2   1 <1>   0.0290 
  5 C        1.2260     2.0170    -0.2540 C.3   1 <1>   0.2200 
  6 C        2.9520     0.6800     1.0840 C.3   1 <1>   0.2840 
  7 C        1.4870    -2.2020     0.3910 C.2   1 <1>   0.6160 
  8 C        3.2520    -2.3580    -1.2570 C.2   1 <1>  -0.1380 
  9 C        2.0290     3.3260    -0.3110 C.3   1 <1>  -0.1600 
 10 C        0.2830     2.1390     0.9500 C.3   1 <1>  -0.1600 
 11 C        4.3580     0.1900     0.7400 C.ar  1 <1>  -0.1440 
 12 O        0.5810    -1.6460     0.9980 O.2   1 <1>  -0.5700 
 13 N        1.7590    -3.4860     0.7560 N.am  1 <1>  -0.5390 
 14 C        3.4910    -3.7000    -0.8360 C.2   1 <1>  -0.1380 
 15 C        4.1100    -1.7650    -2.3790 C.3   1 <1>  -0.1020 
 16 C        1.4060     4.2610     0.7280 C.3   1 <1>  -0.1600 
 17 C        0.7680     3.3390     1.7620 C.3   1 <1>  -0.1600 
 18 C        4.9410    -0.8580     1.4480 C.ar  1 <1>   0.0830 
 19 C        5.0630     0.7900    -0.2940 C.ar  1 <1>  -0.1500 
 20 C        2.7410    -4.2360     0.1780 C.2   1 <1>  -0.0290 
 21 C        4.5830    -4.5050    -1.5430 C.3   1 <1>  -0.1020 
 22 O        4.2210    -1.4280     2.4500 O.3   1 <1>  -0.3630 
 23 C        6.2220    -1.2900     1.1140 C.ar  1 <1>  -0.1500 
 24 C        6.3380     0.3510    -0.6340 C.ar  1 <1>   0.0830 
 25 C        2.8910    -5.6360     0.7510 C.3   1 <1>  -0.1020 
 26 C        4.5420    -2.7150     2.9280 C.3   1 <1>   0.0400 
 27 C        6.9120    -0.6870     0.0790 C.ar  1 <1>  -0.1500 
 28 O        7.0710     0.8740    -1.6510 O.3   1 <1>  -0.3620 
 29 C        6.5240     1.8510    -2.5090 C.3   1 <1>   0.0400 
 30 H        0.6200     1.9480    -1.1410 H     1 <1>   0.0800 
 31 H        2.4590     0.0170     1.7720 H     1 <1>   0.0800 
 32 H        3.0470     1.6290     1.5750 H     1 <1>   0.0800 
 33 H        1.9710     3.7600    -1.2940 H     1 <1>   0.0800 
 34 H        3.0620     3.1630    -0.0700 H     1 <1>   0.0800 
 35 H        0.2310     1.2370     1.5350 H     1 <1>   0.0800 
 36 H       -0.7040     2.3540     0.5790 H     1 <1>   0.0800 
 37 H        1.1560    -3.8430     1.4960 H     1 <1>   0.3700 
 38 H        5.1540    -1.8830    -2.1550 H     1 <1>   0.0800 
 39 H        3.9340    -0.7150    -2.5190 H     1 <1>   0.0800 
 40 H        3.8900    -2.2580    -3.3090 H     1 <1>   0.0800 
 41 H        0.6370     4.8510     0.2600 H     1 <1>   0.0800 
 42 H        2.1350     4.9190     1.1690 H     1 <1>   0.0800 
 43 H        1.5090     3.0230     2.4750 H     1 <1>   0.0800 
 44 H       -0.0390     3.8200     2.2880 H     1 <1>   0.0800 
 45 H        4.6000     1.5930    -0.8330 H     1 <1>   0.1500 
 46 H        4.4570    -4.4480    -2.6090 H     1 <1>   0.0800 
 47 H        4.5600    -5.5460    -1.2870 H     1 <1>   0.0800 
 48 H        5.5500    -4.1130    -1.2840 H     1 <1>   0.0800 
 49 H        6.6980    -2.0870     1.6510 H     1 <1>   0.1500 
 50 H        2.5160    -5.6750     1.7580 H     1 <1>   0.0800 
 51 H        3.9210    -5.9360     0.7810 H     1 <1>   0.0800 
 52 H        2.3350    -6.3350     0.1510 H     1 <1>   0.0800 
 53 H        3.7430    -3.0420     3.5680 H     1 <1>   0.0800 
 54 H        5.4600    -2.6610     3.4860 H     1 <1>   0.0800 
 55 H        4.6370    -3.3840     2.0910 H     1 <1>   0.0800 
 56 H        7.9000    -1.0160    -0.1840 H     1 <1>   0.1500 
 57 H        7.2550     2.0810    -3.2630 H     1 <1>   0.0800 
 58 H        6.3010     2.7330    -1.9350 H     1 <1>   0.0800 
 59 H        5.6350     1.4550    -2.9690 H     1 <1>   0.0800 
@<TRIPOS>BOND
  1   1   2  2   
  2   2   3  am  
  3   2   4  1   
  4   3   5  1   
  5   3   6  1   
  6   4   7  1   
  7   4   8  2   
  8   5   9  1   
  9   5  10  1   
 10   5  30  1   
 11   6  11  1   
 12   6  31  1   
 13   6  32  1   
 14   7  12  2   
 15   7  13  am  
 16   8  14  1   
 17   8  15  1   
 18   9  16  1   
 19   9  33  1   
 20   9  34  1   
 21  10  17  1   
 22  10  35  1   
 23  10  36  1   
 24  11  18  ar  
 25  11  19  ar  
 26  13  20  1   
 27  13  37  1   
 28  14  20  2   
 29  14  21  1   
 30  15  38  1   
 31  15  39  1   
 32  15  40  1   
 33  16  17  1   
 34  16  41  1   
 35  16  42  1   
 36  17  43  1   
 37  17  44  1   
 38  18  22  1   
 39  18  23  ar  
 40  19  24  ar  
 41  19  45  1   
 42  20  25  1   
 43  21  46  1   
 44  21  47  1   
 45  21  48  1   
 46  22  26  1   
 47  23  27  ar  
 48  23  49  1   
 49  24  27  ar  
 50  24  28  1   
 51  25  50  1   
 52  25  51  1   
 53  25  52  1   
 54  26  53  1   
 55  26  54  1   
 56  26  55  1   
 57  27  56  1   
 58  28  29  1   
 59  29  57  1   
 60  29  58  1   
 61  29  59  1   
@<TRIPOS>SUBSTRUCTURE
  1 ****  11 GROUP 4 **** **** 0

# MOE 2024.06 (io_trps.svl 2023.06)
