@<TRIPOS>MOLECULE
NONAME
45 47 1 0 0 
SMALL
USER_CHARGES


@<TRIPOS>ATOM
  1 O       -0.6270     0.6610    -0.3860 O.2   1 <1>  -0.5700 
  2 C       -1.3180     1.6350    -0.5490 C.2   1 <1>   0.5690 
  3 N       -2.5520     1.6530    -1.0880 N.am  1 <1>  -0.6600 
  4 C       -0.8980     3.0170    -0.1370 C.3   1 <1>  -0.0990 
  5 C       -3.1590     2.9960    -1.0740 C.3   1 <1>   0.1400 
  6 C       -3.3090     0.4610    -1.5260 C.3   1 <1>   0.2840 
  7 C       -2.2260     3.8010    -0.1490 C.3   1 <1>  -0.0190 
  8 C       -4.4090     0.1740    -0.5180 C.ar  1 <1>  -0.1440 
  9 C       -2.0820     5.2670    -0.5350 C.2   1 <1>   0.5690 
 10 C       -5.7430     0.4080    -0.7870 C.ar  1 <1>  -0.1500 
 11 C       -4.1170    -0.3340     0.7310 C.ar  1 <1>  -0.1500 
 12 O       -2.7990     5.7220    -1.3930 O.2   1 <1>  -0.5700 
 13 N       -1.1380     6.0070     0.1230 N.am  1 <1>  -0.4940 
 14 C       -6.6930     0.1300     0.1820 C.ar  1 <1>   0.1600 
 15 C       -5.1430    -0.5770     1.6280 C.ar  1 <1>   0.1600 
 16 C       -0.8350     7.3850     0.0010 C.2   1 <1>  -0.0880 
 17 N       -6.4250    -0.3550     1.3840 N.ar  1 <1>  -0.6200 
 18 N        0.4270     7.8950    -0.0390 N.pl3 1 <1>   0.3140 
 19 C       -1.6710     8.4490    -0.0860 C.2   1 <1>  -0.1810 
 20 N        0.4200     9.2410    -0.1420 N.2   1 <1>  -0.7070 
 21 C        1.6970     7.1410    -0.0490 C.3   1 <1>   0.0960 
 22 C       -0.8370     9.5580    -0.1730 C.2   1 <1>   0.1390 
 23 C       -3.1880     8.4910    -0.0860 C.3   1 <1>  -0.0590 
 24 C        2.1370     6.7680     1.3730 C.3   1 <1>  -0.2400 
 25 H       -0.2080     3.3920    -0.8710 H     1 <1>   0.0800 
 26 H       -0.4420     3.0000     0.8360 H     1 <1>   0.0800 
 27 H       -4.1630     2.9710    -0.6860 H     1 <1>   0.0800 
 28 H       -3.1640     3.3880    -2.0780 H     1 <1>   0.0800 
 29 H       -2.6470    -0.3860    -1.5890 H     1 <1>   0.0800 
 30 H       -3.7240     0.6380    -2.5030 H     1 <1>   0.0800 
 31 H       -2.6550     3.7640     0.8360 H     1 <1>   0.0800 
 32 H       -6.0540     0.8030    -1.7370 H     1 <1>   0.1500 
 33 H       -3.0980    -0.5390     1.0100 H     1 <1>   0.1500 
 34 H       -0.5670     5.4980     0.7970 H     1 <1>   0.3700 
 35 H       -7.7290     0.3180    -0.0420 H     1 <1>   0.1500 
 36 H       -4.8960    -0.9740     2.5980 H     1 <1>   0.1500 
 37 H        2.4460     7.7580    -0.5110 H     1 <1>   0.0800 
 38 H        1.5680     6.2600    -0.6490 H     1 <1>   0.0800 
 39 H       -1.1850    10.5740    -0.2570 H     1 <1>   0.1500 
 40 H       -3.5850     7.6340     0.4250 H     1 <1>   0.0800 
 41 H       -3.5490     8.4860    -1.0990 H     1 <1>   0.0800 
 42 H       -3.5370     9.3790     0.4080 H     1 <1>   0.0800 
 43 H        2.2760     7.6610     1.9570 H     1 <1>   0.0800 
 44 H        3.0710     6.2370     1.3380 H     1 <1>   0.0800 
 45 H        1.4040     6.1430     1.8500 H     1 <1>   0.0800 
@<TRIPOS>BOND
  1   1   2  2   
  2   2   3  am  
  3   2   4  1   
  4   3   5  1   
  5   3   6  1   
  6   4   7  1   
  7   4  25  1   
  8   4  26  1   
  9   5   7  1   
 10   5  27  1   
 11   5  28  1   
 12   6   8  1   
 13   6  29  1   
 14   6  30  1   
 15   7   9  1   
 16   7  31  1   
 17   8  10  ar  
 18   8  11  ar  
 19   9  12  2   
 20   9  13  am  
 21  10  14  ar  
 22  10  32  1   
 23  11  15  ar  
 24  11  33  1   
 25  13  16  1   
 26  13  34  1   
 27  14  17  ar  
 28  14  35  1   
 29  15  17  ar  
 30  15  36  1   
 31  16  18  1   
 32  16  19  2   
 33  18  20  1   
 34  18  21  1   
 35  19  22  1   
 36  19  23  1   
 37  20  22  2   
 38  21  24  1   
 39  21  37  1   
 40  21  38  1   
 41  22  39  1   
 42  23  40  1   
 43  23  41  1   
 44  23  42  1   
 45  24  43  1   
 46  24  44  1   
 47  24  45  1   
@<TRIPOS>SUBSTRUCTURE
  1 ****   7 GROUP 4 **** **** 0

# MOE 2024.06 (io_trps.svl 2023.06)
