@<TRIPOS>MOLECULE
NONAME
51 53 1 0 0 
SMALL
USER_CHARGES


@<TRIPOS>ATOM
  1 F       -3.4440     1.9750    -1.9480 F     1 <1>  -0.3400 
  2 C       -2.7310     0.8780    -1.7250 C.3   1 <1>   0.8800 
  3 F       -2.1590     0.5750    -2.8810 F     1 <1>  -0.3400 
  4 O       -3.6140    -0.1700    -1.3940 O.3   1 <1>  -0.3630 
  5 C       -4.2240    -0.2220    -0.1860 C.ar  1 <1>   0.0820 
  6 C       -5.0770    -1.2930     0.0210 C.ar  1 <1>  -0.1500 
  7 C       -4.0470     0.7180     0.8260 C.ar  1 <1>  -0.1500 
  8 C       -5.7680    -1.4360     1.2150 C.ar  1 <1>  -0.1440 
  9 C       -4.7160     0.5680     2.0270 C.ar  1 <1>  -0.1500 
 10 C       -5.5700    -0.5030     2.2240 C.ar  1 <1>  -0.1500 
 11 C       -6.7230    -2.6060     1.4100 C.3   1 <1>   0.4870 
 12 N       -8.1130    -2.2610     0.9720 N.4   1 <1>  -0.9590 
 13 C       -8.1570    -1.8690    -0.4670 C.3   1 <1>   0.3430 
 14 C       -8.6910    -1.1690     1.8070 C.3   1 <1>   0.3430 
 15 C       -9.6000    -1.6310    -0.9040 C.3   1 <1>  -0.1600 
 16 C      -10.1450    -0.9360     1.4160 C.3   1 <1>  -0.1600 
 17 C      -10.2680    -0.5260    -0.0610 C.3   1 <1>   0.2800 
 18 O       -9.4630     0.6200    -0.1930 O.3   1 <1>  -0.5600 
 19 C      -11.7690    -0.2550    -0.4420 C.3   1 <1>   0.2000 
 20 C       -9.7950     1.5370    -1.1900 C.3   1 <1>   0.1200 
 21 O      -12.0250    -0.6200    -1.7740 O.3   1 <1>  -0.6800 
 22 C      -12.1690     1.2310    -0.2190 C.3   1 <1>   0.2800 
 23 C      -11.1640     2.1790    -0.9040 C.3   1 <1>  -0.1600 
 24 O      -12.1350     1.4950     1.1360 O.3   1 <1>  -0.6800 
 25 C      -13.6110     1.5400    -0.6390 C.3   1 <1>  -0.2400 
 26 H       -1.9800     1.0590    -0.9770 H     1 <1>   0.0800 
 27 H       -5.1870    -2.0090    -0.7750 H     1 <1>   0.1500 
 28 H       -3.4020     1.5700     0.7080 H     1 <1>   0.1500 
 29 H       -4.5720     1.2920     2.8120 H     1 <1>   0.1500 
 30 H       -6.0730    -0.5940     3.1710 H     1 <1>   0.1500 
 31 H       -6.7280    -2.8870     2.4500 H     1 <1>   0.0800 
 32 H       -6.3630    -3.4490     0.8430 H     1 <1>   0.0800 
 33 H       -8.7020    -3.0930     1.0910 H     1 <1>   0.4500 
 34 H       -7.5960    -0.9590    -0.6120 H     1 <1>   0.0800 
 35 H       -7.7180    -2.6410    -1.0780 H     1 <1>   0.0800 
 36 H       -8.6350    -1.4270     2.8520 H     1 <1>   0.0800 
 37 H       -8.1360    -0.2560     1.6500 H     1 <1>   0.0800 
 38 H      -10.1620    -2.5450    -0.8280 H     1 <1>   0.0800 
 39 H       -9.5940    -1.3500    -1.9410 H     1 <1>   0.0800 
 40 H      -10.5370    -0.1610     2.0470 H     1 <1>   0.0800 
 41 H      -10.7230    -1.8220     1.6090 H     1 <1>   0.0800 
 42 H      -12.4080    -0.8830     0.1530 H     1 <1>   0.0800 
 43 H       -9.0280     2.2920    -1.2140 H     1 <1>   0.0800 
 44 H       -9.7960     1.0230    -2.1360 H     1 <1>   0.0800 
 45 H      -11.7130     0.0760    -2.3830 H     1 <1>   0.4000 
 46 H      -11.5590     2.5020    -1.8500 H     1 <1>   0.0800 
 47 H      -11.0230     3.0670    -0.3140 H     1 <1>   0.0800 
 48 H      -12.4410     2.4070     1.2990 H     1 <1>   0.4000 
 49 H      -13.7410     1.3780    -1.6940 H     1 <1>   0.0800 
 50 H      -13.8620     2.5640    -0.4280 H     1 <1>   0.0800 
 51 H      -14.2950     0.8920    -0.1200 H     1 <1>   0.0800 
@<TRIPOS>BOND
  1   1   2  1   
  2   2   3  1   
  3   2   4  1   
  4   2  26  1   
  5   4   5  1   
  6   5   6  ar  
  7   5   7  ar  
  8   6   8  ar  
  9   6  27  1   
 10   7   9  ar  
 11   7  28  1   
 12   8  10  ar  
 13   8  11  1   
 14   9  10  ar  
 15   9  29  1   
 16  10  30  1   
 17  11  12  1   
 18  11  31  1   
 19  11  32  1   
 20  12  13  1   
 21  12  14  1   
 22  12  33  1   
 23  13  15  1   
 24  13  34  1   
 25  13  35  1   
 26  14  16  1   
 27  14  36  1   
 28  14  37  1   
 29  15  17  1   
 30  15  38  1   
 31  15  39  1   
 32  16  17  1   
 33  16  40  1   
 34  16  41  1   
 35  17  18  1   
 36  17  19  1   
 37  18  20  1   
 38  19  21  1   
 39  19  22  1   
 40  19  42  1   
 41  20  23  1   
 42  20  43  1   
 43  20  44  1   
 44  21  45  1   
 45  22  23  1   
 46  22  24  1   
 47  22  25  1   
 48  23  46  1   
 49  23  47  1   
 50  24  48  1   
 51  25  49  1   
 52  25  50  1   
 53  25  51  1   
@<TRIPOS>SUBSTRUCTURE
  1 ****  18 GROUP 4 **** **** 0

# MOE 2024.06 (io_trps.svl 2023.06)
