@<TRIPOS>MOLECULE
NONAME
52 54 1 0 0 
SMALL
USER_CHARGES


@<TRIPOS>ATOM
  1 CL      -0.7180    -1.2570    -2.4740 Cl    1 <1>  -0.1770 
  2 C        0.7010    -1.8460    -1.6410 C.ar  1 <1>   0.1770 
  3 C        0.5940    -2.4880    -0.4080 C.ar  1 <1>  -0.1440 
  4 C        1.9240    -1.6610    -2.2580 C.ar  1 <1>  -0.1500 
  5 C        1.7530    -2.9480     0.2090 C.ar  1 <1>  -0.1500 
  6 C       -0.7460    -2.7160     0.2960 C.3   1 <1>   0.0450 
  7 C        3.0500    -2.1330    -1.6160 C.ar  1 <1>   0.1900 
  8 C        2.9890    -2.7740    -0.3930 C.ar  1 <1>  -0.1500 
  9 C       -0.9700    -4.1880     0.6100 C.2   1 <1>   0.5690 
 10 F        4.2130    -1.9710    -2.1850 F     1 <1>  -0.1900 
 11 O       -0.8620    -4.5270     1.7640 O.2   1 <1>  -0.5700 
 12 N       -1.2520    -5.0860    -0.3850 N.am  1 <1>  -0.6600 
 13 C       -1.2430    -6.5600    -0.0900 C.3   1 <1>   0.3640 
 14 C       -1.5230    -4.6990    -1.8070 C.3   1 <1>   0.1400 
 15 C        0.1420    -7.1800    -0.3550 C.ar  1 <1>  -0.1430 
 16 C       -2.3640    -7.3230    -0.8690 C.3   1 <1>   0.2000 
 17 C       -1.8310    -5.9110    -2.6990 C.3   1 <1>   0.1200 
 18 C        0.3640    -8.4820     0.0780 C.ar  1 <1>  -0.1500 
 19 C        1.1860    -6.5100    -0.9890 C.ar  1 <1>  -0.1500 
 20 O       -2.7800    -6.7110    -2.0710 O.3   1 <1>  -0.5600 
 21 C       -3.6220    -7.4930    -0.0080 C.3   1 <1>   0.1200 
 22 C        1.5760    -9.1150    -0.1330 C.ar  1 <1>   0.0830 
 23 C        2.4090    -7.1260    -1.1880 C.ar  1 <1>  -0.1500 
 24 O       -3.3870    -8.4120     1.0110 O.3   1 <1>  -0.6800 
 25 O        1.6840   -10.4030     0.2790 O.3   1 <1>  -0.3630 
 26 C        2.6200    -8.4210    -0.7520 C.ar  1 <1>   0.0830 
 27 C        1.9110   -11.3710    -0.7220 C.3   1 <1>   0.0400 
 28 O        3.8520    -8.9530    -0.9420 O.3   1 <1>  -0.3630 
 29 C        4.6050    -9.2010     0.2250 C.3   1 <1>   0.0400 
 30 H        1.9990    -1.1640    -3.2070 H     1 <1>   0.1500 
 31 H        1.6980    -3.4490     1.1630 H     1 <1>   0.1500 
 32 H       -1.5790    -2.3540    -0.2740 H     1 <1>   0.0800 
 33 H       -0.7420    -2.1690     1.2210 H     1 <1>   0.0800 
 34 H        3.8890    -3.1300     0.0760 H     1 <1>   0.1500 
 35 H       -1.4290    -6.7030     0.9610 H     1 <1>   0.0800 
 36 H       -2.3660    -4.0310    -1.8360 H     1 <1>   0.0800 
 37 H       -0.6720    -4.1840    -2.2140 H     1 <1>   0.0800 
 38 H       -2.0100    -8.3010    -1.1390 H     1 <1>   0.0800 
 39 H       -0.9480    -6.4960    -2.8900 H     1 <1>   0.0800 
 40 H       -2.2400    -5.5860    -3.6390 H     1 <1>   0.0800 
 41 H       -0.4100    -9.0260     0.5890 H     1 <1>   0.1500 
 42 H        1.0740    -5.4980    -1.3280 H     1 <1>   0.1500 
 43 H       -4.4420    -7.8560    -0.6020 H     1 <1>   0.0800 
 44 H       -3.8910    -6.5550     0.4450 H     1 <1>   0.0800 
 45 H        3.2110    -6.6000    -1.6740 H     1 <1>   0.1500 
 46 H       -3.4350    -9.3280     0.6730 H     1 <1>   0.4000 
 47 H        1.8230   -12.3440    -0.2750 H     1 <1>   0.0800 
 48 H        2.8980   -11.2430    -1.1260 H     1 <1>   0.0800 
 49 H        1.1730   -11.2510    -1.4950 H     1 <1>   0.0800 
 50 H        5.5820    -9.5390    -0.0700 H     1 <1>   0.0800 
 51 H        4.1160    -9.9590     0.8110 H     1 <1>   0.0800 
 52 H        4.6840    -8.2880     0.7880 H     1 <1>   0.0800 
@<TRIPOS>BOND
  1   1   2  1   
  2   2   3  ar  
  3   2   4  ar  
  4   3   5  ar  
  5   3   6  1   
  6   4   7  ar  
  7   4  30  1   
  8   5   8  ar  
  9   5  31  1   
 10   6   9  1   
 11   6  32  1   
 12   6  33  1   
 13   7   8  ar  
 14   7  10  1   
 15   8  34  1   
 16   9  11  2   
 17   9  12  am  
 18  12  13  1   
 19  12  14  1   
 20  13  15  1   
 21  13  16  1   
 22  13  35  1   
 23  14  17  1   
 24  14  36  1   
 25  14  37  1   
 26  15  18  ar  
 27  15  19  ar  
 28  16  20  1   
 29  16  21  1   
 30  16  38  1   
 31  17  20  1   
 32  17  39  1   
 33  17  40  1   
 34  18  22  ar  
 35  18  41  1   
 36  19  23  ar  
 37  19  42  1   
 38  21  24  1   
 39  21  43  1   
 40  21  44  1   
 41  22  25  1   
 42  22  26  ar  
 43  23  26  ar  
 44  23  45  1   
 45  24  46  1   
 46  25  27  1   
 47  26  28  1   
 48  27  47  1   
 49  27  48  1   
 50  27  49  1   
 51  28  29  1   
 52  29  50  1   
 53  29  51  1   
 54  29  52  1   
@<TRIPOS>SUBSTRUCTURE
  1 ****  19 GROUP 4 **** **** 0

# MOE 2024.06 (io_trps.svl 2023.06)
