@<TRIPOS>MOLECULE
NONAME
33 34 1 0 0 
SMALL
USER_CHARGES


@<TRIPOS>ATOM
  1 O       -0.0630    -0.9360     1.4300 O.2   1 <1>  -0.5700 
  2 C       -0.0820    -1.8490     0.6310 C.2   1 <1>   0.5440 
  3 N       -1.3090    -2.1900     0.1760 N.am  1 <1>  -0.8000 
  4 C        1.1400    -2.4940     0.1930 C.ar  1 <1>   0.0860 
  5 C        1.1990    -3.8140    -0.3020 C.ar  1 <1>   0.4100 
  6 C        2.3350    -1.7890     0.2560 C.ar  1 <1>  -0.1500 
  7 N        2.3280    -4.3890    -0.7210 N.ar  1 <1>  -0.6200 
  8 N        0.0690    -4.6160    -0.3550 N.3   1 <1>  -0.5900 
  9 C        3.5010    -2.3840    -0.1700 C.ar  1 <1>  -0.1430 
 10 C        3.4380    -3.6850    -0.6550 C.ar  1 <1>   0.1670 
 11 C       -0.0380    -5.7430     0.6310 C.3   1 <1>   0.2450 
 12 C       -0.1300    -5.6330    -1.4580 C.3   1 <1>   0.2450 
 13 C        4.8060    -1.6020    -0.0930 C.3   1 <1>  -0.0970 
 14 C        4.6840    -4.3980    -1.1480 C.3   1 <1>  -0.0970 
 15 C       -0.8450    -6.5240    -0.4260 C.3   1 <1>   0.0000 
 16 C       -0.8240    -5.3310     1.8720 C.3   1 <1>  -0.2400 
 17 H       -2.1330    -1.7420     0.5740 H     1 <1>   0.3700 
 18 H       -1.4400    -3.0730    -0.3250 H     1 <1>   0.3700 
 19 H        2.3360    -0.7820     0.6370 H     1 <1>   0.1500 
 20 H        0.9230    -6.1800     0.8440 H     1 <1>   0.0000 
 21 H        0.7910    -6.0580    -1.8190 H     1 <1>   0.0000 
 22 H       -0.7790    -5.2670    -2.2330 H     1 <1>   0.0000 
 23 H        4.6640    -0.6670     0.4180 H     1 <1>   0.0800 
 24 H        5.1700    -1.3940    -1.0830 H     1 <1>   0.0800 
 25 H        5.5480    -2.1670     0.4440 H     1 <1>   0.0800 
 26 H        4.4170    -5.2980    -1.6730 H     1 <1>   0.0800 
 27 H        5.3040    -4.6630    -0.3110 H     1 <1>   0.0800 
 28 H        5.2370    -3.7700    -1.8200 H     1 <1>   0.0800 
 29 H       -1.9070    -6.3490    -0.3860 H     1 <1>   0.0000 
 30 H       -0.5860    -7.5660    -0.4940 H     1 <1>   0.0000 
 31 H       -1.7560    -4.8700     1.6000 H     1 <1>   0.0800 
 32 H       -0.2430    -4.6400     2.4550 H     1 <1>   0.0800 
 33 H       -1.0280    -6.1970     2.4740 H     1 <1>   0.0800 
@<TRIPOS>BOND
  1   1   2  2   
  2   2   3  am  
  3   2   4  1   
  4   3  17  1   
  5   3  18  1   
  6   4   5  ar  
  7   4   6  ar  
  8   5   7  ar  
  9   5   8  1   
 10   6   9  ar  
 11   6  19  1   
 12   7  10  ar  
 13   8  11  1   
 14   8  12  1   
 15   9  10  ar  
 16   9  13  1   
 17  10  14  1   
 18  11  15  1   
 19  11  16  1   
 20  11  20  1   
 21  12  15  1   
 22  12  21  1   
 23  12  22  1   
 24  13  23  1   
 25  13  24  1   
 26  13  25  1   
 27  14  26  1   
 28  14  27  1   
 29  14  28  1   
 30  15  29  1   
 31  15  30  1   
 32  16  31  1   
 33  16  32  1   
 34  16  33  1   
@<TRIPOS>SUBSTRUCTURE
  1 ****   5 GROUP 4 **** **** 0

# MOE 2024.06 (io_trps.svl 2023.06)
