@<TRIPOS>MOLECULE
NONAME
40 42 1 0 0 
SMALL
USER_CHARGES


@<TRIPOS>ATOM
  1 S       -0.1440     0.5480    -0.2470 S.3   1 <1>  -0.0800 
  2 C        1.4680     1.2430    -0.2440 C.2   1 <1>  -0.1400 
  3 C        0.4500    -0.9920     0.3460 C.2   1 <1>  -0.1400 
  4 C        2.3630     0.3260     0.1840 C.2   1 <1>  -0.1500 
  5 C        1.5100     2.6880    -0.7130 C.3   1 <1>   0.5230 
  6 C        1.7830    -0.9380     0.5180 C.2   1 <1>  -0.1500 
  7 C       -0.5880    -2.0820     0.5560 C.3   1 <1>   0.0200 
  8 N        2.8640     3.3020    -0.5670 N.4   1 <1>  -0.9590 
  9 C        0.0340    -3.3810     1.0760 C.3   1 <1>  -0.2400 
 10 C        3.3110     3.3540     0.8740 C.3   1 <1>   0.3430 
 11 C        3.8460     2.7130    -1.5440 C.3   1 <1>   0.3430 
 12 C        4.4240     4.4030     1.1520 C.3   1 <1>   0.2200 
 13 C        5.2590     3.2940    -1.4410 C.3   1 <1>  -0.0190 
 14 N        4.6890     5.2670    -0.0410 N.am  1 <1>  -0.7300 
 15 C        5.7170     3.7120     1.6390 C.3   1 <1>   0.1200 
 16 C        5.1610     4.7920    -1.2190 C.2   1 <1>   0.5690 
 17 C        6.1270     2.5310    -0.4150 C.3   1 <1>   0.1200 
 18 O        6.5870     3.3610     0.6020 O.3   1 <1>  -0.5600 
 19 O        5.4020     5.5420    -2.1240 O.2   1 <1>  -0.5700 
 20 H        3.4240     0.4480     0.2920 H     1 <1>   0.1500 
 21 H        0.7970     3.2530    -0.1350 H     1 <1>   0.0800 
 22 H        1.1990     2.7290    -1.7440 H     1 <1>   0.0800 
 23 H        2.3960    -1.7500     0.8720 H     1 <1>   0.1500 
 24 H       -1.3240    -1.7350     1.2600 H     1 <1>   0.0800 
 25 H       -1.0870    -2.2760    -0.3770 H     1 <1>   0.0800 
 26 H        2.7780     4.2960    -0.8390 H     1 <1>   0.4500 
 27 H        0.5190    -3.2120     2.0210 H     1 <1>   0.0800 
 28 H        0.7560    -3.7570     0.3730 H     1 <1>   0.0800 
 29 H       -0.7310    -4.1250     1.2110 H     1 <1>   0.0800 
 30 H        2.4660     3.6060     1.4940 H     1 <1>   0.0800 
 31 H        3.6470     2.3810     1.1920 H     1 <1>   0.0800 
 32 H        3.8930     1.6430    -1.4280 H     1 <1>   0.0800 
 33 H        3.4860     2.9080    -2.5420 H     1 <1>   0.0800 
 34 H        4.0760     5.0260     1.9580 H     1 <1>   0.0800 
 35 H        5.7220     3.1380    -2.3990 H     1 <1>   0.0800 
 36 H        4.8310     6.2710     0.1170 H     1 <1>   0.3700 
 37 H        5.5060     2.8330     2.2240 H     1 <1>   0.0800 
 38 H        6.2600     4.3950     2.2700 H     1 <1>   0.0800 
 39 H        7.0040     2.1540    -0.9140 H     1 <1>   0.0800 
 40 H        5.6140     1.6940     0.0250 H     1 <1>   0.0800 
@<TRIPOS>BOND
  1   1   2  1   
  2   1   3  1   
  3   2   4  2   
  4   2   5  1   
  5   3   6  2   
  6   3   7  1   
  7   4   6  1   
  8   4  20  1   
  9   5   8  1   
 10   5  21  1   
 11   5  22  1   
 12   6  23  1   
 13   7   9  1   
 14   7  24  1   
 15   7  25  1   
 16   8  10  1   
 17   8  11  1   
 18   8  26  1   
 19   9  27  1   
 20   9  28  1   
 21   9  29  1   
 22  10  12  1   
 23  10  30  1   
 24  10  31  1   
 25  11  13  1   
 26  11  32  1   
 27  11  33  1   
 28  12  14  1   
 29  12  15  1   
 30  12  34  1   
 31  13  16  1   
 32  13  17  1   
 33  13  35  1   
 34  14  16  am  
 35  14  36  1   
 36  15  18  1   
 37  15  37  1   
 38  15  38  1   
 39  16  19  2   
 40  17  18  1   
 41  17  39  1   
 42  17  40  1   
@<TRIPOS>SUBSTRUCTURE
  1 ****   8 GROUP 4 **** **** 0

# MOE 2024.06 (io_trps.svl 2023.06)
