@<TRIPOS>MOLECULE
NONAME
52 54 1 0 0 
SMALL
USER_CHARGES


@<TRIPOS>ATOM
  1 O        0.1280    -0.0300    -0.0710 O.2   1 <1>  -0.5700 
  2 C        1.0210    -0.8150    -0.3280 C.2   1 <1>   0.5440 
  3 N        2.3270    -0.3710    -0.3620 N.am  1 <1>  -0.6600 
  4 C        0.6620    -2.1970    -0.5810 C.ar  1 <1>   0.0860 
  5 C        3.5140    -1.2630    -0.2350 C.3   1 <1>   0.1400 
  6 C        2.6550     1.0830    -0.3230 C.3   1 <1>   0.1400 
  7 C       -0.1640    -2.9020     0.2730 C.ar  1 <1>  -0.1500 
  8 C        1.0900    -2.9010    -1.6990 C.ar  1 <1>  -0.1500 
  9 C        4.2590    -0.9500     1.0680 C.3   1 <1>  -0.1600 
 10 C        3.3880     1.4140     0.9800 C.3   1 <1>  -0.1600 
 11 C       -0.5080    -4.2180     0.0080 C.ar  1 <1>   0.4100 
 12 C        0.6940    -4.2090    -1.8860 C.ar  1 <1>   0.1600 
 13 C        4.6330     0.5360     1.1670 C.3   1 <1>  -0.1600 
 14 N       -0.0970    -4.8830    -1.0640 N.ar  1 <1>  -0.6200 
 15 N       -1.3350    -4.8920     0.8800 N.pl3 1 <1>  -0.8690 
 16 C       -1.3080    -6.3930     0.9520 C.3   1 <1>   0.2090 
 17 C       -1.9100    -7.1320    -0.2820 C.3   1 <1>   0.6030 
 18 N       -3.2730    -6.6680    -0.7300 N.4   1 <1>  -0.9590 
 19 C       -2.0290    -8.6300    -0.0290 C.2   1 <1>  -0.0400 
 20 C       -3.1790    -5.4260    -1.5530 C.3   1 <1>   0.2630 
 21 C       -4.2480    -6.5120     0.3880 C.3   1 <1>   0.2630 
 22 O       -2.6410    -9.3550    -0.9510 O.3   1 <1>  -0.2800 
 23 C       -1.6270    -9.4220     0.9940 C.2   1 <1>  -0.1500 
 24 C       -2.6390   -10.6090    -0.5450 C.2   1 <1>  -0.0100 
 25 C       -2.0290   -10.7190     0.6520 C.2   1 <1>  -0.1500 
 26 H        4.1660    -1.1000    -1.0760 H     1 <1>   0.0800 
 27 H        3.2240    -2.2980    -0.2290 H     1 <1>   0.0800 
 28 H        1.7610     1.6790    -0.3970 H     1 <1>   0.0800 
 29 H        3.2810     1.3220    -1.1650 H     1 <1>   0.0800 
 30 H       -0.5460    -2.4120     1.1490 H     1 <1>   0.1500 
 31 H        1.7260    -2.4170    -2.4180 H     1 <1>   0.1500 
 32 H        5.1510    -1.5490     1.1210 H     1 <1>   0.0800 
 33 H        3.6320    -1.2200     1.9000 H     1 <1>   0.0800 
 34 H        2.7090     1.2660     1.8030 H     1 <1>   0.0800 
 35 H        3.6730     2.4510     0.9740 H     1 <1>   0.0800 
 36 H        1.0450    -4.7300    -2.7620 H     1 <1>   0.1500 
 37 H        5.3560     0.7750     0.4060 H     1 <1>   0.0800 
 38 H        5.0790     0.7360     2.1260 H     1 <1>   0.0800 
 39 H       -1.3860    -4.4450     1.8020 H     1 <1>   0.4000 
 40 H       -1.8350    -6.7040     1.8360 H     1 <1>   0.0800 
 41 H       -0.2850    -6.7120     1.0640 H     1 <1>   0.0800 
 42 H       -1.2240    -7.0080    -1.1030 H     1 <1>   0.0800 
 43 H       -3.5920    -7.4460    -1.3300 H     1 <1>   0.4500 
 44 H       -2.8900    -4.5890    -0.9390 H     1 <1>   0.0800 
 45 H       -4.1290    -5.2040    -2.0100 H     1 <1>   0.0800 
 46 H       -2.4400    -5.5450    -2.3290 H     1 <1>   0.0800 
 47 H       -3.9360    -5.7150     1.0430 H     1 <1>   0.0800 
 48 H       -4.3150    -7.4270     0.9550 H     1 <1>   0.0800 
 49 H       -5.2250    -6.2760    -0.0010 H     1 <1>   0.0800 
 50 H       -1.1040    -9.1760     1.9020 H     1 <1>   0.1500 
 51 H       -3.0920   -11.3640    -1.1680 H     1 <1>   0.1500 
 52 H       -1.8660   -11.6040     1.2450 H     1 <1>   0.1500 
@<TRIPOS>BOND
  1   1   2  2   
  2   2   3  am  
  3   2   4  1   
  4   3   5  1   
  5   3   6  1   
  6   4   7  ar  
  7   4   8  ar  
  8   5   9  1   
  9   5  26  1   
 10   5  27  1   
 11   6  10  1   
 12   6  28  1   
 13   6  29  1   
 14   7  11  ar  
 15   7  30  1   
 16   8  12  ar  
 17   8  31  1   
 18   9  13  1   
 19   9  32  1   
 20   9  33  1   
 21  10  13  1   
 22  10  34  1   
 23  10  35  1   
 24  11  14  ar  
 25  11  15  1   
 26  12  14  ar  
 27  12  36  1   
 28  13  37  1   
 29  13  38  1   
 30  15  16  1   
 31  15  39  1   
 32  16  17  1   
 33  16  40  1   
 34  16  41  1   
 35  17  18  1   
 36  17  19  1   
 37  17  42  1   
 38  18  20  1   
 39  18  21  1   
 40  18  43  1   
 41  19  22  1   
 42  19  23  2   
 43  20  44  1   
 44  20  45  1   
 45  20  46  1   
 46  21  47  1   
 47  21  48  1   
 48  21  49  1   
 49  22  24  1   
 50  23  25  1   
 51  23  50  1   
 52  24  25  2   
 53  24  51  1   
 54  25  52  1   
@<TRIPOS>SUBSTRUCTURE
  1 ****  11 GROUP 4 **** **** 0

# MOE 2024.06 (io_trps.svl 2023.06)
