@<TRIPOS>MOLECULE
NONAME
46 47 1 0 0 
SMALL
USER_CHARGES


@<TRIPOS>ATOM
  1 O       -0.2000     0.8730     1.2920 O.2   1 <1>  -0.5700 
  2 C        0.6310     0.7830     0.4110 C.2   1 <1>   0.5440 
  3 N        0.7240     1.8430    -0.4390 N.am  1 <1>  -0.7300 
  4 C        1.4760    -0.3770     0.2950 C.ar  1 <1>   0.0860 
  5 C        1.5860     1.9900    -1.6380 C.3   1 <1>   0.0600 
  6 C        0.9710    -1.6120    -0.1530 C.ar  1 <1>   0.4100 
  7 C        2.8200    -0.3070     0.6310 C.ar  1 <1>  -0.1500 
  8 N        1.7000    -2.7240    -0.2480 N.ar  1 <1>  -0.6200 
  9 N       -0.3460    -1.7760    -0.5360 N.pl3 1 <1>  -0.8380 
 10 C        3.5780    -1.4490     0.5140 C.ar  1 <1>  -0.1500 
 11 C        2.9750    -2.6150     0.0760 C.ar  1 <1>   0.1600 
 12 C       -1.3740    -1.8780     0.5300 C.3   1 <1>   0.2090 
 13 C       -0.7980    -1.1500    -1.8090 C.3   1 <1>   0.1290 
 14 C       -1.9580    -3.2900     0.5170 C.3   1 <1>  -0.1600 
 15 C       -0.8210    -4.3100     0.4930 C.3   1 <1>   0.3430 
 16 N       -1.3370    -5.7040     0.4780 N.4   1 <1>  -0.9590 
 17 C       -1.9310    -6.1160     1.7950 C.3   1 <1>   0.3430 
 18 C       -0.2220    -6.6340     0.0950 C.3   1 <1>   0.3430 
 19 C       -2.2990    -7.6130     1.8030 C.3   1 <1>   0.1200 
 20 C       -0.6620    -8.1080     0.1780 C.3   1 <1>   0.1200 
 21 O       -1.1920    -8.3890     1.4420 O.3   1 <1>  -0.5600 
 22 H        0.1010     2.6250    -0.2180 H     1 <1>   0.3700 
 23 H        2.1160     1.0770    -1.8430 H     1 <1>   0.0800 
 24 H        2.2990     2.7800    -1.4770 H     1 <1>   0.0800 
 25 H        0.9770     2.2360    -2.4920 H     1 <1>   0.0800 
 26 H        3.2480     0.6180     0.9770 H     1 <1>   0.1500 
 27 H        4.6250    -1.4420     0.7600 H     1 <1>   0.1500 
 28 H        3.5810    -3.5010    -0.0100 H     1 <1>   0.1500 
 29 H       -2.1460    -1.1410     0.3800 H     1 <1>   0.0800 
 30 H       -0.9180    -1.6830     1.4870 H     1 <1>   0.0800 
 31 H        0.0370    -1.0370    -2.4790 H     1 <1>   0.0800 
 32 H       -1.2230    -0.1790    -1.6150 H     1 <1>   0.0800 
 33 H       -1.5370    -1.7720    -2.2820 H     1 <1>   0.0800 
 34 H       -2.5690    -3.3990    -0.3600 H     1 <1>   0.0800 
 35 H       -2.5690    -3.4080     1.3920 H     1 <1>   0.0800 
 36 H       -0.1700    -4.1570     1.3390 H     1 <1>   0.0800 
 37 H       -0.2360    -4.1410    -0.3980 H     1 <1>   0.0800 
 38 H       -2.0610    -5.7660    -0.2480 H     1 <1>   0.4500 
 39 H       -2.8120    -5.5320     2.0030 H     1 <1>   0.0800 
 40 H       -1.2210    -5.9370     2.5850 H     1 <1>   0.0800 
 41 H        0.6140    -6.4910     0.7590 H     1 <1>   0.0800 
 42 H        0.1130    -6.4140    -0.9060 H     1 <1>   0.0800 
 43 H       -3.1050    -7.8200     1.1210 H     1 <1>   0.0800 
 44 H       -2.6000    -7.9150     2.7910 H     1 <1>   0.0800 
 45 H        0.1850    -8.7560     0.0280 H     1 <1>   0.0800 
 46 H       -1.4030    -8.3360    -0.5680 H     1 <1>   0.0800 
@<TRIPOS>BOND
  1   1   2  2   
  2   2   3  am  
  3   2   4  1   
  4   3   5  1   
  5   3  22  1   
  6   4   6  ar  
  7   4   7  ar  
  8   5  23  1   
  9   5  24  1   
 10   5  25  1   
 11   6   8  ar  
 12   6   9  1   
 13   7  10  ar  
 14   7  26  1   
 15   8  11  ar  
 16   9  12  1   
 17   9  13  1   
 18  10  11  ar  
 19  10  27  1   
 20  11  28  1   
 21  12  14  1   
 22  12  29  1   
 23  12  30  1   
 24  13  31  1   
 25  13  32  1   
 26  13  33  1   
 27  14  15  1   
 28  14  34  1   
 29  14  35  1   
 30  15  16  1   
 31  15  36  1   
 32  15  37  1   
 33  16  17  1   
 34  16  18  1   
 35  16  38  1   
 36  17  19  1   
 37  17  39  1   
 38  17  40  1   
 39  18  20  1   
 40  18  41  1   
 41  18  42  1   
 42  19  21  1   
 43  19  43  1   
 44  19  44  1   
 45  20  21  1   
 46  20  45  1   
 47  20  46  1   
@<TRIPOS>SUBSTRUCTURE
  1 ****   9 GROUP 4 **** **** 0

# MOE 2024.06 (io_trps.svl 2023.06)
