@<TRIPOS>MOLECULE
NONAME
43 46 1 0 0 
SMALL
USER_CHARGES


@<TRIPOS>ATOM
  1 O       -0.9490     0.1640    -0.8480 O.2   1 <1>  -0.5700 
  2 C       -1.0440     0.1550     0.3680 C.2   1 <1>   0.7160 
  3 N       -1.3570    -1.0330     0.9660 N.am  1 <1>  -0.7300 
  4 C       -0.8670     1.3330     1.1550 C.2   1 <1>  -0.0860 
  5 C       -1.5750    -2.3190     0.2620 C.3   1 <1>   0.2200 
  6 C       -0.7780     2.6520     0.7810 C.2   1 <1>  -0.0680 
  7 C       -0.7470     1.4050     2.5530 C.2   1 <1>   0.1390 
  8 C       -3.0600    -2.6220     0.1070 C.3   1 <1>  -0.0800 
  9 C       -1.1580    -3.4520     1.1880 C.3   1 <1>   0.1200 
 10 N       -0.6260     3.3770     1.9000 N.pl3 1 <1>   0.6010 
 11 N       -0.7910     3.4960    -0.3130 N.pl3 1 <1>  -0.5530 
 12 N       -0.6080     2.6100     3.0170 N.2   1 <1>  -0.7070 
 13 C       -3.4240    -3.2670     1.4510 C.3   1 <1>   0.1200 
 14 C       -3.9590    -1.4360    -0.2910 C.3   1 <1>  -0.0160 
 15 O       -2.2190    -3.5870     2.0840 O.3   1 <1>  -0.5600 
 16 C       -0.5370     4.7070     1.5360 C.2   1 <1>  -0.1810 
 17 C       -0.6360     4.7780     0.1920 C.2   1 <1>  -0.0500 
 18 C       -0.8920     3.0960    -1.7330 C.3   1 <1>   0.1290 
 19 C       -5.3990    -1.8860    -0.4820 C.ar  1 <1>  -0.1440 
 20 C       -5.8150    -2.5140    -1.6390 C.ar  1 <1>  -0.1500 
 21 C       -6.3630    -1.6920     0.4860 C.ar  1 <1>  -0.1500 
 22 C       -7.1350    -2.9120    -1.7650 C.ar  1 <1>   0.1600 
 23 C       -7.6580    -2.1290     0.2600 C.ar  1 <1>   0.1600 
 24 N       -8.0660    -2.7370    -0.8410 N.ar  1 <1>  -0.6200 
 25 H       -1.5680    -1.0700     1.9630 H     1 <1>   0.3700 
 26 H       -1.0430    -2.3400    -0.6750 H     1 <1>   0.0800 
 27 H       -0.7630     0.5440     3.1990 H     1 <1>   0.1500 
 28 H       -3.1600    -3.3830    -0.6470 H     1 <1>   0.0800 
 29 H       -0.2500    -3.2440     1.7250 H     1 <1>   0.0800 
 30 H       -1.0620    -4.3770     0.6450 H     1 <1>   0.0800 
 31 H       -4.0010    -4.1670     1.3170 H     1 <1>   0.0800 
 32 H       -3.9570    -2.5860     2.0910 H     1 <1>   0.0800 
 33 H       -3.5960    -1.0050    -1.2090 H     1 <1>   0.0800 
 34 H       -3.9260    -0.6680     0.4610 H     1 <1>   0.0800 
 35 H       -0.4110     5.4650     2.2830 H     1 <1>   0.1500 
 36 H       -0.6070     5.6440    -0.4500 H     1 <1>   0.1500 
 37 H       -0.8970     3.9670    -2.3630 H     1 <1>   0.0800 
 38 H       -1.8000     2.5400    -1.8850 H     1 <1>   0.0800 
 39 H       -0.0530     2.4730    -1.9900 H     1 <1>   0.0800 
 40 H       -5.1260    -2.6970    -2.4430 H     1 <1>   0.1500 
 41 H       -6.1220    -1.2060     1.4140 H     1 <1>   0.1500 
 42 H       -7.4420    -3.4010    -2.6740 H     1 <1>   0.1500 
 43 H       -8.3970    -1.9700     1.0270 H     1 <1>   0.1500 
@<TRIPOS>BOND
  1   1   2  2   
  2   2   3  am  
  3   2   4  1   
  4   3   5  1   
  5   3  25  1   
  6   4   6  2   
  7   4   7  1   
  8   5   8  1   
  9   5   9  1   
 10   5  26  1   
 11   6  10  1   
 12   6  11  1   
 13   7  12  2   
 14   7  27  1   
 15   8  13  1   
 16   8  14  1   
 17   8  28  1   
 18   9  15  1   
 19   9  29  1   
 20   9  30  1   
 21  10  12  1   
 22  10  16  1   
 23  11  17  1   
 24  11  18  1   
 25  13  15  1   
 26  13  31  1   
 27  13  32  1   
 28  14  19  1   
 29  14  33  1   
 30  14  34  1   
 31  16  17  2   
 32  16  35  1   
 33  17  36  1   
 34  18  37  1   
 35  18  38  1   
 36  18  39  1   
 37  19  20  ar  
 38  19  21  ar  
 39  20  22  ar  
 40  20  40  1   
 41  21  23  ar  
 42  21  41  1   
 43  22  24  ar  
 44  22  42  1   
 45  23  24  ar  
 46  23  43  1   
@<TRIPOS>SUBSTRUCTURE
  1 ****   3 GROUP 4 **** **** 0

# MOE 2024.06 (io_trps.svl 2023.06)
