@<TRIPOS>MOLECULE
NONAME
56 59 1 0 0 
SMALL
USER_CHARGES


@<TRIPOS>ATOM
  1 O        1.2990    -1.3470     0.0520 O.3   1 <1>  -0.5600 
  2 C        0.7440    -2.3350    -0.7890 C.3   1 <1>   0.4180 
  3 C        1.4370    -0.0550    -0.4810 C.3   1 <1>   0.1200 
  4 C       -0.4100    -1.7670    -1.6060 C.2   1 <1>  -0.2880 
  5 C        0.2340    -3.4400     0.1440 C.3   1 <1>  -0.1600 
  6 C        1.8520    -2.9050    -1.6800 C.3   1 <1>  -0.1600 
  7 C        0.0670     0.5350    -0.8380 C.3   1 <1>  -0.0220 
  8 C       -0.7420    -0.4750    -1.6290 C.2   1 <1>  -0.2760 
  9 C        1.3460    -4.3260     0.7180 C.3   1 <1>   0.3430 
 10 C        3.0350    -3.4450    -0.8680 C.3   1 <1>   0.3430 
 11 C       -1.9160     0.0980    -2.4050 C.3   1 <1>  -0.1020 
 12 N        2.6620    -3.6570     0.5660 N.4   1 <1>  -0.9590 
 13 C        3.7540    -4.2860     1.3720 C.3   1 <1>   0.5240 
 14 C        5.0090    -3.4230     1.3730 C.2   1 <1>   0.0460 
 15 N        5.8120    -3.3520     0.2920 N.2   1 <1>  -0.5650 
 16 C        5.5080    -2.6520     2.3500 C.2   1 <1>  -0.0400 
 17 C        6.7610    -2.5420     0.6600 C.2   1 <1>   0.4250 
 18 O        6.5970    -2.1050     1.8960 O.3   1 <1>  -0.2800 
 19 C        5.0730    -2.3260     3.7650 C.3   1 <1>  -0.0600 
 20 C        7.8970    -2.1050    -0.1240 C.ar  1 <1>   0.0530 
 21 C        8.1250    -2.6090    -1.4060 C.ar  1 <1>  -0.1500 
 22 C        8.8090    -1.1630     0.3620 C.ar  1 <1>  -0.1500 
 23 C        9.2020    -2.1920    -2.1650 C.ar  1 <1>  -0.1500 
 24 C        9.8890    -0.7410    -0.3920 C.ar  1 <1>  -0.1500 
 25 C       10.0920    -1.2550    -1.6690 C.ar  1 <1>   0.0830 
 26 O       11.1190    -0.8970    -2.4740 O.3   1 <1>  -0.3630 
 27 C       12.0830     0.0480    -2.0660 C.3   1 <1>   0.0400 
 28 H        2.0600    -0.1060    -1.3560 H     1 <1>   0.0800 
 29 H        1.9250     0.5600     0.2560 H     1 <1>   0.0800 
 30 H       -0.9470    -2.5140    -2.1640 H     1 <1>   0.1500 
 31 H       -0.4460    -4.0770    -0.3910 H     1 <1>   0.0800 
 32 H       -0.3300    -2.9900     0.9420 H     1 <1>   0.0800 
 33 H        2.1950    -2.1610    -2.3750 H     1 <1>   0.0800 
 34 H        1.4440    -3.7060    -2.2700 H     1 <1>   0.0800 
 35 H        0.2200     1.4270    -1.4190 H     1 <1>   0.0800 
 36 H       -0.4620     0.8070     0.0590 H     1 <1>   0.0800 
 37 H        1.3620    -5.2680     0.1940 H     1 <1>   0.0800 
 38 H        1.1410    -4.5200     1.7590 H     1 <1>   0.0800 
 39 H        3.8370    -2.7250    -0.9170 H     1 <1>   0.0800 
 40 H        3.3910    -4.3640    -1.3060 H     1 <1>   0.0800 
 41 H       -2.6010     0.5850    -1.7340 H     1 <1>   0.0800 
 42 H       -2.4450    -0.6820    -2.9230 H     1 <1>   0.0800 
 43 H       -1.5700     0.8140    -3.1290 H     1 <1>   0.0800 
 44 H        2.5200    -2.6920     0.9180 H     1 <1>   0.4500 
 45 H        3.9970    -5.2560     0.9730 H     1 <1>   0.0800 
 46 H        3.4220    -4.4110     2.3890 H     1 <1>   0.0800 
 47 H        4.1610    -2.8340     4.0180 H     1 <1>   0.0800 
 48 H        4.9200    -1.2660     3.8630 H     1 <1>   0.0800 
 49 H        5.8410    -2.6250     4.4570 H     1 <1>   0.0800 
 50 H        7.4500    -3.3400    -1.8140 H     1 <1>   0.1500 
 51 H        8.6710    -0.7530     1.3470 H     1 <1>   0.1500 
 52 H        9.3630    -2.5900    -3.1510 H     1 <1>   0.1500 
 53 H       10.5610    -0.0160     0.0270 H     1 <1>   0.1500 
 54 H       12.7910     0.1680    -2.8650 H     1 <1>   0.0800 
 55 H       12.5810    -0.3210    -1.1870 H     1 <1>   0.0800 
 56 H       11.5910     0.9840    -1.8680 H     1 <1>   0.0800 
@<TRIPOS>BOND
  1   1   2  1   
  2   1   3  1   
  3   2   4  1   
  4   2   5  1   
  5   2   6  1   
  6   3   7  1   
  7   3  28  1   
  8   3  29  1   
  9   4   8  2   
 10   4  30  1   
 11   5   9  1   
 12   5  31  1   
 13   5  32  1   
 14   6  10  1   
 15   6  33  1   
 16   6  34  1   
 17   7   8  1   
 18   7  35  1   
 19   7  36  1   
 20   8  11  1   
 21   9  12  1   
 22   9  37  1   
 23   9  38  1   
 24  10  12  1   
 25  10  39  1   
 26  10  40  1   
 27  11  41  1   
 28  11  42  1   
 29  11  43  1   
 30  12  13  1   
 31  12  44  1   
 32  13  14  1   
 33  13  45  1   
 34  13  46  1   
 35  14  15  1   
 36  14  16  2   
 37  15  17  2   
 38  16  18  1   
 39  16  19  1   
 40  17  18  1   
 41  17  20  1   
 42  19  47  1   
 43  19  48  1   
 44  19  49  1   
 45  20  21  ar  
 46  20  22  ar  
 47  21  23  ar  
 48  21  50  1   
 49  22  24  ar  
 50  22  51  1   
 51  23  25  ar  
 52  23  52  1   
 53  24  25  ar  
 54  24  53  1   
 55  25  26  1   
 56  26  27  1   
 57  27  54  1   
 58  27  55  1   
 59  27  56  1   
@<TRIPOS>SUBSTRUCTURE
  1 ****  15 GROUP 4 **** **** 0

# MOE 2024.06 (io_trps.svl 2023.06)
