@<TRIPOS>MOLECULE
NONAME
20 21 1 0 0 
SMALL
USER_CHARGES


@<TRIPOS>ATOM
  1 S       -0.1080     0.2740     0.0060 S.3   1 <1>  -0.0800 
  2 C       -0.9890    -1.2760     0.0040 C.2   1 <1>  -0.0450 
  3 C        1.4440    -0.5400     0.0050 C.2   1 <1>  -0.1400 
  4 C       -0.0600    -2.2680     0.0030 C.2   1 <1>   0.1360 
  5 C       -2.4210    -1.2860     0.0050 C.2   1 <1>   0.8050 
  6 C        1.3020    -1.8660     0.0030 C.2   1 <1>  -0.1810 
  7 C        2.8020     0.1030     0.0050 C.3   1 <1>   0.2500 
  8 F       -0.3440    -3.5400     0.0020 F     1 <1>  -0.1360 
  9 O       -3.0840    -2.3040     0.0040 O.2   1 <1>  -0.5700 
 10 O       -3.0580    -0.1080     0.0060 O.3   1 <1>  -0.4300 
 11 C        2.5760    -2.6760     0.0020 C.3   1 <1>   0.2510 
 12 S        3.8640    -1.3780     0.0030 S.3   1 <1>  -0.4600 
 13 C       -4.4700    -0.0220     0.0060 C.3   1 <1>   0.0400 
 14 H        3.0000     0.6680     0.8990 H     1 <1>   0.0800 
 15 H        2.9990     0.6700    -0.8870 H     1 <1>   0.0800 
 16 H        2.6890    -3.2680    -0.8890 H     1 <1>   0.0800 
 17 H        2.6900    -3.2700     0.8920 H     1 <1>   0.0800 
 18 H       -4.7480     1.0170     0.0080 H     1 <1>   0.0800 
 19 H       -4.8490    -0.5080     0.8890 H     1 <1>   0.0800 
 20 H       -4.8500    -0.5060    -0.8770 H     1 <1>   0.0800 
@<TRIPOS>BOND
  1   1   2  1   
  2   1   3  1   
  3   2   4  2   
  4   2   5  1   
  5   3   6  2   
  6   3   7  1   
  7   4   6  1   
  8   4   8  1   
  9   5   9  2   
 10   5  10  1   
 11   6  11  1   
 12   7  12  1   
 13   7  14  1   
 14   7  15  1   
 15  10  13  1   
 16  11  12  1   
 17  11  16  1   
 18  11  17  1   
 19  13  18  1   
 20  13  19  1   
 21  13  20  1   
@<TRIPOS>SUBSTRUCTURE
  1 ****   2 GROUP 4 **** **** 0

# MOE 2024.06 (io_trps.svl 2023.06)
