@<TRIPOS>MOLECULE
NONAME
48 50 1 0 0 
SMALL
USER_CHARGES


@<TRIPOS>ATOM
  1 O        0.0740    -0.1880    -1.4110 O.2   1 <1>  -0.5700 
  2 C        1.1030    -0.7020    -1.0160 C.2   1 <1>   0.7030 
  3 N        2.2600     0.0450    -0.9380 N.am  1 <1>  -0.4940 
  4 C        1.0950    -2.0910    -0.5990 C.2   1 <1>   0.2770 
  5 C        2.5480     1.3070    -1.5180 C.2   1 <1>  -0.0880 
  6 N        0.0730    -2.7040     0.1350 N.pl3 1 <1>  -0.6290 
  7 C        2.0290    -3.0600    -0.8190 C.2   1 <1>   0.1820 
  8 N        3.6570     2.0640    -1.2610 N.pl3 1 <1>   0.3140 
  9 C        1.8210     2.0040    -2.4230 C.2   1 <1>  -0.1500 
 10 C        0.4180    -3.9910     0.3440 C.cat 1 <1>   0.7910 
 11 C       -1.1370    -2.2280     0.5910 C.2   1 <1>   0.2290 
 12 N        1.6130    -4.2100    -0.2260 N.pl3 1 <1>  -0.7000 
 13 C        3.3370    -3.0270    -1.5930 C.3   1 <1>  -0.0720 
 14 N        3.6470     3.2050    -1.9860 N.2   1 <1>  -0.7070 
 15 C        4.7960     1.7780    -0.3400 C.3   1 <1>   0.1760 
 16 C        2.5470     3.1600    -2.6700 C.2   1 <1>   0.1390 
 17 C       -0.4270    -4.8580     1.0530 C.2   1 <1>  -0.1410 
 18 C       -1.9770    -3.0550     1.2810 C.2   1 <1>  -0.1500 
 19 C        5.6490     0.6260    -0.9190 C.3   1 <1>  -0.1600 
 20 C        4.2890     1.5370     1.1030 C.3   1 <1>  -0.1600 
 21 C       -1.6280    -4.3990     1.5280 C.2   1 <1>  -0.1380 
 22 C        6.9280     0.3270    -0.1260 C.3   1 <1>  -0.2400 
 23 C        5.1780     2.2040     2.1640 C.3   1 <1>  -0.2400 
 24 C       -2.5890    -5.2850     2.3030 C.3   1 <1>  -0.1020 
 25 H        2.9870    -0.3180    -0.3240 H     1 <1>   0.3700 
 26 H        0.8790     1.7500    -2.8750 H     1 <1>   0.1500 
 27 H       -1.3980    -1.1990     0.3890 H     1 <1>   0.1500 
 28 H        2.0890    -5.1170    -0.2250 H     1 <1>   0.4500 
 29 H        3.4540    -2.1010    -2.1270 H     1 <1>   0.0800 
 30 H        3.3550    -3.8260    -2.3130 H     1 <1>   0.0800 
 31 H        4.1690    -3.1500    -0.9230 H     1 <1>   0.0800 
 32 H        5.4020     2.6690    -0.3380 H     1 <1>   0.0800 
 33 H        2.2410     3.9360    -3.3510 H     1 <1>   0.1500 
 34 H       -0.1110    -5.8720     1.2050 H     1 <1>   0.1500 
 35 H       -2.9230    -2.6880     1.6440 H     1 <1>   0.1500 
 36 H        5.9390     0.9010    -1.9200 H     1 <1>   0.0800 
 37 H        5.0660    -0.2740    -0.9820 H     1 <1>   0.0800 
 38 H        4.2260     0.4840     1.3090 H     1 <1>   0.0800 
 39 H        3.3030     1.9580     1.2100 H     1 <1>   0.0800 
 40 H        7.5150     1.2220    -0.0090 H     1 <1>   0.0800 
 41 H        7.5240    -0.3980    -0.6520 H     1 <1>   0.0800 
 42 H        6.6990    -0.0710     0.8470 H     1 <1>   0.0800 
 43 H        6.1830     1.8270     2.1350 H     1 <1>   0.0800 
 44 H        4.7780     2.0230     3.1460 H     1 <1>   0.0800 
 45 H        5.2090     3.2690     2.0070 H     1 <1>   0.0800 
 46 H       -2.7630    -4.8750     3.2820 H     1 <1>   0.0800 
 47 H       -2.1950    -6.2790     2.4160 H     1 <1>   0.0800 
 48 H       -3.5300    -5.3500     1.7860 H     1 <1>   0.0800 
@<TRIPOS>BOND
  1   1   2  2   
  2   2   3  am  
  3   2   4  1   
  4   3   5  1   
  5   3  25  1   
  6   4   6  1   
  7   4   7  2   
  8   5   8  1   
  9   5   9  2   
 10   6  10  ar  
 11   6  11  1   
 12   7  12  1   
 13   7  13  1   
 14   8  14  1   
 15   8  15  1   
 16   9  16  1   
 17   9  26  1   
 18  10  12  ar  
 19  10  17  1   
 20  11  18  2   
 21  11  27  1   
 22  12  28  1   
 23  13  29  1   
 24  13  30  1   
 25  13  31  1   
 26  14  16  2   
 27  15  19  1   
 28  15  20  1   
 29  15  32  1   
 30  16  33  1   
 31  17  21  2   
 32  17  34  1   
 33  18  21  1   
 34  18  35  1   
 35  19  22  1   
 36  19  36  1   
 37  19  37  1   
 38  20  23  1   
 39  20  38  1   
 40  20  39  1   
 41  21  24  1   
 42  22  40  1   
 43  22  41  1   
 44  22  42  1   
 45  23  43  1   
 46  23  44  1   
 47  23  45  1   
 48  24  46  1   
 49  24  47  1   
 50  24  48  1   
@<TRIPOS>SUBSTRUCTURE
  1 ****   2 GROUP 4 **** **** 0

# MOE 2024.06 (io_trps.svl 2023.06)
