@<TRIPOS>MOLECULE
NONAME
40 42 1 0 0 
SMALL
USER_CHARGES


@<TRIPOS>ATOM
  1 S       -0.3290     1.0630    -0.5730 S.3   1 <1>  -0.0800 
  2 C        1.2500     1.4040    -1.2600 C.2   1 <1>  -0.1100 
  3 C        0.0760     1.9400     0.8890 C.2   1 <1>  -0.1100 
  4 C        2.0060     2.1300    -0.4100 C.2   1 <1>  -0.1810 
  5 C        1.3250     2.4330     0.8180 C.2   1 <1>  -0.1500 
  6 C        3.4320     2.6240    -0.6330 C.3   1 <1>   0.4700 
  7 N        3.4190     4.0790    -0.4660 N.pl3 1 <1>  -0.8690 
  8 C        3.9580     2.3200    -2.0320 C.3   1 <1>  -0.2400 
  9 C        4.3680     4.7650     0.2520 C.ar  1 <1>   0.4100 
 10 N        5.5730     4.2000     0.3140 N.ar  1 <1>  -0.6200 
 11 C        4.0510     5.9930     0.8580 C.ar  1 <1>   0.0860 
 12 C        6.4960     4.8510     0.9930 C.ar  1 <1>   0.1600 
 13 C        2.7280     6.5530     0.7430 C.2   1 <1>   0.5440 
 14 C        5.0480     6.6470     1.5690 C.ar  1 <1>  -0.1500 
 15 C        6.2920     6.0600     1.6330 C.ar  1 <1>  -0.1500 
 16 O        1.7580     5.9090     1.1060 O.2   1 <1>  -0.5700 
 17 N        2.5250     7.8130     0.2280 N.am  1 <1>  -0.6600 
 18 C        3.5070     8.5410    -0.6070 C.3   1 <1>   0.1400 
 19 C        1.1730     8.3980     0.0860 C.3   1 <1>   0.1400 
 20 C        2.6620     9.4340    -1.5080 C.3   1 <1>  -0.1600 
 21 C        1.3810     9.6790    -0.7140 C.3   1 <1>  -0.1600 
 22 H        1.4440     1.0170    -2.2440 H     1 <1>   0.1500 
 23 H       -0.6740     1.9990     1.6580 H     1 <1>   0.1500 
 24 H        1.8040     3.0160     1.5880 H     1 <1>   0.1500 
 25 H        4.0760     2.1710     0.1030 H     1 <1>   0.0800 
 26 H        2.4540     4.4020    -0.3130 H     1 <1>   0.4000 
 27 H        3.3260     2.7740    -2.7740 H     1 <1>   0.0800 
 28 H        3.9860     1.2580    -2.1900 H     1 <1>   0.0800 
 29 H        4.9560     2.7060    -2.1320 H     1 <1>   0.0800 
 30 H        7.4720     4.3980     1.0460 H     1 <1>   0.1500 
 31 H        4.8440     7.5840     2.0570 H     1 <1>   0.1500 
 32 H        7.0960     6.5290     2.1720 H     1 <1>   0.1500 
 33 H        4.1120     7.8620    -1.1840 H     1 <1>   0.0800 
 34 H        4.1340     9.1410     0.0300 H     1 <1>   0.0800 
 35 H        0.7400     8.5940     1.0520 H     1 <1>   0.0800 
 36 H        0.5470     7.7090    -0.4560 H     1 <1>   0.0800 
 37 H        2.4330     8.8980    -2.4130 H     1 <1>   0.0800 
 38 H        3.1710    10.3470    -1.7600 H     1 <1>   0.0800 
 39 H        1.5240    10.4980    -0.0310 H     1 <1>   0.0800 
 40 H        0.5390     9.8940    -1.3480 H     1 <1>   0.0800 
@<TRIPOS>BOND
  1   1   2  1   
  2   1   3  1   
  3   2   4  2   
  4   2  22  1   
  5   3   5  2   
  6   3  23  1   
  7   4   5  1   
  8   4   6  1   
  9   5  24  1   
 10   6   7  1   
 11   6   8  1   
 12   6  25  1   
 13   7   9  1   
 14   7  26  1   
 15   8  27  1   
 16   8  28  1   
 17   8  29  1   
 18   9  10  ar  
 19   9  11  ar  
 20  10  12  ar  
 21  11  13  1   
 22  11  14  ar  
 23  12  15  ar  
 24  12  30  1   
 25  13  16  2   
 26  13  17  am  
 27  14  15  ar  
 28  14  31  1   
 29  15  32  1   
 30  17  18  1   
 31  17  19  1   
 32  18  20  1   
 33  18  33  1   
 34  18  34  1   
 35  19  21  1   
 36  19  35  1   
 37  19  36  1   
 38  20  21  1   
 39  20  37  1   
 40  20  38  1   
 41  21  39  1   
 42  21  40  1   
@<TRIPOS>SUBSTRUCTURE
  1 ****   7 GROUP 4 **** **** 0

# MOE 2024.06 (io_trps.svl 2023.06)
