@<TRIPOS>MOLECULE
NONAME
57 59 1 0 0 
SMALL
USER_CHARGES


@<TRIPOS>ATOM
  1 CL      -1.5250     0.3550    -0.2040 Cl    1 <1>  -0.1770 
  2 C       -1.2690     2.0790    -0.0720 C.ar  1 <1>   0.1770 
  3 C       -1.9590     2.9380    -0.9080 C.ar  1 <1>  -0.1440 
  4 C       -0.3870     2.5460     0.8810 C.ar  1 <1>  -0.1500 
  5 C       -1.7480     4.2990    -0.7690 C.ar  1 <1>  -0.1500 
  6 C       -2.9260     2.4110    -1.9480 C.3   1 <1>   0.4870 
  7 C       -0.1760     3.9150     1.0250 C.ar  1 <1>   0.0820 
  8 C       -0.8720     4.8020     0.1800 C.ar  1 <1>   0.0820 
  9 N       -4.3110     2.6350    -1.4640 N.4   1 <1>  -0.9590 
 10 O        0.6820     4.3940     1.9720 O.3   1 <1>  -0.3620 
 11 O       -0.7950     6.1630     0.1760 O.3   1 <1>  -0.3620 
 12 C       -4.6430     1.8420    -0.2440 C.3   1 <1>   0.3430 
 13 C       -5.3440     2.5060    -2.5190 C.3   1 <1>   0.3430 
 14 C        1.4320     3.5500     2.8210 C.3   1 <1>   0.0400 
 15 C        0.1840     6.8900     0.8810 C.3   1 <1>   0.1200 
 16 C       -6.1030     2.0630     0.1730 C.3   1 <1>  -0.1600 
 17 C       -6.6810     3.0760    -2.0210 C.3   1 <1>  -0.1600 
 18 C        0.0680     8.3550     0.4730 C.3   1 <1>  -0.2400 
 19 C       -6.7500     3.2910    -0.4940 C.3   1 <1>   0.2800 
 20 O       -5.9390     4.3960    -0.1560 O.3   1 <1>  -0.5600 
 21 C       -8.2030     3.5030    -0.0010 C.3   1 <1>  -0.1600 
 22 C       -6.5000     5.6770    -0.2690 C.3   1 <1>   0.1200 
 23 C       -8.3060     4.5240     1.1350 C.3   1 <1>   0.2800 
 24 C       -7.6850     5.8530     0.6950 C.3   1 <1>  -0.1600 
 25 O       -7.5640     4.0640     2.1900 O.3   1 <1>  -0.6800 
 26 C       -9.7350     4.6890     1.6450 C.3   1 <1>  -0.2400 
 27 H        0.1160     1.8240     1.4960 H     1 <1>   0.1500 
 28 H       -2.2600     5.0060    -1.4000 H     1 <1>   0.1500 
 29 H       -2.7570     1.3630    -2.1300 H     1 <1>   0.0800 
 30 H       -2.7680     2.9450    -2.8710 H     1 <1>   0.0800 
 31 H       -4.3810     3.6150    -1.1300 H     1 <1>   0.4500 
 32 H       -4.0020     2.1580     0.5640 H     1 <1>   0.0800 
 33 H       -4.4690     0.7920    -0.4170 H     1 <1>   0.0800 
 34 H       -5.4680     1.4650    -2.7730 H     1 <1>   0.0800 
 35 H       -5.0400     3.0370    -3.4070 H     1 <1>   0.0800 
 36 H        2.0390     4.1700     3.4550 H     1 <1>   0.0800 
 37 H        2.0620     2.9180     2.2200 H     1 <1>   0.0800 
 38 H        0.7570     2.9670     3.4220 H     1 <1>   0.0800 
 39 H        1.1530     6.4990     0.6240 H     1 <1>   0.0800 
 40 H        0.0010     6.7750     1.9350 H     1 <1>   0.0800 
 41 H       -6.1500     2.1390     1.2430 H     1 <1>   0.0800 
 42 H       -6.6650     1.1850    -0.0900 H     1 <1>   0.0800 
 43 H       -7.4490     2.3810    -2.3110 H     1 <1>   0.0800 
 44 H       -6.8960     3.9930    -2.5380 H     1 <1>   0.0800 
 45 H        0.2400     8.4610    -0.5830 H     1 <1>   0.0800 
 46 H        0.8030     8.9370     1.0000 H     1 <1>   0.0800 
 47 H       -0.9090     8.7320     0.7200 H     1 <1>   0.0800 
 48 H       -8.6410     2.5700     0.3050 H     1 <1>   0.0800 
 49 H       -8.8040     3.8620    -0.8170 H     1 <1>   0.0800 
 50 H       -6.8180     5.8260    -1.2860 H     1 <1>   0.0800 
 51 H       -5.7310     6.3980    -0.0450 H     1 <1>   0.0800 
 52 H       -8.4260     6.4420     0.1860 H     1 <1>   0.0800 
 53 H       -7.3830     6.4230     1.5560 H     1 <1>   0.0800 
 54 H       -6.6220     4.1810     1.9570 H     1 <1>   0.4000 
 55 H      -10.3760     5.0420     0.8590 H     1 <1>   0.0800 
 56 H       -9.7610     5.4010     2.4510 H     1 <1>   0.0800 
 57 H      -10.1160     3.7480     1.9990 H     1 <1>   0.0800 
@<TRIPOS>BOND
  1   1   2  1   
  2   2   3  ar  
  3   2   4  ar  
  4   3   5  ar  
  5   3   6  1   
  6   4   7  ar  
  7   4  27  1   
  8   5   8  ar  
  9   5  28  1   
 10   6   9  1   
 11   6  29  1   
 12   6  30  1   
 13   7   8  ar  
 14   7  10  1   
 15   8  11  1   
 16   9  12  1   
 17   9  13  1   
 18   9  31  1   
 19  10  14  1   
 20  11  15  1   
 21  12  16  1   
 22  12  32  1   
 23  12  33  1   
 24  13  17  1   
 25  13  34  1   
 26  13  35  1   
 27  14  36  1   
 28  14  37  1   
 29  14  38  1   
 30  15  18  1   
 31  15  39  1   
 32  15  40  1   
 33  16  19  1   
 34  16  41  1   
 35  16  42  1   
 36  17  19  1   
 37  17  43  1   
 38  17  44  1   
 39  18  45  1   
 40  18  46  1   
 41  18  47  1   
 42  19  20  1   
 43  19  21  1   
 44  20  22  1   
 45  21  23  1   
 46  21  48  1   
 47  21  49  1   
 48  22  24  1   
 49  22  50  1   
 50  22  51  1   
 51  23  24  1   
 52  23  25  1   
 53  23  26  1   
 54  24  52  1   
 55  24  53  1   
 56  25  54  1   
 57  26  55  1   
 58  26  56  1   
 59  26  57  1   
@<TRIPOS>SUBSTRUCTURE
  1 ****   9 GROUP 4 **** **** 0

# MOE 2024.06 (io_trps.svl 2023.06)
