@<TRIPOS>MOLECULE
NONAME
46 47 1 0 0 
SMALL
USER_CHARGES


@<TRIPOS>ATOM
  1 S        0.2240     0.6920     0.6820 S.o2  1 <1>   1.3330 
  2 O       -0.7340     0.8920     1.7440 O.2   1 <1>  -0.6500 
  3 O       -0.0710     1.1830    -0.6460 O.2   1 <1>  -0.6500 
  4 N        0.4950    -0.9830     0.5740 N.am  1 <1>  -0.8490 
  5 C        1.8170     1.3430     1.2130 C.3   1 <1>  -0.0550 
  6 C        0.3630    -1.6810     1.8580 C.3   1 <1>   0.1160 
  7 C       -0.3670    -1.6220    -0.4270 C.3   1 <1>   0.1160 
  8 C        2.9180     1.5290     0.1430 C.3   1 <1>  -0.0800 
  9 C        2.5900     2.6090    -0.8900 C.3   1 <1>   0.2200 
 10 C        3.2750     0.3020    -0.7060 C.3   1 <1>   0.1200 
 11 N        3.6170     3.6700    -0.8180 N.am  1 <1>  -0.7300 
 12 C        2.6910     1.8630    -2.2180 C.3   1 <1>   0.1200 
 13 O        3.5600     0.8070    -1.9690 O.3   1 <1>  -0.5600 
 14 C        3.5130     4.7950    -0.0690 C.2   1 <1>   0.5690 
 15 O        2.5380     5.0200     0.6060 O.2   1 <1>  -0.5700 
 16 C        4.6660     5.7820    -0.0580 C.3   1 <1>   0.0820 
 17 C        5.9900     5.0860     0.2270 C.2   1 <1>  -0.1810 
 18 C        7.0740     4.9170    -0.5480 C.2   1 <1>  -0.0400 
 19 C        6.3400     4.4410     1.4130 C.2   1 <1>   0.1080 
 20 O        7.9540     4.2380     0.1380 O.3   1 <1>  -0.0190 
 21 C        7.4150     5.3420    -1.9620 C.3   1 <1>  -0.0600 
 22 N        7.5200     3.9430     1.3280 N.2   1 <1>  -0.4100 
 23 C        5.4710     4.3270     2.6480 C.3   1 <1>  -0.0590 
 24 H        1.6460     2.3080     1.6540 H     1 <1>   0.0800 
 25 H        2.2010     0.7150     1.9910 H     1 <1>   0.0800 
 26 H        0.6390    -2.7160     1.7460 H     1 <1>   0.0800 
 27 H       -0.6530    -1.6260     2.2140 H     1 <1>   0.0800 
 28 H        1.0100    -1.2350     2.5930 H     1 <1>   0.0800 
 29 H       -0.1650    -2.6780    -0.4760 H     1 <1>   0.0800 
 30 H       -0.1790    -1.2000    -1.4000 H     1 <1>   0.0800 
 31 H       -1.4040    -1.4690    -0.1790 H     1 <1>   0.0800 
 32 H        3.8140     1.8080     0.6710 H     1 <1>   0.0800 
 33 H        1.6110     3.0420    -0.7660 H     1 <1>   0.0800 
 34 H        2.4590    -0.3860    -0.8180 H     1 <1>   0.0800 
 35 H        4.1410    -0.2180    -0.3340 H     1 <1>   0.0800 
 36 H        4.5190     3.4140    -1.2300 H     1 <1>   0.3700 
 37 H        3.0740     2.4730    -3.0160 H     1 <1>   0.0800 
 38 H        1.7370     1.4490    -2.4960 H     1 <1>   0.0800 
 39 H        4.6990     6.2750    -1.0100 H     1 <1>   0.0800 
 40 H        4.4850     6.5270     0.6950 H     1 <1>   0.0800 
 41 H        6.6030     5.8880    -2.4050 H     1 <1>   0.0800 
 42 H        7.6200     4.4730    -2.5610 H     1 <1>   0.0800 
 43 H        8.2890     5.9680    -1.9490 H     1 <1>   0.0800 
 44 H        5.1390     5.3010     2.9570 H     1 <1>   0.0800 
 45 H        6.0310     3.8820     3.4510 H     1 <1>   0.0800 
 46 H        4.6150     3.7120     2.4400 H     1 <1>   0.0800 
@<TRIPOS>BOND
  1   1   2  2   
  2   1   3  2   
  3   1   4  am  
  4   1   5  1   
  5   4   6  1   
  6   4   7  1   
  7   5   8  1   
  8   5  24  1   
  9   5  25  1   
 10   6  26  1   
 11   6  27  1   
 12   6  28  1   
 13   7  29  1   
 14   7  30  1   
 15   7  31  1   
 16   8   9  1   
 17   8  10  1   
 18   8  32  1   
 19   9  11  1   
 20   9  12  1   
 21   9  33  1   
 22  10  13  1   
 23  10  34  1   
 24  10  35  1   
 25  11  14  am  
 26  11  36  1   
 27  12  13  1   
 28  12  37  1   
 29  12  38  1   
 30  14  15  2   
 31  14  16  1   
 32  16  17  1   
 33  16  39  1   
 34  16  40  1   
 35  17  18  2   
 36  17  19  1   
 37  18  20  1   
 38  18  21  1   
 39  19  22  2   
 40  19  23  1   
 41  20  22  1   
 42  21  41  1   
 43  21  42  1   
 44  21  43  1   
 45  23  44  1   
 46  23  45  1   
 47  23  46  1   
@<TRIPOS>SUBSTRUCTURE
  1 ****   8 GROUP 4 **** **** 0

# MOE 2024.06 (io_trps.svl 2023.06)
