@<TRIPOS>MOLECULE
NONAME
48 49 1 0 0 
SMALL
USER_CHARGES


@<TRIPOS>ATOM
  1 O       -0.7840    -1.3880     1.1020 O.2   1 <1>  -0.5700 
  2 C       -1.2120    -0.2920     0.8140 C.2   1 <1>   0.5690 
  3 N       -1.9000    -0.0860    -0.3580 N.am  1 <1>  -0.6600 
  4 C       -0.9920     0.8240     1.8310 C.3   1 <1>   0.0440 
  5 C       -2.0440    -1.1920    -1.3420 C.3   1 <1>   0.3200 
  6 C       -2.5570     1.1960    -0.7530 C.3   1 <1>   0.1400 
  7 C       -0.0910     1.9480     1.3290 C.ar  1 <1>  -0.1440 
  8 C       -3.1990    -2.0740    -0.9250 C.2   1 <1>  -0.3320 
  9 C       -4.0500     1.1730    -0.4060 C.3   1 <1>   0.1200 
 10 C       -0.4210     3.2720     1.5770 C.ar  1 <1>  -0.1500 
 11 C        1.0660     1.6650     0.6200 C.ar  1 <1>  -0.1500 
 12 N       -3.1810    -2.7720     0.2230 N.pl3 1 <1>   0.0330 
 13 C       -4.3800    -2.3540    -1.5190 C.2   1 <1>   0.0770 
 14 O       -4.6090     2.4050    -0.7150 O.3   1 <1>  -0.6800 
 15 C        0.3860     4.2950     1.1100 C.ar  1 <1>  -0.1500 
 16 C        1.8710     2.6890     0.1540 C.ar  1 <1>  -0.1500 
 17 C       -4.3580    -3.4310     0.2590 C.2   1 <1>   0.0070 
 18 N       -5.1060    -3.2060    -0.7700 N.2   1 <1>  -0.5650 
 19 C        1.5390     4.0150     0.3920 C.ar  1 <1>  -0.1430 
 20 C       -4.7490    -4.3420     1.4020 C.3   1 <1>  -0.0600 
 21 C        2.4160     5.1570    -0.1180 C.3   1 <1>   0.0630 
 22 C        2.4880     5.1480    -1.6480 C.3   1 <1>  -0.2400 
 23 C        3.8190     5.0850     0.4940 C.3   1 <1>  -0.2400 
 24 H       -0.5420     0.4010     2.7110 H     1 <1>   0.0800 
 25 H       -1.9500     1.2120     2.1180 H     1 <1>   0.0800 
 26 H       -1.1370    -1.7720    -1.3740 H     1 <1>   0.0800 
 27 H       -2.2180    -0.7960    -2.3280 H     1 <1>   0.0800 
 28 H       -2.4410     1.3470    -1.8120 H     1 <1>   0.0800 
 29 H       -2.0900     2.0240    -0.2560 H     1 <1>   0.0800 
 30 H       -4.2040     0.9820     0.6410 H     1 <1>   0.0800 
 31 H       -4.5630     0.4260    -0.9880 H     1 <1>   0.0800 
 32 H       -1.3060     3.5180     2.1360 H     1 <1>   0.1500 
 33 H        1.3500     0.6450     0.4250 H     1 <1>   0.1500 
 34 H       -2.4170    -2.7650     0.9120 H     1 <1>   0.2700 
 35 H       -4.7560    -1.9840    -2.4590 H     1 <1>   0.1500 
 36 H       -4.2770     3.1050    -0.1190 H     1 <1>   0.4000 
 37 H        0.1110     5.3150     1.3130 H     1 <1>   0.1500 
 38 H        2.7620     2.4460    -0.3960 H     1 <1>   0.1500 
 39 H       -4.0420    -5.1470     1.4890 H     1 <1>   0.0800 
 40 H       -5.7240    -4.7560     1.2190 H     1 <1>   0.0800 
 41 H       -4.7750    -3.7890     2.3220 H     1 <1>   0.0800 
 42 H        1.9760     6.0920     0.1840 H     1 <1>   0.0800 
 43 H        2.9670     4.2540    -2.0040 H     1 <1>   0.0800 
 44 H        3.0430     5.9990    -2.0000 H     1 <1>   0.0800 
 45 H        1.4960     5.1920    -2.0600 H     1 <1>   0.0800 
 46 H        4.3280     4.1910     0.1820 H     1 <1>   0.0800 
 47 H        3.7490     5.0820     1.5670 H     1 <1>   0.0800 
 48 H        4.4020     5.9360     0.1900 H     1 <1>   0.0800 
@<TRIPOS>BOND
  1   1   2  2   
  2   2   3  am  
  3   2   4  1   
  4   3   5  1   
  5   3   6  1   
  6   4   7  1   
  7   4  24  1   
  8   4  25  1   
  9   5   8  1   
 10   5  26  1   
 11   5  27  1   
 12   6   9  1   
 13   6  28  1   
 14   6  29  1   
 15   7  10  ar  
 16   7  11  ar  
 17   8  12  1   
 18   8  13  2   
 19   9  14  1   
 20   9  30  1   
 21   9  31  1   
 22  10  15  ar  
 23  10  32  1   
 24  11  16  ar  
 25  11  33  1   
 26  12  17  1   
 27  12  34  1   
 28  13  18  1   
 29  13  35  1   
 30  14  36  1   
 31  15  19  ar  
 32  15  37  1   
 33  16  19  ar  
 34  16  38  1   
 35  17  18  2   
 36  17  20  1   
 37  19  21  1   
 38  20  39  1   
 39  20  40  1   
 40  20  41  1   
 41  21  22  1   
 42  21  23  1   
 43  21  42  1   
 44  22  43  1   
 45  22  44  1   
 46  22  45  1   
 47  23  46  1   
 48  23  47  1   
 49  23  48  1   
@<TRIPOS>SUBSTRUCTURE
  1 ****   3 GROUP 4 **** **** 0

# MOE 2024.06 (io_trps.svl 2023.06)
