@<TRIPOS>MOLECULE
NONAME
49 51 1 0 0 
SMALL
USER_CHARGES


@<TRIPOS>ATOM
  1 O        0.1660    -0.3300     1.2710 O.2   1 <1>  -0.5700 
  2 C        1.1140    -0.9250     0.7930 C.2   1 <1>   0.5440 
  3 N        2.1030    -0.2040     0.1650 N.am  1 <1>  -0.6600 
  4 C        1.1690    -2.3710     0.8860 C.ar  1 <1>   0.0860 
  5 C        2.0570     1.2720     0.0720 C.3   1 <1>   0.1400 
  6 C        3.0740    -0.7630    -0.8020 C.3   1 <1>   0.1400 
  7 C        0.0900    -3.1680     0.5530 C.ar  1 <1>  -0.1500 
  8 C        2.2950    -3.0580     1.3200 C.ar  1 <1>  -0.1500 
  9 C        3.2050     1.6440    -0.8610 C.3   1 <1>  -0.1600 
 10 C        3.4200     0.4020    -1.7210 C.3   1 <1>  -0.1600 
 11 C        0.1690    -4.5500     0.6380 C.ar  1 <1>   0.4100 
 12 C        2.2850    -4.4370     1.3730 C.ar  1 <1>   0.1600 
 13 N        1.2560    -5.1950     1.0390 N.ar  1 <1>  -0.6200 
 14 N       -0.9280    -5.3040     0.2920 N.pl3 1 <1>  -0.8690 
 15 C       -1.0060    -6.7470     0.5940 C.3   1 <1>   0.2090 
 16 C       -2.3800    -7.2680     0.1780 C.3   1 <1>  -0.1600 
 17 C       -2.5080    -8.7730     0.4370 C.3   1 <1>  -0.0170 
 18 C       -3.8900    -9.2640     0.0380 C.ar  1 <1>  -0.1430 
 19 C       -4.1420    -9.6650    -1.2650 C.ar  1 <1>  -0.1500 
 20 C       -4.9150    -9.3130     0.9700 C.ar  1 <1>  -0.1500 
 21 C       -5.4000   -10.1110    -1.6300 C.ar  1 <1>  -0.1500 
 22 C       -6.1730    -9.7600     0.6050 C.ar  1 <1>  -0.1500 
 23 C       -6.4220   -10.1630    -0.6960 C.ar  1 <1>  -0.1430 
 24 C       -7.8030   -10.6530    -1.0970 C.3   1 <1>  -0.0970 
 25 H        2.1710     1.7180     1.0460 H     1 <1>   0.0800 
 26 H        1.1120     1.5690    -0.3510 H     1 <1>   0.0800 
 27 H        2.6510    -1.5860    -1.3540 H     1 <1>   0.0800 
 28 H        3.9520    -1.0900    -0.2720 H     1 <1>   0.0800 
 29 H       -0.8210    -2.7090     0.2220 H     1 <1>   0.1500 
 30 H        3.1700    -2.5110     1.6180 H     1 <1>   0.1500 
 31 H        4.0830     1.8400    -0.2710 H     1 <1>   0.0800 
 32 H        2.9740     2.5160    -1.4470 H     1 <1>   0.0800 
 33 H        2.7330     0.4090    -2.5490 H     1 <1>   0.0800 
 34 H        4.4240     0.3320    -2.0980 H     1 <1>   0.0800 
 35 H        3.1700    -4.9490     1.7110 H     1 <1>   0.1500 
 36 H       -1.8270    -4.8230     0.3360 H     1 <1>   0.4000 
 37 H       -0.8490    -6.9010     1.6490 H     1 <1>   0.0800 
 38 H       -0.2300    -7.2630     0.0520 H     1 <1>   0.0800 
 39 H       -2.5280    -7.0780    -0.8710 H     1 <1>   0.0800 
 40 H       -3.1420    -6.7500     0.7340 H     1 <1>   0.0800 
 41 H       -2.3410    -8.9810     1.4790 H     1 <1>   0.0800 
 42 H       -1.7630    -9.3060    -0.1270 H     1 <1>   0.0800 
 43 H       -3.3590    -9.6290    -2.0020 H     1 <1>   0.1500 
 44 H       -4.7380    -9.0030     1.9840 H     1 <1>   0.1500 
 45 H       -5.5800   -10.4180    -2.6450 H     1 <1>   0.1500 
 46 H       -6.9580    -9.7920     1.3400 H     1 <1>   0.1500 
 47 H       -7.7300   -11.3750    -1.8900 H     1 <1>   0.0800 
 48 H       -8.3980    -9.8230    -1.4340 H     1 <1>   0.0800 
 49 H       -8.2940   -11.1170    -0.2610 H     1 <1>   0.0800 
@<TRIPOS>BOND
  1   1   2  2   
  2   2   3  am  
  3   2   4  1   
  4   3   5  1   
  5   3   6  1   
  6   4   7  ar  
  7   4   8  ar  
  8   5   9  1   
  9   5  25  1   
 10   5  26  1   
 11   6  10  1   
 12   6  27  1   
 13   6  28  1   
 14   7  11  ar  
 15   7  29  1   
 16   8  12  ar  
 17   8  30  1   
 18   9  10  1   
 19   9  31  1   
 20   9  32  1   
 21  10  33  1   
 22  10  34  1   
 23  11  13  ar  
 24  11  14  1   
 25  12  13  ar  
 26  12  35  1   
 27  14  15  1   
 28  14  36  1   
 29  15  16  1   
 30  15  37  1   
 31  15  38  1   
 32  16  17  1   
 33  16  39  1   
 34  16  40  1   
 35  17  18  1   
 36  17  41  1   
 37  17  42  1   
 38  18  19  ar  
 39  18  20  ar  
 40  19  21  ar  
 41  19  43  1   
 42  20  22  ar  
 43  20  44  1   
 44  21  23  ar  
 45  21  45  1   
 46  22  23  ar  
 47  22  46  1   
 48  23  24  1   
 49  24  47  1   
 50  24  48  1   
 51  24  49  1   
@<TRIPOS>SUBSTRUCTURE
  1 ****  14 GROUP 4 **** **** 0

# MOE 2024.06 (io_trps.svl 2023.06)
