@<TRIPOS>MOLECULE
NONAME
48 50 1 0 0 
SMALL
USER_CHARGES


@<TRIPOS>ATOM
  1 CL       3.2420     1.1640     0.8750 Cl    1 <1>  -0.1770 
  2 C        3.1270    -0.3760     0.0640 C.ar  1 <1>   0.1770 
  3 C        2.5570    -1.4460     0.7280 C.ar  1 <1>  -0.1500 
  4 C        3.6080    -0.4920    -1.2290 C.ar  1 <1>  -0.1500 
  5 C        2.4360    -2.6880     0.1020 C.ar  1 <1>   0.0860 
  6 C        3.5160    -1.7160    -1.8680 C.ar  1 <1>  -0.1500 
  7 C        2.9410    -2.7820    -1.1970 C.ar  1 <1>   0.1900 
  8 C        1.8240    -3.8010     0.7960 C.2   1 <1>   0.5440 
  9 F        2.8850    -3.9220    -1.8290 F     1 <1>  -0.1900 
 10 O        2.2020    -4.0600     1.9220 O.2   1 <1>  -0.5700 
 11 N        0.8150    -4.5750     0.2560 N.am  1 <1>  -0.6600 
 12 C       -0.1710    -4.0970    -0.7650 C.3   1 <1>   0.2200 
 13 C        0.8250    -6.0410     0.5520 C.3   1 <1>   0.0600 
 14 C       -0.5870    -2.6390    -0.5570 C.3   1 <1>  -0.1600 
 15 C       -1.5060    -4.8380    -0.6680 C.3   1 <1>  -0.1600 
 16 C       -1.9700    -2.4940    -1.2070 C.3   1 <1>  -0.0800 
 17 C       -2.5500    -3.9110    -1.3030 C.3   1 <1>  -0.0800 
 18 C       -2.9560    -1.6740    -0.3640 C.3   1 <1>  -0.1600 
 19 C       -3.8820    -3.8890    -0.5420 C.3   1 <1>  -0.1600 
 20 C       -3.7340    -2.7230     0.4290 C.3   1 <1>   0.4230 
 21 N       -5.0390    -2.2510     0.9840 N.4   1 <1>  -0.9590 
 22 C       -6.0020    -1.6910    -0.0210 C.3   1 <1>   0.2630 
 23 C       -4.8120    -1.2630     2.0840 C.3   1 <1>   0.2630 
 24 H        2.2070    -1.3230     1.7370 H     1 <1>   0.1500 
 25 H        4.0470     0.3600    -1.7170 H     1 <1>   0.1500 
 26 H        3.8860    -1.8470    -2.8700 H     1 <1>   0.1500 
 27 H        0.2370    -4.2260    -1.7540 H     1 <1>   0.0800 
 28 H        0.7190    -6.6040    -0.3580 H     1 <1>   0.0800 
 29 H        0.0240    -6.2860     1.2270 H     1 <1>   0.0800 
 30 H        1.7550    -6.3240     1.0150 H     1 <1>   0.0800 
 31 H       -0.6450    -2.4400     0.4990 H     1 <1>   0.0800 
 32 H        0.1070    -1.9590    -1.0160 H     1 <1>   0.0800 
 33 H       -1.4690    -5.7840    -1.1780 H     1 <1>   0.0800 
 34 H       -1.7420    -4.9980     0.3700 H     1 <1>   0.0800 
 35 H       -1.8630    -2.0690    -2.1930 H     1 <1>   0.0800 
 36 H       -2.6970    -4.1870    -2.3350 H     1 <1>   0.0800 
 37 H       -3.6000    -1.1400    -1.0380 H     1 <1>   0.0800 
 38 H       -2.4510    -0.9720     0.2750 H     1 <1>   0.0800 
 39 H       -4.0700    -4.8180    -0.0340 H     1 <1>   0.0800 
 40 H       -4.6660    -3.7060    -1.2530 H     1 <1>   0.0800 
 41 H       -3.1030    -3.0560     1.2380 H     1 <1>   0.0800 
 42 H       -5.4830    -3.0820     1.4030 H     1 <1>   0.4500 
 43 H       -5.5970    -0.8030    -0.4790 H     1 <1>   0.0800 
 44 H       -6.9320    -1.4330     0.4580 H     1 <1>   0.0800 
 45 H       -6.2090    -2.4140    -0.7930 H     1 <1>   0.0800 
 46 H       -4.3490    -0.3700     1.6960 H     1 <1>   0.0800 
 47 H       -4.1670    -1.6840     2.8390 H     1 <1>   0.0800 
 48 H       -5.7480    -0.9930     2.5460 H     1 <1>   0.0800 
@<TRIPOS>BOND
  1   1   2  1   
  2   2   3  ar  
  3   2   4  ar  
  4   3   5  ar  
  5   3  24  1   
  6   4   6  ar  
  7   4  25  1   
  8   5   7  ar  
  9   5   8  1   
 10   6   7  ar  
 11   6  26  1   
 12   7   9  1   
 13   8  10  2   
 14   8  11  am  
 15  11  12  1   
 16  11  13  1   
 17  12  14  1   
 18  12  15  1   
 19  12  27  1   
 20  13  28  1   
 21  13  29  1   
 22  13  30  1   
 23  14  16  1   
 24  14  31  1   
 25  14  32  1   
 26  15  17  1   
 27  15  33  1   
 28  15  34  1   
 29  16  17  1   
 30  16  18  1   
 31  16  35  1   
 32  17  19  1   
 33  17  36  1   
 34  18  20  1   
 35  18  37  1   
 36  18  38  1   
 37  19  20  1   
 38  19  39  1   
 39  19  40  1   
 40  20  21  1   
 41  20  41  1   
 42  21  22  1   
 43  21  23  1   
 44  21  42  1   
 45  22  43  1   
 46  22  44  1   
 47  22  45  1   
 48  23  46  1   
 49  23  47  1   
 50  23  48  1   
@<TRIPOS>SUBSTRUCTURE
  1 ****  14 GROUP 4 **** **** 0

# MOE 2024.06 (io_trps.svl 2023.06)
