@<TRIPOS>MOLECULE
NONAME
47 48 1 0 0 
SMALL
USER_CHARGES


@<TRIPOS>ATOM
  1 CL       3.3620    -4.1620     0.0910 Cl    1 <1>  -0.1770 
  2 C        1.6210    -4.2710     0.0370 C.ar  1 <1>   0.1770 
  3 C        0.9820    -4.7700    -1.0890 C.ar  1 <1>  -0.1440 
  4 C        0.9020    -3.8500     1.1400 C.ar  1 <1>  -0.1500 
  5 C       -0.4020    -4.8480    -1.0840 C.ar  1 <1>  -0.1500 
  6 C        1.7760    -5.2180    -2.3070 C.3   1 <1>  -0.0960 
  7 C       -0.4780    -3.9350     1.1260 C.ar  1 <1>  -0.1500 
  8 C       -1.1570    -4.4470     0.0190 C.ar  1 <1>   0.0860 
  9 C       -2.6020    -4.5620     0.0080 C.2   1 <1>   0.5440 
 10 O       -3.2510    -3.9090    -0.7880 O.2   1 <1>  -0.5700 
 11 N       -3.2830    -5.4210     0.8410 N.am  1 <1>  -0.6600 
 12 C       -2.5930    -6.4940     1.6290 C.3   1 <1>   0.3210 
 13 C       -4.7700    -5.3370     1.0260 C.3   1 <1>   0.1400 
 14 C       -2.4600    -7.7870     0.8290 C.2   1 <1>   0.0460 
 15 C       -5.5770    -6.1430    -0.0140 C.3   1 <1>   0.3430 
 16 N       -3.5450    -8.5310     0.5170 N.2   1 <1>  -0.5650 
 17 C       -1.3290    -8.3760     0.3700 C.2   1 <1>  -0.3320 
 18 N       -5.1910    -5.7910    -1.4160 N.4   1 <1>  -0.9590 
 19 C       -3.0530    -9.5580    -0.0970 C.2   1 <1>   0.0360 
 20 N       -1.7110    -9.5210    -0.2250 N.pl3 1 <1>   0.0330 
 21 C        0.1330    -7.9660     0.4600 C.3   1 <1>  -0.0600 
 22 C       -6.3550    -5.4280    -2.2690 C.3   1 <1>   0.2630 
 23 C       -4.3620    -6.8720    -2.0180 C.3   1 <1>   0.2630 
 24 H        1.4240    -3.4570     1.9950 H     1 <1>   0.1500 
 25 H       -0.9200    -5.2250    -1.9480 H     1 <1>   0.1500 
 26 H        2.4550    -6.0070    -2.0360 H     1 <1>   0.0800 
 27 H        2.3470    -4.3920    -2.6950 H     1 <1>   0.0800 
 28 H        1.1280    -5.5770    -3.0850 H     1 <1>   0.0800 
 29 H       -1.0410    -3.5980     1.9800 H     1 <1>   0.1500 
 30 H       -3.1480    -6.7040     2.5260 H     1 <1>   0.0800 
 31 H       -1.6190    -6.1650     1.9360 H     1 <1>   0.0800 
 32 H       -5.0700    -4.3040     0.9680 H     1 <1>   0.0800 
 33 H       -5.0320    -5.6830     2.0100 H     1 <1>   0.0800 
 34 H       -6.6230    -5.9350     0.1370 H     1 <1>   0.0800 
 35 H       -5.4300    -7.1950     0.1580 H     1 <1>   0.0800 
 36 H       -4.5620    -4.9590    -1.3250 H     1 <1>   0.4500 
 37 H       -3.6360   -10.3810    -0.4750 H     1 <1>   0.1500 
 38 H       -1.1120   -10.2310    -0.6580 H     1 <1>   0.2700 
 39 H        0.2460    -7.0390     0.9920 H     1 <1>   0.0800 
 40 H        0.5470    -7.8420    -0.5250 H     1 <1>   0.0800 
 41 H        0.6980    -8.7200     0.9790 H     1 <1>   0.0800 
 42 H       -7.0200    -6.2700    -2.3720 H     1 <1>   0.0800 
 43 H       -6.0170    -5.1300    -3.2490 H     1 <1>   0.0800 
 44 H       -6.8960    -4.6060    -1.8300 H     1 <1>   0.0800 
 45 H       -4.9130    -7.7980    -2.0440 H     1 <1>   0.0800 
 46 H       -3.4720    -7.0220    -1.4280 H     1 <1>   0.0800 
 47 H       -4.0680    -6.6060    -3.0190 H     1 <1>   0.0800 
@<TRIPOS>BOND
  1   1   2  1   
  2   2   3  ar  
  3   2   4  ar  
  4   3   5  ar  
  5   3   6  1   
  6   4   7  ar  
  7   4  24  1   
  8   5   8  ar  
  9   5  25  1   
 10   6  26  1   
 11   6  27  1   
 12   6  28  1   
 13   7   8  ar  
 14   7  29  1   
 15   8   9  1   
 16   9  10  2   
 17   9  11  am  
 18  11  12  1   
 19  11  13  1   
 20  12  14  1   
 21  12  30  1   
 22  12  31  1   
 23  13  15  1   
 24  13  32  1   
 25  13  33  1   
 26  14  16  1   
 27  14  17  2   
 28  15  18  1   
 29  15  34  1   
 30  15  35  1   
 31  16  19  2   
 32  17  20  1   
 33  17  21  1   
 34  18  22  1   
 35  18  23  1   
 36  18  36  1   
 37  19  20  1   
 38  19  37  1   
 39  20  38  1   
 40  21  39  1   
 41  21  40  1   
 42  21  41  1   
 43  22  42  1   
 44  22  43  1   
 45  22  44  1   
 46  23  45  1   
 47  23  46  1   
 48  23  47  1   
@<TRIPOS>SUBSTRUCTURE
  1 ****   9 GROUP 4 **** **** 0

# MOE 2024.06 (io_trps.svl 2023.06)
