@<TRIPOS>MOLECULE
NONAME
47 49 1 0 0 
SMALL
USER_CHARGES


@<TRIPOS>ATOM
  1 S        0.7950    -0.5040     2.7000 S.o2  1 <1>   1.4470 
  2 O        0.3790     0.2980     3.8260 O.2   1 <1>  -0.6500 
  3 O        1.8660    -1.4590     2.8910 O.2   1 <1>  -0.6500 
  4 N       -0.5390    -1.4300     2.2890 N.am  1 <1>  -0.9140 
  5 C        1.1380     0.5030     1.2310 C.ar  1 <1>  -0.0090 
  6 C       -0.2610    -2.5380     1.3890 C.3   1 <1>   0.2760 
  7 C        0.1650     1.3170     0.6550 C.ar  1 <1>   0.0830 
  8 C        2.3980     0.4740     0.6440 C.ar  1 <1>  -0.1500 
  9 C       -1.5220    -2.9010     0.6210 C.3   1 <1>  -0.0800 
 10 C       -0.0450    -3.8220     2.1870 C.3   1 <1>   0.1200 
 11 O       -1.0610     1.3440     1.2360 O.3   1 <1>  -0.3630 
 12 C        0.4580     2.0680    -0.4820 C.ar  1 <1>  -0.1500 
 13 C        2.6880     1.2200    -0.4830 C.ar  1 <1>  -0.1500 
 14 C       -2.2650    -3.8160     1.6010 C.3   1 <1>   0.1200 
 15 C       -2.3530    -1.7070     0.1110 C.3   1 <1>  -0.0170 
 16 O       -1.3250    -4.2520     2.5410 O.3   1 <1>  -0.5600 
 17 C       -2.0780     2.2300     0.8250 C.3   1 <1>   0.0400 
 18 C        1.7160     2.0210    -1.0540 C.ar  1 <1>  -0.1430 
 19 C       -3.5330    -2.1800    -0.7200 C.ar  1 <1>  -0.1430 
 20 C        2.0360     2.8420    -2.2910 C.3   1 <1>  -0.0970 
 21 C       -4.8010    -2.2940    -0.1880 C.ar  1 <1>  -0.1500 
 22 C       -3.3950    -2.5210    -2.0510 C.ar  1 <1>  -0.1500 
 23 C       -5.8410    -2.7360    -0.9890 C.ar  1 <1>   0.1600 
 24 C       -4.5010    -2.9510    -2.7640 C.ar  1 <1>   0.1600 
 25 N       -5.7200    -3.0680    -2.2640 N.ar  1 <1>  -0.6200 
 26 H       -0.8620    -1.8350     3.1660 H     1 <1>   0.4200 
 27 H        0.5600    -2.3140     0.7270 H     1 <1>   0.0800 
 28 H        3.1700    -0.1420     1.0760 H     1 <1>   0.1500 
 29 H       -1.2350    -3.5000    -0.2250 H     1 <1>   0.0800 
 30 H        0.5500    -3.6800     3.0720 H     1 <1>   0.0800 
 31 H        0.3990    -4.5830     1.5690 H     1 <1>   0.0800 
 32 H       -0.2840     2.6980    -0.9330 H     1 <1>   0.1500 
 33 H        3.6750     1.1760    -0.9120 H     1 <1>   0.1500 
 34 H       -2.6930    -4.6710     1.1060 H     1 <1>   0.0800 
 35 H       -3.0320    -3.2820     2.1350 H     1 <1>   0.0800 
 36 H       -1.7290    -1.0660    -0.4880 H     1 <1>   0.0800 
 37 H       -2.7140    -1.1180     0.9360 H     1 <1>   0.0800 
 38 H       -2.9190     2.0970     1.4820 H     1 <1>   0.0800 
 39 H       -2.3620     1.9940    -0.1850 H     1 <1>   0.0800 
 40 H       -1.7140     3.2390     0.9010 H     1 <1>   0.0800 
 41 H        2.7290     2.3160    -2.9230 H     1 <1>   0.0800 
 42 H        2.4750     3.7800    -2.0000 H     1 <1>   0.0800 
 43 H        1.1440     3.0390    -2.8580 H     1 <1>   0.0800 
 44 H       -4.9910    -2.0440     0.8390 H     1 <1>   0.1500 
 45 H       -2.4400    -2.4550    -2.5390 H     1 <1>   0.1500 
 46 H       -6.8250    -2.8200    -0.5590 H     1 <1>   0.1500 
 47 H       -4.3770    -3.2140    -3.8010 H     1 <1>   0.1500 
@<TRIPOS>BOND
  1   1   2  2   
  2   1   3  2   
  3   1   4  am  
  4   1   5  1   
  5   4   6  1   
  6   4  26  1   
  7   5   7  ar  
  8   5   8  ar  
  9   6   9  1   
 10   6  10  1   
 11   6  27  1   
 12   7  11  1   
 13   7  12  ar  
 14   8  13  ar  
 15   8  28  1   
 16   9  14  1   
 17   9  15  1   
 18   9  29  1   
 19  10  16  1   
 20  10  30  1   
 21  10  31  1   
 22  11  17  1   
 23  12  18  ar  
 24  12  32  1   
 25  13  18  ar  
 26  13  33  1   
 27  14  16  1   
 28  14  34  1   
 29  14  35  1   
 30  15  19  1   
 31  15  36  1   
 32  15  37  1   
 33  17  38  1   
 34  17  39  1   
 35  17  40  1   
 36  18  20  1   
 37  19  21  ar  
 38  19  22  ar  
 39  20  41  1   
 40  20  42  1   
 41  20  43  1   
 42  21  23  ar  
 43  21  44  1   
 44  22  24  ar  
 45  22  45  1   
 46  23  25  ar  
 47  23  46  1   
 48  24  25  ar  
 49  24  47  1   
@<TRIPOS>SUBSTRUCTURE
  1 ****  15 GROUP 4 **** **** 0

# MOE 2024.06 (io_trps.svl 2023.06)
