@<TRIPOS>MOLECULE
NONAME
47 50 1 0 0 
SMALL
USER_CHARGES


@<TRIPOS>ATOM
  1 F       -0.8500    -0.1690    -1.0120 F     1 <1>  -0.3400 
  2 C        0.1590    -0.9780    -0.7000 C.3   1 <1>   1.2010 
  3 F        0.7710    -1.2490    -1.8500 F     1 <1>  -0.3400 
  4 F        1.0190    -0.2490     0.0050 F     1 <1>  -0.3400 
  5 C       -0.3060    -2.2640     0.0420 C.2   1 <1>   0.1080 
  6 N       -0.9150    -2.3100     1.2070 N.2   1 <1>  -0.7070 
  7 C       -0.1220    -3.5460    -0.4610 C.2   1 <1>  -0.1500 
  8 N       -1.1110    -3.6100     1.4590 N.pl3 1 <1>   0.3140 
  9 C       -0.6610    -4.3960     0.4530 C.2   1 <1>  -0.2370 
 10 C       -1.6950    -4.0450     2.7380 C.3   1 <1>   0.0160 
 11 C       -0.7590    -5.8250     0.4360 C.2   1 <1>   0.7150 
 12 O        0.2340    -6.4940     0.2310 O.2   1 <1>  -0.5700 
 13 N       -1.9670    -6.4540     0.6220 N.am  1 <1>  -0.6600 
 14 C       -2.0570    -7.9350     0.8240 C.3   1 <1>   0.1400 
 15 C       -3.2550    -5.8630     0.1420 C.3   1 <1>   0.1400 
 16 C       -2.6760    -8.6240    -0.4050 C.3   1 <1>   0.3440 
 17 C       -3.8140    -6.6610    -1.0590 C.3   1 <1>   0.2950 
 18 O       -3.9010    -8.0170    -0.7290 O.3   1 <1>  -0.5600 
 19 C       -2.8930   -10.1090    -0.1290 C.ar  1 <1>  -0.1440 
 20 C       -5.2140    -6.2240    -1.5240 C.3   1 <1>  -0.1950 
 21 C       -1.8760   -11.0100    -0.4100 C.ar  1 <1>  -0.1500 
 22 C       -4.0810   -10.5820     0.4120 C.ar  1 <1>  -0.1500 
 23 C       -5.7170    -4.8140    -1.4350 C.3   1 <1>  -0.2000 
 24 C       -6.3400    -5.8940    -0.5930 C.3   1 <1>  -0.2000 
 25 C       -2.0410   -12.3600    -0.1530 C.ar  1 <1>  -0.1500 
 26 C       -4.2480   -11.9320     0.6690 C.ar  1 <1>  -0.1500 
 27 C       -3.2280   -12.8220     0.3870 C.ar  1 <1>  -0.1500 
 28 H        0.3540    -3.8130    -1.3900 H     1 <1>   0.1500 
 29 H       -1.1510    -4.8920     3.1120 H     1 <1>   0.0800 
 30 H       -2.7250    -4.3070     2.5880 H     1 <1>   0.0800 
 31 H       -1.6310    -3.2390     3.4460 H     1 <1>   0.0800 
 32 H       -1.0850    -8.3550     1.0130 H     1 <1>   0.0800 
 33 H       -2.6710    -8.1400     1.6840 H     1 <1>   0.0800 
 34 H       -3.9670    -5.8800     0.9470 H     1 <1>   0.0800 
 35 H       -3.1140    -4.8400    -0.1560 H     1 <1>   0.0800 
 36 H       -2.0180    -8.5150    -1.2500 H     1 <1>   0.0800 
 37 H       -3.1350    -6.5630    -1.8890 H     1 <1>   0.0800 
 38 H       -5.4850    -6.7610    -2.4170 H     1 <1>   0.1000 
 39 H       -0.9460   -10.6660    -0.8290 H     1 <1>   0.1500 
 40 H       -4.8830    -9.8990     0.6320 H     1 <1>   0.1500 
 41 H       -5.1500    -4.0500    -0.9330 H     1 <1>   0.1000 
 42 H       -6.2840    -4.4190    -2.2610 H     1 <1>   0.1000 
 43 H       -7.3240    -6.2480    -0.8450 H     1 <1>   0.1000 
 44 H       -6.1720    -5.8930     0.4700 H     1 <1>   0.1000 
 45 H       -1.2460   -13.0510    -0.3750 H     1 <1>   0.1500 
 46 H       -5.1740   -12.2880     1.0860 H     1 <1>   0.1500 
 47 H       -3.3580   -13.8720     0.5860 H     1 <1>   0.1500 
@<TRIPOS>BOND
  1   1   2  1   
  2   2   3  1   
  3   2   4  1   
  4   2   5  1   
  5   5   6  2   
  6   5   7  1   
  7   6   8  1   
  8   7   9  2   
  9   7  28  1   
 10   8   9  1   
 11   8  10  1   
 12   9  11  1   
 13  10  29  1   
 14  10  30  1   
 15  10  31  1   
 16  11  12  2   
 17  11  13  am  
 18  13  14  1   
 19  13  15  1   
 20  14  16  1   
 21  14  32  1   
 22  14  33  1   
 23  15  17  1   
 24  15  34  1   
 25  15  35  1   
 26  16  18  1   
 27  16  19  1   
 28  16  36  1   
 29  17  18  1   
 30  17  20  1   
 31  17  37  1   
 32  19  21  ar  
 33  19  22  ar  
 34  20  23  1   
 35  20  24  1   
 36  20  38  1   
 37  21  25  ar  
 38  21  39  1   
 39  22  26  ar  
 40  22  40  1   
 41  23  24  1   
 42  23  41  1   
 43  23  42  1   
 44  24  43  1   
 45  24  44  1   
 46  25  27  ar  
 47  25  45  1   
 48  26  27  ar  
 49  26  46  1   
 50  27  47  1   
@<TRIPOS>SUBSTRUCTURE
  1 ****  13 GROUP 4 **** **** 0

# MOE 2024.06 (io_trps.svl 2023.06)
