@<TRIPOS>MOLECULE
NONAME
49 52 1 0 0 
SMALL
USER_CHARGES


@<TRIPOS>ATOM
  1 O       -0.2880     0.7150     0.9740 O.2   1 <1>  -0.5700 
  2 C       -0.2460     1.9010     0.6790 C.2   1 <1>   0.5440 
  3 N       -1.4620     2.5580     0.5470 N.am  1 <1>  -0.6600 
  4 C        1.0660     2.5240     0.4600 C.ar  1 <1>   0.3960 
  5 C       -2.7220     1.9190     1.0320 C.3   1 <1>   0.1400 
  6 C       -1.6010     3.8870    -0.1180 C.3   1 <1>   0.1400 
  7 N        1.2590     3.8550     0.7270 N.ar  1 <1>  -0.6200 
  8 C        2.1140     1.7600    -0.0030 C.ar  1 <1>  -0.1500 
  9 C       -3.7570     2.9820     1.4120 C.3   1 <1>  -0.1600 
 10 C       -2.9690     3.9900    -0.7900 C.3   1 <1>  -0.1600 
 11 C        2.4390     4.3580     0.5300 C.ar  1 <1>   0.1600 
 12 C        3.3930     2.2890    -0.2270 C.ar  1 <1>   0.0000 
 13 C       -4.1160     3.9320     0.2430 C.3   1 <1>   0.2800 
 14 C        3.5620     3.6510     0.0530 C.ar  1 <1>   0.0000 
 15 C        4.4880     1.5430    -0.7040 C.ar  1 <1>  -0.1500 
 16 O       -4.2450     5.2010     0.8380 O.3   1 <1>  -0.5600 
 17 C       -5.4500     3.5180    -0.4320 C.3   1 <1>  -0.1600 
 18 C        4.8280     4.2340    -0.1530 C.ar  1 <1>  -0.1500 
 19 C        5.7080     2.1310    -0.8970 C.ar  1 <1>  -0.1500 
 20 C       -4.9650     6.1870     0.1530 C.3   1 <1>   0.1200 
 21 C       -6.6600     4.2700     0.1310 C.3   1 <1>   0.2800 
 22 C        5.8800     3.4920    -0.6190 C.ar  1 <1>  -0.1500 
 23 C       -6.4380     5.7790    -0.0120 C.3   1 <1>  -0.1600 
 24 O       -6.7420     4.0030     1.4720 O.3   1 <1>  -0.6800 
 25 C       -7.9770     3.8140    -0.4900 C.3   1 <1>  -0.2400 
 26 H       -2.5080     1.3090     1.8940 H     1 <1>   0.0800 
 27 H       -3.1120     1.2800     0.2590 H     1 <1>   0.0800 
 28 H       -0.8310     4.0070    -0.8610 H     1 <1>   0.0800 
 29 H       -1.4910     4.6660     0.6190 H     1 <1>   0.0800 
 30 H        1.9570     0.7160    -0.2020 H     1 <1>   0.1500 
 31 H       -3.3440     3.5480     2.2290 H     1 <1>   0.0800 
 32 H       -4.6330     2.4830     1.7810 H     1 <1>   0.0800 
 33 H       -3.0540     3.1680    -1.4770 H     1 <1>   0.0800 
 34 H       -3.0180     4.8910    -1.3700 H     1 <1>   0.0800 
 35 H        2.5800     5.4030     0.7470 H     1 <1>   0.1500 
 36 H        4.3480     0.4970    -0.9140 H     1 <1>   0.1500 
 37 H       -5.6000     2.4570    -0.3530 H     1 <1>   0.0800 
 38 H       -5.3930     3.7340    -1.4830 H     1 <1>   0.0800 
 39 H        4.9580     5.2800     0.0620 H     1 <1>   0.1500 
 40 H        6.5450     1.5610    -1.2620 H     1 <1>   0.1500 
 41 H       -4.5060     6.3460    -0.8060 H     1 <1>   0.0800 
 42 H       -4.8920     7.0990     0.7190 H     1 <1>   0.0800 
 43 H        6.8460     3.9390    -0.7760 H     1 <1>   0.1500 
 44 H       -6.7510     6.0960    -0.9900 H     1 <1>   0.0800 
 45 H       -7.0510     6.3100     0.6950 H     1 <1>   0.0800 
 46 H       -5.9240     4.3620     1.8770 H     1 <1>   0.4000 
 47 H       -7.9720     3.9910    -1.5490 H     1 <1>   0.0800 
 48 H       -8.7980     4.3570    -0.0560 H     1 <1>   0.0800 
 49 H       -8.1230     2.7630    -0.3200 H     1 <1>   0.0800 
@<TRIPOS>BOND
  1   1   2  2   
  2   2   3  am  
  3   2   4  1   
  4   3   5  1   
  5   3   6  1   
  6   4   7  ar  
  7   4   8  ar  
  8   5   9  1   
  9   5  26  1   
 10   5  27  1   
 11   6  10  1   
 12   6  28  1   
 13   6  29  1   
 14   7  11  ar  
 15   8  12  ar  
 16   8  30  1   
 17   9  13  1   
 18   9  31  1   
 19   9  32  1   
 20  10  13  1   
 21  10  33  1   
 22  10  34  1   
 23  11  14  ar  
 24  11  35  1   
 25  12  14  ar  
 26  12  15  ar  
 27  13  16  1   
 28  13  17  1   
 29  14  18  ar  
 30  15  19  ar  
 31  15  36  1   
 32  16  20  1   
 33  17  21  1   
 34  17  37  1   
 35  17  38  1   
 36  18  22  ar  
 37  18  39  1   
 38  19  22  ar  
 39  19  40  1   
 40  20  23  1   
 41  20  41  1   
 42  20  42  1   
 43  21  23  1   
 44  21  24  1   
 45  21  25  1   
 46  22  43  1   
 47  23  44  1   
 48  23  45  1   
 49  24  46  1   
 50  25  47  1   
 51  25  48  1   
 52  25  49  1   
@<TRIPOS>SUBSTRUCTURE
  1 ****   6 GROUP 4 **** **** 0

# MOE 2024.06 (io_trps.svl 2023.06)
