@<TRIPOS>MOLECULE
NONAME
43 46 1 0 0 
SMALL
USER_CHARGES


@<TRIPOS>ATOM
  1 O        1.6130     0.8720    -0.2600 O.2   1 <1>  -0.5700 
  2 C        0.9890     1.8950    -0.4760 C.2   1 <1>   0.7800 
  3 O       -0.2700     2.0490    -0.0690 O.3   1 <1>  -0.4300 
  4 N        1.5620     2.9660    -1.0860 N.am  1 <1>  -0.5100 
  5 C       -1.0620     1.1150     0.6310 C.3   1 <1>   0.2800 
  6 C        2.9060     2.9130    -1.7750 C.3   1 <1>   0.2250 
  7 C        2.0990     4.1010    -0.2540 C.3   1 <1>   0.2250 
  8 C       -2.4100     1.8070     0.8330 C.3   1 <1>  -0.2400 
  9 C       -0.4390     0.8120     1.9990 C.3   1 <1>  -0.2400 
 10 C       -1.2640    -0.1490    -0.2140 C.3   1 <1>  -0.2400 
 11 C        3.5290     3.5420    -0.5010 C.3   1 <1>   0.4060 
 12 N        3.9420     2.5060     0.4970 N.pl3 1 <1>  -0.7450 
 13 C        4.6250     4.5640    -0.7590 C.2   1 <1>  -0.3130 
 14 C        5.2960     2.1640     0.5960 C.ar  1 <1>   0.1000 
 15 N        5.9210     4.2390    -0.4530 N.pl3 1 <1>   0.3260 
 16 C        4.5640     5.8220    -1.2740 C.2   1 <1>  -0.1500 
 17 C        6.3240     3.0090     0.1380 C.ar  1 <1>   0.2870 
 18 C        5.6440     0.9550     1.1640 C.ar  1 <1>  -0.1500 
 19 C        6.6690     5.3320    -0.8010 C.2   1 <1>  -0.3020 
 20 C        5.8730     6.3120    -1.3010 C.2   1 <1>  -0.1500 
 21 N        7.6240     2.7170     0.2180 N.ar  1 <1>  -0.6200 
 22 C        6.9850     0.6490     1.2490 C.ar  1 <1>  -0.1500 
 23 C        7.9190     1.5500     0.7700 C.ar  1 <1>   0.1600 
 24 H        2.9210     3.5620    -2.6340 H     1 <1>   0.0000 
 25 H        3.2410     1.9120    -1.9820 H     1 <1>   0.0000 
 26 H        1.7820     4.0520     0.7730 H     1 <1>   0.0000 
 27 H        1.9010     5.0470    -0.7270 H     1 <1>   0.0000 
 28 H       -2.2860     2.7100     1.4040 H     1 <1>   0.0800 
 29 H       -3.0870     1.1620     1.3630 H     1 <1>   0.0800 
 30 H       -2.8500     2.0520    -0.1170 H     1 <1>   0.0800 
 31 H       -0.2430     1.7250     2.5310 H     1 <1>   0.0800 
 32 H        0.4750     0.2580     1.8960 H     1 <1>   0.0800 
 33 H       -1.1150     0.2160     2.5840 H     1 <1>   0.0800 
 34 H       -1.6380     0.1080    -1.1880 H     1 <1>   0.0800 
 35 H       -1.9760    -0.7970     0.2630 H     1 <1>   0.0800 
 36 H       -0.3470    -0.6980    -0.3190 H     1 <1>   0.0800 
 37 H        3.2940     1.7000     0.4550 H     1 <1>   0.4000 
 38 H        3.7020     6.3720    -1.6110 H     1 <1>   0.1500 
 39 H        4.8920     0.2790     1.5290 H     1 <1>   0.1500 
 40 H        7.7350     5.3340    -0.6630 H     1 <1>   0.1500 
 41 H        6.1660     7.2850    -1.6570 H     1 <1>   0.1500 
 42 H        7.3060    -0.2800     1.6850 H     1 <1>   0.1500 
 43 H        8.9640     1.3000     0.8440 H     1 <1>   0.1500 
@<TRIPOS>BOND
  1   1   2  2   
  2   2   3  1   
  3   2   4  am  
  4   3   5  1   
  5   4   6  1   
  6   4   7  1   
  7   5   8  1   
  8   5   9  1   
  9   5  10  1   
 10   6  11  1   
 11   6  24  1   
 12   6  25  1   
 13   7  11  1   
 14   7  26  1   
 15   7  27  1   
 16   8  28  1   
 17   8  29  1   
 18   8  30  1   
 19   9  31  1   
 20   9  32  1   
 21   9  33  1   
 22  10  34  1   
 23  10  35  1   
 24  10  36  1   
 25  11  12  1   
 26  11  13  1   
 27  12  14  1   
 28  12  37  1   
 29  13  15  1   
 30  13  16  2   
 31  14  17  ar  
 32  14  18  ar  
 33  15  17  1   
 34  15  19  1   
 35  16  20  1   
 36  16  38  1   
 37  17  21  ar  
 38  18  22  ar  
 39  18  39  1   
 40  19  20  2   
 41  19  40  1   
 42  20  41  1   
 43  21  23  ar  
 44  22  23  ar  
 45  22  42  1   
 46  23  43  1   
@<TRIPOS>SUBSTRUCTURE
  1 ****  12 GROUP 4 **** **** 0

# MOE 2024.06 (io_trps.svl 2023.06)
