@<TRIPOS>MOLECULE
NONAME
34 36 1 0 0 
SMALL
USER_CHARGES


@<TRIPOS>ATOM
  1 O       -0.5500    -0.0420    -0.5560 O.2   1 <1>  -0.5700 
  2 C       -1.4680     0.6550    -0.1480 C.2   1 <1>   0.7160 
  3 N       -2.5550     0.0360     0.4240 N.am  1 <1>  -0.6600 
  4 C       -1.4200     2.1030    -0.3110 C.2   1 <1>   0.2030 
  5 C       -3.7510     0.7310     0.9780 C.3   1 <1>   0.2350 
  6 C       -2.8830    -1.4000     0.2050 C.3   1 <1>   0.2350 
  7 N       -0.6150     2.9550     0.3050 N.2   1 <1>  -0.7070 
  8 C       -2.2670     2.7990    -1.1840 C.2   1 <1>  -0.1500 
  9 C       -4.9330    -0.0970     0.5110 C.3   1 <1>  -0.2420 
 10 C       -4.3960    -1.4310     0.0480 C.3   1 <1>  -0.2420 
 11 N       -0.9390     4.1650    -0.1630 N.pl3 1 <1>   0.3140 
 12 C       -1.9360     4.0980    -1.0650 C.2   1 <1>  -0.3020 
 13 C       -6.1930     0.3030     1.2810 C.2   1 <1>   0.9470 
 14 C       -5.0770    -0.5100    -0.9340 C.3   1 <1>  -0.2000 
 15 C       -4.9360    -2.8520     0.2330 C.2   1 <1>   0.9470 
 16 C       -0.2590     5.3900     0.3010 C.3   1 <1>   0.0960 
 17 O       -7.1630     0.7590     0.6600 O.co2 1 <1>  -0.9000 
 18 O       -6.1530     0.3360     2.5180 O.co2 1 <1>  -0.9000 
 19 O       -5.6020    -3.3760    -0.6710 O.co2 1 <1>  -0.9000 
 20 O       -4.5650    -3.5100     1.2150 O.co2 1 <1>  -0.9000 
 21 C        0.7680     5.8770    -0.7290 C.3   1 <1>  -0.2400 
 22 H       -3.6990     0.7180     2.0540 H     1 <1>   0.0800 
 23 H       -3.8430     1.7450     0.6380 H     1 <1>   0.0800 
 24 H       -2.3990    -1.7910    -0.6730 H     1 <1>   0.0800 
 25 H       -2.5850    -1.9700     1.0680 H     1 <1>   0.0800 
 26 H       -3.0200     2.3410    -1.8010 H     1 <1>   0.1500 
 27 H       -2.3440     4.9610    -1.5570 H     1 <1>   0.1500 
 28 H       -4.4960    -0.0200    -1.6910 H     1 <1>   0.1000 
 29 H       -6.0590    -0.7860    -1.2810 H     1 <1>   0.1000 
 30 H       -1.0010     6.1450     0.4780 H     1 <1>   0.0800 
 31 H        0.2330     5.1660     1.2310 H     1 <1>   0.0800 
 32 H        0.2840     6.1180    -1.6590 H     1 <1>   0.0800 
 33 H        1.5070     5.1130    -0.9000 H     1 <1>   0.0800 
 34 H        1.2650     6.7570    -0.3620 H     1 <1>   0.0800 
@<TRIPOS>BOND
  1   1   2  2   
  2   2   3  am  
  3   2   4  1   
  4   3   5  1   
  5   3   6  1   
  6   4   7  2   
  7   4   8  1   
  8   5   9  1   
  9   5  22  1   
 10   5  23  1   
 11   6  10  1   
 12   6  24  1   
 13   6  25  1   
 14   7  11  1   
 15   8  12  2   
 16   8  26  1   
 17   9  10  1   
 18   9  13  1   
 19   9  14  1   
 20  10  14  1   
 21  10  15  1   
 22  11  12  1   
 23  11  16  1   
 24  12  27  1   
 25  13  17  ar  
 26  13  18  ar  
 27  14  28  1   
 28  14  29  1   
 29  15  19  ar  
 30  15  20  ar  
 31  16  21  1   
 32  16  30  1   
 33  16  31  1   
 34  21  32  1   
 35  21  33  1   
 36  21  34  1   
@<TRIPOS>SUBSTRUCTURE
  1 ****   5 GROUP 4 **** **** 0

# MOE 2024.06 (io_trps.svl 2023.06)
