@<TRIPOS>MOLECULE
NONAME
54 57 1 0 0 
SMALL
USER_CHARGES


@<TRIPOS>ATOM
  1 O       -0.0230     0.5890    -0.3790 O.2   1 <1>  -0.5700 
  2 C       -0.6470     1.5340     0.0420 C.2   1 <1>   0.5690 
  3 N       -2.0120     1.5940    -0.1070 N.am  1 <1>  -0.6600 
  4 C        0.1000     2.6640     0.7510 C.3   1 <1>   0.0820 
  5 C       -2.8900     2.7240     0.3380 C.3   1 <1>   0.1400 
  6 C       -2.7330     0.4470    -0.7440 C.3   1 <1>   0.1400 
  7 C        1.5970     2.4510     0.9520 C.2   1 <1>  -0.1810 
  8 C       -3.7080     3.3010    -0.8400 C.3   1 <1>   0.1440 
  9 C       -4.1790     0.7990    -1.1300 C.3   1 <1>  -0.1600 
 10 C        2.6440     3.1120     0.4280 C.2   1 <1>  -0.0400 
 11 C        2.2050     1.4960     1.7700 C.2   1 <1>   0.1080 
 12 C       -4.8170     4.1420    -0.2320 C.ar  1 <1>   0.1660 
 13 C       -4.2480     2.1890    -1.7800 C.3   1 <1>  -0.1600 
 14 C       -2.8970     4.3600    -1.6350 C.3   1 <1>  -0.1600 
 15 O        3.7360     2.5890     0.9160 O.3   1 <1>  -0.0190 
 16 C        2.7600     4.2630    -0.5500 C.3   1 <1>  -0.0600 
 17 N        3.4840     1.6110     1.7340 N.2   1 <1>  -0.4100 
 18 C        1.4900     0.4490     2.5960 C.3   1 <1>  -0.0590 
 19 N       -5.8820     3.6690     0.3640 N.ar  1 <1>  -0.6200 
 20 C       -4.5630     5.4740    -0.3510 C.ar  1 <1>  -0.1430 
 21 C       -3.2570     5.7390    -1.0540 C.3   1 <1>  -0.0170 
 22 C       -6.7260     4.5880     0.8400 C.ar  1 <1>   0.7200 
 23 C       -5.4850     6.3470     0.1700 C.ar  1 <1>   0.1600 
 24 N       -6.5690     5.9140     0.7680 N.ar  1 <1>  -0.6200 
 25 N       -7.8630     4.1240     1.4710 N.pl3 1 <1>  -0.8380 
 26 C       -8.3350     2.7190     1.3210 C.3   1 <1>   0.1290 
 27 C       -8.7310     5.0140     2.2910 C.3   1 <1>   0.1290 
 28 H       -0.3430     2.8050     1.7180 H     1 <1>   0.0800 
 29 H       -0.0490     3.5620     0.1850 H     1 <1>   0.0800 
 30 H       -2.3280     3.5120     0.8030 H     1 <1>   0.0800 
 31 H       -3.5700     2.3420     1.0810 H     1 <1>   0.0800 
 32 H       -2.7280    -0.3930    -0.0700 H     1 <1>   0.0800 
 33 H       -2.1950     0.1580    -1.6320 H     1 <1>   0.0800 
 34 H       -4.8050     0.7750    -0.2540 H     1 <1>   0.0800 
 35 H       -4.5530     0.0570    -1.8120 H     1 <1>   0.0800 
 36 H       -3.6580     2.1510    -2.6780 H     1 <1>   0.0800 
 37 H       -5.2620     2.4090    -2.0690 H     1 <1>   0.0800 
 38 H       -3.2120     4.3550    -2.6640 H     1 <1>   0.0800 
 39 H       -1.8390     4.1700    -1.6070 H     1 <1>   0.0800 
 40 H        1.7910     4.5810    -0.8850 H     1 <1>   0.0800 
 41 H        3.3360     3.9500    -1.4030 H     1 <1>   0.0800 
 42 H        3.2590     5.0890    -0.0780 H     1 <1>   0.0800 
 43 H        0.7210     0.9040     3.1900 H     1 <1>   0.0800 
 44 H        2.1890    -0.0430     3.2470 H     1 <1>   0.0800 
 45 H        1.0510    -0.2850     1.9450 H     1 <1>   0.0800 
 46 H       -3.3650     6.4790    -1.8280 H     1 <1>   0.0800 
 47 H       -2.5190     6.0600    -0.3390 H     1 <1>   0.0800 
 48 H       -5.3320     7.4100     0.0980 H     1 <1>   0.1500 
 49 H       -7.9980     2.3040     0.3870 H     1 <1>   0.0800 
 50 H       -9.4100     2.6870     1.3360 H     1 <1>   0.0800 
 51 H       -7.9480     2.1230     2.1290 H     1 <1>   0.0800 
 52 H       -8.1500     5.8030     2.7350 H     1 <1>   0.0800 
 53 H       -9.1970     4.4510     3.0800 H     1 <1>   0.0800 
 54 H       -9.4910     5.4490     1.6650 H     1 <1>   0.0800 
@<TRIPOS>BOND
  1   1   2  2   
  2   2   3  am  
  3   2   4  1   
  4   3   5  1   
  5   3   6  1   
  6   4   7  1   
  7   4  28  1   
  8   4  29  1   
  9   5   8  1   
 10   5  30  1   
 11   5  31  1   
 12   6   9  1   
 13   6  32  1   
 14   6  33  1   
 15   7  10  2   
 16   7  11  1   
 17   8  12  1   
 18   8  13  1   
 19   8  14  1   
 20   9  13  1   
 21   9  34  1   
 22   9  35  1   
 23  10  15  1   
 24  10  16  1   
 25  11  17  2   
 26  11  18  1   
 27  12  19  ar  
 28  12  20  ar  
 29  13  36  1   
 30  13  37  1   
 31  14  21  1   
 32  14  38  1   
 33  14  39  1   
 34  15  17  1   
 35  16  40  1   
 36  16  41  1   
 37  16  42  1   
 38  18  43  1   
 39  18  44  1   
 40  18  45  1   
 41  19  22  ar  
 42  20  21  1   
 43  20  23  ar  
 44  21  46  1   
 45  21  47  1   
 46  22  24  ar  
 47  22  25  1   
 48  23  24  ar  
 49  23  48  1   
 50  25  26  1   
 51  25  27  1   
 52  26  49  1   
 53  26  50  1   
 54  26  51  1   
 55  27  52  1   
 56  27  53  1   
 57  27  54  1   
@<TRIPOS>SUBSTRUCTURE
  1 ****   5 GROUP 4 **** **** 0

# MOE 2024.06 (io_trps.svl 2023.06)
