@<TRIPOS>MOLECULE
NONAME
53 55 1 0 0 
SMALL
USER_CHARGES


@<TRIPOS>ATOM
  1 O        2.4370    -2.2310     1.8580 O.2   1 <1>  -0.5700 
  2 C        1.5290    -2.2000     1.0420 C.2   1 <1>   0.5440 
  3 N        0.5640    -1.2100     1.1940 N.am  1 <1>  -0.6600 
  4 C        1.5280    -3.1840    -0.0490 C.ar  1 <1>   0.3960 
  5 C        0.4690    -0.3870     2.4320 C.3   1 <1>   0.0600 
  6 C       -0.4270    -0.8540     0.1420 C.3   1 <1>   0.0600 
  7 N        0.3680    -3.6930    -0.4990 N.ar  1 <1>  -0.6200 
  8 C        2.7510    -3.5790    -0.5910 C.ar  1 <1>  -0.1500 
  9 C        0.4300    -4.5780    -1.4790 C.ar  1 <1>   0.4100 
 10 C        2.8150    -4.5020    -1.6130 C.ar  1 <1>  -0.1500 
 11 N       -0.7640    -5.1080    -1.9200 N.pl3 1 <1>  -0.8380 
 12 C        1.6180    -5.0040    -2.0580 C.ar  1 <1>  -0.1500 
 13 C       -1.9480    -4.1940    -2.0410 C.3   1 <1>   0.2090 
 14 C       -1.1470    -6.4340    -1.3490 C.3   1 <1>   0.2090 
 15 C       -2.8020    -4.1670    -0.7490 C.3   1 <1>   0.2950 
 16 C       -2.0350    -6.2800    -0.0900 C.3   1 <1>   0.2000 
 17 O       -3.1430    -5.4730    -0.3740 O.3   1 <1>  -0.5600 
 18 C       -4.1170    -3.3710    -0.8550 C.3   1 <1>  -0.1950 
 19 C       -2.5830    -7.6150     0.4310 C.3   1 <1>  -0.1600 
 20 C       -5.0320    -3.4190    -2.0390 C.3   1 <1>  -0.2000 
 21 C       -4.2810    -2.1560    -1.7170 C.3   1 <1>  -0.2000 
 22 C       -1.4820    -8.5590     0.9410 C.3   1 <1>  -0.1600 
 23 C       -2.0850    -9.8320     1.5430 C.3   1 <1>  -0.1600 
 24 C       -0.9890   -10.7730     2.0520 C.3   1 <1>  -0.2400 
 25 H       -0.5560    -0.3250     2.7520 H     1 <1>   0.0800 
 26 H        0.8430     0.6020     2.2380 H     1 <1>   0.0800 
 27 H        1.0460    -0.8250     3.2280 H     1 <1>   0.0800 
 28 H       -0.6160     0.2050     0.1560 H     1 <1>   0.0800 
 29 H       -1.3480    -1.3810     0.3220 H     1 <1>   0.0800 
 30 H       -0.0550    -1.1180    -0.8330 H     1 <1>   0.0800 
 31 H        3.6580    -3.1550    -0.1970 H     1 <1>   0.1500 
 32 H        3.7540    -4.8110    -2.0380 H     1 <1>   0.1500 
 33 H        1.5760    -5.7240    -2.8530 H     1 <1>   0.1500 
 34 H       -1.6070    -3.1990    -2.2610 H     1 <1>   0.0800 
 35 H       -2.5540    -4.5240    -2.8640 H     1 <1>   0.0800 
 36 H       -1.6790    -6.9990    -2.0930 H     1 <1>   0.0800 
 37 H       -0.2570    -6.9800    -1.0930 H     1 <1>   0.0800 
 38 H       -2.2160    -3.7380     0.0450 H     1 <1>   0.0800 
 39 H       -1.4670    -5.8030     0.6900 H     1 <1>   0.0800 
 40 H       -4.5940    -3.3280     0.1090 H     1 <1>   0.1000 
 41 H       -3.2590    -7.4030     1.2410 H     1 <1>   0.0800 
 42 H       -3.1400    -8.0990    -0.3530 H     1 <1>   0.0800 
 43 H       -4.7490    -3.9940    -2.9040 H     1 <1>   0.1000 
 44 H       -6.0920    -3.4590    -1.8570 H     1 <1>   0.1000 
 45 H       -4.8320    -1.3190    -1.3250 H     1 <1>   0.1000 
 46 H       -3.5040    -1.8480    -2.3940 H     1 <1>   0.1000 
 47 H       -0.8260    -8.8330     0.1330 H     1 <1>   0.0800 
 48 H       -0.8980    -8.0530     1.6920 H     1 <1>   0.0800 
 49 H       -2.7360    -9.5730     2.3610 H     1 <1>   0.0800 
 50 H       -2.6730   -10.3430     0.7990 H     1 <1>   0.0800 
 51 H       -0.4020   -10.2900     2.8130 H     1 <1>   0.0800 
 52 H       -0.3400   -11.0670     1.2460 H     1 <1>   0.0800 
 53 H       -1.4320   -11.6580     2.4740 H     1 <1>   0.0800 
@<TRIPOS>BOND
  1   1   2  2   
  2   2   3  am  
  3   2   4  1   
  4   3   5  1   
  5   3   6  1   
  6   4   7  ar  
  7   4   8  ar  
  8   5  25  1   
  9   5  26  1   
 10   5  27  1   
 11   6  28  1   
 12   6  29  1   
 13   6  30  1   
 14   7   9  ar  
 15   8  10  ar  
 16   8  31  1   
 17   9  11  1   
 18   9  12  ar  
 19  10  12  ar  
 20  10  32  1   
 21  11  13  1   
 22  11  14  1   
 23  12  33  1   
 24  13  15  1   
 25  13  34  1   
 26  13  35  1   
 27  14  16  1   
 28  14  36  1   
 29  14  37  1   
 30  15  17  1   
 31  15  18  1   
 32  15  38  1   
 33  16  17  1   
 34  16  19  1   
 35  16  39  1   
 36  18  20  1   
 37  18  21  1   
 38  18  40  1   
 39  19  22  1   
 40  19  41  1   
 41  19  42  1   
 42  20  21  1   
 43  20  43  1   
 44  20  44  1   
 45  21  45  1   
 46  21  46  1   
 47  22  23  1   
 48  22  47  1   
 49  22  48  1   
 50  23  24  1   
 51  23  49  1   
 52  23  50  1   
 53  24  51  1   
 54  24  52  1   
 55  24  53  1   
@<TRIPOS>SUBSTRUCTURE
  1 ****   7 GROUP 4 **** **** 0

# MOE 2024.06 (io_trps.svl 2023.06)
