@<TRIPOS>MOLECULE
NONAME
46 48 1 0 0 
SMALL
USER_CHARGES


@<TRIPOS>ATOM
  1 S        0.1460    -0.5020    -0.5680 S.3   1 <1>  -0.0800 
  2 C       -0.1630    -1.7200     0.6610 C.ar  1 <1>   0.2970 
  3 C       -1.4730    -0.6850    -1.2290 C.2   1 <1>  -0.1400 
  4 N        0.7340    -2.0010     1.5810 N.ar  1 <1>  -0.5670 
  5 C       -1.4180    -2.2730     0.5160 C.ar  1 <1>   0.0000 
  6 C       -2.1670    -1.6200    -0.5490 C.2   1 <1>  -0.1810 
  7 C       -1.7990     0.2250    -2.3980 C.3   1 <1>  -0.0600 
  8 C        0.3050    -2.9130     2.4250 C.ar  1 <1>   0.4700 
  9 C       -1.6880    -3.3040     1.4370 C.ar  1 <1>   0.4100 
 10 C       -3.6270    -1.9320    -0.8420 C.3   1 <1>  -0.0590 
 11 N       -0.8440    -3.5650     2.4250 N.ar  1 <1>  -0.6200 
 12 N       -2.7990    -4.1260     1.3900 N.pl3 1 <1>  -0.8380 
 13 C       -3.1980    -4.8630     0.1440 C.3   1 <1>   0.2090 
 14 C       -3.5210    -4.5240     2.6250 C.3   1 <1>   0.2090 
 15 C       -3.2460    -6.4040     0.2650 C.3   1 <1>  -0.1060 
 16 C       -3.4040    -6.0290     2.8400 C.3   1 <1>  -0.1600 
 17 C       -4.1890    -6.9080    -0.8370 C.2   1 <1>   0.9060 
 18 C       -3.9200    -6.7730     1.6080 C.3   1 <1>   0.2000 
 19 C       -1.8590    -7.0640    -0.0330 C.3   1 <1>  -0.1600 
 20 O       -4.4560    -6.1860    -1.8060 O.co2 1 <1>  -0.9000 
 21 O       -4.6650    -8.0500    -0.7370 O.co2 1 <1>  -0.9000 
 22 O       -3.8310    -8.1330     1.8290 O.3   1 <1>  -0.6800 
 23 C       -0.7230    -6.8860     0.9820 C.3   1 <1>  -0.1600 
 24 C        0.5980    -7.4280     0.4310 C.3   1 <1>  -0.2400 
 25 H       -2.7760     0.0160    -2.7910 H     1 <1>   0.0800 
 26 H       -1.0790     0.0780    -3.1830 H     1 <1>   0.0800 
 27 H       -1.7630     1.2520    -2.0820 H     1 <1>   0.0800 
 28 H        0.9820    -3.1690     3.2220 H     1 <1>   0.1500 
 29 H       -4.1510    -2.1490     0.0710 H     1 <1>   0.0800 
 30 H       -3.7040    -2.7690    -1.5120 H     1 <1>   0.0800 
 31 H       -4.1120    -1.0930    -1.3010 H     1 <1>   0.0800 
 32 H       -4.1860    -4.5210    -0.1100 H     1 <1>   0.0800 
 33 H       -2.5440    -4.5960    -0.6680 H     1 <1>   0.0800 
 34 H       -3.1220    -4.0020     3.4780 H     1 <1>   0.0800 
 35 H       -4.5570    -4.2520     2.5230 H     1 <1>   0.0800 
 36 H       -3.9950    -6.3070     3.6920 H     1 <1>   0.0800 
 37 H       -2.3820    -6.2690     3.0480 H     1 <1>   0.0800 
 38 H       -4.9710    -6.5540     1.5180 H     1 <1>   0.0800 
 39 H       -2.0120    -8.1220    -0.1610 H     1 <1>   0.0800 
 40 H       -1.5250    -6.6920    -0.9870 H     1 <1>   0.0800 
 41 H       -4.1390    -8.5440     0.9750 H     1 <1>   0.4000 
 42 H       -0.6030    -5.8480     1.2170 H     1 <1>   0.0800 
 43 H       -0.9630    -7.4210     1.8820 H     1 <1>   0.0800 
 44 H        0.8780    -6.8920    -0.4590 H     1 <1>   0.0800 
 45 H        0.5030    -8.4730     0.1940 H     1 <1>   0.0800 
 46 H        1.3760    -7.3080     1.1630 H     1 <1>   0.0800 
@<TRIPOS>BOND
  1   1   2  1   
  2   1   3  1   
  3   2   4  ar  
  4   2   5  ar  
  5   3   6  2   
  6   3   7  1   
  7   4   8  ar  
  8   5   6  1   
  9   5   9  ar  
 10   6  10  1   
 11   7  25  1   
 12   7  26  1   
 13   7  27  1   
 14   8  11  ar  
 15   8  28  1   
 16   9  11  ar  
 17   9  12  1   
 18  10  29  1   
 19  10  30  1   
 20  10  31  1   
 21  12  13  1   
 22  12  14  1   
 23  13  15  1   
 24  13  32  1   
 25  13  33  1   
 26  14  16  1   
 27  14  34  1   
 28  14  35  1   
 29  15  17  1   
 30  15  18  1   
 31  15  19  1   
 32  16  18  1   
 33  16  36  1   
 34  16  37  1   
 35  17  20  ar  
 36  17  21  ar  
 37  18  22  1   
 38  18  38  1   
 39  19  23  1   
 40  19  39  1   
 41  19  40  1   
 42  22  41  1   
 43  23  24  1   
 44  23  42  1   
 45  23  43  1   
 46  24  44  1   
 47  24  45  1   
 48  24  46  1   
@<TRIPOS>SUBSTRUCTURE
  1 ****  12 GROUP 4 **** **** 0

# MOE 2024.06 (io_trps.svl 2023.06)
