@<TRIPOS>MOLECULE
NONAME
45 47 1 0 0 
SMALL
USER_CHARGES


@<TRIPOS>ATOM
  1 S       -0.0800    -0.9820    -0.4560 S.3   1 <1>  -0.4600 
  2 C       -1.7360    -0.9910     0.3120 C.3   1 <1>   0.2510 
  3 C        0.8740     0.1310     0.6090 C.3   1 <1>  -0.0100 
  4 C       -2.6640    -1.9440    -0.4270 C.2   1 <1>   0.3350 
  5 N       -3.5460    -1.5890    -1.2760 N.2   1 <1>  -0.4100 
  6 N       -2.6340    -3.2530    -0.2140 N.2   1 <1>  -0.5650 
  7 O       -4.1420    -2.6680    -1.6810 O.3   1 <1>  -0.0190 
  8 C       -3.5590    -3.6290    -1.0070 C.2   1 <1>   0.2980 
  9 C       -3.9990    -5.0700    -1.2530 C.3   1 <1>   0.2900 
 10 N       -5.2450    -5.4690    -0.5470 N.3   1 <1>  -0.8100 
 11 C       -5.4230    -6.9350    -0.6200 C.3   1 <1>   0.1100 
 12 C       -6.4320    -4.7610    -1.0590 C.3   1 <1>   0.1100 
 13 C       -6.6430    -7.3910     0.2000 C.3   1 <1>   0.2000 
 14 C       -7.6770    -5.1510    -0.2520 C.3   1 <1>  -0.1600 
 15 O       -6.8500    -8.7560     0.0100 O.3   1 <1>  -0.5600 
 16 C       -7.9080    -6.6680    -0.2630 C.3   1 <1>  -0.1600 
 17 C       -6.1190    -9.5870     0.8740 C.3   1 <1>   0.2630 
 18 C       -6.2550   -11.0630     0.5060 C.ar  1 <1>   0.1670 
 19 N       -5.3710   -11.8730     1.0760 N.ar  1 <1>  -0.6200 
 20 C       -7.2480   -11.5010    -0.3630 C.ar  1 <1>  -0.1500 
 21 C       -5.4780   -13.1550     0.7670 C.ar  1 <1>   0.1600 
 22 C       -7.3470   -12.8400    -0.6740 C.ar  1 <1>  -0.1500 
 23 C       -6.4300   -13.6830    -0.0870 C.ar  1 <1>  -0.1500 
 24 H       -2.1130     0.0130     0.2670 H     1 <1>   0.0800 
 25 H       -1.6180    -1.3010     1.3330 H     1 <1>   0.0800 
 26 H        1.8710     0.1880     0.2100 H     1 <1>   0.0800 
 27 H        0.8830    -0.2830     1.6010 H     1 <1>   0.0800 
 28 H        0.4010     1.0970     0.5930 H     1 <1>   0.0800 
 29 H       -3.1960    -5.7020    -0.9140 H     1 <1>   0.0800 
 30 H       -4.1130    -5.2250    -2.3110 H     1 <1>   0.0800 
 31 H       -4.5420    -7.4150    -0.2320 H     1 <1>   0.0800 
 32 H       -5.5590    -7.2310    -1.6470 H     1 <1>   0.0800 
 33 H       -6.5820    -4.9980    -2.0990 H     1 <1>   0.0800 
 34 H       -6.2940    -3.6980    -0.9670 H     1 <1>   0.0800 
 35 H       -6.4770    -7.1960     1.2470 H     1 <1>   0.0800 
 36 H       -8.5370    -4.6520    -0.6620 H     1 <1>   0.0800 
 37 H       -7.5510    -4.8080     0.7600 H     1 <1>   0.0800 
 38 H       -8.7260    -6.9180     0.3890 H     1 <1>   0.0800 
 39 H       -8.1510    -6.9830    -1.2620 H     1 <1>   0.0800 
 40 H       -6.4770    -9.4360     1.8770 H     1 <1>   0.0800 
 41 H       -5.0800    -9.3140     0.8230 H     1 <1>   0.0800 
 42 H       -7.9400   -10.8010    -0.7940 H     1 <1>   0.1500 
 43 H       -4.7670   -13.8240     1.2210 H     1 <1>   0.1500 
 44 H       -8.1050   -13.2060    -1.3450 H     1 <1>   0.1500 
 45 H       -6.4510   -14.7390    -0.2870 H     1 <1>   0.1500 
@<TRIPOS>BOND
  1   1   2  1   
  2   1   3  1   
  3   2   4  1   
  4   2  24  1   
  5   2  25  1   
  6   3  26  1   
  7   3  27  1   
  8   3  28  1   
  9   4   5  2   
 10   4   6  1   
 11   5   7  1   
 12   6   8  2   
 13   7   8  1   
 14   8   9  1   
 15   9  10  1   
 16   9  29  1   
 17   9  30  1   
 18  10  11  1   
 19  10  12  1   
 20  11  13  1   
 21  11  31  1   
 22  11  32  1   
 23  12  14  1   
 24  12  33  1   
 25  12  34  1   
 26  13  15  1   
 27  13  16  1   
 28  13  35  1   
 29  14  16  1   
 30  14  36  1   
 31  14  37  1   
 32  15  17  1   
 33  16  38  1   
 34  16  39  1   
 35  17  18  1   
 36  17  40  1   
 37  17  41  1   
 38  18  19  ar  
 39  18  20  ar  
 40  19  21  ar  
 41  20  22  ar  
 42  20  42  1   
 43  21  23  ar  
 44  21  43  1   
 45  22  23  ar  
 46  22  44  1   
 47  23  45  1   
@<TRIPOS>SUBSTRUCTURE
  1 ****  11 GROUP 4 **** **** 0

# MOE 2024.06 (io_trps.svl 2023.06)
