@<TRIPOS>MOLECULE
NONAME
49 50 1 0 0 
SMALL
USER_CHARGES


@<TRIPOS>ATOM
  1 CL       1.7160     5.2740     2.1870 Cl    1 <1>  -0.1770 
  2 C        1.4520     4.3930     0.7010 C.ar  1 <1>   0.1770 
  3 C        2.0530     3.1600     0.4730 C.ar  1 <1>  -0.1440 
  4 C        0.6240     4.9820    -0.2380 C.ar  1 <1>  -0.1500 
  5 C        1.7970     2.5260    -0.7390 C.ar  1 <1>  -0.1500 
  6 C        2.9730     2.4970     1.5010 C.3   1 <1>   0.3640 
  7 C        0.3890     4.3410    -1.4410 C.ar  1 <1>  -0.1500 
  8 C        0.9770     3.1130    -1.6880 C.ar  1 <1>  -0.1500 
  9 N        2.4960     1.1130     1.7300 N.am  1 <1>  -0.7300 
 10 C        4.4390     2.5010     0.9930 C.3   1 <1>   0.2610 
 11 C        3.3200     0.0460     1.8370 C.2   1 <1>   0.5690 
 12 O        5.2410     1.5870     1.7160 O.3   1 <1>  -0.5600 
 13 C        5.0400     3.9170     1.0590 C.2   1 <1>   0.5690 
 14 O        2.8740    -1.0510     2.0560 O.2   1 <1>  -0.5700 
 15 C        4.8280     0.2370     1.6380 C.3   1 <1>   0.1810 
 16 O        4.7670     4.6130     2.0140 O.2   1 <1>  -0.5700 
 17 N        5.8310     4.4370     0.0550 N.am  1 <1>  -0.6600 
 18 C        6.5270     5.7610     0.2220 C.3   1 <1>   0.1400 
 19 C        6.2570     3.6530    -1.1390 C.3   1 <1>   0.1400 
 20 C        5.6120     6.9590    -0.1070 C.3   1 <1>   0.3430 
 21 C        5.2840     3.9180    -2.2850 C.3   1 <1>  -0.2400 
 22 N        4.5080     7.1160     0.8890 N.4   1 <1>  -0.9590 
 23 C        3.2660     7.6760     0.2850 C.3   1 <1>   0.2630 
 24 C        4.9280     7.8800     2.1010 C.3   1 <1>   0.2630 
 25 H        0.1600     5.9280    -0.0280 H     1 <1>   0.1500 
 26 H        2.2280     1.5620    -0.9540 H     1 <1>   0.1500 
 27 H        2.9260     3.0130     2.4430 H     1 <1>   0.0800 
 28 H       -0.2560     4.7880    -2.1790 H     1 <1>   0.1500 
 29 H        0.7880     2.6080    -2.6210 H     1 <1>   0.1500 
 30 H        1.4980     0.9750     1.9000 H     1 <1>   0.3700 
 31 H        4.4290     2.1700    -0.0260 H     1 <1>   0.0800 
 32 H        5.1110    -0.1490     0.6760 H     1 <1>   0.0800 
 33 H        5.3570    -0.3110     2.3980 H     1 <1>   0.0800 
 34 H        6.8910     5.8500     1.2320 H     1 <1>   0.0800 
 35 H        7.3860     5.8010    -0.4240 H     1 <1>   0.0800 
 36 H        7.2540     3.9320    -1.4350 H     1 <1>   0.0800 
 37 H        6.2880     2.6010    -0.9100 H     1 <1>   0.0800 
 38 H        5.1990     6.8000    -1.0890 H     1 <1>   0.0800 
 39 H        6.1990     7.8620    -0.1380 H     1 <1>   0.0800 
 40 H        5.3120     4.9520    -2.5740 H     1 <1>   0.0800 
 41 H        4.2810     3.6500    -2.0070 H     1 <1>   0.0800 
 42 H        5.5660     3.3260    -3.1380 H     1 <1>   0.0800 
 43 H        4.3040     6.1500     1.2340 H     1 <1>   0.4500 
 44 H        3.4430     8.6730    -0.0830 H     1 <1>   0.0800 
 45 H        2.4800     7.7110     1.0220 H     1 <1>   0.0800 
 46 H        2.9380     7.0540    -0.5330 H     1 <1>   0.0800 
 47 H        5.1960     8.8900     1.8370 H     1 <1>   0.0800 
 48 H        5.7740     7.4010     2.5660 H     1 <1>   0.0800 
 49 H        4.1220     7.9090     2.8160 H     1 <1>   0.0800 
@<TRIPOS>BOND
  1   1   2  1   
  2   2   3  ar  
  3   2   4  ar  
  4   3   5  ar  
  5   3   6  1   
  6   4   7  ar  
  7   4  25  1   
  8   5   8  ar  
  9   5  26  1   
 10   6   9  1   
 11   6  10  1   
 12   6  27  1   
 13   7   8  ar  
 14   7  28  1   
 15   8  29  1   
 16   9  11  am  
 17   9  30  1   
 18  10  12  1   
 19  10  13  1   
 20  10  31  1   
 21  11  14  2   
 22  11  15  1   
 23  12  15  1   
 24  13  16  2   
 25  13  17  am  
 26  15  32  1   
 27  15  33  1   
 28  17  18  1   
 29  17  19  1   
 30  18  20  1   
 31  18  34  1   
 32  18  35  1   
 33  19  21  1   
 34  19  36  1   
 35  19  37  1   
 36  20  22  1   
 37  20  38  1   
 38  20  39  1   
 39  21  40  1   
 40  21  41  1   
 41  21  42  1   
 42  22  23  1   
 43  22  24  1   
 44  22  43  1   
 45  23  44  1   
 46  23  45  1   
 47  23  46  1   
 48  24  47  1   
 49  24  48  1   
 50  24  49  1   
@<TRIPOS>SUBSTRUCTURE
  1 ****  13 GROUP 4 **** **** 0

# MOE 2024.06 (io_trps.svl 2023.06)
