@<TRIPOS>MOLECULE
NONAME
44 46 1 0 0 
SMALL
USER_CHARGES


@<TRIPOS>ATOM
  1 CL       2.4950    -0.1170    -2.1190 Cl    1 <1>  -0.1770 
  2 C        2.0610    -1.1380    -0.7670 C.ar  1 <1>   0.1770 
  3 C        1.7900    -0.5880     0.4760 C.ar  1 <1>   0.1770 
  4 C        1.9940    -2.5050    -0.9650 C.ar  1 <1>  -0.1500 
  5 CL       1.8740     1.1410     0.7280 Cl    1 <1>  -0.1770 
  6 C        1.4480    -1.4020     1.5400 C.ar  1 <1>  -0.1500 
  7 C        1.6470    -3.3290     0.1040 C.ar  1 <1>   0.0830 
  8 C        1.3780    -2.7730     1.3480 C.ar  1 <1>  -0.1500 
  9 O        1.5490    -4.6770     0.0110 O.3   1 <1>  -0.3630 
 10 C        1.7720    -5.3550    -1.2190 C.3   1 <1>   0.1810 
 11 C        1.5740    -6.8620    -1.0770 C.2   1 <1>   0.5690 
 12 O        2.4840    -7.5810    -1.4220 O.2   1 <1>  -0.5700 
 13 N        0.3940    -7.3840    -0.6150 N.am  1 <1>  -0.6600 
 14 C       -0.7850    -6.6140    -0.1460 C.3   1 <1>   0.1400 
 15 C        0.1800    -8.8390    -0.4270 C.3   1 <1>   0.1400 
 16 C       -1.8510    -7.6700     0.1410 C.3   1 <1>   0.2000 
 17 C       -1.0750    -8.9500     0.4410 C.3   1 <1>  -0.0800 
 18 O       -2.6390    -7.3190     1.2240 O.3   1 <1>  -0.6800 
 19 C       -1.8880   -10.2280     0.1870 C.3   1 <1>   0.0210 
 20 C       -1.0350   -11.4640     0.3940 C.2   1 <1>   0.1080 
 21 N       -0.4650   -11.7430     1.5250 N.2   1 <1>  -0.7070 
 22 C       -0.7560   -12.4130    -0.5840 C.2   1 <1>  -0.1500 
 23 N        0.2000   -12.8910     1.2970 N.pl3 1 <1>   0.3000 
 24 C        0.0400   -13.3170     0.0260 C.2   1 <1>  -0.3320 
 25 C        0.6680   -14.5780    -0.5360 C.3   1 <1>  -0.0600 
 26 H        2.2140    -2.8900    -1.9420 H     1 <1>   0.1500 
 27 H        1.2400    -0.9680     2.5020 H     1 <1>   0.1500 
 28 H        1.1150    -3.4220     2.1650 H     1 <1>   0.1500 
 29 H        1.0820    -4.9750    -1.9480 H     1 <1>   0.0800 
 30 H        2.7810    -5.1600    -1.5310 H     1 <1>   0.0800 
 31 H       -0.5260    -6.0840     0.7550 H     1 <1>   0.0800 
 32 H       -1.1190    -5.9260    -0.9030 H     1 <1>   0.0800 
 33 H        0.0290    -9.2980    -1.3890 H     1 <1>   0.0800 
 34 H        1.0300    -9.2960     0.0540 H     1 <1>   0.0800 
 35 H       -2.4870    -7.7860    -0.7200 H     1 <1>   0.0800 
 36 H       -0.7470    -8.9420     1.4660 H     1 <1>   0.0800 
 37 H       -2.1230    -7.3850     2.0510 H     1 <1>   0.4000 
 38 H       -2.2780   -10.2280    -0.8140 H     1 <1>   0.0800 
 39 H       -2.7190   -10.2660     0.8700 H     1 <1>   0.0800 
 40 H       -1.1100   -12.4040    -1.5990 H     1 <1>   0.1500 
 41 H        0.7530   -13.3560     2.0260 H     1 <1>   0.2700 
 42 H        0.3920   -14.7000    -1.5690 H     1 <1>   0.0800 
 43 H        0.3290   -15.4390     0.0120 H     1 <1>   0.0800 
 44 H        1.7400   -14.5200    -0.4730 H     1 <1>   0.0800 
@<TRIPOS>BOND
  1   1   2  1   
  2   2   3  ar  
  3   2   4  ar  
  4   3   5  1   
  5   3   6  ar  
  6   4   7  ar  
  7   4  26  1   
  8   6   8  ar  
  9   6  27  1   
 10   7   8  ar  
 11   7   9  1   
 12   8  28  1   
 13   9  10  1   
 14  10  11  1   
 15  10  29  1   
 16  10  30  1   
 17  11  12  2   
 18  11  13  am  
 19  13  14  1   
 20  13  15  1   
 21  14  16  1   
 22  14  31  1   
 23  14  32  1   
 24  15  17  1   
 25  15  33  1   
 26  15  34  1   
 27  16  17  1   
 28  16  18  1   
 29  16  35  1   
 30  17  19  1   
 31  17  36  1   
 32  18  37  1   
 33  19  20  1   
 34  19  38  1   
 35  19  39  1   
 36  20  21  2   
 37  20  22  1   
 38  21  23  1   
 39  22  24  2   
 40  22  40  1   
 41  23  24  1   
 42  23  41  1   
 43  24  25  1   
 44  25  42  1   
 45  25  43  1   
 46  25  44  1   
@<TRIPOS>SUBSTRUCTURE
  1 ****  13 GROUP 4 **** **** 0

# MOE 2024.06 (io_trps.svl 2023.06)
