@<TRIPOS>MOLECULE
NONAME
57 59 1 0 0 
SMALL
USER_CHARGES


@<TRIPOS>ATOM
  1 O        0.1590    -0.2980     1.6880 O.2   1 <1>  -0.5700 
  2 C        1.1180    -0.9220     1.2780 C.2   1 <1>   0.5440 
  3 N        2.1400    -0.2530     0.6350 N.am  1 <1>  -0.6600 
  4 C        1.1560    -2.3560     1.4770 C.ar  1 <1>   0.0860 
  5 C        3.2060    -0.9290    -0.1590 C.3   1 <1>   0.1400 
  6 C        2.1650     1.2350     0.5390 C.3   1 <1>   0.1400 
  7 C        0.2140    -3.2010     0.9250 C.ar  1 <1>  -0.1500 
  8 C        2.1380    -2.9790     2.2330 C.ar  1 <1>  -0.1500 
  9 C        3.0880    -0.5220    -1.6310 C.3   1 <1>  -0.1600 
 10 C        2.0360     1.6590    -0.9270 C.3   1 <1>  -0.1600 
 11 C        0.2900    -4.5760     1.1060 C.ar  1 <1>   0.4100 
 12 C        2.1330    -4.3510     2.3720 C.ar  1 <1>   0.1600 
 13 C        3.1120     1.0030    -1.8040 C.3   1 <1>  -0.1600 
 14 N        1.2430    -5.1590     1.8250 N.ar  1 <1>  -0.6200 
 15 N       -0.6540    -5.3950     0.5170 N.pl3 1 <1>  -0.8380 
 16 C       -0.9310    -6.7330     1.1130 C.3   1 <1>   0.3530 
 17 C       -0.8470    -5.3410    -0.9590 C.3   1 <1>   0.1290 
 18 C       -2.3670    -7.1560     0.8170 C.ar  1 <1>  -0.1430 
 19 C       -2.6570    -8.1780    -0.0820 C.ar  1 <1>   0.0820 
 20 C       -3.4010    -6.4990     1.4650 C.ar  1 <1>  -0.1500 
 21 O       -1.6060    -8.7850    -0.6980 O.3   1 <1>  -0.3620 
 22 C       -3.9900    -8.5330    -0.3390 C.ar  1 <1>   0.0820 
 23 C       -4.7160    -6.8540     1.2300 C.ar  1 <1>  -0.1500 
 24 C       -1.5120   -10.1900    -0.6510 C.3   1 <1>   0.1200 
 25 O       -4.2550    -9.5110    -1.2540 O.3   1 <1>  -0.3630 
 26 C       -5.0110    -7.8660     0.3340 C.ar  1 <1>  -0.1500 
 27 C       -0.0360   -10.5660    -0.7270 C.3   1 <1>  -0.2400 
 28 C       -5.5650    -9.7700    -1.7090 C.3   1 <1>   0.0400 
 29 H        3.1290    -1.9990    -0.0830 H     1 <1>   0.0800 
 30 H        4.1670    -0.6340     0.2250 H     1 <1>   0.0800 
 31 H        3.0940     1.5950     0.9440 H     1 <1>   0.0800 
 32 H        1.3640     1.6700     1.1130 H     1 <1>   0.0800 
 33 H       -0.5950    -2.7940     0.3520 H     1 <1>   0.1500 
 34 H        2.8960    -2.3860     2.7100 H     1 <1>   0.1500 
 35 H        2.1670    -0.9160    -2.0260 H     1 <1>   0.0800 
 36 H        3.8970    -0.9610    -2.1880 H     1 <1>   0.0800 
 37 H        2.1160     2.7300    -0.9950 H     1 <1>   0.0800 
 38 H        1.0580     1.3810    -1.2800 H     1 <1>   0.0800 
 39 H        2.9040    -4.8150     2.9650 H     1 <1>   0.1500 
 40 H        2.9450     1.2560    -2.8360 H     1 <1>   0.0800 
 41 H        4.0810     1.3790    -1.5210 H     1 <1>   0.0800 
 42 H       -0.8010    -6.6850     2.1800 H     1 <1>   0.0800 
 43 H       -0.2200    -7.4440     0.7320 H     1 <1>   0.0800 
 44 H       -0.2950    -4.5230    -1.3870 H     1 <1>   0.0800 
 45 H       -1.8930    -5.2130    -1.1800 H     1 <1>   0.0800 
 46 H       -0.5070    -6.2580    -1.4080 H     1 <1>   0.0800 
 47 H       -3.1750    -5.7010     2.1520 H     1 <1>   0.1500 
 48 H       -5.5090    -6.3390     1.7430 H     1 <1>   0.1500 
 49 H       -2.0520   -10.5940    -1.4890 H     1 <1>   0.0800 
 50 H       -1.9500   -10.5370     0.2690 H     1 <1>   0.0800 
 51 H       -6.0420    -8.1140     0.1760 H     1 <1>   0.1500 
 52 H        0.3900   -10.2010    -1.6450 H     1 <1>   0.0800 
 53 H        0.0680   -11.6350    -0.7010 H     1 <1>   0.0800 
 54 H        0.4960   -10.1470     0.1080 H     1 <1>   0.0800 
 55 H       -5.5080   -10.5140    -2.4830 H     1 <1>   0.0800 
 56 H       -5.9820    -8.8620    -2.1070 H     1 <1>   0.0800 
 57 H       -6.1530   -10.1410    -0.8890 H     1 <1>   0.0800 
@<TRIPOS>BOND
  1   1   2  2   
  2   2   3  am  
  3   2   4  1   
  4   3   5  1   
  5   3   6  1   
  6   4   7  ar  
  7   4   8  ar  
  8   5   9  1   
  9   5  29  1   
 10   5  30  1   
 11   6  10  1   
 12   6  31  1   
 13   6  32  1   
 14   7  11  ar  
 15   7  33  1   
 16   8  12  ar  
 17   8  34  1   
 18   9  13  1   
 19   9  35  1   
 20   9  36  1   
 21  10  13  1   
 22  10  37  1   
 23  10  38  1   
 24  11  14  ar  
 25  11  15  1   
 26  12  14  ar  
 27  12  39  1   
 28  13  40  1   
 29  13  41  1   
 30  15  16  1   
 31  15  17  1   
 32  16  18  1   
 33  16  42  1   
 34  16  43  1   
 35  17  44  1   
 36  17  45  1   
 37  17  46  1   
 38  18  19  ar  
 39  18  20  ar  
 40  19  21  1   
 41  19  22  ar  
 42  20  23  ar  
 43  20  47  1   
 44  21  24  1   
 45  22  25  1   
 46  22  26  ar  
 47  23  26  ar  
 48  23  48  1   
 49  24  27  1   
 50  24  49  1   
 51  24  50  1   
 52  25  28  1   
 53  26  51  1   
 54  27  52  1   
 55  27  53  1   
 56  27  54  1   
 57  28  55  1   
 58  28  56  1   
 59  28  57  1   
@<TRIPOS>SUBSTRUCTURE
  1 ****  15 GROUP 4 **** **** 0

# MOE 2024.06 (io_trps.svl 2023.06)
