@<TRIPOS>MOLECULE
NONAME
44 45 1 0 0 
SMALL
USER_CHARGES


@<TRIPOS>ATOM
  1 S        0.2410    -0.0710     0.5770 S.o2  1 <1>   1.3330 
  2 O        1.6100     0.0520     1.0240 O.2   1 <1>  -0.6500 
  3 O       -0.8350    -0.0120     1.5400 O.2   1 <1>  -0.6500 
  4 N        0.1040    -1.5230    -0.2920 N.am  1 <1>  -0.8490 
  5 C       -0.0830     1.1710    -0.6720 C.3   1 <1>  -0.0550 
  6 C        1.3350    -1.9000    -0.9940 C.3   1 <1>   0.1160 
  7 C       -0.3480    -2.6340     0.5520 C.3   1 <1>   0.1160 
  8 C       -0.1030     2.6010    -0.1070 C.3   1 <1>  -0.0800 
  9 C       -0.5090     3.6340    -1.1530 C.3   1 <1>   0.2000 
 10 C        1.2550     3.0990     0.3950 C.3   1 <1>   0.1400 
 11 O       -1.8890     3.6790    -1.2690 O.3   1 <1>  -0.6800 
 12 C        0.0650     4.9570    -0.6530 C.3   1 <1>   0.1400 
 13 N        1.2420     4.5650     0.1620 N.am  1 <1>  -0.6600 
 14 C        2.3680     5.3400     0.3240 C.2   1 <1>   0.5440 
 15 O        3.4110     4.7950     0.6270 O.2   1 <1>  -0.5700 
 16 C        2.3400     6.7770     0.1210 C.ar  1 <1>   0.0860 
 17 C        3.3120     7.4020    -0.6550 C.ar  1 <1>  -0.1500 
 18 C        1.3490     7.5810     0.6940 C.ar  1 <1>  -0.1500 
 19 C        3.2560     8.7660    -0.8500 C.ar  1 <1>   0.1900 
 20 C        1.3010     8.9530     0.4930 C.ar  1 <1>  -0.1440 
 21 F        4.1710     9.3340    -1.5880 F     1 <1>  -0.1900 
 22 C        2.2680     9.5550    -0.2940 C.ar  1 <1>  -0.1500 
 23 C        0.2060     9.7910     1.1270 C.3   1 <1>  -0.0970 
 24 H        0.6550     1.1040    -1.4470 H     1 <1>   0.0800 
 25 H       -1.0400     0.9670    -1.1120 H     1 <1>   0.0800 
 26 H        1.1640    -2.7750    -1.5980 H     1 <1>   0.0800 
 27 H        2.1230    -2.1100    -0.2890 H     1 <1>   0.0800 
 28 H        1.6550    -1.1000    -1.6400 H     1 <1>   0.0800 
 29 H       -0.4390    -3.5340    -0.0320 H     1 <1>   0.0800 
 30 H       -1.3140    -2.4090     0.9730 H     1 <1>   0.0800 
 31 H        0.3490    -2.8010     1.3560 H     1 <1>   0.0800 
 32 H       -0.7870     2.6480     0.7240 H     1 <1>   0.0800 
 33 H       -0.0940     3.4010    -2.1190 H     1 <1>   0.0800 
 34 H        2.0640     2.6620    -0.1680 H     1 <1>   0.0800 
 35 H        1.3990     2.8830     1.4410 H     1 <1>   0.0800 
 36 H       -2.3050     3.8000    -0.3930 H     1 <1>   0.4000 
 37 H       -0.6450     5.4670    -0.0270 H     1 <1>   0.0800 
 38 H        0.3580     5.5840    -1.4780 H     1 <1>   0.0800 
 39 H        4.1030     6.8240    -1.0980 H     1 <1>   0.1500 
 40 H        0.6060     7.1090     1.3140 H     1 <1>   0.1500 
 41 H        2.2650    10.6150    -0.4760 H     1 <1>   0.1500 
 42 H       -0.1980     9.2980     1.9940 H     1 <1>   0.0800 
 43 H       -0.5870     9.9520     0.4190 H     1 <1>   0.0800 
 44 H        0.5960    10.7450     1.4340 H     1 <1>   0.0800 
@<TRIPOS>BOND
  1   1   2  2   
  2   1   3  2   
  3   1   4  am  
  4   1   5  1   
  5   4   6  1   
  6   4   7  1   
  7   5   8  1   
  8   5  24  1   
  9   5  25  1   
 10   6  26  1   
 11   6  27  1   
 12   6  28  1   
 13   7  29  1   
 14   7  30  1   
 15   7  31  1   
 16   8   9  1   
 17   8  10  1   
 18   8  32  1   
 19   9  11  1   
 20   9  12  1   
 21   9  33  1   
 22  10  13  1   
 23  10  34  1   
 24  10  35  1   
 25  11  36  1   
 26  12  13  1   
 27  12  37  1   
 28  12  38  1   
 29  13  14  am  
 30  14  15  2   
 31  14  16  1   
 32  16  17  ar  
 33  16  18  ar  
 34  17  19  ar  
 35  17  39  1   
 36  18  20  ar  
 37  18  40  1   
 38  19  21  1   
 39  19  22  ar  
 40  20  22  ar  
 41  20  23  1   
 42  22  41  1   
 43  23  42  1   
 44  23  43  1   
 45  23  44  1   
@<TRIPOS>SUBSTRUCTURE
  1 ****  13 GROUP 4 **** **** 0

# MOE 2024.06 (io_trps.svl 2023.06)
