@<TRIPOS>MOLECULE
NONAME
46 49 1 0 0 
SMALL
USER_CHARGES


@<TRIPOS>ATOM
  1 S       -0.7420    -0.7570    -0.9640 S.3   1 <1>  -0.0800 
  2 C       -1.4990    -2.2770    -0.5290 C.2   1 <1>  -0.1100 
  3 C       -2.1410    -0.2800    -1.9060 C.2   1 <1>  -0.1100 
  4 C       -2.7310    -2.3720    -1.0680 C.2   1 <1>  -0.1810 
  5 C       -3.0910    -1.2320    -1.8630 C.2   1 <1>  -0.1500 
  6 C       -3.6710    -3.5450    -0.8880 C.3   1 <1>   0.5240 
  7 N       -4.3720    -3.3840     0.4130 N.4   1 <1>  -0.9590 
  8 C       -4.9330    -4.7140     0.8520 C.3   1 <1>   0.3430 
  9 C       -5.3610    -2.2580     0.3400 C.3   1 <1>   0.3430 
 10 C       -5.7370    -4.6800     2.1680 C.3   1 <1>   0.1400 
 11 C       -5.7100    -1.7460     1.7400 C.3   1 <1>  -0.1600 
 12 N       -6.9860    -3.8840     1.9980 N.am  1 <1>  -0.6600 
 13 C       -6.9130    -2.4490     2.3790 C.3   1 <1>   0.1400 
 14 C       -7.9480    -4.3180     1.1050 C.2   1 <1>   0.7160 
 15 O       -8.2840    -3.5390     0.2270 O.2   1 <1>  -0.5700 
 16 C       -8.4210    -5.6620     1.1400 C.2   1 <1>  -0.0860 
 17 C       -8.8180    -6.4900     0.1210 C.2   1 <1>  -0.0680 
 18 C       -8.5490    -6.4810     2.2720 C.2   1 <1>   0.1390 
 19 N       -9.1160    -7.6810     0.6660 N.pl3 1 <1>   0.6010 
 20 N       -9.0140    -6.5430    -1.2450 N.pl3 1 <1>  -0.5530 
 21 N       -8.9400    -7.6910     2.0100 N.2   1 <1>  -0.7070 
 22 C       -9.5110    -8.5230    -0.3540 C.2   1 <1>  -0.1810 
 23 C       -9.4570    -7.8300    -1.5110 C.2   1 <1>  -0.0500 
 24 C       -9.1000    -5.3860    -2.1630 C.3   1 <1>   0.1290 
 25 H       -0.9180    -2.9360     0.0940 H     1 <1>   0.1500 
 26 H       -2.0970     0.6740    -2.4040 H     1 <1>   0.1500 
 27 H       -4.0360    -1.1650    -2.3760 H     1 <1>   0.1500 
 28 H       -3.0910    -4.4540    -0.8820 H     1 <1>   0.0800 
 29 H       -4.3770    -3.5950    -1.7020 H     1 <1>   0.0800 
 30 H       -3.6450    -3.0880     1.0760 H     1 <1>   0.4500 
 31 H       -4.1200    -5.4110     0.9760 H     1 <1>   0.0800 
 32 H       -5.5760    -5.1050     0.0800 H     1 <1>   0.0800 
 33 H       -6.2530    -2.5610    -0.1850 H     1 <1>   0.0800 
 34 H       -4.9230    -1.4380    -0.2040 H     1 <1>   0.0800 
 35 H       -5.1390    -4.2740     2.9650 H     1 <1>   0.0800 
 36 H       -5.9920    -5.6890     2.4430 H     1 <1>   0.0800 
 37 H       -5.9640    -0.7030     1.6600 H     1 <1>   0.0800 
 38 H       -4.8550    -1.8000     2.3890 H     1 <1>   0.0800 
 39 H       -7.8190    -1.9540     2.0660 H     1 <1>   0.0800 
 40 H       -6.8620    -2.3650     3.4530 H     1 <1>   0.0800 
 41 H       -8.3400    -6.1460     3.2750 H     1 <1>   0.1500 
 42 H       -9.7990    -9.5330    -0.1410 H     1 <1>   0.1500 
 43 H       -9.7090    -8.1530    -2.5080 H     1 <1>   0.1500 
 44 H       -8.1450    -4.8950    -2.2180 H     1 <1>   0.0800 
 45 H       -9.8320    -4.6890    -1.7940 H     1 <1>   0.0800 
 46 H       -9.3890    -5.7150    -3.1450 H     1 <1>   0.0800 
@<TRIPOS>BOND
  1   1   2  1   
  2   1   3  1   
  3   2   4  2   
  4   2  25  1   
  5   3   5  2   
  6   3  26  1   
  7   4   5  1   
  8   4   6  1   
  9   5  27  1   
 10   6   7  1   
 11   6  28  1   
 12   6  29  1   
 13   7   8  1   
 14   7   9  1   
 15   7  30  1   
 16   8  10  1   
 17   8  31  1   
 18   8  32  1   
 19   9  11  1   
 20   9  33  1   
 21   9  34  1   
 22  10  12  1   
 23  10  35  1   
 24  10  36  1   
 25  11  13  1   
 26  11  37  1   
 27  11  38  1   
 28  12  13  1   
 29  12  14  am  
 30  13  39  1   
 31  13  40  1   
 32  14  15  2   
 33  14  16  1   
 34  16  17  2   
 35  16  18  1   
 36  17  19  1   
 37  17  20  1   
 38  18  21  2   
 39  18  41  1   
 40  19  21  1   
 41  19  22  1   
 42  20  23  1   
 43  20  24  1   
 44  22  23  2   
 45  22  42  1   
 46  23  43  1   
 47  24  44  1   
 48  24  45  1   
 49  24  46  1   
@<TRIPOS>SUBSTRUCTURE
  1 ****   8 GROUP 4 **** **** 0

# MOE 2024.06 (io_trps.svl 2023.06)
