@<TRIPOS>MOLECULE
NONAME
44 46 1 0 0 
SMALL
USER_CHARGES


@<TRIPOS>ATOM
  1 O        1.4000     1.6460    -1.3500 O.3   1 <1>  -0.0190 
  2 N        2.2840     0.7010    -1.2490 N.2   1 <1>  -0.4100 
  3 C        0.8130     1.8880    -0.2080 C.2   1 <1>  -0.0400 
  4 C        2.2490     0.3060    -0.0260 C.2   1 <1>   0.1080 
  5 C        1.3170     1.0410     0.7020 C.2   1 <1>  -0.1500 
  6 C       -0.2190     2.9950    -0.1090 C.3   1 <1>   0.0200 
  7 C        3.1080    -0.8070     0.5330 C.3   1 <1>  -0.0590 
  8 C        0.2890     4.2630    -0.8200 C.3   1 <1>  -0.0800 
  9 C       -0.5230     5.5340    -0.5940 C.3   1 <1>   0.2000 
 10 C        1.7080     4.6570    -0.4010 C.3   1 <1>   0.3430 
 11 O       -0.7510     5.6890     0.7790 O.3   1 <1>  -0.5600 
 12 C        0.4660     6.6160    -1.0270 C.3   1 <1>   0.3430 
 13 N        1.8140     6.1400    -0.5720 N.4   1 <1>  -0.9590 
 14 C       -2.0940     5.7070     1.1580 C.3   1 <1>   0.0400 
 15 C        2.1820     6.7930     0.7060 C.3   1 <1>   0.5230 
 16 C        2.5440     8.2190     0.3810 C.2   1 <1>  -0.3320 
 17 N        3.7510     8.6190    -0.0810 N.pl3 1 <1>   0.3140 
 18 C        1.7800     9.3290     0.4920 C.2   1 <1>  -0.1500 
 19 N        3.7680     9.9390    -0.2970 N.2   1 <1>  -0.7070 
 20 C        4.9650     7.8210    -0.3220 C.3   1 <1>   0.0160 
 21 C        2.5940    10.3630     0.0540 C.2   1 <1>   0.1390 
 22 H        1.0900     0.9240     1.7460 H     1 <1>   0.1500 
 23 H       -1.1360     2.6660    -0.5670 H     1 <1>   0.0800 
 24 H       -0.4160     3.1840     0.9320 H     1 <1>   0.0800 
 25 H        3.6900    -0.4430     1.3600 H     1 <1>   0.0800 
 26 H        3.7740    -1.1750    -0.2260 H     1 <1>   0.0800 
 27 H        2.4840    -1.6150     0.8680 H     1 <1>   0.0800 
 28 H        0.3130     4.0630    -1.8780 H     1 <1>   0.0800 
 29 H       -1.4470     5.5670    -1.1480 H     1 <1>   0.0800 
 30 H        2.4390     4.1340    -0.9980 H     1 <1>   0.0800 
 31 H        1.8520     4.3940     0.6350 H     1 <1>   0.0800 
 32 H        0.2050     7.5740    -0.6080 H     1 <1>   0.0800 
 33 H        0.4570     6.6900    -2.1020 H     1 <1>   0.0800 
 34 H        2.5160     6.3950    -1.2740 H     1 <1>   0.4500 
 35 H       -2.1420     5.8070     2.2290 H     1 <1>   0.0800 
 36 H       -2.5650     4.7840     0.8630 H     1 <1>   0.0800 
 37 H       -2.5870     6.5460     0.6980 H     1 <1>   0.0800 
 38 H        1.3480     6.7640     1.3900 H     1 <1>   0.0800 
 39 H        3.0210     6.2950     1.1630 H     1 <1>   0.0800 
 40 H        0.7670     9.4430     0.8380 H     1 <1>   0.1500 
 41 H        5.1300     7.1510     0.5000 H     1 <1>   0.0800 
 42 H        5.8060     8.4860    -0.4070 H     1 <1>   0.0800 
 43 H        4.8590     7.2740    -1.2390 H     1 <1>   0.0800 
 44 H        2.3010    11.4000     0.0060 H     1 <1>   0.1500 
@<TRIPOS>BOND
  1   1   2  1   
  2   1   3  1   
  3   2   4  2   
  4   3   5  2   
  5   3   6  1   
  6   4   5  1   
  7   4   7  1   
  8   5  22  1   
  9   6   8  1   
 10   6  23  1   
 11   6  24  1   
 12   7  25  1   
 13   7  26  1   
 14   7  27  1   
 15   8   9  1   
 16   8  10  1   
 17   8  28  1   
 18   9  11  1   
 19   9  12  1   
 20   9  29  1   
 21  10  13  1   
 22  10  30  1   
 23  10  31  1   
 24  11  14  1   
 25  12  13  1   
 26  12  32  1   
 27  12  33  1   
 28  13  15  1   
 29  13  34  1   
 30  14  35  1   
 31  14  36  1   
 32  14  37  1   
 33  15  16  1   
 34  15  38  1   
 35  15  39  1   
 36  16  17  1   
 37  16  18  2   
 38  17  19  1   
 39  17  20  1   
 40  18  21  1   
 41  18  40  1   
 42  19  21  2   
 43  20  41  1   
 44  20  42  1   
 45  20  43  1   
 46  21  44  1   
@<TRIPOS>SUBSTRUCTURE
  1 ****  10 GROUP 4 **** **** 0

# MOE 2024.06 (io_trps.svl 2023.06)
