@<TRIPOS>MOLECULE
NONAME
53 56 1 0 0 
SMALL
USER_CHARGES


@<TRIPOS>ATOM
  1 O        0.4440    -1.5150    -1.6510 O.2   1 <1>  -0.5700 
  2 C        1.4670    -2.1150    -1.4510 C.2   1 <1>   0.5690 
  3 N        2.2340    -2.5640    -2.4670 N.am  1 <1>  -0.7300 
  4 C        1.9340    -2.4030    -0.0410 C.3   1 <1>  -0.0990 
  5 C        3.4800    -3.3290    -2.2620 C.3   1 <1>   0.1400 
  6 C        3.4490    -2.1560     0.0840 C.3   1 <1>  -0.0800 
  7 C        4.2840    -2.7190    -1.0950 C.3   1 <1>  -0.0800 
  8 C        4.0490    -2.7420     1.3700 C.3   1 <1>  -0.1600 
  9 C        5.2700    -3.7120    -0.4690 C.3   1 <1>  -0.1600 
 10 C        5.4410    -3.2080     0.9620 C.3   1 <1>   0.2200 
 11 N        6.0130    -4.2150     1.9040 N.am  1 <1>  -0.6600 
 12 C        7.0510    -3.8920     2.7600 C.2   1 <1>   0.7160 
 13 C        5.4460    -5.6000     1.8980 C.3   1 <1>   0.0600 
 14 O        7.5050    -4.7500     3.4940 O.2   1 <1>  -0.5700 
 15 C        7.5980    -2.5600     2.8210 C.2   1 <1>  -0.0860 
 16 C        8.4770    -1.8560     2.0410 C.2   1 <1>  -0.3320 
 17 C        7.2500    -1.6520     3.8220 C.2   1 <1>   0.1390 
 18 N        8.5910    -0.6350     2.5940 N.pl3 1 <1>   0.3000 
 19 C        9.2690    -2.2300     0.7890 C.3   1 <1>   0.1000 
 20 N        7.8250    -0.5000     3.6890 N.2   1 <1>  -0.7070 
 21 C        8.7360    -1.4570    -0.4290 C.3   1 <1>  -0.1600 
 22 C        9.2760    -3.7410     0.5050 C.3   1 <1>  -0.1600 
 23 C        9.5240    -1.7910    -1.7040 C.3   1 <1>  -0.1600 
 24 C       10.0840    -4.0720    -0.7570 C.3   1 <1>  -0.1600 
 25 C        9.5470    -3.3020    -1.9700 C.3   1 <1>  -0.1600 
 26 H        1.9000    -2.4000    -3.4190 H     1 <1>   0.3700 
 27 H        1.3970    -1.7790     0.6500 H     1 <1>   0.0800 
 28 H        1.6990    -3.4290     0.1750 H     1 <1>   0.0800 
 29 H        3.2150    -4.3490    -2.0410 H     1 <1>   0.0800 
 30 H        4.0700    -3.3170    -3.1620 H     1 <1>   0.0800 
 31 H        3.6010    -1.0880     0.0970 H     1 <1>   0.0800 
 32 H        4.8580    -1.9000    -1.4970 H     1 <1>   0.0800 
 33 H        3.4610    -3.5760     1.7070 H     1 <1>   0.0800 
 34 H        4.1010    -2.0040     2.1510 H     1 <1>   0.0800 
 35 H        6.2070    -3.7280    -0.9970 H     1 <1>   0.0800 
 36 H        4.8360    -4.6940    -0.4760 H     1 <1>   0.0800 
 37 H        6.0680    -2.3360     0.9180 H     1 <1>   0.0800 
 38 H        4.3920    -5.5820     1.6920 H     1 <1>   0.0800 
 39 H        5.5910    -6.0730     2.8550 H     1 <1>   0.0800 
 40 H        5.9440    -6.1880     1.1480 H     1 <1>   0.0800 
 41 H        6.5690    -1.8850     4.6240 H     1 <1>   0.1500 
 42 H        9.1860     0.1300     2.2550 H     1 <1>   0.2700 
 43 H       10.2920    -1.9340     0.9520 H     1 <1>   0.0800 
 44 H        7.7010    -1.7030    -0.5820 H     1 <1>   0.0800 
 45 H        8.7960    -0.3990    -0.2470 H     1 <1>   0.0800 
 46 H        9.6930    -4.2640     1.3490 H     1 <1>   0.0800 
 47 H        8.2720    -4.0900     0.3610 H     1 <1>   0.0800 
 48 H        9.0830    -1.2840    -2.5450 H     1 <1>   0.0800 
 49 H       10.5360    -1.4360    -1.6010 H     1 <1>   0.0800 
 50 H       11.1180    -3.8170    -0.5980 H     1 <1>   0.0800 
 51 H       10.0320    -5.1300    -0.9490 H     1 <1>   0.0800 
 52 H       10.1630    -3.5080    -2.8280 H     1 <1>   0.0800 
 53 H        8.5500    -3.6400    -2.1940 H     1 <1>   0.0800 
@<TRIPOS>BOND
  1   1   2  2   
  2   2   3  am  
  3   2   4  1   
  4   3   5  1   
  5   3  26  1   
  6   4   6  1   
  7   4  27  1   
  8   4  28  1   
  9   5   7  1   
 10   5  29  1   
 11   5  30  1   
 12   6   7  1   
 13   6   8  1   
 14   6  31  1   
 15   7   9  1   
 16   7  32  1   
 17   8  10  1   
 18   8  33  1   
 19   8  34  1   
 20   9  10  1   
 21   9  35  1   
 22   9  36  1   
 23  10  11  1   
 24  10  37  1   
 25  11  12  am  
 26  11  13  1   
 27  12  14  2   
 28  12  15  1   
 29  13  38  1   
 30  13  39  1   
 31  13  40  1   
 32  15  16  2   
 33  15  17  1   
 34  16  18  1   
 35  16  19  1   
 36  17  20  2   
 37  17  41  1   
 38  18  20  1   
 39  18  42  1   
 40  19  21  1   
 41  19  22  1   
 42  19  43  1   
 43  21  23  1   
 44  21  44  1   
 45  21  45  1   
 46  22  24  1   
 47  22  46  1   
 48  22  47  1   
 49  23  25  1   
 50  23  48  1   
 51  23  49  1   
 52  24  25  1   
 53  24  50  1   
 54  24  51  1   
 55  25  52  1   
 56  25  53  1   
@<TRIPOS>SUBSTRUCTURE
  1 ****  10 GROUP 4 **** **** 0

# MOE 2024.06 (io_trps.svl 2023.06)
