@<TRIPOS>MOLECULE
NONAME
45 47 1 0 0 
SMALL
USER_CHARGES


@<TRIPOS>ATOM
  1 F       -1.0350    -0.1830    -1.3960 F     1 <1>  -0.1900 
  2 C       -1.9600     0.2470    -0.5730 C.ar  1 <1>   0.1900 
  3 C       -1.5910     0.9790     0.5450 C.ar  1 <1>   0.1900 
  4 C       -3.2920    -0.0380    -0.8340 C.ar  1 <1>  -0.1440 
  5 F       -0.3290     1.2380     0.7770 F     1 <1>  -0.1900 
  6 C       -2.5380     1.4470     1.4360 C.ar  1 <1>  -0.1500 
  7 C       -4.2430     0.4370     0.0660 C.ar  1 <1>  -0.1500 
  8 C       -3.7100    -0.8400    -2.0630 C.3   1 <1>   0.2540 
  9 C       -3.8730     1.1680     1.1870 C.ar  1 <1>  -0.1500 
 10 N       -4.7780    -1.7890    -1.7230 N.3   1 <1>  -0.8100 
 11 C       -4.4050    -2.8040    -0.7160 C.3   1 <1>   0.1100 
 12 C       -5.5210    -2.3170    -2.8620 C.3   1 <1>   0.1100 
 13 C       -5.4960    -3.8920    -0.5090 C.3   1 <1>   0.4230 
 14 C       -6.8560    -2.9200    -2.3850 C.3   1 <1>  -0.1600 
 15 N       -5.5080    -4.4510     0.8850 N.4   1 <1>  -0.9590 
 16 C       -6.8920    -3.3560    -0.8850 C.3   1 <1>  -0.1060 
 17 C       -6.4810    -5.5590     1.0570 C.3   1 <1>   0.3430 
 18 C       -4.1760    -4.7550     1.4720 C.3   1 <1>   0.2630 
 19 C       -7.2390    -2.1750     0.0520 C.2   1 <1>   0.9060 
 20 C       -7.9460    -4.4800    -0.7200 C.3   1 <1>  -0.1600 
 21 C       -7.8910    -5.0980     0.6840 C.3   1 <1>  -0.1600 
 22 O       -6.7290    -2.1330     1.1880 O.co2 1 <1>  -0.9000 
 23 O       -8.1020    -1.3610    -0.2830 O.co2 1 <1>  -0.9000 
 24 H       -2.2400     2.0120     2.3000 H     1 <1>   0.1500 
 25 H       -5.2920     0.2270    -0.1000 H     1 <1>   0.1500 
 26 H       -2.8760    -1.3740    -2.4830 H     1 <1>   0.0800 
 27 H       -4.0740    -0.1480    -2.8030 H     1 <1>   0.0800 
 28 H       -4.6380     1.5110     1.8640 H     1 <1>   0.1500 
 29 H       -3.4850    -3.2780    -1.0090 H     1 <1>   0.0800 
 30 H       -4.2530    -2.2910     0.2170 H     1 <1>   0.0800 
 31 H       -5.7290    -1.5270    -3.5640 H     1 <1>   0.0800 
 32 H       -4.9270    -3.0650    -3.3600 H     1 <1>   0.0800 
 33 H       -5.2700    -4.6950    -1.1890 H     1 <1>   0.0800 
 34 H       -7.6360    -2.2000    -2.5630 H     1 <1>   0.0800 
 35 H       -7.0730    -3.7540    -3.0270 H     1 <1>   0.0800 
 36 H       -5.9190    -3.6210     1.3970 H     1 <1>   0.4500 
 37 H       -6.1970    -6.3880     0.4310 H     1 <1>   0.0800 
 38 H       -6.4800    -5.8880     2.0830 H     1 <1>   0.0800 
 39 H       -3.6880    -5.5320     0.9090 H     1 <1>   0.0800 
 40 H       -4.2900    -5.0790     2.4930 H     1 <1>   0.0800 
 41 H       -3.5570    -3.8730     1.4670 H     1 <1>   0.0800 
 42 H       -8.9280    -4.0700    -0.8930 H     1 <1>   0.0800 
 43 H       -7.7780    -5.2550    -1.4470 H     1 <1>   0.0800 
 44 H       -8.5630    -5.9360     0.7320 H     1 <1>   0.0800 
 45 H       -8.2290    -4.3790     1.4120 H     1 <1>   0.0800 
@<TRIPOS>BOND
  1   1   2  1   
  2   2   3  ar  
  3   2   4  ar  
  4   3   5  1   
  5   3   6  ar  
  6   4   7  ar  
  7   4   8  1   
  8   6   9  ar  
  9   6  24  1   
 10   7   9  ar  
 11   7  25  1   
 12   8  10  1   
 13   8  26  1   
 14   8  27  1   
 15   9  28  1   
 16  10  11  1   
 17  10  12  1   
 18  11  13  1   
 19  11  29  1   
 20  11  30  1   
 21  12  14  1   
 22  12  31  1   
 23  12  32  1   
 24  13  15  1   
 25  13  16  1   
 26  13  33  1   
 27  14  16  1   
 28  14  34  1   
 29  14  35  1   
 30  15  17  1   
 31  15  18  1   
 32  15  36  1   
 33  16  19  1   
 34  16  20  1   
 35  17  21  1   
 36  17  37  1   
 37  17  38  1   
 38  18  39  1   
 39  18  40  1   
 40  18  41  1   
 41  19  22  ar  
 42  19  23  ar  
 43  20  21  1   
 44  20  42  1   
 45  20  43  1   
 46  21  44  1   
 47  21  45  1   
@<TRIPOS>SUBSTRUCTURE
  1 ****  11 GROUP 4 **** **** 0

# MOE 2024.06 (io_trps.svl 2023.06)
