@<TRIPOS>MOLECULE
NONAME
44 46 1 0 0 
SMALL
USER_CHARGES


@<TRIPOS>ATOM
  1 CL       1.6420    -0.9350     4.9990 Cl    1 <1>  -0.1770 
  2 C        1.9720    -1.2690     3.3180 C.ar  1 <1>   0.1770 
  3 C        2.1170    -2.5750     2.9020 C.ar  1 <1>  -0.1500 
  4 C        2.0760    -0.2170     2.4290 C.ar  1 <1>  -0.1500 
  5 C        2.3690    -2.8750     1.5640 C.ar  1 <1>   0.0860 
  6 C        2.3420    -0.4910     1.1020 C.ar  1 <1>  -0.1500 
  7 C        2.5050    -1.8000     0.6650 C.ar  1 <1>   0.0830 
  8 C        2.4350    -4.2670     1.1770 C.2   1 <1>   0.5440 
  9 O        2.7870    -1.9380    -0.6510 O.3   1 <1>  -0.3630 
 10 O        3.4280    -4.9050     1.4740 O.2   1 <1>  -0.5700 
 11 N        1.4050    -4.8960     0.5020 N.am  1 <1>  -0.6600 
 12 C        3.7470    -2.8730    -1.1020 C.3   1 <1>   0.0400 
 13 C        0.1300    -4.1870     0.1760 C.3   1 <1>   0.2200 
 14 C        1.5300    -6.3370     0.1180 C.3   1 <1>   0.0600 
 15 C       -1.1340    -4.9430     0.5800 C.3   1 <1>  -0.1600 
 16 C       -0.0440    -3.9260    -1.3160 C.3   1 <1>  -0.1600 
 17 C       -2.2420    -4.3050    -0.2680 C.3   1 <1>  -0.0800 
 18 C       -1.5470    -3.6660    -1.4850 C.3   1 <1>  -0.0800 
 19 C       -2.9830    -3.1690     0.4530 C.3   1 <1>  -0.1600 
 20 C       -1.9100    -2.1740    -1.4590 C.3   1 <1>  -0.1600 
 21 C       -3.1690    -2.0990    -0.6110 C.3   1 <1>   0.2000 
 22 O       -3.2740    -0.8580    -0.0230 O.3   1 <1>  -0.6800 
 23 H        2.0300    -3.3740     3.6170 H     1 <1>   0.1500 
 24 H        1.9540     0.7940     2.7760 H     1 <1>   0.1500 
 25 H        2.4350     0.3110     0.3910 H     1 <1>   0.1500 
 26 H        4.1570    -2.5130    -2.0270 H     1 <1>   0.0800 
 27 H        3.2650    -3.8200    -1.2660 H     1 <1>   0.0800 
 28 H        4.5280    -2.9670    -0.3670 H     1 <1>   0.0800 
 29 H        0.0950    -3.2350     0.6750 H     1 <1>   0.0800 
 30 H        1.0030    -6.5380    -0.7970 H     1 <1>   0.0800 
 31 H        1.1250    -6.9520     0.9020 H     1 <1>   0.0800 
 32 H        2.5640    -6.6000    -0.0260 H     1 <1>   0.0800 
 33 H       -1.0630    -5.9800     0.3080 H     1 <1>   0.0800 
 34 H       -1.3240    -4.8670     1.6360 H     1 <1>   0.0800 
 35 H        0.5550    -3.0980    -1.6490 H     1 <1>   0.0800 
 36 H        0.2200    -4.8000    -1.8830 H     1 <1>   0.0800 
 37 H       -2.9490    -5.0490    -0.5930 H     1 <1>   0.0800 
 38 H       -1.9090    -4.1120    -2.3970 H     1 <1>   0.0800 
 39 H       -2.3810    -2.7820     1.2560 H     1 <1>   0.0800 
 40 H       -3.9300    -3.5020     0.8400 H     1 <1>   0.0800 
 41 H       -2.0860    -1.7960    -2.4510 H     1 <1>   0.0800 
 42 H       -1.1230    -1.6070    -0.9930 H     1 <1>   0.0800 
 43 H       -4.0510    -2.2860    -1.2020 H     1 <1>   0.0800 
 44 H       -2.4730    -0.6700     0.5000 H     1 <1>   0.4000 
@<TRIPOS>BOND
  1   1   2  1   
  2   2   3  ar  
  3   2   4  ar  
  4   3   5  ar  
  5   3  23  1   
  6   4   6  ar  
  7   4  24  1   
  8   5   7  ar  
  9   5   8  1   
 10   6   7  ar  
 11   6  25  1   
 12   7   9  1   
 13   8  10  2   
 14   8  11  am  
 15   9  12  1   
 16  11  13  1   
 17  11  14  1   
 18  12  26  1   
 19  12  27  1   
 20  12  28  1   
 21  13  15  1   
 22  13  16  1   
 23  13  29  1   
 24  14  30  1   
 25  14  31  1   
 26  14  32  1   
 27  15  17  1   
 28  15  33  1   
 29  15  34  1   
 30  16  18  1   
 31  16  35  1   
 32  16  36  1   
 33  17  18  1   
 34  17  19  1   
 35  17  37  1   
 36  18  20  1   
 37  18  38  1   
 38  19  21  1   
 39  19  39  1   
 40  19  40  1   
 41  20  21  1   
 42  20  41  1   
 43  20  42  1   
 44  21  22  1   
 45  21  43  1   
 46  22  44  1   
@<TRIPOS>SUBSTRUCTURE
  1 ****  13 GROUP 4 **** **** 0

# MOE 2024.06 (io_trps.svl 2023.06)
