@<TRIPOS>MOLECULE
NONAME
46 49 1 0 0 
SMALL
USER_CHARGES


@<TRIPOS>ATOM
  1 O       -1.6480     1.0980    -2.4040 O.2   1 <1>  -0.5700 
  2 C       -2.3150     1.5850    -1.5220 C.2   1 <1>   0.5690 
  3 N       -2.7980     0.8200    -0.4930 N.am  1 <1>  -0.6600 
  4 C       -2.6220     3.0630    -1.6220 C.3   1 <1>   0.1570 
  5 C       -3.5770     1.2960     0.6810 C.3   1 <1>   0.1400 
  6 C       -2.5280    -0.6350    -0.3870 C.3   1 <1>   0.1400 
  7 N       -2.0260     3.7990    -0.5010 N.pl3 1 <1>   0.3140 
  8 C       -4.0120     0.0210     1.4000 C.3   1 <1>   0.2000 
  9 C       -2.9710    -1.0300     1.0230 C.3   1 <1>  -0.0800 
 10 N       -2.7920     4.5120     0.3580 N.2   1 <1>  -0.7070 
 11 C       -0.6970     3.9020    -0.1970 C.ar  1 <1>  -0.1520 
 12 O       -4.0460     0.1930     2.7740 O.3   1 <1>  -0.6800 
 13 C       -3.5040    -2.4670     1.1220 C.3   1 <1>   0.0210 
 14 C       -1.9580     5.0550     1.1820 C.2   1 <1>   0.1390 
 15 C       -0.6220     4.7240     0.9070 C.ar  1 <1>   0.0000 
 16 C        0.4610     3.3590    -0.7700 C.ar  1 <1>  -0.1500 
 17 C       -2.4860    -3.4660     0.6080 C.2   1 <1>   0.1080 
 18 C        0.6260     5.0310     1.4670 C.ar  1 <1>  -0.1500 
 19 C        1.6800     3.6630    -0.2140 C.ar  1 <1>  -0.1500 
 20 N       -1.3470    -3.6730     1.1900 N.2   1 <1>  -0.7070 
 21 C       -2.6460    -4.2510    -0.5290 C.2   1 <1>  -0.1500 
 22 C        1.7630     4.5020     0.9070 C.ar  1 <1>  -0.1500 
 23 N       -0.7420    -4.6070     0.4330 N.pl3 1 <1>   0.3000 
 24 C       -1.5080    -4.9710    -0.6170 C.2   1 <1>  -0.3320 
 25 C       -1.1000    -6.0010    -1.6540 C.3   1 <1>  -0.0600 
 26 H       -3.6840     3.2120    -1.6140 H     1 <1>   0.0800 
 27 H       -2.2230     3.4540    -2.5380 H     1 <1>   0.0800 
 28 H       -2.9380     1.8870     1.3150 H     1 <1>   0.0800 
 29 H       -4.4300     1.8750     0.3700 H     1 <1>   0.0800 
 30 H       -3.1060    -1.1520    -1.1340 H     1 <1>   0.0800 
 31 H       -1.4820    -0.8460    -0.5410 H     1 <1>   0.0800 
 32 H       -4.9960    -0.2630     1.0700 H     1 <1>   0.0800 
 33 H       -2.1090    -0.9320     1.6610 H     1 <1>   0.0800 
 34 H       -3.1470     0.3660     3.1150 H     1 <1>   0.4000 
 35 H       -4.4130    -2.5650     0.5560 H     1 <1>   0.0800 
 36 H       -3.7250    -2.6970     2.1490 H     1 <1>   0.0800 
 37 H       -2.2500     5.6950     1.9960 H     1 <1>   0.1500 
 38 H        0.3910     2.7120    -1.6290 H     1 <1>   0.1500 
 39 H        0.6720     5.6760     2.3260 H     1 <1>   0.1500 
 40 H        2.5850     3.2590    -0.6340 H     1 <1>   0.1500 
 41 H       -3.5010    -4.2610    -1.1810 H     1 <1>   0.1500 
 42 H        2.7310     4.7240     1.3210 H     1 <1>   0.1500 
 43 H        0.1910    -4.9720     0.6580 H     1 <1>   0.2700 
 44 H       -1.8790    -6.1160    -2.3870 H     1 <1>   0.0800 
 45 H       -0.9280    -6.9540    -1.1850 H     1 <1>   0.0800 
 46 H       -0.2010    -5.6880    -2.1550 H     1 <1>   0.0800 
@<TRIPOS>BOND
  1   1   2  2   
  2   2   3  am  
  3   2   4  1   
  4   3   5  1   
  5   3   6  1   
  6   4   7  1   
  7   4  26  1   
  8   4  27  1   
  9   5   8  1   
 10   5  28  1   
 11   5  29  1   
 12   6   9  1   
 13   6  30  1   
 14   6  31  1   
 15   7  10  1   
 16   7  11  1   
 17   8   9  1   
 18   8  12  1   
 19   8  32  1   
 20   9  13  1   
 21   9  33  1   
 22  10  14  2   
 23  11  15  ar  
 24  11  16  ar  
 25  12  34  1   
 26  13  17  1   
 27  13  35  1   
 28  13  36  1   
 29  14  15  1   
 30  14  37  1   
 31  15  18  ar  
 32  16  19  ar  
 33  16  38  1   
 34  17  20  2   
 35  17  21  1   
 36  18  22  ar  
 37  18  39  1   
 38  19  22  ar  
 39  19  40  1   
 40  20  23  1   
 41  21  24  2   
 42  21  41  1   
 43  22  42  1   
 44  23  24  1   
 45  23  43  1   
 46  24  25  1   
 47  25  44  1   
 48  25  45  1   
 49  25  46  1   
@<TRIPOS>SUBSTRUCTURE
  1 ****   3 GROUP 4 **** **** 0

# MOE 2024.06 (io_trps.svl 2023.06)
