@<TRIPOS>MOLECULE
NONAME
50 52 1 0 0 
SMALL
USER_CHARGES


@<TRIPOS>ATOM
  1 O       -0.1430     0.2780    -0.8710 O.3   1 <1>  -0.5600 
  2 C       -0.0090     1.2520    -1.8510 C.3   1 <1>   0.1200 
  3 C       -1.4990     0.1660    -0.5450 C.3   1 <1>   0.1200 
  4 C       -0.9000     2.3640    -1.3090 C.3   1 <1>   0.4230 
  5 C       -2.1180     1.5270    -0.9110 C.3   1 <1>  -0.0800 
  6 N       -0.2430     2.9170    -0.0840 N.4   1 <1>  -0.9060 
  7 C       -3.0570     2.1020     0.1690 C.3   1 <1>  -0.0170 
  8 C        0.9420     3.7810    -0.2980 C.3   1 <1>   0.4230 
  9 C       -4.2520     1.1860     0.3720 C.ar  1 <1>  -0.1440 
 10 C        1.6890     3.9240     1.0280 C.3   1 <1>  -0.1600 
 11 C        0.5180     5.1560    -0.8210 C.3   1 <1>  -0.1600 
 12 C       -5.3240     1.1890    -0.4980 C.ar  1 <1>  -0.1500 
 13 C       -4.3310     0.3040     1.4330 C.ar  1 <1>  -0.1500 
 14 C        2.8870     4.8650     0.8860 C.3   1 <1>   0.3430 
 15 C        1.7230     6.0940    -0.9410 C.3   1 <1>   0.3430 
 16 C       -6.3880     0.3300    -0.2770 C.ar  1 <1>   0.1600 
 17 C       -5.4410    -0.5140     1.5620 C.ar  1 <1>   0.1600 
 18 N        2.4370     6.1900     0.3690 N.4   1 <1>  -0.9590 
 19 N       -6.4680    -0.5230     0.7290 N.ar  1 <1>  -0.6200 
 20 C        3.6070     7.1150     0.2830 C.3   1 <1>   0.3430 
 21 C        3.1200     8.5560     0.1900 C.3   1 <1>  -0.2400 
 22 H        1.0260     1.5200    -1.9610 H     1 <1>   0.0800 
 23 H       -0.3830     0.8560    -2.7820 H     1 <1>   0.0800 
 24 H       -1.9310    -0.6360    -1.1220 H     1 <1>   0.0800 
 25 H       -1.5760    -0.0670     0.5040 H     1 <1>   0.0800 
 26 H       -1.1310     3.1260    -2.0350 H     1 <1>   0.0800 
 27 H       -2.7070     1.3700    -1.8000 H     1 <1>   0.0800 
 28 H       -0.9400     3.3760     0.5100 H     1 <1>   0.4500 
 29 H        0.0550     2.0590     0.4120 H     1 <1>   0.4500 
 30 H       -3.4170     3.0700    -0.1330 H     1 <1>   0.0800 
 31 H       -2.5480     2.2120     1.1100 H     1 <1>   0.0800 
 32 H        1.6030     3.3160    -1.0140 H     1 <1>   0.0800 
 33 H        1.0380     4.3040     1.7970 H     1 <1>   0.0800 
 34 H        2.0550     2.9630     1.3430 H     1 <1>   0.0800 
 35 H        0.0760     5.0590    -1.7970 H     1 <1>   0.0800 
 36 H       -0.2070     5.6070    -0.1660 H     1 <1>   0.0800 
 37 H       -5.3540     1.8480    -1.3460 H     1 <1>   0.1500 
 38 H       -3.5490     0.2360     2.1660 H     1 <1>   0.1500 
 39 H        3.6100     4.4360     0.2100 H     1 <1>   0.0800 
 40 H        3.3630     4.9890     1.8470 H     1 <1>   0.0800 
 41 H        1.3840     7.0710    -1.2490 H     1 <1>   0.0800 
 42 H        2.4000     5.7260    -1.6960 H     1 <1>   0.0800 
 43 H       -7.2170     0.3440    -0.9650 H     1 <1>   0.1500 
 44 H       -5.4890    -1.1970     2.3930 H     1 <1>   0.1500 
 45 H        1.8030     6.6170     1.0620 H     1 <1>   0.4500 
 46 H        4.2160     7.0160     1.1680 H     1 <1>   0.0800 
 47 H        4.2190     6.8740    -0.5730 H     1 <1>   0.0800 
 48 H        2.4960     8.8090     1.0280 H     1 <1>   0.0800 
 49 H        2.5920     8.7420    -0.7280 H     1 <1>   0.0800 
 50 H        3.9720     9.2140     0.2080 H     1 <1>   0.0800 
@<TRIPOS>BOND
  1   1   2  1   
  2   1   3  1   
  3   2   4  1   
  4   2  22  1   
  5   2  23  1   
  6   3   5  1   
  7   3  24  1   
  8   3  25  1   
  9   4   5  1   
 10   4   6  1   
 11   4  26  1   
 12   5   7  1   
 13   5  27  1   
 14   6   8  1   
 15   6  28  1   
 16   6  29  1   
 17   7   9  1   
 18   7  30  1   
 19   7  31  1   
 20   8  10  1   
 21   8  11  1   
 22   8  32  1   
 23   9  12  ar  
 24   9  13  ar  
 25  10  14  1   
 26  10  33  1   
 27  10  34  1   
 28  11  15  1   
 29  11  35  1   
 30  11  36  1   
 31  12  16  ar  
 32  12  37  1   
 33  13  17  ar  
 34  13  38  1   
 35  14  18  1   
 36  14  39  1   
 37  14  40  1   
 38  15  18  1   
 39  15  41  1   
 40  15  42  1   
 41  16  19  ar  
 42  16  43  1   
 43  17  19  ar  
 44  17  44  1   
 45  18  20  1   
 46  18  45  1   
 47  20  21  1   
 48  20  46  1   
 49  20  47  1   
 50  21  48  1   
 51  21  49  1   
 52  21  50  1   
@<TRIPOS>SUBSTRUCTURE
  1 ****   6 GROUP 4 **** **** 0

# MOE 2024.06 (io_trps.svl 2023.06)
