@<TRIPOS>MOLECULE
NONAME
52 54 1 0 0 
SMALL
USER_CHARGES


@<TRIPOS>ATOM
  1 CL      -1.3200    -1.2240    -2.3330 Cl    1 <1>  -0.1770 
  2 C       -1.1130    -2.4600    -1.1190 C.ar  1 <1>   0.1770 
  3 C       -2.2130    -2.8920    -0.4030 C.ar  1 <1>  -0.1500 
  4 C        0.1450    -2.9870    -0.8970 C.ar  1 <1>  -0.1500 
  5 C       -2.0590    -3.8820     0.5570 C.ar  1 <1>  -0.1440 
  6 C        0.3010    -3.9700     0.0650 C.ar  1 <1>  -0.1500 
  7 C       -0.7960    -4.4110     0.7870 C.ar  1 <1>  -0.1500 
  8 C       -3.2610    -4.3920     1.3480 C.3   1 <1>   0.0450 
  9 C       -3.3420    -5.9130     1.3870 C.2   1 <1>   0.5690 
 10 O       -3.1930    -6.4440     2.4620 O.2   1 <1>  -0.5700 
 11 N       -3.5680    -6.6400     0.2470 N.am  1 <1>  -0.6600 
 12 C       -3.5350    -8.1420     0.2910 C.3   1 <1>   0.3640 
 13 C       -3.8280    -6.0250    -1.0950 C.3   1 <1>   0.1400 
 14 C       -2.1460    -8.6950    -0.0750 C.ar  1 <1>  -0.1430 
 15 C       -4.6500    -8.7740    -0.6060 C.3   1 <1>   0.2000 
 16 C       -4.1200    -7.0760    -2.1760 C.3   1 <1>   0.1200 
 17 C       -1.9110   -10.0490     0.1350 C.ar  1 <1>  -0.1500 
 18 C       -1.1100    -7.9200    -0.5910 C.ar  1 <1>  -0.1500 
 19 O       -5.0650    -7.9780    -1.6950 O.3   1 <1>  -0.5600 
 20 C       -5.9100    -9.0850     0.2110 C.3   1 <1>   0.1200 
 21 C       -0.6940   -10.6290    -0.1810 C.ar  1 <1>   0.0830 
 22 C        0.1180    -8.4840    -0.8930 C.ar  1 <1>  -0.1500 
 23 O       -5.6730   -10.1520     1.0730 O.3   1 <1>  -0.6800 
 24 O       -0.5750   -11.9660     0.0100 O.3   1 <1>  -0.3630 
 25 C        0.3410    -9.8320    -0.6790 C.ar  1 <1>   0.0830 
 26 C       -0.3390   -12.7520    -1.1390 C.3   1 <1>   0.0400 
 27 O        1.5780   -10.3130    -0.9560 O.3   1 <1>  -0.3630 
 28 C        2.3360   -10.7450     0.1530 C.3   1 <1>   0.0400 
 29 H       -3.1730    -2.4520    -0.6040 H     1 <1>   0.1500 
 30 H        0.9840    -2.6320    -1.4680 H     1 <1>   0.1500 
 31 H        1.2740    -4.3910     0.2550 H     1 <1>   0.1500 
 32 H       -0.6590    -5.1770     1.5350 H     1 <1>   0.1500 
 33 H       -4.1770    -4.0090     0.9400 H     1 <1>   0.0800 
 34 H       -3.1840    -4.0280     2.3570 H     1 <1>   0.0800 
 35 H       -3.7180    -8.4630     1.3020 H     1 <1>   0.0800 
 36 H       -4.6750    -5.3660    -1.0240 H     1 <1>   0.0800 
 37 H       -2.9760    -5.4450    -1.4020 H     1 <1>   0.0800 
 38 H       -4.2910    -9.6940    -1.0280 H     1 <1>   0.0800 
 39 H       -3.2310    -7.6150    -2.4550 H     1 <1>   0.0800 
 40 H       -4.5260    -6.6060    -3.0540 H     1 <1>   0.0800 
 41 H       -2.6780   -10.6780     0.5510 H     1 <1>   0.1500 
 42 H       -1.2330    -6.8670    -0.7570 H     1 <1>   0.1500 
 43 H       -6.7260    -9.3540    -0.4370 H     1 <1>   0.0800 
 44 H       -6.1860    -8.2320     0.8050 H     1 <1>   0.0800 
 45 H        0.9120    -7.8770    -1.2870 H     1 <1>   0.1500 
 46 H       -5.7080   -11.0030     0.5930 H     1 <1>   0.4000 
 47 H       -0.4210   -13.7860    -0.8600 H     1 <1>   0.0800 
 48 H        0.6480   -12.5510    -1.5130 H     1 <1>   0.0800 
 49 H       -1.0780   -12.5090    -1.8830 H     1 <1>   0.0800 
 50 H        3.3150   -11.0200    -0.1950 H     1 <1>   0.0800 
 51 H        1.8550   -11.5930     0.6060 H     1 <1>   0.0800 
 52 H        2.4080    -9.9360     0.8590 H     1 <1>   0.0800 
@<TRIPOS>BOND
  1   1   2  1   
  2   2   3  ar  
  3   2   4  ar  
  4   3   5  ar  
  5   3  29  1   
  6   4   6  ar  
  7   4  30  1   
  8   5   7  ar  
  9   5   8  1   
 10   6   7  ar  
 11   6  31  1   
 12   7  32  1   
 13   8   9  1   
 14   8  33  1   
 15   8  34  1   
 16   9  10  2   
 17   9  11  am  
 18  11  12  1   
 19  11  13  1   
 20  12  14  1   
 21  12  15  1   
 22  12  35  1   
 23  13  16  1   
 24  13  36  1   
 25  13  37  1   
 26  14  17  ar  
 27  14  18  ar  
 28  15  19  1   
 29  15  20  1   
 30  15  38  1   
 31  16  19  1   
 32  16  39  1   
 33  16  40  1   
 34  17  21  ar  
 35  17  41  1   
 36  18  22  ar  
 37  18  42  1   
 38  20  23  1   
 39  20  43  1   
 40  20  44  1   
 41  21  24  1   
 42  21  25  ar  
 43  22  25  ar  
 44  22  45  1   
 45  23  46  1   
 46  24  26  1   
 47  25  27  1   
 48  26  47  1   
 49  26  48  1   
 50  26  49  1   
 51  27  28  1   
 52  28  50  1   
 53  28  51  1   
 54  28  52  1   
@<TRIPOS>SUBSTRUCTURE
  1 ****  18 GROUP 4 **** **** 0

# MOE 2024.06 (io_trps.svl 2023.06)
