@<TRIPOS>MOLECULE
NONAME
54 57 1 0 0 
SMALL
USER_CHARGES


@<TRIPOS>ATOM
  1 O        0.7450    -0.5970     1.1500 O.3   1 <1>  -0.5600 
  2 C        1.8520    -1.0980     0.4400 C.3   1 <1>   0.4240 
  3 C       -0.5260    -0.9250     0.6740 C.3   1 <1>   0.1200 
  4 C        1.6120    -2.5330    -0.0700 C.ar  1 <1>  -0.1440 
  5 C        3.0060    -1.0830     1.4530 C.3   1 <1>  -0.1600 
  6 C        2.1530    -0.1300    -0.7160 C.3   1 <1>  -0.1600 
  7 C       -0.7330    -2.4310     0.8110 C.3   1 <1>  -0.0160 
  8 C        0.3920    -3.1690     0.1130 C.ar  1 <1>  -0.1440 
  9 C        2.6190    -3.2220    -0.7330 C.ar  1 <1>  -0.1500 
 10 C        3.3170     0.3380     1.9250 C.3   1 <1>   0.2090 
 11 C        2.4940     1.2690    -0.2040 C.3   1 <1>   0.2090 
 12 C        0.1980    -4.4650    -0.3370 C.ar  1 <1>  -0.1500 
 13 C        2.4420    -4.5130    -1.1990 C.ar  1 <1>   0.0820 
 14 N        3.6650     1.1750     0.7330 N.pl3 1 <1>  -0.8380 
 15 C        1.2140    -5.1600    -0.9880 C.ar  1 <1>   0.0820 
 16 O        3.5330    -5.0310    -1.8350 O.3   1 <1>  -0.3630 
 17 C        4.8580     1.7680     0.4540 C.ar  1 <1>   0.7710 
 18 O        1.0330    -6.4490    -1.4030 O.3   1 <1>  -0.3630 
 19 C        3.4230    -6.0620    -2.7910 C.3   1 <1>   0.0400 
 20 N        5.0110     2.4340    -0.6840 N.ar  1 <1>  -0.6200 
 21 N        5.8640     1.6600     1.3420 N.ar  1 <1>  -0.1790 
 22 C       -0.0740    -7.2210    -0.9920 C.3   1 <1>   0.0400 
 23 C        6.1710     2.9960    -0.9300 C.ar  1 <1>   0.4100 
 24 C        7.0780     2.2210     1.1200 C.ar  1 <1>   0.2110 
 25 N        6.2440     3.6520    -2.0980 N.pl3 1 <1>  -0.8690 
 26 C        7.2510     2.9050    -0.0350 C.ar  1 <1>  -0.1500 
 27 C        7.3400     4.4740    -2.6770 C.3   1 <1>   0.1290 
 28 H       -0.6120    -0.6150    -0.3520 H     1 <1>   0.0800 
 29 H       -1.2490    -0.3910     1.2660 H     1 <1>   0.0800 
 30 H        3.8900    -1.5050     1.0140 H     1 <1>   0.0800 
 31 H        2.7350    -1.6980     2.2920 H     1 <1>   0.0800 
 32 H        1.3130    -0.0830    -1.3830 H     1 <1>   0.0800 
 33 H        2.9860    -0.4920    -1.2880 H     1 <1>   0.0800 
 34 H       -1.6800    -2.6970     0.3770 H     1 <1>   0.0800 
 35 H       -0.7520    -2.6970     1.8530 H     1 <1>   0.0800 
 36 H        3.5740    -2.7630    -0.9070 H     1 <1>   0.1500 
 37 H        4.1100     0.3050     2.6470 H     1 <1>   0.0800 
 38 H        2.4500     0.7550     2.4130 H     1 <1>   0.0800 
 39 H        1.6480     1.6820     0.3210 H     1 <1>   0.0800 
 40 H        2.6930     1.9130    -1.0440 H     1 <1>   0.0800 
 41 H       -0.7590    -4.9190    -0.1700 H     1 <1>   0.1500 
 42 H        4.3380    -6.0980    -3.3520 H     1 <1>   0.0800 
 43 H        2.5960    -5.8470    -3.4450 H     1 <1>   0.0800 
 44 H        3.2740    -6.9950    -2.2780 H     1 <1>   0.0800 
 45 H        5.6500     1.1350     2.1790 H     1 <1>   0.4570 
 46 H        0.0670    -8.2240    -1.3540 H     1 <1>   0.0800 
 47 H       -0.9690    -6.8040    -1.4180 H     1 <1>   0.0800 
 48 H       -0.1190    -7.2230     0.0820 H     1 <1>   0.0800 
 49 H        7.8580     2.1070     1.8570 H     1 <1>   0.1500 
 50 H        5.4030     3.5970    -2.6840 H     1 <1>   0.4000 
 51 H        8.1850     3.3710    -0.2830 H     1 <1>   0.1500 
 52 H        8.0010     4.8360    -1.9090 H     1 <1>   0.0800 
 53 H        6.9210     5.3240    -3.1890 H     1 <1>   0.0800 
 54 H        7.9030     3.8870    -3.3830 H     1 <1>   0.0800 
@<TRIPOS>BOND
  1   1   2  1   
  2   1   3  1   
  3   2   4  1   
  4   2   5  1   
  5   2   6  1   
  6   3   7  1   
  7   3  28  1   
  8   3  29  1   
  9   4   8  ar  
 10   4   9  ar  
 11   5  10  1   
 12   5  30  1   
 13   5  31  1   
 14   6  11  1   
 15   6  32  1   
 16   6  33  1   
 17   7   8  1   
 18   7  34  1   
 19   7  35  1   
 20   8  12  ar  
 21   9  13  ar  
 22   9  36  1   
 23  10  14  1   
 24  10  37  1   
 25  10  38  1   
 26  11  14  1   
 27  11  39  1   
 28  11  40  1   
 29  12  15  ar  
 30  12  41  1   
 31  13  15  ar  
 32  13  16  1   
 33  14  17  1   
 34  15  18  1   
 35  16  19  1   
 36  17  20  ar  
 37  17  21  ar  
 38  18  22  1   
 39  19  42  1   
 40  19  43  1   
 41  19  44  1   
 42  20  23  ar  
 43  21  24  ar  
 44  21  45  1   
 45  22  46  1   
 46  22  47  1   
 47  22  48  1   
 48  23  25  1   
 49  23  26  ar  
 50  24  26  ar  
 51  24  49  1   
 52  25  27  1   
 53  25  50  1   
 54  26  51  1   
 55  27  52  1   
 56  27  53  1   
 57  27  54  1   
@<TRIPOS>SUBSTRUCTURE
  1 ****   6 GROUP 4 **** **** 0

# MOE 2024.06 (io_trps.svl 2023.06)
