@<TRIPOS>MOLECULE
NONAME
46 48 1 0 0 
SMALL
USER_CHARGES


@<TRIPOS>ATOM
  1 O       -0.4470     0.6370     0.4400 O.2   1 <1>  -0.5700 
  2 C       -1.4010     1.2130    -0.0370 C.2   1 <1>   0.5440 
  3 N       -1.4460     2.5590     0.1190 N.am  1 <1>  -0.7300 
  4 C       -2.4790     0.5320    -0.7310 C.ar  1 <1>   0.0860 
  5 C       -2.5550     3.3970    -0.4380 C.3   1 <1>   0.2810 
  6 C       -3.7000     1.1890    -0.9230 C.ar  1 <1>  -0.1440 
  7 C       -2.3460    -0.7650    -1.2230 C.ar  1 <1>  -0.1500 
  8 C       -2.6280     4.7860     0.2170 C.2   1 <1>   0.5690 
  9 C       -3.8730     2.6020    -0.3670 C.3   1 <1>  -0.0160 
 10 C       -4.7390     0.5640    -1.5930 C.ar  1 <1>  -0.1500 
 11 C       -3.3830    -1.3870    -1.8920 C.ar  1 <1>  -0.1500 
 12 O       -3.6970     5.2330     0.5640 O.2   1 <1>  -0.5700 
 13 N       -1.4450     5.4630     0.3640 N.am  1 <1>  -0.4940 
 14 C       -4.5810    -0.7210    -2.0790 C.ar  1 <1>  -0.1500 
 15 C       -1.1910     6.7360     0.9310 C.2   1 <1>  -0.0880 
 16 N        0.0440     7.2900     1.1130 N.pl3 1 <1>   0.3140 
 17 C       -2.0820     7.6420     1.3960 C.2   1 <1>  -0.1500 
 18 N       -0.0500     8.5170     1.6790 N.2   1 <1>  -0.7070 
 19 C        1.3890     6.7100     0.8150 C.3   1 <1>   0.1760 
 20 C       -1.3220     8.7130     1.8400 C.2   1 <1>   0.1390 
 21 C        1.5660     6.3550    -0.6810 C.3   1 <1>  -0.1600 
 22 C        1.6650     5.5160     1.7560 C.3   1 <1>  -0.1600 
 23 C        1.1960     7.5040    -1.6300 C.3   1 <1>  -0.2400 
 24 C        3.1070     4.9940     1.6820 C.3   1 <1>  -0.2400 
 25 H       -0.8690     2.9360     0.8730 H     1 <1>   0.3700 
 26 H       -2.3400     3.5600    -1.4800 H     1 <1>   0.0800 
 27 H       -1.4140    -1.2850    -1.0750 H     1 <1>   0.1500 
 28 H       -4.6320     3.1290    -0.9180 H     1 <1>   0.0800 
 29 H       -4.1980     2.5420     0.6580 H     1 <1>   0.0800 
 30 H       -5.6790     1.0700    -1.7370 H     1 <1>   0.1500 
 31 H       -3.2600    -2.3890    -2.2660 H     1 <1>   0.1500 
 32 H       -0.6280     4.9770    -0.0070 H     1 <1>   0.3700 
 33 H       -5.3900    -1.2050    -2.5990 H     1 <1>   0.1500 
 34 H       -3.1550     7.5720     1.4260 H     1 <1>   0.1500 
 35 H        2.1030     7.4800     1.0500 H     1 <1>   0.0800 
 36 H       -1.7320     9.6110     2.2730 H     1 <1>   0.1500 
 37 H        0.9940     5.4810    -0.9320 H     1 <1>   0.0800 
 38 H        2.6000     6.1120    -0.8520 H     1 <1>   0.0800 
 39 H        0.9920     4.7070     1.5390 H     1 <1>   0.0800 
 40 H        1.4800     5.8370     2.7680 H     1 <1>   0.0800 
 41 H        0.1450     7.7320    -1.5730 H     1 <1>   0.0800 
 42 H        1.4270     7.2340    -2.6460 H     1 <1>   0.0800 
 43 H        1.7510     8.3920    -1.3790 H     1 <1>   0.0800 
 44 H        3.3140     4.5540     0.7230 H     1 <1>   0.0800 
 45 H        3.2600     4.2390     2.4330 H     1 <1>   0.0800 
 46 H        3.8080     5.7920     1.8590 H     1 <1>   0.0800 
@<TRIPOS>BOND
  1   1   2  2   
  2   2   3  am  
  3   2   4  1   
  4   3   5  1   
  5   3  25  1   
  6   4   6  ar  
  7   4   7  ar  
  8   5   8  1   
  9   5   9  1   
 10   5  26  1   
 11   6   9  1   
 12   6  10  ar  
 13   7  11  ar  
 14   7  27  1   
 15   8  12  2   
 16   8  13  am  
 17   9  28  1   
 18   9  29  1   
 19  10  14  ar  
 20  10  30  1   
 21  11  14  ar  
 22  11  31  1   
 23  13  15  1   
 24  13  32  1   
 25  14  33  1   
 26  15  16  1   
 27  15  17  2   
 28  16  18  1   
 29  16  19  1   
 30  17  20  1   
 31  17  34  1   
 32  18  20  2   
 33  19  21  1   
 34  19  22  1   
 35  19  35  1   
 36  20  36  1   
 37  21  23  1   
 38  21  37  1   
 39  21  38  1   
 40  22  24  1   
 41  22  39  1   
 42  22  40  1   
 43  23  41  1   
 44  23  42  1   
 45  23  43  1   
 46  24  44  1   
 47  24  45  1   
 48  24  46  1   
@<TRIPOS>SUBSTRUCTURE
  1 ****   5 GROUP 4 **** **** 0

# MOE 2024.06 (io_trps.svl 2023.06)
