@<TRIPOS>MOLECULE
NONAME
48 50 1 0 0 
SMALL
USER_CHARGES


@<TRIPOS>ATOM
  1 O       -3.2910    -0.4150    -2.6930 O.2   1 <1>  -0.5700 
  2 C       -3.0160    -0.8790    -1.6160 C.2   1 <1>   0.5690 
  3 N       -2.6250    -0.1000    -0.5640 N.am  1 <1>  -0.6600 
  4 C       -3.1620    -2.3700    -1.4480 C.3   1 <1>  -0.0190 
  5 C       -2.3580    -0.6490     0.7960 C.3   1 <1>   0.2200 
  6 C       -2.3940     1.3690    -0.7300 C.3   1 <1>   0.0600 
  7 C       -1.8320    -3.0450    -1.0530 C.3   1 <1>   0.1200 
  8 C       -4.3790    -2.6490    -0.5570 C.3   1 <1>   0.3430 
  9 C       -1.1730    -1.6460     0.7670 C.3   1 <1>   0.1200 
 10 C       -3.6570    -1.2220     1.4280 C.3   1 <1>   0.3430 
 11 O       -1.5380    -2.9240     0.3120 O.3   1 <1>  -0.5600 
 12 N       -4.0810    -2.5710     0.9110 N.4   1 <1>  -0.9590 
 13 C       -5.1340    -3.2070     1.7440 C.3   1 <1>   0.4860 
 14 C       -5.2100    -4.6780     1.3830 C.ar  1 <1>  -0.1440 
 15 C       -6.3520    -5.1910     0.7860 C.ar  1 <1>  -0.1500 
 16 C       -4.1390    -5.5240     1.6380 C.ar  1 <1>  -0.1500 
 17 C       -6.4300    -6.5290     0.4360 C.ar  1 <1>   0.0820 
 18 C       -4.2090    -6.8610     1.2890 C.ar  1 <1>  -0.1500 
 19 O       -7.5840    -6.9400    -0.1430 O.3   1 <1>  -0.3620 
 20 C       -5.3480    -7.3670     0.6890 C.ar  1 <1>  -0.1500 
 21 C       -7.7480    -8.2870    -0.5780 C.3   1 <1>   0.1810 
 22 C       -9.1140    -8.5120    -1.2160 C.2   1 <1>   0.5690 
 23 O       -9.2630    -9.4380    -1.9710 O.2   1 <1>  -0.5700 
 24 N      -10.1530    -7.6990    -0.9380 N.am  1 <1>  -0.8000 
 25 H       -3.4110    -2.7470    -2.4240 H     1 <1>   0.0800 
 26 H       -2.0500     0.1760     1.4140 H     1 <1>   0.0800 
 27 H       -3.0560     1.9230    -0.0880 H     1 <1>   0.0800 
 28 H       -2.5750     1.6760    -1.7470 H     1 <1>   0.0800 
 29 H       -1.3740     1.6110    -0.4840 H     1 <1>   0.0800 
 30 H       -1.0110    -2.6410    -1.6240 H     1 <1>   0.0800 
 31 H       -1.8920    -4.1000    -1.2640 H     1 <1>   0.0800 
 32 H       -4.7240    -3.6440    -0.7880 H     1 <1>   0.0800 
 33 H       -5.1710    -1.9630    -0.8120 H     1 <1>   0.0800 
 34 H       -0.7960    -1.7750     1.7670 H     1 <1>   0.0800 
 35 H       -0.3690    -1.2700     0.1570 H     1 <1>   0.0800 
 36 H       -4.4510    -0.5080     1.2850 H     1 <1>   0.0800 
 37 H       -3.4850    -1.3070     2.4880 H     1 <1>   0.0800 
 38 H       -3.2320    -3.1620     1.0030 H     1 <1>   0.4500 
 39 H       -4.8880    -3.1150     2.7890 H     1 <1>   0.0800 
 40 H       -6.0860    -2.7320     1.5710 H     1 <1>   0.0800 
 41 H       -7.2040    -4.5660     0.5810 H     1 <1>   0.1500 
 42 H       -3.2400    -5.1610     2.1090 H     1 <1>   0.1500 
 43 H       -3.3750    -7.5140     1.4880 H     1 <1>   0.1500 
 44 H       -5.3690    -8.4100     0.4330 H     1 <1>   0.1500 
 45 H       -6.9830    -8.5050    -1.3010 H     1 <1>   0.0800 
 46 H       -7.6460    -8.9350     0.2720 H     1 <1>   0.0800 
 47 H      -11.0590    -7.8600    -1.3780 H     1 <1>   0.3700 
 48 H      -10.0640    -6.8850    -0.3300 H     1 <1>   0.3700 
@<TRIPOS>BOND
  1   1   2  2   
  2   2   3  am  
  3   2   4  1   
  4   3   5  1   
  5   3   6  1   
  6   4   7  1   
  7   4   8  1   
  8   4  25  1   
  9   5   9  1   
 10   5  10  1   
 11   5  26  1   
 12   6  27  1   
 13   6  28  1   
 14   6  29  1   
 15   7  11  1   
 16   7  30  1   
 17   7  31  1   
 18   8  12  1   
 19   8  32  1   
 20   8  33  1   
 21   9  11  1   
 22   9  34  1   
 23   9  35  1   
 24  10  12  1   
 25  10  36  1   
 26  10  37  1   
 27  12  13  1   
 28  12  38  1   
 29  13  14  1   
 30  13  39  1   
 31  13  40  1   
 32  14  15  ar  
 33  14  16  ar  
 34  15  17  ar  
 35  15  41  1   
 36  16  18  ar  
 37  16  42  1   
 38  17  19  1   
 39  17  20  ar  
 40  18  20  ar  
 41  18  43  1   
 42  19  21  1   
 43  20  44  1   
 44  21  22  1   
 45  21  45  1   
 46  21  46  1   
 47  22  23  2   
 48  22  24  am  
 49  24  47  1   
 50  24  48  1   
@<TRIPOS>SUBSTRUCTURE
  1 ****   8 GROUP 4 **** **** 0

# MOE 2024.06 (io_trps.svl 2023.06)
