@<TRIPOS>MOLECULE
NONAME
51 54 1 0 0 
SMALL
USER_CHARGES


@<TRIPOS>ATOM
  1 F       -2.3870    -5.4330     2.5880 F     1 <1>  -0.1900 
  2 C       -3.0990    -4.6510     1.8210 C.ar  1 <1>   0.1900 
  3 C       -2.9110    -4.7100     0.4550 C.ar  1 <1>  -0.1500 
  4 C       -4.0120    -3.7950     2.4050 C.ar  1 <1>  -0.1500 
  5 C       -3.6770    -3.8880    -0.3540 C.ar  1 <1>  -0.1500 
  6 C       -4.7660    -2.9710     1.5860 C.ar  1 <1>  -0.1500 
  7 C       -4.6060    -3.0190     0.2050 C.ar  1 <1>  -0.1430 
  8 C       -5.4390    -2.1260    -0.7120 C.3   1 <1>   0.0440 
  9 C       -6.2270    -2.9270    -1.7420 C.2   1 <1>   0.5690 
 10 O       -5.8460    -2.8600    -2.8890 O.2   1 <1>  -0.5700 
 11 N       -7.3140    -3.6880    -1.3840 N.am  1 <1>  -0.6600 
 12 C       -7.9830    -4.5920    -2.3620 C.3   1 <1>   0.1400 
 13 C       -7.8740    -3.8050    -0.0090 C.3   1 <1>   0.1400 
 14 C       -7.8230    -6.0450    -1.9010 C.3   1 <1>  -0.1600 
 15 C       -7.6910    -5.2390     0.4890 C.3   1 <1>  -0.1600 
 16 C       -8.3410    -6.2610    -0.4670 C.3   1 <1>   0.4240 
 17 O       -9.7100    -5.9220    -0.5510 O.3   1 <1>  -0.5600 
 18 C       -8.1440    -7.7300     0.0080 C.ar  1 <1>  -0.1430 
 19 C      -10.5650    -6.4090     0.4300 C.3   1 <1>   0.1200 
 20 C       -6.8750    -8.3140     0.1200 C.ar  1 <1>   0.0830 
 21 C       -9.2530    -8.5060     0.3470 C.ar  1 <1>  -0.1430 
 22 C      -10.6470    -7.9190     0.2740 C.3   1 <1>  -0.0170 
 23 O       -5.7790    -7.5710    -0.1860 O.3   1 <1>  -0.3630 
 24 C       -6.7440    -9.6360     0.5440 C.ar  1 <1>  -0.1500 
 25 C       -9.1120    -9.8190     0.7630 C.ar  1 <1>  -0.1500 
 26 C       -4.4610    -8.0420    -0.0160 C.3   1 <1>   0.0400 
 27 C       -7.8580   -10.3850     0.8620 C.ar  1 <1>  -0.1500 
 28 H       -2.1860    -5.3820     0.0350 H     1 <1>   0.1500 
 29 H       -4.1260    -3.7760     3.4730 H     1 <1>   0.1500 
 30 H       -3.5510    -3.9270    -1.4240 H     1 <1>   0.1500 
 31 H       -5.4770    -2.2960     2.0300 H     1 <1>   0.1500 
 32 H       -4.7740    -1.4630    -1.2350 H     1 <1>   0.0800 
 33 H       -6.1150    -1.5130    -0.1490 H     1 <1>   0.0800 
 34 H       -7.5560    -4.4790    -3.3430 H     1 <1>   0.0800 
 35 H       -9.0270    -4.3360    -2.4240 H     1 <1>   0.0800 
 36 H       -8.9220    -3.5570    -0.0380 H     1 <1>   0.0800 
 37 H       -7.3970    -3.1260     0.6700 H     1 <1>   0.0800 
 38 H       -6.7840    -6.2930    -1.9740 H     1 <1>   0.0800 
 39 H       -8.3540    -6.7000    -2.5660 H     1 <1>   0.0800 
 40 H       -8.1010    -5.3460     1.4740 H     1 <1>   0.0800 
 41 H       -6.6380    -5.4220     0.5700 H     1 <1>   0.0800 
 42 H      -11.5310    -5.9600     0.2800 H     1 <1>   0.0800 
 43 H      -10.1910    -6.1360     1.4010 H     1 <1>   0.0800 
 44 H      -11.0950    -8.1590    -0.6740 H     1 <1>   0.0800 
 45 H      -11.2650    -8.3210     1.0550 H     1 <1>   0.0800 
 46 H       -5.7840   -10.1050     0.6330 H     1 <1>   0.1500 
 47 H       -9.9770   -10.4060     1.0140 H     1 <1>   0.1500 
 48 H       -3.7890    -7.2620    -0.3210 H     1 <1>   0.0800 
 49 H       -4.3160    -8.9080    -0.6370 H     1 <1>   0.0800 
 50 H       -4.3050    -8.2760     1.0220 H     1 <1>   0.0800 
 51 H       -7.7510   -11.4060     1.1850 H     1 <1>   0.1500 
@<TRIPOS>BOND
  1   1   2  1   
  2   2   3  ar  
  3   2   4  ar  
  4   3   5  ar  
  5   3  28  1   
  6   4   6  ar  
  7   4  29  1   
  8   5   7  ar  
  9   5  30  1   
 10   6   7  ar  
 11   6  31  1   
 12   7   8  1   
 13   8   9  1   
 14   8  32  1   
 15   8  33  1   
 16   9  10  2   
 17   9  11  am  
 18  11  12  1   
 19  11  13  1   
 20  12  14  1   
 21  12  34  1   
 22  12  35  1   
 23  13  15  1   
 24  13  36  1   
 25  13  37  1   
 26  14  16  1   
 27  14  38  1   
 28  14  39  1   
 29  15  16  1   
 30  15  40  1   
 31  15  41  1   
 32  16  17  1   
 33  16  18  1   
 34  17  19  1   
 35  18  20  ar  
 36  18  21  ar  
 37  19  22  1   
 38  19  42  1   
 39  19  43  1   
 40  20  23  1   
 41  20  24  ar  
 42  21  22  1   
 43  21  25  ar  
 44  22  44  1   
 45  22  45  1   
 46  23  26  1   
 47  24  27  ar  
 48  24  46  1   
 49  25  27  ar  
 50  25  47  1   
 51  26  48  1   
 52  26  49  1   
 53  26  50  1   
 54  27  51  1   
@<TRIPOS>SUBSTRUCTURE
  1 ****  15 GROUP 4 **** **** 0

# MOE 2024.06 (io_trps.svl 2023.06)
