@<TRIPOS>MOLECULE
NONAME
56 59 1 0 0 
SMALL
USER_CHARGES


@<TRIPOS>ATOM
  1 O       -2.9570     0.8070    -2.4840 O.2   1 <1>  -0.5700 
  2 C       -2.4840     1.2580    -1.4590 C.2   1 <1>   0.5440 
  3 N       -2.4890     0.4290    -0.3610 N.am  1 <1>  -0.6600 
  4 C       -2.0000     2.6280    -1.3900 C.ar  1 <1>   0.0860 
  5 C       -3.2680     0.8030     0.8560 C.3   1 <1>   0.1400 
  6 C       -2.3710    -1.0430    -0.5660 C.3   1 <1>   0.1400 
  7 C       -1.1210     3.0510    -0.4130 C.ar  1 <1>  -0.1500 
  8 C       -2.4190     3.5860    -2.3350 C.ar  1 <1>  -0.1500 
  9 C       -4.6640     0.1280     0.8660 C.3   1 <1>   0.4230 
 10 C       -3.7690    -1.6820    -0.6180 C.3   1 <1>   0.3430 
 11 C       -0.6660     4.3720    -0.3220 C.ar  1 <1>   0.3100 
 12 C       -1.9860     4.8850    -2.2780 C.ar  1 <1>  -0.1500 
 13 N       -4.5840    -1.3720     0.6210 N.4   1 <1>  -0.9590 
 14 C       -5.6140     0.8020    -0.1520 C.3   1 <1>   0.1200 
 15 N        0.1780     4.7060     0.6840 N.ar  1 <1>  -0.6200 
 16 C       -1.1060     5.3180    -1.2760 C.ar  1 <1>   0.3100 
 17 C       -5.9770    -1.9440     0.5760 C.3   1 <1>   0.4230 
 18 O       -6.8740     0.1970    -0.1080 O.3   1 <1>  -0.5600 
 19 C        0.5460     5.9500     0.6870 C.ar  1 <1>   0.1670 
 20 N       -0.7070     6.6110    -1.2450 N.ar  1 <1>  -0.6200 
 21 C       -6.8790    -1.1680    -0.4150 C.3   1 <1>   0.1200 
 22 C       -5.9350    -3.4540     0.2900 C.3   1 <1>  -0.1600 
 23 C        0.1050     6.9010    -0.2760 C.ar  1 <1>   0.1670 
 24 C        1.4990     6.3620     1.7970 C.3   1 <1>  -0.0970 
 25 C       -7.2680    -4.1490     0.6130 C.3   1 <1>  -0.1600 
 26 C        0.5770     8.3440    -0.2100 C.3   1 <1>  -0.0970 
 27 C       -7.1610    -5.6600     0.3950 C.3   1 <1>  -0.2400 
 28 H       -2.7170     0.5030     1.7310 H     1 <1>   0.0800 
 29 H       -3.3880     1.8720     0.9050 H     1 <1>   0.0800 
 30 H       -1.8560    -1.2410    -1.4920 H     1 <1>   0.0800 
 31 H       -1.7900    -1.4760     0.2290 H     1 <1>   0.0800 
 32 H       -0.7450     2.3620     0.3210 H     1 <1>   0.1500 
 33 H       -3.0920     3.2780    -3.1180 H     1 <1>   0.1500 
 34 H       -5.0940     0.2970     1.8400 H     1 <1>   0.0800 
 35 H       -3.6590    -2.7480    -0.7320 H     1 <1>   0.0800 
 36 H       -4.2750    -1.3060    -1.4940 H     1 <1>   0.0800 
 37 H       -2.3080     5.6120    -3.0030 H     1 <1>   0.1500 
 38 H       -4.1040    -1.7930     1.4230 H     1 <1>   0.4500 
 39 H       -5.2350     0.7370    -1.1580 H     1 <1>   0.0800 
 40 H       -5.7470     1.8420     0.0920 H     1 <1>   0.0800 
 41 H       -6.4180    -1.8200     1.5520 H     1 <1>   0.0800 
 42 H       -7.8980    -1.5060    -0.3380 H     1 <1>   0.0800 
 43 H       -6.5540    -1.2980    -1.4330 H     1 <1>   0.0800 
 44 H       -5.7000    -3.6320    -0.7450 H     1 <1>   0.0800 
 45 H       -5.1720    -3.9070     0.8990 H     1 <1>   0.0800 
 46 H        2.4170     6.7300     1.3790 H     1 <1>   0.0800 
 47 H        1.7290     5.5200     2.4250 H     1 <1>   0.0800 
 48 H        1.0500     7.1240     2.4060 H     1 <1>   0.0800 
 49 H       -7.5430    -3.9650     1.6390 H     1 <1>   0.0800 
 50 H       -8.0560    -3.7700    -0.0160 H     1 <1>   0.0800 
 51 H        0.2810     8.7880     0.7220 H     1 <1>   0.0800 
 52 H        0.1420     8.9160    -1.0100 H     1 <1>   0.0800 
 53 H        1.6460     8.3880    -0.3070 H     1 <1>   0.0800 
 54 H       -6.4080    -6.0880     1.0330 H     1 <1>   0.0800 
 55 H       -6.9150    -5.8830    -0.6290 H     1 <1>   0.0800 
 56 H       -8.1020    -6.1310     0.6240 H     1 <1>   0.0800 
@<TRIPOS>BOND
  1   1   2  2   
  2   2   3  am  
  3   2   4  1   
  4   3   5  1   
  5   3   6  1   
  6   4   7  ar  
  7   4   8  ar  
  8   5   9  1   
  9   5  28  1   
 10   5  29  1   
 11   6  10  1   
 12   6  30  1   
 13   6  31  1   
 14   7  11  ar  
 15   7  32  1   
 16   8  12  ar  
 17   8  33  1   
 18   9  13  1   
 19   9  14  1   
 20   9  34  1   
 21  10  13  1   
 22  10  35  1   
 23  10  36  1   
 24  11  15  ar  
 25  11  16  ar  
 26  12  16  ar  
 27  12  37  1   
 28  13  17  1   
 29  13  38  1   
 30  14  18  1   
 31  14  39  1   
 32  14  40  1   
 33  15  19  ar  
 34  16  20  ar  
 35  17  21  1   
 36  17  22  1   
 37  17  41  1   
 38  18  21  1   
 39  19  23  ar  
 40  19  24  1   
 41  20  23  ar  
 42  21  42  1   
 43  21  43  1   
 44  22  25  1   
 45  22  44  1   
 46  22  45  1   
 47  23  26  1   
 48  24  46  1   
 49  24  47  1   
 50  24  48  1   
 51  25  27  1   
 52  25  49  1   
 53  25  50  1   
 54  26  51  1   
 55  26  52  1   
 56  26  53  1   
 57  27  54  1   
 58  27  55  1   
 59  27  56  1   
@<TRIPOS>SUBSTRUCTURE
  1 ****   2 GROUP 4 **** **** 0

# MOE 2024.06 (io_trps.svl 2023.06)
