@<TRIPOS>MOLECULE
NONAME
44 46 1 0 0 
SMALL
USER_CHARGES


@<TRIPOS>ATOM
  1 O        1.0690    -0.0300     3.0150 O.2   1 <1>  -0.5700 
  2 C        0.8570    -0.6880     2.0240 C.2   1 <1>   0.5690 
  3 N        0.9660    -0.1680     0.7740 N.am  1 <1>  -0.7300 
  4 C        0.4590    -2.1610     2.1640 C.3   1 <1>   0.1710 
  5 C        1.3330     1.2190     0.4400 C.3   1 <1>   0.1400 
  6 N       -0.3670    -2.6830     1.0330 N.3   1 <1>  -0.8100 
  7 C        2.7550     1.2370    -0.1160 C.3   1 <1>  -0.1600 
  8 C       -0.3900    -4.1570     1.0440 C.3   1 <1>   0.2530 
  9 C       -1.7410    -2.1300     1.1070 C.3   1 <1>   0.1100 
 10 C        3.2240     2.6770    -0.3600 C.3   1 <1>   0.0960 
 11 C       -0.7120    -4.7140    -0.3330 C.ar  1 <1>  -0.1440 
 12 C       -2.5830    -2.3930    -0.1500 C.3   1 <1>   0.1200 
 13 N        4.5830     2.6970    -0.9340 N.pl3 1 <1>   0.3140 
 14 C       -1.9620    -4.5180    -0.9070 C.ar  1 <1>   0.0820 
 15 C        0.2320    -5.4610    -1.0240 C.ar  1 <1>  -0.1500 
 16 O       -2.8950    -3.7630    -0.2950 O.3   1 <1>  -0.3630 
 17 N        4.8140     2.8700    -2.2390 N.2   1 <1>  -0.4180 
 18 C        5.7430     2.5580    -0.2920 C.2   1 <1>  -0.3020 
 19 C       -2.2760    -5.0880    -2.1300 C.ar  1 <1>  -0.1500 
 20 C       -0.0750    -6.0190    -2.2550 C.ar  1 <1>  -0.1500 
 21 N        6.0870     2.8420    -2.4350 N.2   1 <1>  -0.2270 
 22 C        6.6760     2.6510    -1.2510 C.2   1 <1>   0.0770 
 23 C       -1.3310    -5.8380    -2.8060 C.ar  1 <1>  -0.1500 
 24 H        0.7340    -0.8060     0.0030 H     1 <1>   0.3700 
 25 H       -0.0660    -2.2920     3.0940 H     1 <1>   0.0800 
 26 H        1.3760    -2.7170     2.2230 H     1 <1>   0.0800 
 27 H        1.2760     1.8260     1.3300 H     1 <1>   0.0800 
 28 H        0.6360     1.6080    -0.2830 H     1 <1>   0.0800 
 29 H        2.7810     0.6900    -1.0430 H     1 <1>   0.0800 
 30 H        3.4130     0.7660     0.5930 H     1 <1>   0.0800 
 31 H       -1.1130    -4.5150     1.7570 H     1 <1>   0.0800 
 32 H        0.5740    -4.5330     1.3400 H     1 <1>   0.0800 
 33 H       -1.6800    -1.0630     1.2260 H     1 <1>   0.0800 
 34 H       -2.2570    -2.5210     1.9670 H     1 <1>   0.0800 
 35 H        3.2360     3.2300     0.5610 H     1 <1>   0.0800 
 36 H        2.5630     3.1710    -1.0490 H     1 <1>   0.0800 
 37 H       -2.0680    -2.0550    -1.0320 H     1 <1>   0.0800 
 38 H       -3.5170    -1.8670    -0.0720 H     1 <1>   0.0800 
 39 H        1.2100    -5.6180    -0.6060 H     1 <1>   0.1500 
 40 H        5.8330     2.4060     0.7670 H     1 <1>   0.1500 
 41 H       -3.2550    -4.9360    -2.5460 H     1 <1>   0.1500 
 42 H        0.6640    -6.5970    -2.7810 H     1 <1>   0.1500 
 43 H        7.7460     2.5920    -1.1570 H     1 <1>   0.1500 
 44 H       -1.5720    -6.2780    -3.7590 H     1 <1>   0.1500 
@<TRIPOS>BOND
  1   1   2  2   
  2   2   3  am  
  3   2   4  1   
  4   3   5  1   
  5   3  24  1   
  6   4   6  1   
  7   4  25  1   
  8   4  26  1   
  9   5   7  1   
 10   5  27  1   
 11   5  28  1   
 12   6   8  1   
 13   6   9  1   
 14   7  10  1   
 15   7  29  1   
 16   7  30  1   
 17   8  11  1   
 18   8  31  1   
 19   8  32  1   
 20   9  12  1   
 21   9  33  1   
 22   9  34  1   
 23  10  13  1   
 24  10  35  1   
 25  10  36  1   
 26  11  14  ar  
 27  11  15  ar  
 28  12  16  1   
 29  12  37  1   
 30  12  38  1   
 31  13  17  1   
 32  13  18  1   
 33  14  16  1   
 34  14  19  ar  
 35  15  20  ar  
 36  15  39  1   
 37  17  21  2   
 38  18  22  2   
 39  18  40  1   
 40  19  23  ar  
 41  19  41  1   
 42  20  23  ar  
 43  20  42  1   
 44  21  22  1   
 45  22  43  1   
 46  23  44  1   
@<TRIPOS>SUBSTRUCTURE
  1 ****   3 GROUP 4 **** **** 0

# MOE 2024.06 (io_trps.svl 2023.06)
