@<TRIPOS>MOLECULE
NONAME
55 57 1 0 0 
SMALL
USER_CHARGES


@<TRIPOS>ATOM
  1 S       -0.7330     0.4190     1.8190 S.o2  1 <1>   1.4470 
  2 O       -0.2650    -0.1700     3.0540 O.2   1 <1>  -0.6500 
  3 O       -1.9000     1.2720     1.8360 O.2   1 <1>  -0.6500 
  4 N       -1.1400    -0.8910     0.8180 N.am  1 <1>  -0.8490 
  5 C        0.6770     1.1930     0.9560 C.ar  1 <1>  -0.0090 
  6 C       -1.9840    -1.8660     1.5470 C.3   1 <1>   0.1960 
  7 C       -1.6660    -0.4850    -0.5090 C.3   1 <1>   0.1960 
  8 C        0.8850     2.5740     0.8890 C.ar  1 <1>  -0.1440 
  9 C        1.6120     0.3680     0.3410 C.ar  1 <1>  -0.1500 
 10 C       -2.5580    -2.8950     0.5540 C.3   1 <1>   0.4230 
 11 C       -3.1710    -0.7490    -0.6720 C.3   1 <1>  -0.1600 
 12 C        1.9700     3.0840     0.1920 C.ar  1 <1>  -0.1500 
 13 C       -0.0490     3.5680     1.5680 C.3   1 <1>  -0.0960 
 14 C        2.7030     0.8760    -0.3530 C.ar  1 <1>   0.0830 
 15 N       -3.1330    -4.1610     1.1250 N.4   1 <1>  -0.9590 
 16 C       -3.5930    -2.2140    -0.3580 C.3   1 <1>  -0.1060 
 17 C        2.8770     2.2500    -0.4340 C.ar  1 <1>  -0.1430 
 18 O        3.6200     0.0830    -0.9650 O.3   1 <1>  -0.3630 
 19 C       -3.8630    -4.9890     0.1040 C.3   1 <1>   0.3430 
 20 C       -2.2220    -4.9420     2.0000 C.3   1 <1>   0.2630 
 21 C       -4.9560    -2.1680     0.3600 C.2   1 <1>   0.9060 
 22 C       -3.6480    -3.0910    -1.6420 C.3   1 <1>  -0.1600 
 23 C        4.0570     2.8400    -1.1940 C.3   1 <1>  -0.0970 
 24 C        3.6710    -1.3080    -0.7410 C.3   1 <1>   0.0400 
 25 C       -3.4860    -4.6020    -1.3380 C.3   1 <1>  -0.1600 
 26 O       -5.0020    -2.3740     1.5840 O.co2 1 <1>  -0.9000 
 27 O       -5.9780    -2.0300    -0.3060 O.co2 1 <1>  -0.9000 
 28 H       -1.3790    -2.3550     2.2870 H     1 <1>   0.0800 
 29 H       -2.7880    -1.3510     2.0490 H     1 <1>   0.0800 
 30 H       -1.4670     0.5590    -0.6940 H     1 <1>   0.0800 
 31 H       -1.1390    -1.0430    -1.2650 H     1 <1>   0.0800 
 32 H        1.4690    -0.6930     0.4140 H     1 <1>   0.1500 
 33 H       -1.7250    -3.1800    -0.0650 H     1 <1>   0.0800 
 34 H       -3.6840    -0.0760    -0.0030 H     1 <1>   0.0800 
 35 H       -3.4880    -0.4790    -1.6640 H     1 <1>   0.0800 
 36 H        2.1150     4.1490     0.1380 H     1 <1>   0.1500 
 37 H        0.3790     4.5540     1.5860 H     1 <1>   0.0800 
 38 H       -0.2380     3.2760     2.5860 H     1 <1>   0.0800 
 39 H       -0.9850     3.6170     1.0400 H     1 <1>   0.0800 
 40 H       -3.9150    -3.7510     1.7060 H     1 <1>   0.4500 
 41 H       -3.6730    -6.0370     0.2670 H     1 <1>   0.0800 
 42 H       -4.9230    -4.8230     0.2270 H     1 <1>   0.0800 
 43 H       -1.3870    -5.3130     1.4310 H     1 <1>   0.0800 
 44 H       -2.7510    -5.7770     2.4300 H     1 <1>   0.0800 
 45 H       -1.8540    -4.3240     2.8030 H     1 <1>   0.0800 
 46 H       -4.5850    -2.9220    -2.1490 H     1 <1>   0.0800 
 47 H       -2.8700    -2.7960    -2.3240 H     1 <1>   0.0800 
 48 H        4.0380     3.9140    -1.1720 H     1 <1>   0.0800 
 49 H        4.0290     2.5160    -2.2180 H     1 <1>   0.0800 
 50 H        4.9780     2.5040    -0.7520 H     1 <1>   0.0800 
 51 H        4.5300    -1.6980    -1.2570 H     1 <1>   0.0800 
 52 H        2.7770    -1.7580    -1.1320 H     1 <1>   0.0800 
 53 H        3.7670    -1.4880     0.3150 H     1 <1>   0.0800 
 54 H       -2.4670    -4.8970    -1.5120 H     1 <1>   0.0800 
 55 H       -4.0980    -5.1640    -2.0210 H     1 <1>   0.0800 
@<TRIPOS>BOND
  1   1   2  2   
  2   1   3  2   
  3   1   4  am  
  4   1   5  1   
  5   4   6  1   
  6   4   7  1   
  7   5   8  ar  
  8   5   9  ar  
  9   6  10  1   
 10   6  28  1   
 11   6  29  1   
 12   7  11  1   
 13   7  30  1   
 14   7  31  1   
 15   8  12  ar  
 16   8  13  1   
 17   9  14  ar  
 18   9  32  1   
 19  10  15  1   
 20  10  16  1   
 21  10  33  1   
 22  11  16  1   
 23  11  34  1   
 24  11  35  1   
 25  12  17  ar  
 26  12  36  1   
 27  13  37  1   
 28  13  38  1   
 29  13  39  1   
 30  14  17  ar  
 31  14  18  1   
 32  15  19  1   
 33  15  20  1   
 34  15  40  1   
 35  16  21  1   
 36  16  22  1   
 37  17  23  1   
 38  18  24  1   
 39  19  25  1   
 40  19  41  1   
 41  19  42  1   
 42  20  43  1   
 43  20  44  1   
 44  20  45  1   
 45  21  26  ar  
 46  21  27  ar  
 47  22  25  1   
 48  22  46  1   
 49  22  47  1   
 50  23  48  1   
 51  23  49  1   
 52  23  50  1   
 53  24  51  1   
 54  24  52  1   
 55  24  53  1   
 56  25  54  1   
 57  25  55  1   
@<TRIPOS>SUBSTRUCTURE
  1 ****   4 GROUP 4 **** **** 0

# MOE 2024.06 (io_trps.svl 2023.06)
