@<TRIPOS>MOLECULE
NONAME
44 47 1 0 0 
SMALL
USER_CHARGES


@<TRIPOS>ATOM
  1 S       -0.1010     0.2850    -1.7160 S.3   1 <1>  -0.0800 
  2 C       -1.1520     1.0160    -0.5120 C.2   1 <1>  -0.1400 
  3 C       -1.3290    -0.9120    -2.1070 C.2   1 <1>  -0.1100 
  4 C       -2.3280     0.3770    -0.4600 C.2   1 <1>  -0.1810 
  5 C       -0.7340     2.2160     0.3310 C.3   1 <1>   0.4600 
  6 C       -2.4360    -0.7280    -1.3620 C.2   1 <1>  -0.1500 
  7 C       -3.3940     0.8540     0.5010 C.3   1 <1>   0.0210 
  8 O       -1.7310     2.4440     1.3090 O.3   1 <1>  -0.5600 
  9 C       -0.5700     3.4770    -0.5250 C.3   1 <1>  -0.1600 
 10 C        0.5620     1.9260     1.0940 C.3   1 <1>  -0.1600 
 11 C       -3.0790     2.3010     0.9270 C.3   1 <1>   0.1200 
 12 C       -0.1130     4.6790     0.3060 C.3   1 <1>   0.1400 
 13 C        1.0010     3.1310     1.9270 C.3   1 <1>   0.1400 
 14 N        1.1280     4.3300     1.0500 N.am  1 <1>  -0.6600 
 15 C        2.3000     5.0740     0.9950 C.2   1 <1>   0.7160 
 16 O        3.3310     4.5180     1.3460 O.2   1 <1>  -0.5700 
 17 C        2.3700     6.4630     0.5380 C.2   1 <1>   0.2030 
 18 N        1.3970     7.3610     0.4950 N.2   1 <1>  -0.7070 
 19 C        3.5610     7.0470     0.0860 C.2   1 <1>  -0.1500 
 20 N        1.9510     8.4830     0.0280 N.pl3 1 <1>   0.3140 
 21 C        3.2650     8.3210    -0.2310 C.2   1 <1>  -0.3320 
 22 C        1.1630     9.7100    -0.1470 C.3   1 <1>   0.0160 
 23 C        4.1890     9.4000    -0.7700 C.3   1 <1>  -0.0600 
 24 H       -1.0880    -1.6370    -2.8640 H     1 <1>   0.1500 
 25 H       -3.3290    -1.3270    -1.4080 H     1 <1>   0.1500 
 26 H       -3.4150     0.2150     1.3660 H     1 <1>   0.0800 
 27 H       -4.3590     0.8230     0.0300 H     1 <1>   0.0800 
 28 H       -1.4880     3.7060    -1.0310 H     1 <1>   0.0800 
 29 H        0.1700     3.2920    -1.2830 H     1 <1>   0.0800 
 30 H        1.3480     1.6870     0.4030 H     1 <1>   0.0800 
 31 H        0.4150     1.0740     1.7310 H     1 <1>   0.0800 
 32 H       -3.6890     2.5820     1.7670 H     1 <1>   0.0800 
 33 H       -3.2780     2.9810     0.1170 H     1 <1>   0.0800 
 34 H       -0.8780     4.9600     1.0100 H     1 <1>   0.0800 
 35 H        0.0540     5.5040    -0.3610 H     1 <1>   0.0800 
 36 H        1.9350     2.9110     2.4160 H     1 <1>   0.0800 
 37 H        0.2690     3.3340     2.6900 H     1 <1>   0.0800 
 38 H        4.5060     6.5360     0.0270 H     1 <1>   0.1500 
 39 H        0.1490     9.5230     0.1550 H     1 <1>   0.0800 
 40 H        1.1840     9.9980    -1.1810 H     1 <1>   0.0800 
 41 H        1.5830    10.4870     0.4620 H     1 <1>   0.0800 
 42 H        5.1850     9.0090    -0.8840 H     1 <1>   0.0800 
 43 H        4.2260    10.2330    -0.0900 H     1 <1>   0.0800 
 44 H        3.8450     9.7430    -1.7290 H     1 <1>   0.0800 
@<TRIPOS>BOND
  1   1   2  1   
  2   1   3  1   
  3   2   4  2   
  4   2   5  1   
  5   3   6  2   
  6   3  24  1   
  7   4   6  1   
  8   4   7  1   
  9   5   8  1   
 10   5   9  1   
 11   5  10  1   
 12   6  25  1   
 13   7  11  1   
 14   7  26  1   
 15   7  27  1   
 16   8  11  1   
 17   9  12  1   
 18   9  28  1   
 19   9  29  1   
 20  10  13  1   
 21  10  30  1   
 22  10  31  1   
 23  11  32  1   
 24  11  33  1   
 25  12  14  1   
 26  12  34  1   
 27  12  35  1   
 28  13  14  1   
 29  13  36  1   
 30  13  37  1   
 31  14  15  am  
 32  15  16  2   
 33  15  17  1   
 34  17  18  2   
 35  17  19  1   
 36  18  20  1   
 37  19  21  2   
 38  19  38  1   
 39  20  21  1   
 40  20  22  1   
 41  21  23  1   
 42  22  39  1   
 43  22  40  1   
 44  22  41  1   
 45  23  42  1   
 46  23  43  1   
 47  23  44  1   
@<TRIPOS>SUBSTRUCTURE
  1 ****  12 GROUP 4 **** **** 0

# MOE 2024.06 (io_trps.svl 2023.06)
