@<TRIPOS>MOLECULE
NONAME
50 52 1 0 0 
SMALL
USER_CHARGES


@<TRIPOS>ATOM
  1 F       -0.0700     0.4570    -1.1390 F     1 <1>  -0.1900 
  2 C        0.8290    -0.4550    -0.8950 C.ar  1 <1>   0.1900 
  3 C        1.9150    -0.1260    -0.1090 C.ar  1 <1>  -0.1500 
  4 C        0.6550    -1.7150    -1.4320 C.ar  1 <1>  -0.1500 
  5 C        2.8790    -1.0950     0.1580 C.ar  1 <1>  -0.1440 
  6 C        1.6050    -2.6890    -1.1680 C.ar  1 <1>  -0.1440 
  7 C        2.7060    -2.3710    -0.3780 C.ar  1 <1>  -0.1500 
  8 C        4.1040    -0.7750     1.0330 C.3   1 <1>   1.1640 
  9 C        1.4390    -4.0890    -1.7360 C.3   1 <1>   0.4870 
 10 F        4.3810     0.5210     1.0920 F     1 <1>  -0.3400 
 11 F        3.9310    -1.1840     2.2820 F     1 <1>  -0.3400 
 12 F        5.2030    -1.3750     0.5920 F     1 <1>  -0.3400 
 13 N        1.0830    -5.0140    -0.6440 N.4   1 <1>  -0.9590 
 14 C        1.1770    -6.4480    -1.0870 C.3   1 <1>   0.3430 
 15 C       -0.2470    -4.7210    -0.0410 C.3   1 <1>   0.3430 
 16 C        0.5230    -7.4310    -0.0960 C.3   1 <1>  -0.1060 
 17 C       -0.3790    -5.4900     1.2800 C.3   1 <1>  -0.1600 
 18 C       -0.9040    -7.6660    -0.5610 C.2   1 <1>   0.9060 
 19 C        0.4550    -6.7830     1.3050 C.3   1 <1>   0.2000 
 20 C        1.2260    -8.8150    -0.1120 C.3   1 <1>  -0.0170 
 21 O       -1.2970    -7.1120    -1.5930 O.co2 1 <1>  -0.9000 
 22 O       -1.6440    -8.3490     0.1450 O.co2 1 <1>  -0.9000 
 23 O        1.7370    -6.4120     1.7120 O.3   1 <1>  -0.6800 
 24 C        2.6870    -8.8100     0.3250 C.ar  1 <1>  -0.1440 
 25 C        3.7030    -8.5600    -0.5860 C.ar  1 <1>  -0.1500 
 26 C        3.0140    -9.0720     1.6470 C.ar  1 <1>  -0.1500 
 27 C        5.0240    -8.5370    -0.1740 C.ar  1 <1>  -0.1500 
 28 C        4.3330    -9.0480     2.0620 C.ar  1 <1>  -0.1500 
 29 C        5.3390    -8.7760     1.1520 C.ar  1 <1>  -0.1500 
 30 H        1.9930     0.8750     0.2810 H     1 <1>   0.1500 
 31 H       -0.2120    -1.9120    -2.0400 H     1 <1>   0.1500 
 32 H        3.4460    -3.1300    -0.1730 H     1 <1>   0.1500 
 33 H        2.3640    -4.3990    -2.1930 H     1 <1>   0.0800 
 34 H        0.6670    -4.0990    -2.4880 H     1 <1>   0.0800 
 35 H        1.7450    -4.9350     0.1450 H     1 <1>   0.4500 
 36 H        0.7300    -6.5670    -2.0620 H     1 <1>   0.0800 
 37 H        2.2180    -6.6990    -1.1790 H     1 <1>   0.0800 
 38 H       -0.3600    -3.6660     0.1470 H     1 <1>   0.0800 
 39 H       -1.0260    -5.0310    -0.7220 H     1 <1>   0.0800 
 40 H       -1.4180    -5.7460     1.4020 H     1 <1>   0.0800 
 41 H       -0.1140    -4.8610     2.1100 H     1 <1>   0.0800 
 42 H        0.0550    -7.4720     2.0320 H     1 <1>   0.0800 
 43 H        0.6790    -9.4890     0.5270 H     1 <1>   0.0800 
 44 H        1.1610    -9.2300    -1.1040 H     1 <1>   0.0800 
 45 H        2.3150    -7.2120     1.7260 H     1 <1>   0.4000 
 46 H        3.4760    -8.3920    -1.6240 H     1 <1>   0.1500 
 47 H        2.2400    -9.2990     2.3630 H     1 <1>   0.1500 
 48 H        5.8090    -8.3410    -0.8830 H     1 <1>   0.1500 
 49 H        4.5790    -9.2470     3.0910 H     1 <1>   0.1500 
 50 H        6.3660    -8.7590     1.4740 H     1 <1>   0.1500 
@<TRIPOS>BOND
  1   1   2  1   
  2   2   3  ar  
  3   2   4  ar  
  4   3   5  ar  
  5   3  30  1   
  6   4   6  ar  
  7   4  31  1   
  8   5   7  ar  
  9   5   8  1   
 10   6   7  ar  
 11   6   9  1   
 12   7  32  1   
 13   8  10  1   
 14   8  11  1   
 15   8  12  1   
 16   9  13  1   
 17   9  33  1   
 18   9  34  1   
 19  13  14  1   
 20  13  15  1   
 21  13  35  1   
 22  14  16  1   
 23  14  36  1   
 24  14  37  1   
 25  15  17  1   
 26  15  38  1   
 27  15  39  1   
 28  16  18  1   
 29  16  19  1   
 30  16  20  1   
 31  17  19  1   
 32  17  40  1   
 33  17  41  1   
 34  18  21  ar  
 35  18  22  ar  
 36  19  23  1   
 37  19  42  1   
 38  20  24  1   
 39  20  43  1   
 40  20  44  1   
 41  23  45  1   
 42  24  25  ar  
 43  24  26  ar  
 44  25  27  ar  
 45  25  46  1   
 46  26  28  ar  
 47  26  47  1   
 48  27  29  ar  
 49  27  48  1   
 50  28  29  ar  
 51  28  49  1   
 52  29  50  1   
@<TRIPOS>SUBSTRUCTURE
  1 ****  13 GROUP 4 **** **** 0

# MOE 2024.06 (io_trps.svl 2023.06)
