@<TRIPOS>MOLECULE
NONAME
54 56 1 0 0 
SMALL
USER_CHARGES


@<TRIPOS>ATOM
  1 O       -2.4270    -2.5790     1.4400 O.2   1 <1>  -0.5700 
  2 C       -2.3240    -1.4190     1.1120 C.2   1 <1>   0.5690 
  3 N       -2.9600    -0.9160     0.0070 N.am  1 <1>  -0.6600 
  4 C       -1.4690    -0.5190     1.9860 C.3   1 <1>  -0.0990 
  5 C       -2.9210     0.5160    -0.3880 C.3   1 <1>   0.1400 
  6 C       -3.7850    -1.8070    -0.8540 C.3   1 <1>   0.1400 
  7 C       -2.2900     0.5430     2.7360 C.3   1 <1>  -0.1600 
  8 C       -3.5900     1.3980     0.6720 C.3   1 <1>  -0.1600 
  9 C       -5.2120    -1.8620    -0.3080 C.3   1 <1>  -0.0990 
 10 C       -2.6800     1.7430     1.8620 C.3   1 <1>  -0.1600 
 11 C       -6.0230    -2.9490    -0.9860 C.2   1 <1>   0.5690 
 12 O       -6.8080    -2.5980    -1.8340 O.2   1 <1>  -0.5700 
 13 N       -5.8940    -4.2680    -0.6470 N.am  1 <1>  -0.6600 
 14 C       -4.8440    -4.8140     0.2780 C.3   1 <1>   0.3640 
 15 C       -6.8990    -5.2630    -1.1330 C.3   1 <1>   0.1400 
 16 C       -3.6260    -5.3590    -0.4910 C.ar  1 <1>  -0.1440 
 17 C       -5.4630    -5.8660     1.2450 C.3   1 <1>   0.2000 
 18 C       -6.5480    -6.7100    -0.7400 C.3   1 <1>   0.1200 
 19 C       -3.6010    -5.5470    -1.8700 C.ar  1 <1>  -0.1500 
 20 C       -2.4750    -5.6470     0.2310 C.ar  1 <1>  -0.1500 
 21 O       -6.2920    -6.8340     0.6310 O.3   1 <1>  -0.5600 
 22 C       -6.3200    -5.1980     2.3330 C.3   1 <1>   0.1200 
 23 C       -2.4700    -6.0370    -2.5000 C.ar  1 <1>  -0.1500 
 24 C       -1.3420    -6.1350    -0.3960 C.ar  1 <1>  -0.1500 
 25 O       -5.5630    -4.3240     3.1090 O.3   1 <1>  -0.6800 
 26 C       -1.3400    -6.3350    -1.7630 C.ar  1 <1>  -0.1500 
 27 H       -0.9770    -1.1420     2.7110 H     1 <1>   0.0800 
 28 H       -0.7030    -0.0590     1.3900 H     1 <1>   0.0800 
 29 H       -1.9010     0.8220    -0.5450 H     1 <1>   0.0800 
 30 H       -3.4450     0.6410    -1.3200 H     1 <1>   0.0800 
 31 H       -3.7890    -1.4540    -1.8710 H     1 <1>   0.0800 
 32 H       -3.3450    -2.7880    -0.8600 H     1 <1>   0.0800 
 33 H       -3.1750     0.0860     3.1480 H     1 <1>   0.0800 
 34 H       -1.7020     0.9070     3.5600 H     1 <1>   0.0800 
 35 H       -3.8650     2.3240     0.1970 H     1 <1>   0.0800 
 36 H       -4.4990     0.9350     1.0140 H     1 <1>   0.0800 
 37 H       -5.6910    -0.9180    -0.4860 H     1 <1>   0.0800 
 38 H       -5.2070    -2.0300     0.7520 H     1 <1>   0.0800 
 39 H       -1.7880     2.2260     1.5010 H     1 <1>   0.0800 
 40 H       -3.1960     2.4550     2.4840 H     1 <1>   0.0800 
 41 H       -4.4630    -4.0200     0.8900 H     1 <1>   0.0800 
 42 H       -7.8620    -5.0120    -0.7230 H     1 <1>   0.0800 
 43 H       -6.9750    -5.1940    -2.2040 H     1 <1>   0.0800 
 44 H       -4.6720    -6.4090     1.7280 H     1 <1>   0.0800 
 45 H       -5.6830    -7.0560    -1.2760 H     1 <1>   0.0800 
 46 H       -7.3680    -7.3640    -0.9770 H     1 <1>   0.0800 
 47 H       -4.4570    -5.3110    -2.4760 H     1 <1>   0.1500 
 48 H       -2.4470    -5.4770     1.2940 H     1 <1>   0.1500 
 49 H       -6.7430    -5.9420     2.9850 H     1 <1>   0.0800 
 50 H       -7.1120    -4.6280     1.8800 H     1 <1>   0.0800 
 51 H       -2.4700    -6.1820    -3.5670 H     1 <1>   0.1500 
 52 H       -0.4620    -6.3530     0.1820 H     1 <1>   0.1500 
 53 H       -4.9080    -4.8050     3.6520 H     1 <1>   0.4000 
 54 H       -0.4600    -6.7160    -2.2520 H     1 <1>   0.1500 
@<TRIPOS>BOND
  1   1   2  2   
  2   2   3  am  
  3   2   4  1   
  4   3   5  1   
  5   3   6  1   
  6   4   7  1   
  7   4  27  1   
  8   4  28  1   
  9   5   8  1   
 10   5  29  1   
 11   5  30  1   
 12   6   9  1   
 13   6  31  1   
 14   6  32  1   
 15   7  10  1   
 16   7  33  1   
 17   7  34  1   
 18   8  10  1   
 19   8  35  1   
 20   8  36  1   
 21   9  11  1   
 22   9  37  1   
 23   9  38  1   
 24  10  39  1   
 25  10  40  1   
 26  11  12  2   
 27  11  13  am  
 28  13  14  1   
 29  13  15  1   
 30  14  16  1   
 31  14  17  1   
 32  14  41  1   
 33  15  18  1   
 34  15  42  1   
 35  15  43  1   
 36  16  19  ar  
 37  16  20  ar  
 38  17  21  1   
 39  17  22  1   
 40  17  44  1   
 41  18  21  1   
 42  18  45  1   
 43  18  46  1   
 44  19  23  ar  
 45  19  47  1   
 46  20  24  ar  
 47  20  48  1   
 48  22  25  1   
 49  22  49  1   
 50  22  50  1   
 51  23  26  ar  
 52  23  51  1   
 53  24  26  ar  
 54  24  52  1   
 55  25  53  1   
 56  26  54  1   
@<TRIPOS>SUBSTRUCTURE
  1 ****  14 GROUP 4 **** **** 0

# MOE 2024.06 (io_trps.svl 2023.06)
