@<TRIPOS>MOLECULE
NONAME
48 50 1 0 0 
SMALL
USER_CHARGES


@<TRIPOS>ATOM
  1 CL      -0.8920    -1.7700     2.4040 Cl    1 <1>  -0.1230 
  2 C       -2.4020    -1.8180     1.5120 C.2   1 <1>   0.1230 
  3 C       -2.5750    -1.4490     0.1870 C.2   1 <1>   0.1390 
  4 C       -3.6080    -2.2090     1.9600 C.2   1 <1>  -0.3020 
  5 N       -3.8160    -1.6000    -0.1830 N.2   1 <1>  -0.7070 
  6 N       -4.4510    -2.0690     0.9160 N.pl3 1 <1>   0.3140 
  7 C       -5.8930    -2.3540     0.8980 C.3   1 <1>   0.0960 
  8 C       -6.2870    -2.8200    -0.5090 C.3   1 <1>   0.3430 
  9 N       -7.7650    -3.0040    -0.6470 N.4   1 <1>  -0.9590 
 10 C       -8.1150    -3.9400    -1.7680 C.3   1 <1>   0.3430 
 11 C       -8.5220    -1.7240    -0.7200 C.3   1 <1>   0.3430 
 12 C       -9.6100    -4.3380    -1.7540 C.3   1 <1>   0.1400 
 13 C       -9.7120    -1.7860     0.2420 C.3   1 <1>  -0.1600 
 14 N      -10.2180    -4.1720    -0.3980 N.am  1 <1>  -0.6600 
 15 C      -10.7890    -2.8300    -0.1000 C.3   1 <1>   0.1400 
 16 C       -9.8310    -5.0190     0.6110 C.2   1 <1>   0.7160 
 17 O       -8.9730    -4.5940     1.3670 O.2   1 <1>  -0.5700 
 18 C      -10.2910    -6.3830     0.6840 C.2   1 <1>  -0.0860 
 19 C      -11.4440    -6.9610     0.1320 C.2   1 <1>   0.1080 
 20 C       -9.6980    -7.4370     1.3130 C.2   1 <1>  -0.3020 
 21 N      -11.5310    -8.2270     0.3740 N.2   1 <1>  -0.7070 
 22 C      -12.5300    -6.2570    -0.6550 C.3   1 <1>  -0.0590 
 23 N      -10.4550    -8.5220     1.1120 N.pl3 1 <1>   0.3140 
 24 C      -10.2200    -9.8830     1.6070 C.3   1 <1>   0.0160 
 25 H       -1.7870    -1.0860    -0.4510 H     1 <1>   0.1500 
 26 H       -3.8930    -2.5640     2.9330 H     1 <1>   0.1500 
 27 H       -6.4090    -1.4510     1.1610 H     1 <1>   0.0800 
 28 H       -6.1050    -3.1210     1.6200 H     1 <1>   0.0800 
 29 H       -5.7860    -3.7540    -0.7050 H     1 <1>   0.0800 
 30 H       -5.9450    -2.0990    -1.2350 H     1 <1>   0.0800 
 31 H       -8.1210    -3.4910     0.2070 H     1 <1>   0.4500 
 32 H       -7.5320    -4.8410    -1.6640 H     1 <1>   0.0800 
 33 H       -7.8640    -3.5010    -2.7200 H     1 <1>   0.0800 
 34 H       -8.8630    -1.5440    -1.7270 H     1 <1>   0.0800 
 35 H       -7.8840    -0.9040    -0.4320 H     1 <1>   0.0800 
 36 H       -9.7040    -5.3650    -2.0690 H     1 <1>   0.0800 
 37 H      -10.1480    -3.7370    -2.4660 H     1 <1>   0.0800 
 38 H      -10.1860    -0.8210     0.2500 H     1 <1>   0.0800 
 39 H       -9.3560    -1.9550     1.2430 H     1 <1>   0.0800 
 40 H      -11.3650    -2.4970    -0.9480 H     1 <1>   0.0800 
 41 H      -11.4690    -2.9170     0.7330 H     1 <1>   0.0800 
 42 H       -8.7880    -7.4500     1.8840 H     1 <1>   0.1500 
 43 H      -12.8070    -5.3400    -0.1700 H     1 <1>   0.0800 
 44 H      -13.3990    -6.8860    -0.7140 H     1 <1>   0.0800 
 45 H      -12.1880    -6.0520    -1.6520 H     1 <1>   0.0800 
 46 H       -9.2970    -9.9160     2.1540 H     1 <1>   0.0800 
 47 H      -10.1740   -10.5540     0.7700 H     1 <1>   0.0800 
 48 H      -11.0350   -10.1630     2.2480 H     1 <1>   0.0800 
@<TRIPOS>BOND
  1   1   2  1   
  2   2   3  1   
  3   2   4  2   
  4   3   5  2   
  5   3  25  1   
  6   4   6  1   
  7   4  26  1   
  8   5   6  1   
  9   6   7  1   
 10   7   8  1   
 11   7  27  1   
 12   7  28  1   
 13   8   9  1   
 14   8  29  1   
 15   8  30  1   
 16   9  10  1   
 17   9  11  1   
 18   9  31  1   
 19  10  12  1   
 20  10  32  1   
 21  10  33  1   
 22  11  13  1   
 23  11  34  1   
 24  11  35  1   
 25  12  14  1   
 26  12  36  1   
 27  12  37  1   
 28  13  15  1   
 29  13  38  1   
 30  13  39  1   
 31  14  15  1   
 32  14  16  am  
 33  15  40  1   
 34  15  41  1   
 35  16  17  2   
 36  16  18  1   
 37  18  19  1   
 38  18  20  2   
 39  19  21  2   
 40  19  22  1   
 41  20  23  1   
 42  20  42  1   
 43  21  23  1   
 44  22  43  1   
 45  22  44  1   
 46  22  45  1   
 47  23  24  1   
 48  24  46  1   
 49  24  47  1   
 50  24  48  1   
@<TRIPOS>SUBSTRUCTURE
  1 ****  17 GROUP 4 **** **** 0

# MOE 2024.06 (io_trps.svl 2023.06)
