@<TRIPOS>MOLECULE
NONAME
53 55 1 0 0 
SMALL
USER_CHARGES


@<TRIPOS>ATOM
  1 O       -0.9190     0.6300    -0.5400 O.2   1 <1>  -0.5700 
  2 C       -1.9200     0.7120     0.1380 C.2   1 <1>   0.5690 
  3 N       -2.4740    -0.4070     0.7260 N.am  1 <1>  -0.5090 
  4 C       -2.5330     2.1140     0.2990 C.3   1 <1>  -0.0190 
  5 C       -1.7970    -1.7230     0.5980 C.3   1 <1>   0.0490 
  6 C       -3.6160    -0.3870     1.6850 C.3   1 <1>   0.2840 
  7 C       -3.2690     2.5480    -0.9830 C.3   1 <1>  -0.1600 
  8 C       -1.4970     3.1890     0.7060 C.3   1 <1>  -0.1600 
  9 C       -1.7520    -2.3520    -0.7600 C.3   1 <1>  -0.2000 
 10 C       -2.5810    -2.9710     0.3160 C.3   1 <1>  -0.2000 
 11 C       -4.9100     0.0920     1.0320 C.ar  1 <1>  -0.1440 
 12 C       -4.0770     3.8450    -0.7730 C.3   1 <1>   0.2000 
 13 C       -1.9860     4.6350     0.4670 C.3   1 <1>  -0.1600 
 14 C       -5.3000    -0.3630    -0.2190 C.ar  1 <1>  -0.1500 
 15 C       -5.7170     1.0060     1.6940 C.ar  1 <1>  -0.1500 
 16 O       -4.0500     4.5850    -1.9690 O.3   1 <1>  -0.5600 
 17 C       -3.5130     4.7220     0.3770 C.3   1 <1>   0.2000 
 18 C       -6.4700     0.0930    -0.8000 C.ar  1 <1>  -0.1500 
 19 C       -6.8850     1.4640     1.1110 C.ar  1 <1>  -0.1500 
 20 C       -4.9350     4.1490    -2.9520 C.3   1 <1>   0.0400 
 21 O       -3.8550     6.0390     0.1530 O.3   1 <1>  -0.6800 
 22 C       -7.2700     1.0100    -0.1390 C.ar  1 <1>  -0.1430 
 23 C       -8.5580     1.5070    -0.7750 C.3   1 <1>  -0.0170 
 24 C       -8.2850     2.7190    -1.6670 C.3   1 <1>  -0.2400 
 25 H       -3.2530     2.0900     1.0890 H     1 <1>   0.0800 
 26 H       -0.9090    -1.7890     1.2060 H     1 <1>   0.1000 
 27 H       -3.7770    -1.3710     2.0870 H     1 <1>   0.0800 
 28 H       -3.3590     0.2540     2.5100 H     1 <1>   0.0800 
 29 H       -3.9360     1.7690    -1.3010 H     1 <1>   0.0800 
 30 H       -2.5350     2.6970    -1.7570 H     1 <1>   0.0800 
 31 H       -1.2570     3.0570     1.7470 H     1 <1>   0.0800 
 32 H       -0.5840     3.0510     0.1500 H     1 <1>   0.0800 
 33 H       -2.2290    -1.8310    -1.5710 H     1 <1>   0.1000 
 34 H       -0.8430    -2.8410    -1.0620 H     1 <1>   0.1000 
 35 H       -2.2420    -3.9020     0.7360 H     1 <1>   0.1000 
 36 H       -3.6500    -2.9310     0.2180 H     1 <1>   0.1000 
 37 H       -5.1010     3.6060    -0.5340 H     1 <1>   0.0800 
 38 H       -1.5740     4.9850    -0.4650 H     1 <1>   0.0800 
 39 H       -1.6270     5.2740     1.2540 H     1 <1>   0.0800 
 40 H       -4.6900    -1.0690    -0.7540 H     1 <1>   0.1500 
 41 H       -5.4440     1.3720     2.6690 H     1 <1>   0.1500 
 42 H       -3.9440     4.4250     1.3180 H     1 <1>   0.0800 
 43 H       -6.7550    -0.2700    -1.7720 H     1 <1>   0.1500 
 44 H       -7.4980     2.1760     1.6370 H     1 <1>   0.1500 
 45 H       -4.7960     4.7650    -3.8240 H     1 <1>   0.0800 
 46 H       -5.9430     4.2570    -2.5920 H     1 <1>   0.0800 
 47 H       -4.7270     3.1230    -3.1990 H     1 <1>   0.0800 
 48 H       -3.8750     6.1410    -0.8260 H     1 <1>   0.4000 
 49 H       -9.0000     0.7190    -1.3610 H     1 <1>   0.0800 
 50 H       -9.2630     1.7750    -0.0080 H     1 <1>   0.0800 
 51 H       -7.6080     2.4490    -2.4580 H     1 <1>   0.0800 
 52 H       -7.8470     3.5130    -1.0890 H     1 <1>   0.0800 
 53 H       -9.2020     3.0720    -2.1020 H     1 <1>   0.0800 
@<TRIPOS>BOND
  1   1   2  2   
  2   2   3  am  
  3   2   4  1   
  4   3   5  1   
  5   3   6  1   
  6   4   7  1   
  7   4   8  1   
  8   4  25  1   
  9   5   9  1   
 10   5  10  1   
 11   5  26  1   
 12   6  11  1   
 13   6  27  1   
 14   6  28  1   
 15   7  12  1   
 16   7  29  1   
 17   7  30  1   
 18   8  13  1   
 19   8  31  1   
 20   8  32  1   
 21   9  10  1   
 22   9  33  1   
 23   9  34  1   
 24  10  35  1   
 25  10  36  1   
 26  11  14  ar  
 27  11  15  ar  
 28  12  16  1   
 29  12  17  1   
 30  12  37  1   
 31  13  17  1   
 32  13  38  1   
 33  13  39  1   
 34  14  18  ar  
 35  14  40  1   
 36  15  19  ar  
 37  15  41  1   
 38  16  20  1   
 39  17  21  1   
 40  17  42  1   
 41  18  22  ar  
 42  18  43  1   
 43  19  22  ar  
 44  19  44  1   
 45  20  45  1   
 46  20  46  1   
 47  20  47  1   
 48  21  48  1   
 49  22  23  1   
 50  23  24  1   
 51  23  49  1   
 52  23  50  1   
 53  24  51  1   
 54  24  52  1   
 55  24  53  1   
@<TRIPOS>SUBSTRUCTURE
  1 ****   7 GROUP 4 **** **** 0

# MOE 2024.06 (io_trps.svl 2023.06)
