@<TRIPOS>MOLECULE
NONAME
47 48 1 0 0 
SMALL
USER_CHARGES


@<TRIPOS>ATOM
  1 O       -1.7470     0.7790    -1.4320 O.2   1 <1>  -0.5700 
  2 C       -1.5790     0.6980    -0.2410 C.2   1 <1>   0.5690 
  3 N       -1.7750    -0.4530     0.4380 N.am  1 <1>  -0.7300 
  4 C       -1.1390     1.9260     0.5200 C.3   1 <1>  -0.0990 
  5 C       -2.1810    -1.7400    -0.1730 C.3   1 <1>   0.2200 
  6 C       -0.6920     3.0010    -0.4730 C.3   1 <1>   0.3430 
  7 C       -3.6200    -2.0430     0.2150 C.3   1 <1>  -0.0800 
  8 C       -1.4360    -2.8740     0.5190 C.3   1 <1>   0.1200 
  9 N       -0.1780     4.2270     0.2130 N.4   1 <1>  -0.9590 
 10 C       -3.4670    -2.7540     1.5700 C.3   1 <1>   0.1200 
 11 C       -4.3110    -2.9340    -0.8350 C.3   1 <1>  -0.0170 
 12 O       -2.1110    -3.0600     1.7230 O.3   1 <1>  -0.5600 
 13 C        0.5370     5.0770    -0.7780 C.3   1 <1>   0.3430 
 14 C       -1.2780     4.9880     0.8920 C.3   1 <1>   0.2630 
 15 C       -5.7550    -3.2240    -0.4560 C.ar  1 <1>  -0.1440 
 16 C        1.4160     6.0880    -0.0510 C.3   1 <1>  -0.2400 
 17 C       -6.7430    -2.2670    -0.5780 C.ar  1 <1>  -0.1500 
 18 C       -6.1560    -4.4530     0.0270 C.ar  1 <1>  -0.1500 
 19 C       -8.0440    -2.5750    -0.2160 C.ar  1 <1>   0.1600 
 20 C       -7.4850    -4.6580     0.3610 C.ar  1 <1>   0.1600 
 21 N       -8.4380    -3.7480     0.2530 N.ar  1 <1>  -0.6200 
 22 H       -1.6510    -0.5210     1.4530 H     1 <1>   0.3700 
 23 H       -1.9720     2.2680     1.1050 H     1 <1>   0.0800 
 24 H       -0.3240     1.6570     1.1660 H     1 <1>   0.0800 
 25 H       -2.0150    -1.7280    -1.2380 H     1 <1>   0.0800 
 26 H       -1.5180     3.2560    -1.1180 H     1 <1>   0.0800 
 27 H        0.0840     2.5810    -1.0940 H     1 <1>   0.0800 
 28 H       -4.1910    -1.1380     0.3220 H     1 <1>   0.0800 
 29 H       -0.4030    -2.6420     0.7120 H     1 <1>   0.0800 
 30 H       -1.5070    -3.7860    -0.0460 H     1 <1>   0.0800 
 31 H        0.5160     3.9390     0.9180 H     1 <1>   0.4500 
 32 H       -4.0310    -3.6680     1.6270 H     1 <1>   0.0800 
 33 H       -3.7530    -2.1090     2.3820 H     1 <1>   0.0800 
 34 H       -3.7750    -3.8600    -0.9520 H     1 <1>   0.0800 
 35 H       -4.3020    -2.4330    -1.7890 H     1 <1>   0.0800 
 36 H        1.1640     4.4590    -1.4010 H     1 <1>   0.0800 
 37 H       -0.1700     5.5860    -1.4140 H     1 <1>   0.0800 
 38 H       -2.0130     5.3070     0.1710 H     1 <1>   0.0800 
 39 H       -0.8840     5.8600     1.3890 H     1 <1>   0.0800 
 40 H       -1.7650     4.3720     1.6300 H     1 <1>   0.0800 
 41 H        2.1160     5.5930     0.5980 H     1 <1>   0.0800 
 42 H        0.8290     6.7890     0.5140 H     1 <1>   0.0800 
 43 H        1.9790     6.6480    -0.7770 H     1 <1>   0.0800 
 44 H       -6.5140    -1.2860    -0.9520 H     1 <1>   0.1500 
 45 H       -5.4510    -5.2550     0.1490 H     1 <1>   0.1500 
 46 H       -8.8000    -1.8160    -0.3190 H     1 <1>   0.1500 
 47 H       -7.7790    -5.6230     0.7370 H     1 <1>   0.1500 
@<TRIPOS>BOND
  1   1   2  2   
  2   2   3  am  
  3   2   4  1   
  4   3   5  1   
  5   3  22  1   
  6   4   6  1   
  7   4  23  1   
  8   4  24  1   
  9   5   7  1   
 10   5   8  1   
 11   5  25  1   
 12   6   9  1   
 13   6  26  1   
 14   6  27  1   
 15   7  10  1   
 16   7  11  1   
 17   7  28  1   
 18   8  12  1   
 19   8  29  1   
 20   8  30  1   
 21   9  13  1   
 22   9  14  1   
 23   9  31  1   
 24  10  12  1   
 25  10  32  1   
 26  10  33  1   
 27  11  15  1   
 28  11  34  1   
 29  11  35  1   
 30  13  16  1   
 31  13  36  1   
 32  13  37  1   
 33  14  38  1   
 34  14  39  1   
 35  14  40  1   
 36  15  17  ar  
 37  15  18  ar  
 38  16  41  1   
 39  16  42  1   
 40  16  43  1   
 41  17  19  ar  
 42  17  44  1   
 43  18  20  ar  
 44  18  45  1   
 45  19  21  ar  
 46  19  46  1   
 47  20  21  ar  
 48  20  47  1   
@<TRIPOS>SUBSTRUCTURE
  1 ****   3 GROUP 4 **** **** 0

# MOE 2024.06 (io_trps.svl 2023.06)
