@<TRIPOS>MOLECULE
NONAME
35 36 1 0 0 
SMALL
USER_CHARGES


@<TRIPOS>ATOM
  1 S       -0.8460     0.0680    -0.7680 S.3   1 <1>  -0.0800 
  2 C       -0.9860    -0.9550     0.6230 C.2   1 <1>   0.4420 
  3 C       -0.0720     1.2330     0.2540 C.2   1 <1>   0.1980 
  4 N       -0.4850    -0.4140     1.6730 N.2   1 <1>  -0.3380 
  5 N       -1.5900    -2.1780     0.4210 N.am  1 <1>  -0.4940 
  6 N        0.0340     0.8330     1.4570 N.2   1 <1>  -0.3380 
  7 C        0.3790     2.5630    -0.3470 C.3   1 <1>   0.3800 
  8 C       -1.9220    -3.1680     1.3140 C.2   1 <1>   0.5440 
  9 O       -0.6860     3.2170    -0.9750 O.3   1 <1>  -0.5600 
 10 C        1.4730     2.3830    -1.3990 C.3   1 <1>  -0.2400 
 11 O       -1.7630    -2.9750     2.5000 O.2   1 <1>  -0.5700 
 12 C       -2.4450    -4.4460     0.8600 C.ar  1 <1>   0.0860 
 13 C       -1.6610     3.7160    -0.1100 C.3   1 <1>   0.0400 
 14 C       -3.1000    -4.6410    -0.3590 C.ar  1 <1>   0.1900 
 15 C       -2.3030    -5.5830     1.6650 C.ar  1 <1>  -0.1500 
 16 F       -3.2670    -3.6230    -1.1670 F     1 <1>  -0.1900 
 17 C       -3.5850    -5.8800    -0.7670 C.ar  1 <1>   0.0830 
 18 C       -2.7700    -6.8260     1.2730 C.ar  1 <1>  -0.1500 
 19 O       -4.2100    -6.0660    -1.9530 O.3   1 <1>  -0.3630 
 20 C       -3.4080    -6.9790     0.0550 C.ar  1 <1>  -0.1500 
 21 C       -5.5150    -5.5450    -2.0800 C.3   1 <1>   0.0400 
 22 H       -1.8630    -2.3620    -0.5430 H     1 <1>   0.3700 
 23 H        0.7500     3.1990     0.4390 H     1 <1>   0.0800 
 24 H        1.1080     1.8000    -2.2250 H     1 <1>   0.0800 
 25 H        2.3160     1.8780    -0.9640 H     1 <1>   0.0800 
 26 H        1.7950     3.3440    -1.7560 H     1 <1>   0.0800 
 27 H       -2.4040     4.2210    -0.7010 H     1 <1>   0.0800 
 28 H       -1.2100     4.4130     0.5750 H     1 <1>   0.0800 
 29 H       -2.1210     2.9040     0.4270 H     1 <1>   0.0800 
 30 H       -1.8120    -5.4870     2.6200 H     1 <1>   0.1500 
 31 H       -2.6370    -7.6780     1.9190 H     1 <1>   0.1500 
 32 H       -3.7690    -7.9430    -0.2600 H     1 <1>   0.1500 
 33 H       -5.9100    -5.8590    -3.0300 H     1 <1>   0.0800 
 34 H       -5.4760    -4.4710    -2.0390 H     1 <1>   0.0800 
 35 H       -6.1250    -5.9320    -1.2830 H     1 <1>   0.0800 
@<TRIPOS>BOND
  1   1   2  1   
  2   1   3  1   
  3   2   4  2   
  4   2   5  1   
  5   3   6  2   
  6   3   7  1   
  7   4   6  1   
  8   5   8  am  
  9   5  22  1   
 10   7   9  1   
 11   7  10  1   
 12   7  23  1   
 13   8  11  2   
 14   8  12  1   
 15   9  13  1   
 16  10  24  1   
 17  10  25  1   
 18  10  26  1   
 19  12  14  ar  
 20  12  15  ar  
 21  13  27  1   
 22  13  28  1   
 23  13  29  1   
 24  14  16  1   
 25  14  17  ar  
 26  15  18  ar  
 27  15  30  1   
 28  17  19  1   
 29  17  20  ar  
 30  18  20  ar  
 31  18  31  1   
 32  19  21  1   
 33  20  32  1   
 34  21  33  1   
 35  21  34  1   
 36  21  35  1   
@<TRIPOS>SUBSTRUCTURE
  1 ****   5 GROUP 4 **** **** 0

# MOE 2024.06 (io_trps.svl 2023.06)
