@<TRIPOS>MOLECULE
NONAME
56 59 1 0 0 
SMALL
USER_CHARGES


@<TRIPOS>ATOM
  1 O       -0.5310     0.2720    -2.5910 O.2   1 <1>  -0.5700 
  2 C       -1.3720     0.7570    -1.8670 C.2   1 <1>   0.5690 
  3 N       -2.4800     0.0390    -1.4770 N.am  1 <1>  -0.6600 
  4 C       -1.1720     2.2110    -1.4450 C.3   1 <1>   0.1810 
  5 C       -3.4990     0.5560    -0.5130 C.3   1 <1>   0.1400 
  6 C       -2.6710    -1.3530    -1.9850 C.3   1 <1>   0.1400 
  7 O       -0.8670     2.3110    -0.0610 O.3   1 <1>  -0.3620 
  8 C       -4.1120    -0.6020     0.2690 C.3   1 <1>  -0.1600 
  9 C       -4.1520    -1.7370    -2.0190 C.3   1 <1>  -0.1600 
 10 C       -0.7490     3.5170     0.5460 C.ar  1 <1>   0.0820 
 11 C       -4.8780    -1.5530    -0.6690 C.3   1 <1>   0.4240 
 12 C       -0.8040     4.7340    -0.1300 C.ar  1 <1>  -0.1500 
 13 C       -0.5670     3.5070     1.9190 C.ar  1 <1>  -0.1500 
 14 O       -6.0870    -0.9120    -1.0040 O.3   1 <1>  -0.5600 
 15 C       -5.1180    -2.9240     0.0060 C.ar  1 <1>  -0.1440 
 16 C       -0.6840     5.9210     0.5740 C.ar  1 <1>  -0.1500 
 17 C       -0.4460     4.6940     2.6200 C.ar  1 <1>  -0.1500 
 18 C       -7.1710    -1.0570    -0.1380 C.3   1 <1>   0.1200 
 19 C       -6.4020    -3.3810     0.2650 C.ar  1 <1>  -0.1440 
 20 C       -4.0430    -3.7290     0.3670 C.ar  1 <1>  -0.1500 
 21 C       -0.5060     5.9020     1.9470 C.ar  1 <1>  -0.1500 
 22 C       -7.5920    -2.5220    -0.1070 C.3   1 <1>  -0.0170 
 23 C       -6.6000    -4.6160     0.8580 C.ar  1 <1>  -0.1500 
 24 C       -4.2240    -4.9690     0.9740 C.ar  1 <1>   0.0820 
 25 C       -5.5310    -5.4220     1.2090 C.ar  1 <1>   0.0820 
 26 O       -3.1580    -5.7330     1.3560 O.3   1 <1>  -0.3620 
 27 O       -5.8720    -6.6160     1.7730 O.3   1 <1>  -0.3620 
 28 C       -1.8410    -5.2280     1.3840 C.3   1 <1>   0.0400 
 29 C       -5.0880    -7.7690     1.5660 C.3   1 <1>   0.0400 
 30 H       -2.0690     2.7670    -1.6400 H     1 <1>   0.0800 
 31 H       -0.3520     2.6320    -1.9970 H     1 <1>   0.0800 
 32 H       -4.2710     1.0770    -1.0560 H     1 <1>   0.0800 
 33 H       -3.0500     1.2420     0.1830 H     1 <1>   0.0800 
 34 H       -2.1230    -2.0280    -1.3530 H     1 <1>   0.0800 
 35 H       -2.2640    -1.4340    -2.9800 H     1 <1>   0.0800 
 36 H       -4.7620    -0.2260     1.0350 H     1 <1>   0.0800 
 37 H       -3.3160    -1.1220     0.7680 H     1 <1>   0.0800 
 38 H       -4.2410    -2.7580    -2.3420 H     1 <1>   0.0800 
 39 H       -4.6210    -1.1280    -2.7720 H     1 <1>   0.0800 
 40 H       -0.9360     4.7820    -1.1930 H     1 <1>   0.1500 
 41 H       -0.5190     2.5650     2.4350 H     1 <1>   0.1500 
 42 H       -0.7260     6.8620     0.0530 H     1 <1>   0.1500 
 43 H       -0.3040     4.6780     3.6870 H     1 <1>   0.1500 
 44 H       -7.9730    -0.4430    -0.5080 H     1 <1>   0.0800 
 45 H       -6.8920    -0.7170     0.8440 H     1 <1>   0.0800 
 46 H       -3.0530    -3.3740     0.1660 H     1 <1>   0.1500 
 47 H       -0.4120     6.8260     2.4900 H     1 <1>   0.1500 
 48 H       -7.9610    -2.8100    -1.0750 H     1 <1>   0.0800 
 49 H       -8.3830    -2.6490     0.6100 H     1 <1>   0.0800 
 50 H       -7.5950    -4.9720     1.0540 H     1 <1>   0.1500 
 51 H       -1.2070    -5.9750     1.8240 H     1 <1>   0.0800 
 52 H       -1.8220    -4.3340     1.9820 H     1 <1>   0.0800 
 53 H       -1.5220    -5.0280     0.3760 H     1 <1>   0.0800 
 54 H       -5.7000    -8.6300     1.7640 H     1 <1>   0.0800 
 55 H       -4.2570    -7.7500     2.2470 H     1 <1>   0.0800 
 56 H       -4.7460    -7.7840     0.5460 H     1 <1>   0.0800 
@<TRIPOS>BOND
  1   1   2  2   
  2   2   3  am  
  3   2   4  1   
  4   3   5  1   
  5   3   6  1   
  6   4   7  1   
  7   4  30  1   
  8   4  31  1   
  9   5   8  1   
 10   5  32  1   
 11   5  33  1   
 12   6   9  1   
 13   6  34  1   
 14   6  35  1   
 15   7  10  1   
 16   8  11  1   
 17   8  36  1   
 18   8  37  1   
 19   9  11  1   
 20   9  38  1   
 21   9  39  1   
 22  10  12  ar  
 23  10  13  ar  
 24  11  14  1   
 25  11  15  1   
 26  12  16  ar  
 27  12  40  1   
 28  13  17  ar  
 29  13  41  1   
 30  14  18  1   
 31  15  19  ar  
 32  15  20  ar  
 33  16  21  ar  
 34  16  42  1   
 35  17  21  ar  
 36  17  43  1   
 37  18  22  1   
 38  18  44  1   
 39  18  45  1   
 40  19  22  1   
 41  19  23  ar  
 42  20  24  ar  
 43  20  46  1   
 44  21  47  1   
 45  22  48  1   
 46  22  49  1   
 47  23  25  ar  
 48  23  50  1   
 49  24  25  ar  
 50  24  26  1   
 51  25  27  1   
 52  26  28  1   
 53  27  29  1   
 54  28  51  1   
 55  28  52  1   
 56  28  53  1   
 57  29  54  1   
 58  29  55  1   
 59  29  56  1   
@<TRIPOS>SUBSTRUCTURE
  1 ****   8 GROUP 4 **** **** 0

# MOE 2024.06 (io_trps.svl 2023.06)
