@<TRIPOS>MOLECULE
NONAME
48 50 1 0 0 
SMALL
USER_CHARGES


@<TRIPOS>ATOM
  1 O        2.4700    -1.0400     1.7500 O.2   1 <1>  -0.5700 
  2 C        2.0300    -1.0520     0.6260 C.2   1 <1>   0.5690 
  3 N        1.5360     0.0630     0.0360 N.am  1 <1>  -0.7300 
  4 C        2.0490    -2.3470    -0.1600 C.3   1 <1>  -0.0990 
  5 C        1.5080     1.3960     0.6820 C.3   1 <1>   0.2780 
  6 C        0.6760    -3.0400    -0.1450 C.3   1 <1>  -0.1600 
  7 C        2.8640     2.0830     0.5120 C.2   1 <1>  -0.0380 
  8 C        0.7040    -4.3810    -0.8940 C.3   1 <1>   0.0200 
  9 N        3.8950     1.4410     1.1600 N.pl3 1 <1>  -0.6000 
 10 C        3.1180     3.2300    -0.1880 C.2   1 <1>  -0.1240 
 11 C       -0.6560    -5.0520    -0.8730 C.2   1 <1>   0.2980 
 12 C        5.1800     1.9170     1.1460 C.2   1 <1>  -0.0500 
 13 C        4.4490     3.7610    -0.2200 C.2   1 <1>   0.5410 
 14 C        2.0560     4.0180    -0.9610 C.3   1 <1>  -0.1020 
 15 O       -1.6330    -4.5150    -1.5550 O.3   1 <1>  -0.0190 
 16 N       -0.9480    -6.1120    -0.2420 N.2   1 <1>  -0.5650 
 17 C        5.4790     3.0580     0.4760 C.2   1 <1>  -0.1240 
 18 O        4.7050     4.8010    -0.8310 O.2   1 <1>  -0.5700 
 19 N       -2.6390    -5.3010    -1.3370 N.2   1 <1>  -0.4100 
 20 C       -2.2390    -6.2460    -0.5610 C.2   1 <1>   0.4620 
 21 C        6.9010     3.6060     0.4500 C.3   1 <1>  -0.1020 
 22 C       -3.0550    -7.3390    -0.0690 C.ar  1 <1>   0.0540 
 23 C       -4.3890    -7.4950    -0.4250 C.ar  1 <1>  -0.1500 
 24 C       -2.5720    -8.3140     0.7940 C.ar  1 <1>  -0.1500 
 25 C       -5.1290    -8.5520     0.0680 C.ar  1 <1>   0.1600 
 26 C       -3.3940    -9.3350     1.2320 C.ar  1 <1>   0.1600 
 27 N       -4.6630    -9.4780     0.8900 N.ar  1 <1>  -0.6200 
 28 H        1.3200     0.0580    -0.9600 H     1 <1>   0.3700 
 29 H        2.7860    -2.9950     0.2790 H     1 <1>   0.0800 
 30 H        2.3510    -2.1390    -1.1700 H     1 <1>   0.0800 
 31 H        1.3140     1.2740     1.7350 H     1 <1>   0.0800 
 32 H        0.7000     1.9720     0.2750 H     1 <1>   0.0800 
 33 H       -0.0580    -2.3920    -0.5930 H     1 <1>   0.0800 
 34 H        0.3810    -3.2150     0.8770 H     1 <1>   0.0800 
 35 H        1.4200    -5.0380    -0.4320 H     1 <1>   0.0800 
 36 H        0.9990    -4.2310    -1.9170 H     1 <1>   0.0800 
 37 H        3.6690     0.5460     1.6400 H     1 <1>   0.4000 
 38 H        5.9220     1.3490     1.6830 H     1 <1>   0.1500 
 39 H        2.4130     4.2220    -1.9550 H     1 <1>   0.0800 
 40 H        1.8800     4.9580    -0.4700 H     1 <1>   0.0800 
 41 H        1.1250     3.4980    -1.0550 H     1 <1>   0.0800 
 42 H        6.9170     4.5950     0.8720 H     1 <1>   0.0800 
 43 H        7.2500     3.6620    -0.5660 H     1 <1>   0.0800 
 44 H        7.5680     2.9780     1.0110 H     1 <1>   0.0800 
 45 H       -4.8520    -6.7890    -1.0890 H     1 <1>   0.1500 
 46 H       -1.5500    -8.2780     1.1250 H     1 <1>   0.1500 
 47 H       -6.1600    -8.6440    -0.2270 H     1 <1>   0.1500 
 48 H       -2.9870   -10.0750     1.9000 H     1 <1>   0.1500 
@<TRIPOS>BOND
  1   1   2  2   
  2   2   3  am  
  3   2   4  1   
  4   3   5  1   
  5   3  28  1   
  6   4   6  1   
  7   4  29  1   
  8   4  30  1   
  9   5   7  1   
 10   5  31  1   
 11   5  32  1   
 12   6   8  1   
 13   6  33  1   
 14   6  34  1   
 15   7   9  1   
 16   7  10  2   
 17   8  11  1   
 18   8  35  1   
 19   8  36  1   
 20   9  12  1   
 21   9  37  1   
 22  10  13  1   
 23  10  14  1   
 24  11  15  1   
 25  11  16  2   
 26  12  17  2   
 27  12  38  1   
 28  13  17  1   
 29  13  18  2   
 30  14  39  1   
 31  14  40  1   
 32  14  41  1   
 33  15  19  1   
 34  16  20  1   
 35  17  21  1   
 36  19  20  2   
 37  20  22  1   
 38  21  42  1   
 39  21  43  1   
 40  21  44  1   
 41  22  23  ar  
 42  22  24  ar  
 43  23  25  ar  
 44  23  45  1   
 45  24  26  ar  
 46  24  46  1   
 47  25  27  ar  
 48  25  47  1   
 49  26  27  ar  
 50  26  48  1   
@<TRIPOS>SUBSTRUCTURE
  1 ****   6 GROUP 4 **** **** 0

# MOE 2024.06 (io_trps.svl 2023.06)
