@<TRIPOS>MOLECULE
NONAME
53 55 1 0 0 
SMALL
USER_CHARGES


@<TRIPOS>ATOM
  1 CL      -0.8630    -2.4750    -0.2830 Cl    1 <1>  -0.1770 
  2 C        0.6860    -1.7160    -0.6110 C.ar  1 <1>   0.1770 
  3 C        1.8650    -2.4520    -0.5410 C.ar  1 <1>  -0.0230 
  4 C        0.6910    -0.3750    -0.9460 C.ar  1 <1>  -0.1500 
  5 N        1.8520    -3.8220    -0.1840 N.pl3 1 <1>   0.5930 
  6 C        3.0630    -1.8080    -0.8370 C.ar  1 <1>  -0.1500 
  7 C        1.8930     0.2530    -1.2270 C.ar  1 <1>  -0.1500 
  8 N        2.3120    -4.8110    -0.9880 N.2   1 <1>  -0.7070 
  9 C        1.2860    -4.3710     0.9190 C.2   1 <1>  -0.3020 
 10 C        3.0750    -0.4650    -1.1740 C.ar  1 <1>  -0.1500 
 11 C        2.0410    -5.9220    -0.3900 C.2   1 <1>   0.1390 
 12 C        1.3600    -5.7150     0.8040 C.2   1 <1>  -0.1810 
 13 C        0.7950    -6.7740     1.7290 C.3   1 <1>   0.5240 
 14 N       -0.5480    -7.1810     1.2130 N.4   1 <1>  -0.9590 
 15 C       -0.4060    -8.1160     0.0540 C.3   1 <1>   0.5240 
 16 C       -1.4520    -6.0010     0.9310 C.3   1 <1>   0.3430 
 17 C       -1.6020    -9.0610     0.0620 C.2   1 <1>   0.0460 
 18 C       -2.9620    -6.3350     0.7490 C.3   1 <1>   0.3430 
 19 N       -2.3170    -9.2430     1.1970 N.2   1 <1>  -0.5650 
 20 C       -2.1010    -9.8130    -0.9460 C.2   1 <1>  -0.3320 
 21 N       -3.8350    -5.1380     0.4620 N.4   1 <1>  -0.9590 
 22 C       -3.2080   -10.1220     0.8640 C.2   1 <1>   0.0360 
 23 N       -3.1330   -10.5070    -0.4270 N.pl3 1 <1>   0.0330 
 24 C       -1.6670    -9.9740    -2.3960 C.3   1 <1>  -0.0600 
 25 C       -5.2810    -5.5230     0.5810 C.3   1 <1>   0.2630 
 26 C       -3.5940    -4.5470    -0.8980 C.3   1 <1>   0.2630 
 27 H       -0.2310     0.1770    -0.9910 H     1 <1>   0.1500 
 28 H        3.9890    -2.3590    -0.8070 H     1 <1>   0.1500 
 29 H        1.9090     1.2980    -1.4900 H     1 <1>   0.1500 
 30 H        0.8640    -3.7550     1.6920 H     1 <1>   0.1500 
 31 H        4.0090     0.0230    -1.3990 H     1 <1>   0.1500 
 32 H        2.3200    -6.8810    -0.8000 H     1 <1>   0.1500 
 33 H        0.6960    -6.3590     2.7190 H     1 <1>   0.0800 
 34 H        1.4600    -7.6210     1.7840 H     1 <1>   0.0800 
 35 H       -1.0020    -7.7960     1.9170 H     1 <1>   0.4500 
 36 H        0.4850    -8.7110     0.1700 H     1 <1>   0.0800 
 37 H       -0.3450    -7.5800    -0.8780 H     1 <1>   0.0800 
 38 H       -1.1000    -5.5000     0.0440 H     1 <1>   0.0800 
 39 H       -1.3680    -5.3070     1.7510 H     1 <1>   0.0800 
 40 H       -3.3090    -6.8130     1.6510 H     1 <1>   0.0800 
 41 H       -3.0720    -7.0440    -0.0560 H     1 <1>   0.0800 
 42 H       -3.6680    -4.4000     1.1680 H     1 <1>   0.4500 
 43 H       -3.9480   -10.5310     1.5340 H     1 <1>   0.1500 
 44 H       -3.7230   -11.2050    -0.8970 H     1 <1>   0.2700 
 45 H       -0.8230    -9.3490    -2.6230 H     1 <1>   0.0800 
 46 H       -2.4730    -9.7120    -3.0600 H     1 <1>   0.0800 
 47 H       -1.3890   -10.9970    -2.5870 H     1 <1>   0.0800 
 48 H       -5.5300    -6.2830    -0.1420 H     1 <1>   0.0800 
 49 H       -5.9130    -4.6660     0.4070 H     1 <1>   0.0800 
 50 H       -5.4900    -5.9050     1.5670 H     1 <1>   0.0800 
 51 H       -3.8190    -5.2670    -1.6680 H     1 <1>   0.0800 
 52 H       -2.5670    -4.2380    -1.0050 H     1 <1>   0.0800 
 53 H       -4.2230    -3.6830    -1.0460 H     1 <1>   0.0800 
@<TRIPOS>BOND
  1   1   2  1   
  2   2   3  ar  
  3   2   4  ar  
  4   3   5  1   
  5   3   6  ar  
  6   4   7  ar  
  7   4  27  1   
  8   5   8  1   
  9   5   9  1   
 10   6  10  ar  
 11   6  28  1   
 12   7  10  ar  
 13   7  29  1   
 14   8  11  2   
 15   9  12  2   
 16   9  30  1   
 17  10  31  1   
 18  11  12  1   
 19  11  32  1   
 20  12  13  1   
 21  13  14  1   
 22  13  33  1   
 23  13  34  1   
 24  14  15  1   
 25  14  16  1   
 26  14  35  1   
 27  15  17  1   
 28  15  36  1   
 29  15  37  1   
 30  16  18  1   
 31  16  38  1   
 32  16  39  1   
 33  17  19  1   
 34  17  20  2   
 35  18  21  1   
 36  18  40  1   
 37  18  41  1   
 38  19  22  2   
 39  20  23  1   
 40  20  24  1   
 41  21  25  1   
 42  21  26  1   
 43  21  42  1   
 44  22  23  1   
 45  22  43  1   
 46  23  44  1   
 47  24  45  1   
 48  24  46  1   
 49  24  47  1   
 50  25  48  1   
 51  25  49  1   
 52  25  50  1   
 53  26  51  1   
 54  26  52  1   
 55  26  53  1   
@<TRIPOS>SUBSTRUCTURE
  1 ****  16 GROUP 4 **** **** 0

# MOE 2024.06 (io_trps.svl 2023.06)
