@<TRIPOS>MOLECULE
NONAME
46 47 1 0 0 
SMALL
USER_CHARGES


@<TRIPOS>ATOM
  1 S        0.6790     0.0480    -0.3330 S.o2  1 <1>   1.3330 
  2 O        2.0220     0.4730    -0.0070 O.2   1 <1>  -0.6500 
  3 O        0.3170    -0.1410    -1.7180 O.2   1 <1>  -0.6500 
  4 N        0.2860    -1.3350     0.5610 N.am  1 <1>  -0.8490 
  5 C       -0.3910     1.3180     0.3370 C.3   1 <1>  -0.0550 
  6 C        1.4200    -2.2560     0.6950 C.3   1 <1>   0.1160 
  7 C       -0.8790    -2.0590     0.0360 C.3   1 <1>   0.1160 
  8 C       -0.2310     2.6640    -0.4100 C.3   1 <1>  -0.0800 
  9 C       -1.0050     3.8390     0.1850 C.3   1 <1>   0.2000 
 10 C        1.2090     3.1800    -0.4830 C.3   1 <1>   0.3430 
 11 O       -0.8870     3.8360     1.5710 O.3   1 <1>  -0.6800 
 12 C       -0.2980     5.0750    -0.3820 C.3   1 <1>   0.3430 
 13 N        1.1070     4.6510    -0.7090 N.4   1 <1>  -0.9590 
 14 C        2.1390     5.4290     0.0280 C.3   1 <1>   0.5240 
 15 C        1.9960     6.8800    -0.3650 C.2   1 <1>  -0.1810 
 16 C        2.4210     7.4430    -1.5620 C.2   1 <1>   0.1390 
 17 C        1.4450     7.9070     0.3200 C.2   1 <1>  -0.3020 
 18 N        2.1440     8.7050    -1.6280 N.2   1 <1>  -0.7070 
 19 N        1.5500     9.0040    -0.4600 N.pl3 1 <1>   0.3140 
 20 C        1.1030    10.3760    -0.1380 C.3   1 <1>   0.0960 
 21 C        2.0570    11.0530     0.8540 C.3   1 <1>  -0.2400 
 22 H       -1.4120     0.9990     0.2650 H     1 <1>   0.0800 
 23 H       -0.1630     1.4360     1.3790 H     1 <1>   0.0800 
 24 H        1.1410    -3.1080     1.2930 H     1 <1>   0.0800 
 25 H        2.2430    -1.7610     1.1820 H     1 <1>   0.0800 
 26 H        1.7450    -2.5960    -0.2740 H     1 <1>   0.0800 
 27 H       -1.1300    -2.8780     0.6880 H     1 <1>   0.0800 
 28 H       -0.6700    -2.4470    -0.9480 H     1 <1>   0.0800 
 29 H       -1.7300    -1.4030    -0.0250 H     1 <1>   0.0800 
 30 H       -0.5670     2.5190    -1.4230 H     1 <1>   0.0800 
 31 H       -2.0550     3.8230    -0.0590 H     1 <1>   0.0800 
 32 H        1.7610     2.6930    -1.2730 H     1 <1>   0.0800 
 33 H        1.7060     2.9830     0.4540 H     1 <1>   0.0800 
 34 H        0.0350     3.7800     1.8850 H     1 <1>   0.4000 
 35 H       -0.3290     5.8880     0.3240 H     1 <1>   0.0800 
 36 H       -0.7950     5.3840    -1.2870 H     1 <1>   0.0800 
 37 H        1.2570     4.8480    -1.7080 H     1 <1>   0.4500 
 38 H        1.9970     5.3260     1.0920 H     1 <1>   0.0800 
 39 H        3.1270     5.0800    -0.2250 H     1 <1>   0.0800 
 40 H        2.9240     6.9210    -2.3610 H     1 <1>   0.1500 
 41 H        0.9960     7.9400     1.2970 H     1 <1>   0.1500 
 42 H        1.0670    10.9410    -1.0530 H     1 <1>   0.0800 
 43 H        0.1110    10.3280     0.2710 H     1 <1>   0.0800 
 44 H        3.0480    11.1030     0.4360 H     1 <1>   0.0800 
 45 H        2.0870    10.5110     1.7820 H     1 <1>   0.0800 
 46 H        1.7220    12.0550     1.0540 H     1 <1>   0.0800 
@<TRIPOS>BOND
  1   1   2  2   
  2   1   3  2   
  3   1   4  am  
  4   1   5  1   
  5   4   6  1   
  6   4   7  1   
  7   5   8  1   
  8   5  22  1   
  9   5  23  1   
 10   6  24  1   
 11   6  25  1   
 12   6  26  1   
 13   7  27  1   
 14   7  28  1   
 15   7  29  1   
 16   8   9  1   
 17   8  10  1   
 18   8  30  1   
 19   9  11  1   
 20   9  12  1   
 21   9  31  1   
 22  10  13  1   
 23  10  32  1   
 24  10  33  1   
 25  11  34  1   
 26  12  13  1   
 27  12  35  1   
 28  12  36  1   
 29  13  14  1   
 30  13  37  1   
 31  14  15  1   
 32  14  38  1   
 33  14  39  1   
 34  15  16  1   
 35  15  17  2   
 36  16  18  2   
 37  16  40  1   
 38  17  19  1   
 39  17  41  1   
 40  18  19  1   
 41  19  20  1   
 42  20  21  1   
 43  20  42  1   
 44  20  43  1   
 45  21  44  1   
 46  21  45  1   
 47  21  46  1   
@<TRIPOS>SUBSTRUCTURE
  1 ****  13 GROUP 4 **** **** 0

# MOE 2024.06 (io_trps.svl 2023.06)
