@<TRIPOS>MOLECULE
NONAME
46 50 1 0 0 
SMALL
USER_CHARGES


@<TRIPOS>ATOM
  1 S       -0.1250     0.6980    -1.1010 S.3   1 <1>  -0.0800 
  2 C       -1.6550     1.0660    -0.3140 C.2   1 <1>   0.4620 
  3 C        0.7020     1.6660     0.0750 C.2   1 <1>  -0.1100 
  4 N       -1.5230     1.8280     0.7110 N.2   1 <1>  -0.5650 
  5 N       -2.8310     0.5380    -0.8070 N.pl3 1 <1>  -0.8220 
  6 C       -0.1870     2.1830     0.9490 C.2   1 <1>   0.1410 
  7 C       -4.1280     0.7830    -0.1250 C.3   1 <1>   0.2090 
  8 C       -2.9250    -0.4490    -1.9160 C.3   1 <1>   0.2090 
  9 C        0.1550     3.0470     2.0700 C.2   1 <1>   0.7160 
 10 C       -4.6030    -0.5320     0.4900 C.3   1 <1>  -0.1600 
 11 C       -3.3770    -1.7850    -1.3310 C.3   1 <1>  -0.1600 
 12 O        1.3020     3.3500     2.3260 O.2   1 <1>  -0.5700 
 13 N       -0.8050     3.5500     2.8780 N.am  1 <1>  -0.8000 
 14 C       -4.6960    -1.6410    -0.5660 C.3   1 <1>   0.4600 
 15 O       -5.6700    -1.2860    -1.5260 O.3   1 <1>  -0.5600 
 16 C       -5.0810    -2.9710     0.0710 C.2   1 <1>  -0.3320 
 17 C       -7.0230    -1.5300    -1.2240 C.3   1 <1>   0.1200 
 18 N       -4.3230    -3.7010     0.9440 N.pl3 1 <1>   0.0330 
 19 C       -6.2450    -3.6120    -0.1500 C.2   1 <1>  -0.1810 
 20 C       -7.2950    -3.0350    -1.0670 C.3   1 <1>   0.0210 
 21 C       -5.0280    -4.8330     1.2740 C.ar  1 <1>  -0.1520 
 22 C       -6.2450    -4.8080     0.5970 C.ar  1 <1>   0.0000 
 23 C       -4.7010    -5.8970     2.1190 C.ar  1 <1>  -0.1500 
 24 C       -7.1510    -5.8600     0.7620 C.ar  1 <1>  -0.1500 
 25 C       -5.6030    -6.9250     2.2740 C.ar  1 <1>  -0.1500 
 26 C       -6.8280    -6.9060     1.5950 C.ar  1 <1>  -0.1500 
 27 H        1.7700     1.7600     0.0060 H     1 <1>   0.1500 
 28 H       -4.8460     1.1380    -0.8450 H     1 <1>   0.0800 
 29 H       -4.0240     1.5310     0.6410 H     1 <1>   0.0800 
 30 H       -1.9860    -0.5710    -2.4230 H     1 <1>   0.0800 
 31 H       -3.6450    -0.1010    -2.6380 H     1 <1>   0.0800 
 32 H       -5.5510    -0.3950     0.9720 H     1 <1>   0.0800 
 33 H       -3.8980    -0.8200     1.2470 H     1 <1>   0.0800 
 34 H       -2.6090    -2.1430    -0.6720 H     1 <1>   0.0800 
 35 H       -3.5010    -2.5070    -2.1160 H     1 <1>   0.0800 
 36 H       -0.5630     4.1700     3.6480 H     1 <1>   0.3700 
 37 H       -1.7870     3.3400     2.6990 H     1 <1>   0.3700 
 38 H       -7.6160    -1.1280    -2.0260 H     1 <1>   0.0800 
 39 H       -7.2700    -1.0100    -0.3160 H     1 <1>   0.0800 
 40 H       -3.3900    -3.4630     1.2950 H     1 <1>   0.2700 
 41 H       -7.2470    -3.5200    -2.0250 H     1 <1>   0.0800 
 42 H       -8.2740    -3.1860    -0.6510 H     1 <1>   0.0800 
 43 H       -3.7590    -5.9030     2.6360 H     1 <1>   0.1500 
 44 H       -8.0860    -5.8330     0.2340 H     1 <1>   0.1500 
 45 H       -5.3750    -7.7550     2.9190 H     1 <1>   0.1500 
 46 H       -7.5140    -7.7230     1.7330 H     1 <1>   0.1500 
@<TRIPOS>BOND
  1   1   2  1   
  2   1   3  1   
  3   2   4  2   
  4   2   5  1   
  5   3   6  2   
  6   3  27  1   
  7   4   6  1   
  8   5   7  1   
  9   5   8  1   
 10   6   9  1   
 11   7  10  1   
 12   7  28  1   
 13   7  29  1   
 14   8  11  1   
 15   8  30  1   
 16   8  31  1   
 17   9  12  2   
 18   9  13  am  
 19  10  14  1   
 20  10  32  1   
 21  10  33  1   
 22  11  14  1   
 23  11  34  1   
 24  11  35  1   
 25  13  36  1   
 26  13  37  1   
 27  14  15  1   
 28  14  16  1   
 29  15  17  1   
 30  16  18  1   
 31  16  19  2   
 32  17  20  1   
 33  17  38  1   
 34  17  39  1   
 35  18  21  1   
 36  18  40  1   
 37  19  20  1   
 38  19  22  1   
 39  20  41  1   
 40  20  42  1   
 41  21  22  ar  
 42  21  23  ar  
 43  22  24  ar  
 44  23  25  ar  
 45  23  43  1   
 46  24  26  ar  
 47  24  44  1   
 48  25  26  ar  
 49  25  45  1   
 50  26  46  1   
@<TRIPOS>SUBSTRUCTURE
  1 ****  10 GROUP 4 **** **** 0

# MOE 2024.06 (io_trps.svl 2023.06)
