@<TRIPOS>MOLECULE
NONAME
52 53 1 0 0 
SMALL
USER_CHARGES


@<TRIPOS>ATOM
  1 S       -0.0310     0.2290    -0.4360 S.o2  1 <1>   1.3330 
  2 O       -0.6170    -0.0680     0.8520 O.2   1 <1>  -0.6500 
  3 O       -0.4280     1.4270    -1.1400 O.2   1 <1>  -0.6500 
  4 N       -0.3100    -1.1030    -1.4500 N.am  1 <1>  -0.8490 
  5 C        1.7570     0.2450    -0.2990 C.3   1 <1>  -0.0550 
  6 C       -1.5210    -0.9410    -2.2610 C.3   1 <1>   0.1160 
  7 C       -0.3570    -2.3820    -0.7330 C.3   1 <1>   0.1160 
  8 C        2.3040     1.4360     0.5120 C.3   1 <1>  -0.0800 
  9 C        3.8160     1.5250     0.4020 C.3   1 <1>   0.2200 
 10 C        2.1010     1.2500     2.0210 C.3   1 <1>   0.1200 
 11 N        4.2390     2.9160     0.6810 N.am  1 <1>  -0.7300 
 12 C        4.2670     0.6170     1.5380 C.3   1 <1>   0.1200 
 13 O        3.2930     0.7300     2.5330 O.3   1 <1>  -0.5600 
 14 C        4.9200     3.7260    -0.1830 C.2   1 <1>   0.5440 
 15 O        5.2300     3.2710    -1.2670 O.2   1 <1>  -0.5700 
 16 C        5.2750     5.0820     0.1930 C.ar  1 <1>   0.0860 
 17 C        6.3670     5.7260    -0.3890 C.ar  1 <1>  -0.1500 
 18 C        4.5500     5.8010     1.1460 C.ar  1 <1>  -0.1500 
 19 C        6.7420     7.0130    -0.0380 C.ar  1 <1>  -0.1440 
 20 C        4.9060     7.0870     1.5070 C.ar  1 <1>  -0.1500 
 21 C        6.0060     7.7050     0.9190 C.ar  1 <1>   0.0820 
 22 C        7.9510     7.6420    -0.7210 C.3   1 <1>   0.1220 
 23 O        6.3930     8.9650     1.2370 O.3   1 <1>  -0.3630 
 24 C        7.5220     8.3630    -1.9870 C.2   1 <1>  -0.2880 
 25 C        5.6790     9.7680     2.1500 C.3   1 <1>   0.0400 
 26 C        7.9470     8.0810    -3.2230 C.2   1 <1>  -0.3000 
 27 H        2.0920    -0.6750     0.1390 H     1 <1>   0.0800 
 28 H        2.1600     0.2980    -1.2930 H     1 <1>   0.0800 
 29 H       -1.6590    -1.7950    -2.9020 H     1 <1>   0.0800 
 30 H       -1.4340    -0.0660    -2.8830 H     1 <1>   0.0800 
 31 H       -2.3850    -0.8300    -1.6260 H     1 <1>   0.0800 
 32 H       -0.4420    -3.1960    -1.4340 H     1 <1>   0.0800 
 33 H       -1.2010    -2.4080    -0.0630 H     1 <1>   0.0800 
 34 H        0.5430    -2.5210    -0.1590 H     1 <1>   0.0800 
 35 H        1.8360     2.3400     0.1590 H     1 <1>   0.0800 
 36 H        4.1940     1.1970    -0.5530 H     1 <1>   0.0800 
 37 H        1.2980     0.5790     2.2700 H     1 <1>   0.0800 
 38 H        1.9290     2.1980     2.5010 H     1 <1>   0.0800 
 39 H        4.1040     3.2070     1.6510 H     1 <1>   0.3700 
 40 H        5.2270     0.8960     1.9350 H     1 <1>   0.0800 
 41 H        4.2900    -0.4100     1.2190 H     1 <1>   0.0800 
 42 H        6.9300     5.1970    -1.1400 H     1 <1>   0.1500 
 43 H        3.6890     5.3530     1.6060 H     1 <1>   0.1500 
 44 H        4.3140     7.5940     2.2440 H     1 <1>   0.1500 
 45 H        8.4400     8.3360    -0.0610 H     1 <1>   0.0800 
 46 H        8.6670     6.8760    -0.9640 H     1 <1>   0.0800 
 47 H        6.8140     9.1480    -1.7810 H     1 <1>   0.1500 
 48 H        6.1720    10.7210     2.2120 H     1 <1>   0.0800 
 49 H        5.6840     9.2910     3.1130 H     1 <1>   0.0800 
 50 H        4.6750     9.9000     1.7870 H     1 <1>   0.0800 
 51 H        7.6210     8.6090    -4.1020 H     1 <1>   0.1500 
 52 H        8.6500     7.3010    -3.4610 H     1 <1>   0.1500 
@<TRIPOS>BOND
  1   1   2  2   
  2   1   3  2   
  3   1   4  am  
  4   1   5  1   
  5   4   6  1   
  6   4   7  1   
  7   5   8  1   
  8   5  27  1   
  9   5  28  1   
 10   6  29  1   
 11   6  30  1   
 12   6  31  1   
 13   7  32  1   
 14   7  33  1   
 15   7  34  1   
 16   8   9  1   
 17   8  10  1   
 18   8  35  1   
 19   9  11  1   
 20   9  12  1   
 21   9  36  1   
 22  10  13  1   
 23  10  37  1   
 24  10  38  1   
 25  11  14  am  
 26  11  39  1   
 27  12  13  1   
 28  12  40  1   
 29  12  41  1   
 30  14  15  2   
 31  14  16  1   
 32  16  17  ar  
 33  16  18  ar  
 34  17  19  ar  
 35  17  42  1   
 36  18  20  ar  
 37  18  43  1   
 38  19  21  ar  
 39  19  22  1   
 40  20  21  ar  
 41  20  44  1   
 42  21  23  1   
 43  22  24  1   
 44  22  45  1   
 45  22  46  1   
 46  23  25  1   
 47  24  26  2   
 48  24  47  1   
 49  25  48  1   
 50  25  49  1   
 51  25  50  1   
 52  26  51  1   
 53  26  52  1   
@<TRIPOS>SUBSTRUCTURE
  1 ****  11 GROUP 4 **** **** 0

# MOE 2024.06 (io_trps.svl 2023.06)
