@<TRIPOS>MOLECULE
NONAME
59 63 1 0 0 
SMALL
USER_CHARGES


@<TRIPOS>ATOM
  1 CL       0.9300     0.4260    -2.9130 Cl    1 <1>  -0.1770 
  2 C        2.1840     0.2040    -1.7220 C.ar  1 <1>   0.1770 
  3 C        2.0610    -0.8310    -0.8070 C.ar  1 <1>  -0.1500 
  4 C        3.2700     1.0640    -1.7140 C.ar  1 <1>  -0.1500 
  5 C        3.0580    -1.0390     0.1390 C.ar  1 <1>  -0.1440 
  6 C        4.2490     0.8630    -0.7570 C.ar  1 <1>  -0.1440 
  7 C        4.1390    -0.1730     0.1360 C.ar  1 <1>   0.0830 
  8 C        3.0150    -2.1420     1.1750 C.3   1 <1>   0.4870 
  9 C        5.5100     1.6330    -0.4670 C.3   1 <1>   0.1440 
 10 O        5.1720    -0.2390     0.9900 O.3   1 <1>  -0.3630 
 11 N        3.2070    -3.4560     0.5030 N.4   1 <1>  -0.9590 
 12 C        6.0890     0.8170     0.7170 C.3   1 <1>   0.1200 
 13 C        6.4470     1.6350    -1.6810 C.3   1 <1>  -0.2400 
 14 C        5.1700     3.0680    -0.0460 C.3   1 <1>  -0.2400 
 15 C        3.6300    -4.5840     1.3530 C.3   1 <1>   0.4230 
 16 C        2.0370    -4.1060    -0.0900 C.3   1 <1>   0.4230 
 17 C        3.8380    -5.6940     0.2890 C.3   1 <1>   0.0610 
 18 C        2.3400    -4.8050     2.1770 C.3   1 <1>  -0.1600 
 19 C        2.6760    -5.3630    -0.6960 C.3   1 <1>  -0.1600 
 20 C        1.2330    -4.5150     1.1510 C.3   1 <1>  -0.1600 
 21 C        3.7620    -7.0790     0.9330 C.2   1 <1>   0.5690 
 22 C        5.2390    -5.6310    -0.3860 C.3   1 <1>   0.0210 
 23 O        4.2410    -7.2080     2.0330 O.2   1 <1>  -0.5700 
 24 N        3.2210    -8.1320     0.2620 N.am  1 <1>  -0.7300 
 25 C        5.7830    -4.2650    -0.7850 C.2   1 <1>   0.0460 
 26 C        3.1260    -9.5200     0.7930 C.3   1 <1>   0.0600 
 27 N        5.0730    -3.5060    -1.7040 N.2   1 <1>  -0.5650 
 28 C        6.9270    -3.7290    -0.3320 C.2   1 <1>  -0.1100 
 29 C        5.6760    -2.4120    -1.9680 C.2   1 <1>   0.2280 
 30 S        7.1730    -2.1860    -1.0950 S.3   1 <1>  -0.0800 
 31 H        1.1830    -1.4470    -0.8520 H     1 <1>   0.1500 
 32 H        3.3360     1.8660    -2.4270 H     1 <1>   0.1500 
 33 H        2.0800    -2.1140     1.7080 H     1 <1>   0.0800 
 34 H        3.8120    -1.9800     1.8820 H     1 <1>   0.0800 
 35 H        3.9130    -3.3150    -0.2460 H     1 <1>   0.4500 
 36 H        6.1840     1.4150     1.6060 H     1 <1>   0.0800 
 37 H        7.0400     0.3800     0.4740 H     1 <1>   0.0800 
 38 H        5.9930     2.1610    -2.5030 H     1 <1>   0.0800 
 39 H        6.6560     0.6300    -1.9990 H     1 <1>   0.0800 
 40 H        7.3760     2.1190    -1.4380 H     1 <1>   0.0800 
 41 H        4.7040     3.5970    -0.8580 H     1 <1>   0.0800 
 42 H        6.0610     3.5980     0.2410 H     1 <1>   0.0800 
 43 H        4.4890     3.0620     0.7870 H     1 <1>   0.0800 
 44 H        4.5070    -4.3900     1.9500 H     1 <1>   0.0800 
 45 H        1.4970    -3.5050    -0.8030 H     1 <1>   0.0800 
 46 H        2.2510    -5.7910     2.5960 H     1 <1>   0.0800 
 47 H        2.3000    -4.1070     2.9950 H     1 <1>   0.0800 
 48 H        1.9430    -6.1440    -0.7800 H     1 <1>   0.0800 
 49 H        3.0350    -5.1480    -1.6870 H     1 <1>   0.0800 
 50 H        0.5960    -3.7120     1.4770 H     1 <1>   0.0800 
 51 H        0.6190    -5.3790     0.9610 H     1 <1>   0.0800 
 52 H        5.2310    -6.2540    -1.2640 H     1 <1>   0.0800 
 53 H        5.9600    -6.0670     0.2850 H     1 <1>   0.0800 
 54 H        2.9020    -8.0240    -0.7040 H     1 <1>   0.3700 
 55 H        3.4820    -9.5630     1.8090 H     1 <1>   0.0800 
 56 H        3.7240   -10.1830     0.1910 H     1 <1>   0.0800 
 57 H        2.1030    -9.8510     0.7720 H     1 <1>   0.0800 
 58 H        7.6770    -4.0690     0.3610 H     1 <1>   0.1500 
 59 H        5.3810    -1.6260    -2.6430 H     1 <1>   0.1500 
@<TRIPOS>BOND
  1   1   2  1   
  2   2   3  ar  
  3   2   4  ar  
  4   3   5  ar  
  5   3  31  1   
  6   4   6  ar  
  7   4  32  1   
  8   5   7  ar  
  9   5   8  1   
 10   6   7  ar  
 11   6   9  1   
 12   7  10  1   
 13   8  11  1   
 14   8  33  1   
 15   8  34  1   
 16   9  12  1   
 17   9  13  1   
 18   9  14  1   
 19  10  12  1   
 20  11  15  1   
 21  11  16  1   
 22  11  35  1   
 23  12  36  1   
 24  12  37  1   
 25  13  38  1   
 26  13  39  1   
 27  13  40  1   
 28  14  41  1   
 29  14  42  1   
 30  14  43  1   
 31  15  17  1   
 32  15  18  1   
 33  15  44  1   
 34  16  19  1   
 35  16  20  1   
 36  16  45  1   
 37  17  19  1   
 38  17  21  1   
 39  17  22  1   
 40  18  20  1   
 41  18  46  1   
 42  18  47  1   
 43  19  48  1   
 44  19  49  1   
 45  20  50  1   
 46  20  51  1   
 47  21  23  2   
 48  21  24  am  
 49  22  25  1   
 50  22  52  1   
 51  22  53  1   
 52  24  26  1   
 53  24  54  1   
 54  25  27  1   
 55  25  28  2   
 56  26  55  1   
 57  26  56  1   
 58  26  57  1   
 59  27  29  2   
 60  28  30  1   
 61  28  58  1   
 62  29  30  1   
 63  29  59  1   
@<TRIPOS>SUBSTRUCTURE
  1 ****  11 GROUP 4 **** **** 0

# MOE 2024.06 (io_trps.svl 2023.06)
