@<TRIPOS>MOLECULE
NONAME
39 41 1 0 0 
SMALL
USER_CHARGES


@<TRIPOS>ATOM
  1 CL      -1.4030    -0.3880     1.3290 Cl    1 <1>  -0.1770 
  2 C       -2.6100     0.8420     1.0200 C.ar  1 <1>   0.1770 
  3 C       -3.9340     0.6240     1.3090 C.ar  1 <1>   0.1600 
  4 C       -2.2640     2.0550     0.4810 C.ar  1 <1>   0.1600 
  5 N       -4.8490     1.5400     1.0820 N.ar  1 <1>  -0.6200 
  6 N       -3.1600     2.9870     0.2440 N.ar  1 <1>  -0.6200 
  7 C       -4.4260     2.6940     0.5560 C.ar  1 <1>   0.7200 
  8 N       -5.3750     3.6640     0.3130 N.pl3 1 <1>  -0.8380 
  9 C       -6.7590     3.6170     0.8880 C.3   1 <1>   0.2090 
 10 C       -5.1310     4.8510    -0.5510 C.3   1 <1>   0.2090 
 11 C       -7.8230     3.5980    -0.2380 C.3   1 <1>   0.0000 
 12 C       -6.1590     4.8790    -1.6880 C.3   1 <1>  -0.1600 
 13 C       -9.2470     3.5770     0.3430 C.3   1 <1>   0.2000 
 14 C       -7.6060     4.8130    -1.1670 C.3   1 <1>  -0.1600 
 15 C       -7.7790     2.2630    -1.0020 C.3   1 <1>  -0.1600 
 16 O       -9.3590     4.4100     1.4590 O.3   1 <1>  -0.5600 
 17 C       -9.5290     2.1160     0.7070 C.3   1 <1>  -0.1600 
 18 C       -8.5690     1.2720    -0.1420 C.3   1 <1>  -0.1600 
 19 C      -10.6640     4.6940     1.8520 C.3   1 <1>   0.0400 
 20 H       -4.2410    -0.3150     1.7320 H     1 <1>   0.1500 
 21 H       -1.2350     2.2590     0.2430 H     1 <1>   0.1500 
 22 H       -6.8890     2.7690     1.5350 H     1 <1>   0.0800 
 23 H       -6.8960     4.4960     1.4940 H     1 <1>   0.0800 
 24 H       -5.2230     5.7410     0.0480 H     1 <1>   0.0800 
 25 H       -4.1410     4.8370    -0.9730 H     1 <1>   0.0800 
 26 H       -6.0240     5.7790    -2.2600 H     1 <1>   0.0800 
 27 H       -5.9670     4.0470    -2.3420 H     1 <1>   0.0800 
 28 H       -9.9400     3.9070    -0.4130 H     1 <1>   0.0800 
 29 H       -8.2880     4.7760    -1.9980 H     1 <1>   0.0800 
 30 H       -7.8150     5.7120    -0.6120 H     1 <1>   0.0800 
 31 H       -8.2730     2.3710    -1.9510 H     1 <1>   0.0800 
 32 H       -6.7740     1.9190    -1.1780 H     1 <1>   0.0800 
 33 H       -9.3280     1.9450     1.7510 H     1 <1>   0.0800 
 34 H      -10.5520     1.8650     0.4890 H     1 <1>   0.0800 
 35 H       -7.8910     0.7390     0.5040 H     1 <1>   0.0800 
 36 H       -9.0950     0.5610    -0.7550 H     1 <1>   0.0800 
 37 H      -10.6200     5.3520     2.7020 H     1 <1>   0.0800 
 38 H      -11.1630     3.7820     2.1280 H     1 <1>   0.0800 
 39 H      -11.1800     5.1810     1.0440 H     1 <1>   0.0800 
@<TRIPOS>BOND
  1   1   2  1   
  2   2   3  ar  
  3   2   4  ar  
  4   3   5  ar  
  5   3  20  1   
  6   4   6  ar  
  7   4  21  1   
  8   5   7  ar  
  9   6   7  ar  
 10   7   8  1   
 11   8   9  1   
 12   8  10  1   
 13   9  11  1   
 14   9  22  1   
 15   9  23  1   
 16  10  12  1   
 17  10  24  1   
 18  10  25  1   
 19  11  13  1   
 20  11  14  1   
 21  11  15  1   
 22  12  14  1   
 23  12  26  1   
 24  12  27  1   
 25  13  16  1   
 26  13  17  1   
 27  13  28  1   
 28  14  29  1   
 29  14  30  1   
 30  15  18  1   
 31  15  31  1   
 32  15  32  1   
 33  16  19  1   
 34  17  18  1   
 35  17  33  1   
 36  17  34  1   
 37  18  35  1   
 38  18  36  1   
 39  19  37  1   
 40  19  38  1   
 41  19  39  1   
@<TRIPOS>SUBSTRUCTURE
  1 ****   8 GROUP 4 **** **** 0

# MOE 2024.06 (io_trps.svl 2023.06)
