@<TRIPOS>MOLECULE
NONAME
49 52 1 0 0 
SMALL
USER_CHARGES


@<TRIPOS>ATOM
  1 O       -0.0800     0.5430    -0.8150 O.2   1 <1>  -0.5700 
  2 C       -0.0110     1.7560    -0.8900 C.2   1 <1>   0.5440 
  3 N       -1.1640     2.4780    -1.1250 N.am  1 <1>  -0.6600 
  4 C        1.2770     2.4000    -0.7180 C.ar  1 <1>   0.0860 
  5 C       -2.4210     1.8240    -1.5890 C.3   1 <1>   0.1400 
  6 C       -1.3270     3.9190    -0.7880 C.3   1 <1>   0.1400 
  7 C        1.7630     3.3300    -1.6360 C.ar  1 <1>  -0.1500 
  8 C        2.0910     2.1050     0.3730 C.ar  1 <1>  -0.1500 
  9 C       -3.4970     1.9600    -0.5110 C.3   1 <1>  -0.1600 
 10 C       -2.3910     4.0630     0.3020 C.3   1 <1>  -0.1600 
 11 C        2.9880     3.9470    -1.4610 C.ar  1 <1>  -0.1500 
 12 C        3.3160     2.7210     0.5480 C.ar  1 <1>  -0.1500 
 13 C       -3.7210     3.4220    -0.1150 C.3   1 <1>   0.4180 
 14 C        3.8010     3.6640    -0.3610 C.ar  1 <1>   0.0540 
 15 O       -4.2120     4.0720    -1.2640 O.3   1 <1>  -0.5600 
 16 C       -4.7430     3.4960     1.0170 C.2   1 <1>  -0.2880 
 17 C        5.0870     4.3100    -0.1660 C.2   1 <1>   0.4620 
 18 C       -4.8970     5.2790    -1.0800 C.3   1 <1>   0.1200 
 19 C       -5.8660     4.2180     0.9680 C.2   1 <1>  -0.2760 
 20 N        5.5830     5.2110    -1.0240 N.2   1 <1>  -0.2270 
 21 N        5.8760     4.0960     0.8380 N.2   1 <1>  -0.7070 
 22 C       -6.1740     5.0570    -0.2570 C.3   1 <1>  -0.0220 
 23 C       -6.9070     4.2650     2.0720 C.3   1 <1>  -0.1020 
 24 N        6.7090     5.5780    -0.5620 N.2   1 <1>  -0.4180 
 25 N        6.8730     4.8990     0.5550 N.pl3 1 <1>   0.5800 
 26 C        8.0550     5.0320     1.4100 C.3   1 <1>   0.0160 
 27 H       -2.2520     0.7830    -1.8060 H     1 <1>   0.0800 
 28 H       -2.7500     2.3010    -2.4960 H     1 <1>   0.0800 
 29 H       -1.6300     4.4550    -1.6720 H     1 <1>   0.0800 
 30 H       -0.4030     4.3410    -0.4350 H     1 <1>   0.0800 
 31 H        1.1650     3.5650    -2.5000 H     1 <1>   0.1500 
 32 H        1.7480     1.3760     1.0870 H     1 <1>   0.1500 
 33 H       -3.1910     1.3930     0.3490 H     1 <1>   0.0800 
 34 H       -4.4220     1.5430    -0.8640 H     1 <1>   0.0800 
 35 H       -2.5370     5.0990     0.5420 H     1 <1>   0.0800 
 36 H       -2.0330     3.5800     1.1920 H     1 <1>   0.0800 
 37 H        3.3220     4.6600    -2.1950 H     1 <1>   0.1500 
 38 H        3.9140     2.4660     1.4060 H     1 <1>   0.1500 
 39 H       -4.4690     2.8930     1.8630 H     1 <1>   0.1500 
 40 H       -5.1430     5.6690    -2.0520 H     1 <1>   0.0800 
 41 H       -4.2450     5.9740    -0.5830 H     1 <1>   0.0800 
 42 H       -6.9140     4.5630    -0.8610 H     1 <1>   0.0800 
 43 H       -6.5630     6.0160     0.0350 H     1 <1>   0.0800 
 44 H       -7.8570     3.9260     1.6980 H     1 <1>   0.0800 
 45 H       -7.0150     5.2700     2.4390 H     1 <1>   0.0800 
 46 H       -6.6170     3.6320     2.8910 H     1 <1>   0.0800 
 47 H        8.3110     4.0680     1.8050 H     1 <1>   0.0800 
 48 H        7.8280     5.7070     2.2120 H     1 <1>   0.0800 
 49 H        8.8710     5.4160     0.8270 H     1 <1>   0.0800 
@<TRIPOS>BOND
  1   1   2  2   
  2   2   3  am  
  3   2   4  1   
  4   3   5  1   
  5   3   6  1   
  6   4   7  ar  
  7   4   8  ar  
  8   5   9  1   
  9   5  27  1   
 10   5  28  1   
 11   6  10  1   
 12   6  29  1   
 13   6  30  1   
 14   7  11  ar  
 15   7  31  1   
 16   8  12  ar  
 17   8  32  1   
 18   9  13  1   
 19   9  33  1   
 20   9  34  1   
 21  10  13  1   
 22  10  35  1   
 23  10  36  1   
 24  11  14  ar  
 25  11  37  1   
 26  12  14  ar  
 27  12  38  1   
 28  13  15  1   
 29  13  16  1   
 30  14  17  1   
 31  15  18  1   
 32  16  19  2   
 33  16  39  1   
 34  17  20  1   
 35  17  21  2   
 36  18  22  1   
 37  18  40  1   
 38  18  41  1   
 39  19  22  1   
 40  19  23  1   
 41  20  24  2   
 42  21  25  1   
 43  22  42  1   
 44  22  43  1   
 45  23  44  1   
 46  23  45  1   
 47  23  46  1   
 48  24  25  1   
 49  25  26  1   
 50  26  47  1   
 51  26  48  1   
 52  26  49  1   
@<TRIPOS>SUBSTRUCTURE
  1 ****   4 GROUP 4 **** **** 0

# MOE 2024.06 (io_trps.svl 2023.06)
