@<TRIPOS>MOLECULE
NONAME
36 37 1 0 0 
SMALL
USER_CHARGES


@<TRIPOS>ATOM
  1 S       -0.9630    -0.2370     0.1900 S.3   1 <1>  -0.0800 
  2 C       -0.2590    -1.4300    -0.8500 C.2   1 <1>   0.4420 
  3 C        0.1410     0.9120    -0.4940 C.2   1 <1>   0.1980 
  4 N        0.6820    -0.9470    -1.5760 N.2   1 <1>  -0.3380 
  5 N       -0.7790    -2.7000    -0.7690 N.am  1 <1>  -0.4940 
  6 N        0.9050     0.3860    -1.3670 N.2   1 <1>  -0.3380 
  7 C        0.0880     2.3490     0.0260 C.3   1 <1>   0.3800 
  8 C       -0.4370    -3.8530    -1.4210 C.2   1 <1>   0.7160 
  9 O       -1.2430     2.7850     0.0440 O.3   1 <1>  -0.5600 
 10 C        0.8950     3.3180    -0.8460 C.3   1 <1>  -0.2400 
 11 O        0.4790    -3.8790    -2.2180 O.2   1 <1>  -0.5700 
 12 C       -1.2090    -5.0460    -1.1220 C.2   1 <1>   0.1410 
 13 C       -1.5550     3.7480     1.0030 C.3   1 <1>   0.0400 
 14 N       -2.2550    -4.9870    -0.1810 N.2   1 <1>  -0.5650 
 15 C       -1.0250    -6.2660    -1.6710 C.2   1 <1>  -0.1100 
 16 C       -2.8350    -6.1120    -0.0300 C.2   1 <1>   0.1980 
 17 S       -2.1710    -7.3920    -1.0210 S.3   1 <1>  -0.0800 
 18 C       -4.0050    -6.4870     0.8780 C.3   1 <1>   0.1000 
 19 C       -5.3110    -6.5430     0.0760 C.3   1 <1>  -0.2400 
 20 C       -4.1530    -5.5070     2.0510 C.3   1 <1>  -0.2400 
 21 H       -1.5600    -2.8390    -0.1300 H     1 <1>   0.3700 
 22 H        0.4670     2.3520     1.0340 H     1 <1>   0.0800 
 23 H        0.4910     3.3340    -1.8420 H     1 <1>   0.0800 
 24 H        1.9170     2.9890    -0.9010 H     1 <1>   0.0800 
 25 H        0.8840     4.3100    -0.4360 H     1 <1>   0.0800 
 26 H       -2.6020     3.9800     0.9120 H     1 <1>   0.0800 
 27 H       -0.9760     4.6370     0.8270 H     1 <1>   0.0800 
 28 H       -1.3580     3.3520     1.9840 H     1 <1>   0.0800 
 29 H       -0.3190    -6.6140    -2.4030 H     1 <1>   0.1500 
 30 H       -3.8080    -7.4640     1.2850 H     1 <1>   0.0800 
 31 H       -5.5250    -5.5810    -0.3550 H     1 <1>   0.0800 
 32 H       -6.1310    -6.8290     0.7120 H     1 <1>   0.0800 
 33 H       -5.2300    -7.2640    -0.7180 H     1 <1>   0.0800 
 34 H       -4.3710    -4.5180     1.6890 H     1 <1>   0.0800 
 35 H       -3.2390    -5.4710     2.6170 H     1 <1>   0.0800 
 36 H       -4.9480    -5.8200     2.7050 H     1 <1>   0.0800 
@<TRIPOS>BOND
  1   1   2  1   
  2   1   3  1   
  3   2   4  2   
  4   2   5  1   
  5   3   6  2   
  6   3   7  1   
  7   4   6  1   
  8   5   8  am  
  9   5  21  1   
 10   7   9  1   
 11   7  10  1   
 12   7  22  1   
 13   8  11  2   
 14   8  12  1   
 15   9  13  1   
 16  10  23  1   
 17  10  24  1   
 18  10  25  1   
 19  12  14  1   
 20  12  15  2   
 21  13  26  1   
 22  13  27  1   
 23  13  28  1   
 24  14  16  2   
 25  15  17  1   
 26  15  29  1   
 27  16  17  1   
 28  16  18  1   
 29  18  19  1   
 30  18  20  1   
 31  18  30  1   
 32  19  31  1   
 33  19  32  1   
 34  19  33  1   
 35  20  34  1   
 36  20  35  1   
 37  20  36  1   
@<TRIPOS>SUBSTRUCTURE
  1 ****   5 GROUP 4 **** **** 0

# MOE 2024.06 (io_trps.svl 2023.06)
