@<TRIPOS>MOLECULE
NONAME
38 39 1 0 0 
SMALL
USER_CHARGES


@<TRIPOS>ATOM
  1 S       -0.2290    -0.5160     0.8950 S.3   1 <1>  -0.4600 
  2 C       -1.8610    -1.2690     0.7050 C.3   1 <1>   0.0700 
  3 C       -0.5550     0.9910     1.8520 C.3   1 <1>  -0.0100 
  4 C       -1.6500    -2.5820    -0.0530 C.3   1 <1>   0.3430 
  5 N       -2.9320    -3.3130    -0.2840 N.4   1 <1>  -0.9590 
  6 C       -2.7220    -4.7330    -0.7180 C.3   1 <1>   0.3430 
  7 C       -3.8940    -2.6260    -1.2130 C.3   1 <1>   0.3430 
  8 C       -4.0620    -5.5060    -0.7210 C.3   1 <1>   0.1100 
  9 C       -5.2030    -3.4410    -1.3750 C.3   1 <1>   0.1100 
 10 N       -5.2270    -4.6170    -0.4800 N.3   1 <1>  -0.8100 
 11 C       -6.5330    -5.3410    -0.5210 C.3   1 <1>   0.2900 
 12 C       -6.5860    -6.5870     0.3600 C.2   1 <1>   0.2980 
 13 O       -6.2010    -7.7350    -0.1460 O.3   1 <1>  -0.2800 
 14 N       -6.9810    -6.6470     1.5760 N.2   1 <1>  -0.5650 
 15 C       -6.3640    -8.6020     0.8120 C.2   1 <1>  -0.0100 
 16 C       -6.8450    -7.9790     1.9070 C.2   1 <1>  -0.0060 
 17 C       -7.1470    -8.6460     3.1760 C.2   1 <1>   1.0330 
 18 O       -7.0200    -9.8860     3.2520 O.co2 1 <1>  -0.9000 
 19 O       -7.5150    -8.0300     4.1940 O.co2 1 <1>  -0.9000 
 20 H       -2.4650    -0.5700     0.1560 H     1 <1>   0.0800 
 21 H       -2.2520    -1.4330     1.6930 H     1 <1>   0.0800 
 22 H        0.3860     1.4910     2.0030 H     1 <1>   0.0800 
 23 H       -0.9870     0.7050     2.7950 H     1 <1>   0.0800 
 24 H       -1.2280     1.6120     1.2880 H     1 <1>   0.0800 
 25 H       -0.9820    -3.1990     0.5260 H     1 <1>   0.0800 
 26 H       -1.1730    -2.3720    -0.9970 H     1 <1>   0.0800 
 27 H       -3.4620    -3.4190     0.5990 H     1 <1>   0.4500 
 28 H       -2.0360    -5.2300    -0.0500 H     1 <1>   0.0800 
 29 H       -2.2950    -4.7570    -1.7070 H     1 <1>   0.0800 
 30 H       -3.4410    -2.4880    -2.1810 H     1 <1>   0.0800 
 31 H       -4.1430    -1.6510    -0.8270 H     1 <1>   0.0800 
 32 H       -4.0170    -6.2510     0.0570 H     1 <1>   0.0800 
 33 H       -4.1770    -6.0260    -1.6580 H     1 <1>   0.0800 
 34 H       -5.3010    -3.7590    -2.3990 H     1 <1>   0.0800 
 35 H       -6.0400    -2.8010    -1.1510 H     1 <1>   0.0800 
 36 H       -6.7610    -5.6330    -1.5310 H     1 <1>   0.0800 
 37 H       -7.3080    -4.6760    -0.1830 H     1 <1>   0.0800 
 38 H       -6.1290    -9.6420     0.6670 H     1 <1>   0.1500 
@<TRIPOS>BOND
  1   1   2  1   
  2   1   3  1   
  3   2   4  1   
  4   2  20  1   
  5   2  21  1   
  6   3  22  1   
  7   3  23  1   
  8   3  24  1   
  9   4   5  1   
 10   4  25  1   
 11   4  26  1   
 12   5   6  1   
 13   5   7  1   
 14   5  27  1   
 15   6   8  1   
 16   6  28  1   
 17   6  29  1   
 18   7   9  1   
 19   7  30  1   
 20   7  31  1   
 21   8  10  1   
 22   8  32  1   
 23   8  33  1   
 24   9  10  1   
 25   9  34  1   
 26   9  35  1   
 27  10  11  1   
 28  11  12  1   
 29  11  36  1   
 30  11  37  1   
 31  12  13  1   
 32  12  14  2   
 33  13  15  1   
 34  14  16  1   
 35  15  16  2   
 36  15  38  1   
 37  16  17  1   
 38  17  18  ar  
 39  17  19  ar  
@<TRIPOS>SUBSTRUCTURE
  1 ****  10 GROUP 4 **** **** 0

# MOE 2024.06 (io_trps.svl 2023.06)
