@<TRIPOS>MOLECULE
NONAME
46 49 1 0 0 
SMALL
USER_CHARGES


@<TRIPOS>ATOM
  1 S       -2.2670    -0.3500    -2.2770 S.3   1 <1>  -0.0800 
  2 C       -2.4900    -1.4680    -0.9440 C.2   1 <1>  -0.1100 
  3 C       -2.7910     0.9970    -1.2850 C.2   1 <1>  -0.1100 
  4 C       -2.9390    -0.8280     0.1540 C.2   1 <1>  -0.1810 
  5 C       -3.1040     0.5820    -0.0440 C.2   1 <1>  -0.1500 
  6 C       -3.2650    -1.4630     1.5040 C.3   1 <1>   0.0820 
  7 C       -3.3830    -2.9840     1.4730 C.2   1 <1>   0.5690 
  8 O       -2.5800    -3.6120     2.1220 O.2   1 <1>  -0.5700 
  9 N       -4.3720    -3.6130     0.7530 N.am  1 <1>  -0.6600 
 10 C       -5.4020    -2.9340    -0.0960 C.3   1 <1>   0.1400 
 11 C       -4.4790    -5.1050     0.7130 C.3   1 <1>   0.1400 
 12 C       -6.8180    -3.4480     0.2270 C.3   1 <1>   0.1900 
 13 C       -5.9170    -5.5680     1.0010 C.3   1 <1>   0.1100 
 14 N       -6.8870    -4.9240     0.0890 N.3   1 <1>  -0.8100 
 15 C       -7.8560    -2.7700    -0.6880 C.3   1 <1>   0.1200 
 16 C       -8.2730    -5.3910     0.3350 C.3   1 <1>   0.3330 
 17 O       -9.1420    -3.2340    -0.3950 O.3   1 <1>  -0.5600 
 18 C       -8.4050    -6.8890     0.0640 C.ar  1 <1>  -0.1430 
 19 C       -9.2760    -4.6220    -0.5520 C.3   1 <1>   0.1200 
 20 C       -9.0540    -7.7070     0.9780 C.ar  1 <1>  -0.1500 
 21 C       -7.8860    -7.4510    -1.0950 C.ar  1 <1>  -0.1500 
 22 C       -9.1830    -9.0640     0.7370 C.ar  1 <1>  -0.1500 
 23 C       -8.0150    -8.8080    -1.3370 C.ar  1 <1>  -0.1500 
 24 C       -8.6640    -9.6150    -0.4210 C.ar  1 <1>  -0.1500 
 25 H       -2.2600    -2.5040    -1.1270 H     1 <1>   0.1500 
 26 H       -2.8060     1.9710    -1.7420 H     1 <1>   0.1500 
 27 H       -3.4470     1.2210     0.7510 H     1 <1>   0.1500 
 28 H       -4.1890    -1.0650     1.8770 H     1 <1>   0.0800 
 29 H       -2.4940    -1.1920     2.2020 H     1 <1>   0.0800 
 30 H       -5.3800    -1.8700     0.0490 H     1 <1>   0.0800 
 31 H       -5.1840    -3.1310    -1.1310 H     1 <1>   0.0800 
 32 H       -4.1880    -5.4520    -0.2620 H     1 <1>   0.0800 
 33 H       -3.8160    -5.5520     1.4340 H     1 <1>   0.0800 
 34 H       -7.0470    -3.1730     1.2430 H     1 <1>   0.0800 
 35 H       -6.1620    -5.3400     2.0250 H     1 <1>   0.0800 
 36 H       -5.9560    -6.6370     0.8810 H     1 <1>   0.0800 
 37 H       -7.6430    -2.9750    -1.7230 H     1 <1>   0.0800 
 38 H       -7.8520    -1.7060    -0.5360 H     1 <1>   0.0800 
 39 H       -8.5290    -5.1980     1.3630 H     1 <1>   0.0800 
 40 H      -10.2820    -4.8890    -0.2840 H     1 <1>   0.0800 
 41 H       -9.1210    -4.8660    -1.5880 H     1 <1>   0.0800 
 42 H       -9.4640    -7.2930     1.8830 H     1 <1>   0.1500 
 43 H       -7.3750    -6.8270    -1.8070 H     1 <1>   0.1500 
 44 H       -9.6880    -9.6920     1.4510 H     1 <1>   0.1500 
 45 H       -7.6090    -9.2330    -2.2380 H     1 <1>   0.1500 
 46 H       -8.7640   -10.6700    -0.6080 H     1 <1>   0.1500 
@<TRIPOS>BOND
  1   1   2  1   
  2   1   3  1   
  3   2   4  2   
  4   2  25  1   
  5   3   5  2   
  6   3  26  1   
  7   4   5  1   
  8   4   6  1   
  9   5  27  1   
 10   6   7  1   
 11   6  28  1   
 12   6  29  1   
 13   7   8  2   
 14   7   9  am  
 15   9  10  1   
 16   9  11  1   
 17  10  12  1   
 18  10  30  1   
 19  10  31  1   
 20  11  13  1   
 21  11  32  1   
 22  11  33  1   
 23  12  14  1   
 24  12  15  1   
 25  12  34  1   
 26  13  14  1   
 27  13  35  1   
 28  13  36  1   
 29  14  16  1   
 30  15  17  1   
 31  15  37  1   
 32  15  38  1   
 33  16  18  1   
 34  16  19  1   
 35  16  39  1   
 36  17  19  1   
 37  18  20  ar  
 38  18  21  ar  
 39  19  40  1   
 40  19  41  1   
 41  20  22  ar  
 42  20  42  1   
 43  21  23  ar  
 44  21  43  1   
 45  22  24  ar  
 46  22  44  1   
 47  23  24  ar  
 48  23  45  1   
 49  24  46  1   
@<TRIPOS>SUBSTRUCTURE
  1 ****  12 GROUP 4 **** **** 0

# MOE 2024.06 (io_trps.svl 2023.06)
