@<TRIPOS>MOLECULE
NONAME
47 49 1 0 0 
SMALL
USER_CHARGES


@<TRIPOS>ATOM
  1 O       -1.6280     0.1680     2.5250 O.2   1 <1>  -0.5700 
  2 C       -2.2490     0.8540     1.7350 C.2   1 <1>   0.5440 
  3 N       -3.4690     0.4070     1.2780 N.am  1 <1>  -0.6600 
  4 C       -1.7010     2.1180     1.3040 C.ar  1 <1>   0.0860 
  5 C       -4.2090     1.0370     0.1480 C.3   1 <1>   0.1400 
  6 C       -3.8900    -1.0080     1.4230 C.3   1 <1>   0.1400 
  7 C       -1.0480     2.2460     0.0760 C.ar  1 <1>   0.0830 
  8 C       -1.8040     3.2470     2.1160 C.ar  1 <1>  -0.1500 
  9 C       -5.1650    -0.0480    -0.3590 C.3   1 <1>   0.2000 
 10 C       -4.5100    -1.3630     0.0670 C.3   1 <1>  -0.0800 
 11 O       -0.9440     1.1550    -0.7200 O.3   1 <1>  -0.3630 
 12 C       -0.5290     3.4750    -0.3400 C.ar  1 <1>   0.0830 
 13 C       -1.2880     4.4640     1.7170 C.ar  1 <1>  -0.1500 
 14 O       -6.3720     0.0740     0.3120 O.3   1 <1>  -0.6800 
 15 C       -3.4400    -1.7900    -0.9600 C.3   1 <1>  -0.0170 
 16 C        0.3000     0.4920    -0.7090 C.3   1 <1>   0.0400 
 17 O        0.0800     3.5370    -1.5580 O.3   1 <1>  -0.3630 
 18 C       -0.6530     4.5830     0.4930 C.ar  1 <1>  -0.1500 
 19 C       -2.7140    -3.0600    -0.5440 C.ar  1 <1>  -0.1430 
 20 C        0.5760     4.7500    -2.0790 C.3   1 <1>   0.0400 
 21 C       -1.5070    -3.0190     0.1230 C.ar  1 <1>  -0.1500 
 22 C       -3.2200    -4.3150    -0.8130 C.ar  1 <1>  -0.1500 
 23 C       -0.8810    -4.2010     0.4810 C.ar  1 <1>   0.1600 
 24 C       -2.5130    -5.4370    -0.4130 C.ar  1 <1>   0.1600 
 25 N       -1.3550    -5.4110     0.2270 N.ar  1 <1>  -0.6200 
 26 H       -4.7370     1.9190     0.4660 H     1 <1>   0.0800 
 27 H       -3.5200     1.2970    -0.6350 H     1 <1>   0.0800 
 28 H       -3.0670    -1.6470     1.6880 H     1 <1>   0.0800 
 29 H       -4.6310    -1.0710     2.2010 H     1 <1>   0.0800 
 30 H       -2.2930     3.1540     3.0700 H     1 <1>   0.1500 
 31 H       -5.3590     0.0210    -1.4160 H     1 <1>   0.0800 
 32 H       -5.2350    -2.1520     0.1650 H     1 <1>   0.0800 
 33 H       -1.3790     5.3240     2.3610 H     1 <1>   0.1500 
 34 H       -6.1980     0.1540     1.2710 H     1 <1>   0.4000 
 35 H       -2.7160    -1.0050    -1.0940 H     1 <1>   0.0800 
 36 H       -3.9100    -1.9560    -1.9140 H     1 <1>   0.0800 
 37 H        0.2340    -0.3610    -1.3590 H     1 <1>   0.0800 
 38 H        0.5160     0.1770     0.2970 H     1 <1>   0.0800 
 39 H        1.0600     1.1660    -1.0630 H     1 <1>   0.0800 
 40 H       -0.2650     5.5430     0.2120 H     1 <1>   0.1500 
 41 H        0.9850     4.5520    -3.0540 H     1 <1>   0.0800 
 42 H        1.3480     5.1210    -1.4290 H     1 <1>   0.0800 
 43 H       -0.2340     5.4530    -2.1600 H     1 <1>   0.0800 
 44 H       -1.0510    -2.0780     0.3760 H     1 <1>   0.1500 
 45 H       -4.1550    -4.4320    -1.3290 H     1 <1>   0.1500 
 46 H        0.0570    -4.1470     1.0070 H     1 <1>   0.1500 
 47 H       -2.9210    -6.4090    -0.6320 H     1 <1>   0.1500 
@<TRIPOS>BOND
  1   1   2  2   
  2   2   3  am  
  3   2   4  1   
  4   3   5  1   
  5   3   6  1   
  6   4   7  ar  
  7   4   8  ar  
  8   5   9  1   
  9   5  26  1   
 10   5  27  1   
 11   6  10  1   
 12   6  28  1   
 13   6  29  1   
 14   7  11  1   
 15   7  12  ar  
 16   8  13  ar  
 17   8  30  1   
 18   9  10  1   
 19   9  14  1   
 20   9  31  1   
 21  10  15  1   
 22  10  32  1   
 23  11  16  1   
 24  12  17  1   
 25  12  18  ar  
 26  13  18  ar  
 27  13  33  1   
 28  14  34  1   
 29  15  19  1   
 30  15  35  1   
 31  15  36  1   
 32  16  37  1   
 33  16  38  1   
 34  16  39  1   
 35  17  20  1   
 36  18  40  1   
 37  19  21  ar  
 38  19  22  ar  
 39  20  41  1   
 40  20  42  1   
 41  20  43  1   
 42  21  23  ar  
 43  21  44  1   
 44  22  24  ar  
 45  22  45  1   
 46  23  25  ar  
 47  23  46  1   
 48  24  25  ar  
 49  24  47  1   
@<TRIPOS>SUBSTRUCTURE
  1 ****   2 GROUP 4 **** **** 0

# MOE 2024.06 (io_trps.svl 2023.06)
