@<TRIPOS>MOLECULE
NONAME
44 46 1 0 0 
SMALL
USER_CHARGES


@<TRIPOS>ATOM
  1 O       -3.6080     2.6780    -1.6610 O.2   1 <1>  -0.5700 
  2 C       -2.8790     2.3010    -0.7750 C.2   1 <1>   0.5690 
  3 N       -2.6370     0.9830    -0.5580 N.am  1 <1>  -0.7300 
  4 C       -2.2180     3.3270     0.1170 C.3   1 <1>   0.1570 
  5 C       -3.1350    -0.1450    -1.3730 C.3   1 <1>   0.2200 
  6 N       -0.8120     2.9560     0.3080 N.pl3 1 <1>   0.3140 
  7 C       -3.7750    -1.1720    -0.4560 C.3   1 <1>  -0.0800 
  8 C       -1.9540    -0.9180    -1.9640 C.3   1 <1>   0.1200 
  9 N       -0.4430     1.9990     1.2000 N.2   1 <1>  -0.7070 
 10 C        0.2560     3.4270    -0.3910 C.2   1 <1>  -0.0680 
 11 C       -2.5560    -1.9790    -0.0110 C.3   1 <1>   0.1200 
 12 C       -4.8020    -2.0380    -1.2100 C.3   1 <1>  -0.0160 
 13 O       -1.6770    -1.9790    -1.0940 O.3   1 <1>  -0.5600 
 14 C        0.8410     1.9100     1.0640 C.2   1 <1>   0.1080 
 15 N        0.2180     4.3880    -1.4130 N.pl3 1 <1>  -0.8840 
 16 C        1.3360     2.7740     0.0930 C.2   1 <1>  -0.1500 
 17 C       -5.4460    -3.0640    -0.2900 C.ar  1 <1>  -0.1440 
 18 C        1.6760     0.9540     1.8840 C.3   1 <1>  -0.0590 
 19 C       -5.0890    -4.3970    -0.3170 C.ar  1 <1>  -0.1500 
 20 C       -6.4210    -2.7120     0.6210 C.ar  1 <1>  -0.1500 
 21 C       -5.7040    -5.2880     0.5470 C.ar  1 <1>   0.1600 
 22 C       -6.9730    -3.6820     1.4410 C.ar  1 <1>   0.1600 
 23 N       -6.6370    -4.9620     1.4270 N.ar  1 <1>  -0.6200 
 24 H       -1.9070     0.7460     0.1320 H     1 <1>   0.3700 
 25 H       -2.7050     3.3470     1.0710 H     1 <1>   0.0800 
 26 H       -2.2720     4.2990    -0.3330 H     1 <1>   0.0800 
 27 H       -3.8030     0.2160    -2.1370 H     1 <1>   0.0800 
 28 H       -4.2590    -0.7040     0.3840 H     1 <1>   0.0800 
 29 H       -1.0760    -0.3050    -2.0700 H     1 <1>   0.0800 
 30 H       -2.2180    -1.3430    -2.9160 H     1 <1>   0.0800 
 31 H       -2.7860    -2.9930     0.2620 H     1 <1>   0.0800 
 32 H       -2.0580    -1.4920     0.8100 H     1 <1>   0.0800 
 33 H       -4.3290    -2.5410    -2.0360 H     1 <1>   0.0800 
 34 H       -5.5730    -1.4060    -1.6150 H     1 <1>   0.0800 
 35 H       -0.5110     4.2490    -2.1220 H     1 <1>   0.4000 
 36 H        1.1210     4.5370    -1.8780 H     1 <1>   0.4000 
 37 H        2.3630     2.8810    -0.1990 H     1 <1>   0.1500 
 38 H        2.7190     1.0780     1.6610 H     1 <1>   0.0800 
 39 H        1.3850    -0.0570     1.6630 H     1 <1>   0.0800 
 40 H        1.5140     1.1430     2.9300 H     1 <1>   0.0800 
 41 H       -4.3380    -4.7520    -1.0000 H     1 <1>   0.1500 
 42 H       -6.7560    -1.6940     0.7020 H     1 <1>   0.1500 
 43 H       -5.4130    -6.3240     0.5120 H     1 <1>   0.1500 
 44 H       -7.7320    -3.3890     2.1470 H     1 <1>   0.1500 
@<TRIPOS>BOND
  1   1   2  2   
  2   2   3  am  
  3   2   4  1   
  4   3   5  1   
  5   3  24  1   
  6   4   6  1   
  7   4  25  1   
  8   4  26  1   
  9   5   7  1   
 10   5   8  1   
 11   5  27  1   
 12   6   9  1   
 13   6  10  1   
 14   7  11  1   
 15   7  12  1   
 16   7  28  1   
 17   8  13  1   
 18   8  29  1   
 19   8  30  1   
 20   9  14  2   
 21  10  15  1   
 22  10  16  2   
 23  11  13  1   
 24  11  31  1   
 25  11  32  1   
 26  12  17  1   
 27  12  33  1   
 28  12  34  1   
 29  14  16  1   
 30  14  18  1   
 31  15  35  1   
 32  15  36  1   
 33  16  37  1   
 34  17  19  ar  
 35  17  20  ar  
 36  18  38  1   
 37  18  39  1   
 38  18  40  1   
 39  19  21  ar  
 40  19  41  1   
 41  20  22  ar  
 42  20  42  1   
 43  21  23  ar  
 44  21  43  1   
 45  22  23  ar  
 46  22  44  1   
@<TRIPOS>SUBSTRUCTURE
  1 ****   3 GROUP 4 **** **** 0

# MOE 2024.06 (io_trps.svl 2023.06)
