@<TRIPOS>MOLECULE
NONAME
62 65 1 0 0 
SMALL
USER_CHARGES


@<TRIPOS>ATOM
  1 F       -0.9130    -0.4890     0.5960 F     1 <1>  -0.1900 
  2 C       -2.1120     0.0240     0.4760 C.ar  1 <1>   0.1900 
  3 C       -2.3330     1.4050     0.4760 C.ar  1 <1>   0.0830 
  4 C       -3.1540    -0.8740     0.3530 C.ar  1 <1>  -0.1500 
  5 O       -1.3930     2.3870     0.5900 O.3   1 <1>  -0.3630 
  6 C       -3.6390     1.8460     0.3460 C.ar  1 <1>  -0.1500 
  7 C       -4.4460    -0.3990     0.2270 C.ar  1 <1>  -0.1500 
  8 C       -0.0110     2.1220     0.6940 C.3   1 <1>   0.0400 
  9 C       -4.7220     0.9710     0.2180 C.ar  1 <1>   0.0530 
 10 C       -6.0680     1.4810     0.0890 C.2   1 <1>   0.0870 
 11 O       -6.3520     2.7010     0.4720 O.3   1 <1>  -0.0190 
 12 C       -7.2280     0.9420    -0.3730 C.2   1 <1>  -0.0860 
 13 N       -7.6080     3.0160     0.2970 N.2   1 <1>  -0.4100 
 14 C       -8.1570     1.9750    -0.2230 C.2   1 <1>   0.3720 
 15 C       -7.5080    -0.3530    -0.8970 C.2   1 <1>   0.7160 
 16 N       -9.5090     1.9020    -0.5970 N.pl3 1 <1>  -0.8210 
 17 O       -7.0600    -0.6850    -1.9800 O.2   1 <1>  -0.5700 
 18 N       -8.2420    -1.2700    -0.1840 N.am  1 <1>  -0.6600 
 19 C      -10.4100     2.8770     0.0810 C.3   1 <1>   0.1290 
 20 C       -9.7180     1.8940    -2.0710 C.3   1 <1>   0.1290 
 21 C       -8.6500    -2.5840    -0.7240 C.3   1 <1>   0.1400 
 22 C       -8.9280    -0.9940     1.0930 C.3   1 <1>   0.1400 
 23 C       -9.8630    -3.0100     0.1140 C.3   1 <1>   0.1900 
 24 C       -9.6230    -2.3040     1.4500 C.3   1 <1>  -0.1600 
 25 N       -9.9820    -4.4830     0.2710 N.3   1 <1>  -0.8100 
 26 C      -10.0940    -5.1710    -1.0370 C.3   1 <1>   0.1100 
 27 C      -11.1100    -4.8620     1.1560 C.3   1 <1>   0.1100 
 28 C      -10.1770    -6.7030    -0.8740 C.3   1 <1>   0.3430 
 29 C      -11.2040    -6.3900     1.3420 C.3   1 <1>   0.3430 
 30 N      -11.3100    -7.1080     0.0260 N.4   1 <1>  -0.9590 
 31 C      -11.3460    -8.5880     0.2180 C.3   1 <1>   0.2630 
 32 H       -2.9530    -1.9300     0.3560 H     1 <1>   0.1500 
 33 H       -3.8140     2.9070     0.3430 H     1 <1>   0.1500 
 34 H       -5.2450    -1.1120     0.1360 H     1 <1>   0.1500 
 35 H        0.5060     3.0630     0.7510 H     1 <1>   0.0800 
 36 H        0.3090     1.5840    -0.1810 H     1 <1>   0.0800 
 37 H        0.1700     1.5520     1.5870 H     1 <1>   0.0800 
 38 H      -10.2320     2.8600     1.1430 H     1 <1>   0.0800 
 39 H      -11.4370     2.6170    -0.1010 H     1 <1>   0.0800 
 40 H      -10.2220     3.8720    -0.2850 H     1 <1>   0.0800 
 41 H       -9.0980     1.1470    -2.5350 H     1 <1>   0.0800 
 42 H       -9.4650     2.8560    -2.4830 H     1 <1>   0.0800 
 43 H      -10.7460     1.6710    -2.2950 H     1 <1>   0.0800 
 44 H       -7.8360    -3.2750    -0.5900 H     1 <1>   0.0800 
 45 H       -8.9000    -2.5010    -1.7670 H     1 <1>   0.0800 
 46 H       -9.6560    -0.2140     0.9470 H     1 <1>   0.0800 
 47 H       -8.2250    -0.6960     1.8530 H     1 <1>   0.0800 
 48 H      -10.7510    -2.6110    -0.3470 H     1 <1>   0.0800 
 49 H      -10.5360    -2.1120     1.9840 H     1 <1>   0.0800 
 50 H       -8.9580    -2.8870     2.0620 H     1 <1>   0.0800 
 51 H       -9.2290    -4.9530    -1.6380 H     1 <1>   0.0800 
 52 H      -10.9610    -4.8160    -1.5680 H     1 <1>   0.0800 
 53 H      -12.0360    -4.4860     0.7550 H     1 <1>   0.0800 
 54 H      -10.9700    -4.4240     2.1290 H     1 <1>   0.0800 
 55 H       -9.2440    -7.0480    -0.4610 H     1 <1>   0.0800 
 56 H      -10.2980    -7.1550    -1.8450 H     1 <1>   0.0800 
 57 H      -12.0600    -6.6190     1.9560 H     1 <1>   0.0800 
 58 H      -10.3220    -6.7200     1.8650 H     1 <1>   0.0800 
 59 H      -12.1850    -6.8030    -0.4230 H     1 <1>   0.4500 
 60 H      -10.4360    -8.9260     0.6880 H     1 <1>   0.0800 
 61 H      -11.4490    -9.0870    -0.7320 H     1 <1>   0.0800 
 62 H      -12.1800    -8.8650     0.8430 H     1 <1>   0.0800 
@<TRIPOS>BOND
  1   1   2  1   
  2   2   3  ar  
  3   2   4  ar  
  4   3   5  1   
  5   3   6  ar  
  6   4   7  ar  
  7   4  32  1   
  8   5   8  1   
  9   6   9  ar  
 10   6  33  1   
 11   7   9  ar  
 12   7  34  1   
 13   8  35  1   
 14   8  36  1   
 15   8  37  1   
 16   9  10  1   
 17  10  11  1   
 18  10  12  2   
 19  11  13  1   
 20  12  14  1   
 21  12  15  1   
 22  13  14  2   
 23  14  16  1   
 24  15  17  2   
 25  15  18  am  
 26  16  19  1   
 27  16  20  1   
 28  18  21  1   
 29  18  22  1   
 30  19  38  1   
 31  19  39  1   
 32  19  40  1   
 33  20  41  1   
 34  20  42  1   
 35  20  43  1   
 36  21  23  1   
 37  21  44  1   
 38  21  45  1   
 39  22  24  1   
 40  22  46  1   
 41  22  47  1   
 42  23  24  1   
 43  23  25  1   
 44  23  48  1   
 45  24  49  1   
 46  24  50  1   
 47  25  26  1   
 48  25  27  1   
 49  26  28  1   
 50  26  51  1   
 51  26  52  1   
 52  27  29  1   
 53  27  53  1   
 54  27  54  1   
 55  28  30  1   
 56  28  55  1   
 57  28  56  1   
 58  29  30  1   
 59  29  57  1   
 60  29  58  1   
 61  30  31  1   
 62  30  59  1   
 63  31  60  1   
 64  31  61  1   
 65  31  62  1   
@<TRIPOS>SUBSTRUCTURE
  1 ****  18 GROUP 4 **** **** 0

# MOE 2024.06 (io_trps.svl 2023.06)
