@<TRIPOS>MOLECULE
NONAME
48 50 1 0 0 
SMALL
USER_CHARGES


@<TRIPOS>ATOM
  1 O        0.1600     1.0210    -0.3920 O.2   1 <1>  -0.5700 
  2 C       -0.0550     2.1970    -0.5710 C.2   1 <1>   0.5690 
  3 N       -0.6720     2.9810     0.3670 N.am  1 <1>  -0.6600 
  4 C        0.3630     2.8110    -1.9090 C.3   1 <1>   0.1810 
  5 C       -0.9690     4.4260     0.0950 C.3   1 <1>   0.3640 
  6 C       -0.9920     2.4870     1.7380 C.3   1 <1>   0.0600 
  7 O        0.5190     4.2070    -1.8400 O.3   1 <1>  -0.5600 
  8 C       -2.4210     4.7790     0.4560 C.ar  1 <1>  -0.1430 
  9 C       -0.6200     4.8870    -1.3430 C.3   1 <1>   0.2610 
 10 C       -3.5460     4.0780     0.0070 C.ar  1 <1>  -0.1430 
 11 C       -2.6050     5.8790     1.2850 C.ar  1 <1>  -0.1500 
 12 C       -0.3790     6.3980    -1.3430 C.2   1 <1>   0.5690 
 13 C       -4.8090     4.4920     0.4040 C.ar  1 <1>  -0.1500 
 14 C       -3.4760     2.8530    -0.9010 C.3   1 <1>  -0.0960 
 15 C       -3.8680     6.2830     1.6710 C.ar  1 <1>  -0.1500 
 16 O       -1.2900     7.1520    -1.5860 O.2   1 <1>  -0.5700 
 17 N        0.8590     6.8770    -1.0580 N.am  1 <1>  -0.7300 
 18 C       -4.9740     5.5870     1.2300 C.ar  1 <1>  -0.1500 
 19 C        1.2040     8.2990    -1.0100 C.3   1 <1>   0.2010 
 20 C        2.6150     8.5780    -0.4580 C.2   1 <1>   0.5690 
 21 O        3.3690     7.6440    -0.1910 O.2   1 <1>  -0.5700 
 22 N        2.9860     9.8760    -0.2760 N.am  1 <1>  -0.5790 
 23 C        4.2870    10.3220     0.2430 C.3   1 <1>   0.0490 
 24 C        4.3190    11.5480     1.0930 C.3   1 <1>  -0.2000 
 25 C        4.8630    11.5850    -0.3030 C.3   1 <1>  -0.2000 
 26 H       -0.3730     2.5830    -2.6580 H     1 <1>   0.0800 
 27 H        1.3060     2.3920    -2.2100 H     1 <1>   0.0800 
 28 H       -0.3260     4.9840     0.7540 H     1 <1>   0.0800 
 29 H       -0.5220     3.1170     2.4720 H     1 <1>   0.0800 
 30 H       -0.6360     1.4800     1.8720 H     1 <1>   0.0800 
 31 H       -2.0560     2.4980     1.8950 H     1 <1>   0.0800 
 32 H       -1.4390     4.6890    -2.0080 H     1 <1>   0.0800 
 33 H       -1.7600     6.4440     1.6390 H     1 <1>   0.1500 
 34 H       -5.6840     3.9620     0.0700 H     1 <1>   0.1500 
 35 H       -4.4410     2.6290    -1.3170 H     1 <1>   0.0800 
 36 H       -3.1510     1.9970    -0.3380 H     1 <1>   0.0800 
 37 H       -2.8010     3.0090    -1.7180 H     1 <1>   0.0800 
 38 H       -3.9910     7.1390     2.3110 H     1 <1>   0.1500 
 39 H        1.6240     6.2200    -0.9450 H     1 <1>   0.3700 
 40 H       -5.9610     5.8970     1.5260 H     1 <1>   0.1500 
 41 H        1.1410     8.7170    -2.0150 H     1 <1>   0.0800 
 42 H        0.4820     8.8220    -0.3830 H     1 <1>   0.0800 
 43 H        2.3430    10.6330    -0.5070 H     1 <1>   0.3700 
 44 H        4.9560     9.5090     0.4820 H     1 <1>   0.1000 
 45 H        3.3980    12.0600     1.3100 H     1 <1>   0.1000 
 46 H        5.0170    11.5890     1.9110 H     1 <1>   0.1000 
 47 H        5.9300    11.6500    -0.4310 H     1 <1>   0.1000 
 48 H        4.3230    12.1210    -1.0630 H     1 <1>   0.1000 
@<TRIPOS>BOND
  1   1   2  2   
  2   2   3  am  
  3   2   4  1   
  4   3   5  1   
  5   3   6  1   
  6   4   7  1   
  7   4  26  1   
  8   4  27  1   
  9   5   8  1   
 10   5   9  1   
 11   5  28  1   
 12   6  29  1   
 13   6  30  1   
 14   6  31  1   
 15   7   9  1   
 16   8  10  ar  
 17   8  11  ar  
 18   9  12  1   
 19   9  32  1   
 20  10  13  ar  
 21  10  14  1   
 22  11  15  ar  
 23  11  33  1   
 24  12  16  2   
 25  12  17  am  
 26  13  18  ar  
 27  13  34  1   
 28  14  35  1   
 29  14  36  1   
 30  14  37  1   
 31  15  18  ar  
 32  15  38  1   
 33  17  19  1   
 34  17  39  1   
 35  18  40  1   
 36  19  20  1   
 37  19  41  1   
 38  19  42  1   
 39  20  21  2   
 40  20  22  am  
 41  22  23  1   
 42  22  43  1   
 43  23  24  1   
 44  23  25  1   
 45  23  44  1   
 46  24  25  1   
 47  24  45  1   
 48  24  46  1   
 49  25  47  1   
 50  25  48  1   
@<TRIPOS>SUBSTRUCTURE
  1 ****  12 GROUP 4 **** **** 0

# MOE 2024.06 (io_trps.svl 2023.06)
