@<TRIPOS>MOLECULE
NONAME
54 56 1 0 0 
SMALL
USER_CHARGES


@<TRIPOS>ATOM
  1 O        0.5550     1.8050     1.1690 O.co2 1 <1>  -0.9000 
  2 C       -0.3990     1.9900     0.4000 C.2   1 <1>   0.9060 
  3 O       -0.3660     1.5770    -0.7720 O.co2 1 <1>  -0.9000 
  4 C       -1.7070     2.5940     0.9970 C.3   1 <1>   0.2280 
  5 N       -2.9400     1.7280     0.8940 N.3   1 <1>  -0.8100 
  6 C       -2.0440     3.9730     0.4230 C.ar  1 <1>  -0.1440 
  7 C       -2.6250     0.3030     1.1580 C.3   1 <1>   0.1100 
  8 C       -4.0650     2.1880     1.7300 C.3   1 <1>   0.1100 
  9 C       -2.1550     5.0770     1.2580 C.ar  1 <1>  -0.1500 
 10 C       -2.2620     4.1310    -0.9380 C.ar  1 <1>  -0.1500 
 11 C       -3.8780    -0.5890     1.0350 C.3   1 <1>   0.3430 
 12 C       -5.3310     1.3390     1.4600 C.3   1 <1>   0.3430 
 13 C       -2.4940     6.3210     0.7500 C.ar  1 <1>   0.0830 
 14 C       -2.5810     5.3720    -1.4610 C.ar  1 <1>  -0.1500 
 15 N       -5.0340     0.2130     0.5050 N.4   1 <1>  -0.9590 
 16 O       -2.6270     7.3360     1.6430 O.3   1 <1>  -0.3620 
 17 C       -2.6840     6.4730    -0.6280 C.ar  1 <1>   0.0830 
 18 C       -6.2000    -0.5650     0.0030 C.3   1 <1>   0.4230 
 19 C       -3.8600     8.0230     1.6650 C.3   1 <1>   0.0400 
 20 O       -2.9490     7.6710    -1.2030 O.3   1 <1>  -0.3630 
 21 C       -5.7440    -1.5570    -1.0750 C.3   1 <1>  -0.1600 
 22 C       -7.2650     0.3840    -0.5640 C.3   1 <1>  -0.1600 
 23 C       -1.8620     8.5680    -1.2480 C.3   1 <1>   0.0400 
 24 C       -6.9440    -2.2040    -1.7670 C.3   1 <1>   0.1200 
 25 C       -8.3620    -0.3980    -1.2870 C.3   1 <1>   0.1200 
 26 O       -7.7680    -1.1980    -2.2530 O.3   1 <1>  -0.5600 
 27 H       -1.4860     2.7190     2.0400 H     1 <1>   0.0800 
 28 H       -2.1830     0.1910     2.1330 H     1 <1>   0.0800 
 29 H       -1.9050    -0.0460     0.4360 H     1 <1>   0.0800 
 30 H       -4.2890     3.2170     1.5070 H     1 <1>   0.0800 
 31 H       -3.7960     2.1280     2.7710 H     1 <1>   0.0800 
 32 H       -1.9820     4.9790     2.3130 H     1 <1>   0.1500 
 33 H       -2.1680     3.2760    -1.5880 H     1 <1>   0.1500 
 34 H       -4.1220    -1.0020     1.9980 H     1 <1>   0.0800 
 35 H       -3.6400    -1.4030     0.3720 H     1 <1>   0.0800 
 36 H       -6.0800     1.9890     1.0400 H     1 <1>   0.0800 
 37 H       -5.7090     0.9520     2.3900 H     1 <1>   0.0800 
 38 H       -2.7370     5.4880    -2.5170 H     1 <1>   0.1500 
 39 H       -4.5910     0.7130    -0.2890 H     1 <1>   0.4500 
 40 H       -6.6370    -1.1210     0.8160 H     1 <1>   0.0800 
 41 H       -3.9150     8.5810     2.5810 H     1 <1>   0.0800 
 42 H       -4.6610     7.3070     1.6190 H     1 <1>   0.0800 
 43 H       -3.9080     8.6940     0.8270 H     1 <1>   0.0800 
 44 H       -5.1520    -2.3430    -0.6450 H     1 <1>   0.0800 
 45 H       -5.1580    -1.0530    -1.8240 H     1 <1>   0.0800 
 46 H       -6.8210     1.0660    -1.2680 H     1 <1>   0.0800 
 47 H       -7.7280     0.9490     0.2230 H     1 <1>   0.0800 
 48 H       -2.1800     9.4590    -1.7580 H     1 <1>   0.0800 
 49 H       -1.0530     8.1030    -1.7820 H     1 <1>   0.0800 
 50 H       -1.5570     8.8040    -0.2440 H     1 <1>   0.0800 
 51 H       -7.5130    -2.8250    -1.0950 H     1 <1>   0.0800 
 52 H       -6.6250    -2.7990    -2.6060 H     1 <1>   0.0800 
 53 H       -9.0390     0.2730    -1.7890 H     1 <1>   0.0800 
 54 H       -8.9260    -1.0230    -0.6150 H     1 <1>   0.0800 
@<TRIPOS>BOND
  1   1   2  ar  
  2   2   3  ar  
  3   2   4  1   
  4   4   5  1   
  5   4   6  1   
  6   4  27  1   
  7   5   7  1   
  8   5   8  1   
  9   6   9  ar  
 10   6  10  ar  
 11   7  11  1   
 12   7  28  1   
 13   7  29  1   
 14   8  12  1   
 15   8  30  1   
 16   8  31  1   
 17   9  13  ar  
 18   9  32  1   
 19  10  14  ar  
 20  10  33  1   
 21  11  15  1   
 22  11  34  1   
 23  11  35  1   
 24  12  15  1   
 25  12  36  1   
 26  12  37  1   
 27  13  16  1   
 28  13  17  ar  
 29  14  17  ar  
 30  14  38  1   
 31  15  18  1   
 32  15  39  1   
 33  16  19  1   
 34  17  20  1   
 35  18  21  1   
 36  18  22  1   
 37  18  40  1   
 38  19  41  1   
 39  19  42  1   
 40  19  43  1   
 41  20  23  1   
 42  21  24  1   
 43  21  44  1   
 44  21  45  1   
 45  22  25  1   
 46  22  46  1   
 47  22  47  1   
 48  23  48  1   
 49  23  49  1   
 50  23  50  1   
 51  24  26  1   
 52  24  51  1   
 53  24  52  1   
 54  25  26  1   
 55  25  53  1   
 56  25  54  1   
@<TRIPOS>SUBSTRUCTURE
  1 ****   5 GROUP 4 **** **** 0

# MOE 2024.06 (io_trps.svl 2023.06)
