@<TRIPOS>MOLECULE
NONAME
40 41 1 0 0 
SMALL
USER_CHARGES


@<TRIPOS>ATOM
  1 N       -0.1730     0.4230     1.0590 N.ar  1 <1>  -0.6200 
  2 C       -1.2050     0.8080     0.3360 C.ar  1 <1>   0.4100 
  3 C        0.8180     1.2830     1.1490 C.ar  1 <1>   0.4760 
  4 N       -2.2430    -0.0870     0.2270 N.pl3 1 <1>  -0.8380 
  5 C       -1.2370     2.0480    -0.2920 C.ar  1 <1>  -0.1440 
  6 N        0.9070     2.4810     0.6040 N.ar  1 <1>  -0.6200 
  7 C        2.0050     0.8530     1.9750 C.3   1 <1>  -0.0970 
  8 C       -2.9570    -0.4590     1.4720 C.3   1 <1>   0.2090 
  9 C       -2.0700    -1.1540    -0.7860 C.3   1 <1>   0.2090 
 10 C       -0.1360     2.8480    -0.1150 C.ar  1 <1>   0.1600 
 11 C       -2.4610     2.4510    -1.1190 C.3   1 <1>  -0.0160 
 12 C       -4.4400    -0.1100     1.3290 C.3   1 <1>  -0.1600 
 13 C       -3.3320    -1.9990    -1.0100 C.3   1 <1>  -0.1600 
 14 C       -2.3680     3.8190    -1.8050 C.3   1 <1>  -0.2400 
 15 C       -5.2470    -1.0560     0.4180 C.3   1 <1>  -0.0800 
 16 C       -4.6580    -1.2150    -0.9970 C.3   1 <1>  -0.1600 
 17 C       -6.6910    -0.5470     0.3200 C.3   1 <1>  -0.2400 
 18 H        1.8500    -0.1320     2.3750 H     1 <1>   0.0800 
 19 H        2.1440     1.5430     2.7860 H     1 <1>   0.0800 
 20 H        2.8840     0.8480     1.3600 H     1 <1>   0.0800 
 21 H       -2.5450     0.1010     2.2960 H     1 <1>   0.0800 
 22 H       -2.8230    -1.5050     1.6880 H     1 <1>   0.0800 
 23 H       -1.2540    -1.7920    -0.4900 H     1 <1>   0.0800 
 24 H       -1.7960    -0.6870    -1.7170 H     1 <1>   0.0800 
 25 H       -0.0840     3.8220    -0.5670 H     1 <1>   0.1500 
 26 H       -3.3220     2.4460    -0.4740 H     1 <1>   0.0800 
 27 H       -2.6250     1.7000    -1.8730 H     1 <1>   0.0800 
 28 H       -4.5190     0.9020     0.9750 H     1 <1>   0.0800 
 29 H       -4.8760    -0.1380     2.3110 H     1 <1>   0.0800 
 30 H       -3.3640    -2.7890    -0.2820 H     1 <1>   0.0800 
 31 H       -3.2260    -2.4760    -1.9680 H     1 <1>   0.0800 
 32 H       -2.2600     4.6000    -1.0730 H     1 <1>   0.0800 
 33 H       -3.2660     4.0050    -2.3660 H     1 <1>   0.0800 
 34 H       -1.5330     3.8450    -2.4820 H     1 <1>   0.0800 
 35 H       -5.2770    -2.0270     0.8830 H     1 <1>   0.0800 
 36 H       -5.3650    -1.7630    -1.5960 H     1 <1>   0.0800 
 37 H       -4.5240    -0.2510    -1.4570 H     1 <1>   0.0800 
 38 H       -6.7190     0.4180    -0.1550 H     1 <1>   0.0800 
 39 H       -7.1260    -0.4590     1.3000 H     1 <1>   0.0800 
 40 H       -7.2920    -1.2300    -0.2530 H     1 <1>   0.0800 
@<TRIPOS>BOND
  1   1   2  ar  
  2   1   3  ar  
  3   2   4  1   
  4   2   5  ar  
  5   3   6  ar  
  6   3   7  1   
  7   4   8  1   
  8   4   9  1   
  9   5  10  ar  
 10   5  11  1   
 11   6  10  ar  
 12   7  18  1   
 13   7  19  1   
 14   7  20  1   
 15   8  12  1   
 16   8  21  1   
 17   8  22  1   
 18   9  13  1   
 19   9  23  1   
 20   9  24  1   
 21  10  25  1   
 22  11  14  1   
 23  11  26  1   
 24  11  27  1   
 25  12  15  1   
 26  12  28  1   
 27  12  29  1   
 28  13  16  1   
 29  13  30  1   
 30  13  31  1   
 31  14  32  1   
 32  14  33  1   
 33  14  34  1   
 34  15  16  1   
 35  15  17  1   
 36  15  35  1   
 37  16  36  1   
 38  16  37  1   
 39  17  38  1   
 40  17  39  1   
 41  17  40  1   
@<TRIPOS>SUBSTRUCTURE
  1 ****   4 GROUP 4 **** **** 0

# MOE 2024.06 (io_trps.svl 2023.06)
