@<TRIPOS>MOLECULE
NONAME
52 55 1 0 0 
SMALL
USER_CHARGES


@<TRIPOS>ATOM
  1 O        1.0160     0.2650    -1.6860 O.2   1 <1>  -0.5700 
  2 C        1.5040    -0.3950    -0.8020 C.2   1 <1>   0.5690 
  3 N        2.1380     0.2050     0.2590 N.am  1 <1>  -0.6600 
  4 C        1.4310    -1.9050    -0.9240 C.3   1 <1>  -0.0990 
  5 C        3.2670    -0.4190     1.0040 C.3   1 <1>   0.1400 
  6 C        1.8850     1.6390     0.5690 C.3   1 <1>   0.1400 
  7 C        0.4630    -2.5020     0.1080 C.3   1 <1>   0.0630 
  8 C        4.5570    -0.3710     0.1590 C.3   1 <1>   0.3430 
  9 C        3.1050     2.5140     0.2590 C.3   1 <1>  -0.1600 
 10 C        0.3730    -4.0100     0.0210 C.ar  1 <1>  -0.1440 
 11 C       -0.9960    -2.0460    -0.1060 C.3   1 <1>  -0.1600 
 12 N        5.0270     1.0140    -0.1850 N.4   1 <1>  -0.9590 
 13 C        4.0310     1.9350    -0.8130 C.3   1 <1>   0.3430 
 14 C       -0.9350    -4.4270     0.0670 C.ar  1 <1>  -0.1440 
 15 C        1.3980    -4.9350    -0.0810 C.ar  1 <1>  -0.1500 
 16 C       -1.8860    -3.2630     0.1930 C.3   1 <1>  -0.0170 
 17 C        6.3000     1.0110    -0.9500 C.3   1 <1>   0.5230 
 18 C       -1.2570    -5.7700     0.0040 C.ar  1 <1>  -0.1500 
 19 C        1.0860    -6.2840    -0.1450 C.ar  1 <1>  -0.1500 
 20 C        7.1820     2.0890    -0.3320 C.2   1 <1>   0.0060 
 21 C       -0.2360    -6.7000    -0.1030 C.ar  1 <1>  -0.1500 
 22 N        6.9200     2.6460     0.8130 N.2   1 <1>  -0.5650 
 23 N        8.3140     2.5580    -0.9110 N.pl3 1 <1>   0.0330 
 24 C        7.9300     3.5200     0.9880 C.2   1 <1>   0.0770 
 25 C        8.7870     3.4790    -0.0550 C.2   1 <1>  -0.3020 
 26 H        2.4070    -2.3290    -0.8080 H     1 <1>   0.0800 
 27 H        1.0900    -2.1600    -1.9110 H     1 <1>   0.0800 
 28 H        3.0290    -1.4420     1.2350 H     1 <1>   0.0800 
 29 H        3.4210     0.0910     1.9390 H     1 <1>   0.0800 
 30 H        1.6110     1.7400     1.6050 H     1 <1>   0.0800 
 31 H        1.0460     1.9880    -0.0120 H     1 <1>   0.0800 
 32 H        0.7690    -2.2470     1.1080 H     1 <1>   0.0800 
 33 H        4.3820    -0.9230    -0.7500 H     1 <1>   0.0800 
 34 H        5.3350    -0.8790     0.7050 H     1 <1>   0.0800 
 35 H        3.6550     2.7200     1.1590 H     1 <1>   0.0800 
 36 H        2.7330     3.4600    -0.0930 H     1 <1>   0.0800 
 37 H       -1.1440    -1.7680    -1.1360 H     1 <1>   0.0800 
 38 H       -1.2480    -1.2060     0.5170 H     1 <1>   0.0800 
 39 H        5.3290     1.4960     0.6860 H     1 <1>   0.4500 
 40 H        4.5540     2.7570    -1.2740 H     1 <1>   0.0800 
 41 H        3.4560     1.4280    -1.5720 H     1 <1>   0.0800 
 42 H        2.4250    -4.6240    -0.1100 H     1 <1>   0.1500 
 43 H       -2.6990    -3.3390    -0.5070 H     1 <1>   0.0800 
 44 H       -2.2680    -3.2190     1.1970 H     1 <1>   0.0800 
 45 H        6.1180     1.2140    -1.9920 H     1 <1>   0.0800 
 46 H        6.7950     0.0590    -0.8540 H     1 <1>   0.0800 
 47 H       -2.2840    -6.0870     0.0400 H     1 <1>   0.1500 
 48 H        1.8730    -7.0140    -0.2270 H     1 <1>   0.1500 
 49 H       -0.4710    -7.7490    -0.1540 H     1 <1>   0.1500 
 50 H        8.7450     2.2890    -1.8040 H     1 <1>   0.2700 
 51 H        7.9930     4.1450     1.8660 H     1 <1>   0.1500 
 52 H        9.6870     4.0450    -0.2230 H     1 <1>   0.1500 
@<TRIPOS>BOND
  1   1   2  2   
  2   2   3  am  
  3   2   4  1   
  4   3   5  1   
  5   3   6  1   
  6   4   7  1   
  7   4  26  1   
  8   4  27  1   
  9   5   8  1   
 10   5  28  1   
 11   5  29  1   
 12   6   9  1   
 13   6  30  1   
 14   6  31  1   
 15   7  10  1   
 16   7  11  1   
 17   7  32  1   
 18   8  12  1   
 19   8  33  1   
 20   8  34  1   
 21   9  13  1   
 22   9  35  1   
 23   9  36  1   
 24  10  14  ar  
 25  10  15  ar  
 26  11  16  1   
 27  11  37  1   
 28  11  38  1   
 29  12  13  1   
 30  12  17  1   
 31  12  39  1   
 32  13  40  1   
 33  13  41  1   
 34  14  16  1   
 35  14  18  ar  
 36  15  19  ar  
 37  15  42  1   
 38  16  43  1   
 39  16  44  1   
 40  17  20  1   
 41  17  45  1   
 42  17  46  1   
 43  18  21  ar  
 44  18  47  1   
 45  19  21  ar  
 46  19  48  1   
 47  20  22  2   
 48  20  23  1   
 49  21  49  1   
 50  22  24  1   
 51  23  25  1   
 52  23  50  1   
 53  24  25  2   
 54  24  51  1   
 55  25  52  1   
@<TRIPOS>SUBSTRUCTURE
  1 ****   5 GROUP 4 **** **** 0

# MOE 2024.06 (io_trps.svl 2023.06)
