@<TRIPOS>MOLECULE
NONAME
53 55 1 0 0 
SMALL
USER_CHARGES


@<TRIPOS>ATOM
  1 S       -0.1420    -0.5280     0.3220 S.o2  1 <1>   1.2040 
  2 O        0.2860     0.1350    -0.8900 O.2   1 <1>  -0.6500 
  3 O        0.4910    -0.2130     1.5820 O.2   1 <1>  -0.6500 
  4 C       -0.1180    -2.3170     0.0630 C.ar  1 <1>  -0.0090 
  5 C       -1.8850    -0.2040     0.5080 C.3   1 <1>  -0.1350 
  6 C       -0.4810    -3.1820     1.0850 C.ar  1 <1>  -0.1500 
  7 C        0.2270    -2.8720    -1.1650 C.ar  1 <1>  -0.1500 
  8 C       -0.5360    -4.5480     0.8820 C.ar  1 <1>  -0.1500 
  9 C        0.1810    -4.2390    -1.3770 C.ar  1 <1>  -0.1500 
 10 C       -0.2200    -5.0850    -0.3560 C.ar  1 <1>  -0.1430 
 11 C       -0.3680    -6.5790    -0.5760 C.3   1 <1>   0.4860 
 12 N       -1.8100    -6.8730    -0.5380 N.4   1 <1>  -0.9590 
 13 C       -2.1860    -8.3040    -0.2500 C.3   1 <1>   0.3430 
 14 C       -2.6170    -6.2740    -1.6280 C.3   1 <1>   0.3430 
 15 C       -3.7100    -8.5590    -0.4140 C.3   1 <1>   0.2000 
 16 C       -4.0880    -6.1890    -1.1880 C.3   1 <1>  -0.1600 
 17 O       -3.9490    -8.9890    -1.7220 O.3   1 <1>  -0.6800 
 18 C       -4.5070    -7.2640    -0.1300 C.3   1 <1>  -0.1060 
 19 C       -4.0740    -6.8820     1.2930 C.2   1 <1>   0.9060 
 20 C       -6.0390    -7.4980    -0.1570 C.3   1 <1>  -0.0170 
 21 O       -3.3240    -5.9110     1.4650 O.co2 1 <1>  -0.9000 
 22 O       -4.2740    -7.6930     2.1950 O.co2 1 <1>  -0.9000 
 23 C       -6.8370    -6.2080     0.0010 C.ar  1 <1>  -0.1430 
 24 C       -7.4050    -5.5870    -1.1030 C.ar  1 <1>  -0.1500 
 25 C       -7.0050    -5.6410     1.2550 C.ar  1 <1>  -0.1500 
 26 C       -8.1230    -4.4130    -0.9560 C.ar  1 <1>  -0.1500 
 27 C       -7.7220    -4.4670     1.4040 C.ar  1 <1>  -0.1500 
 28 C       -8.2810    -3.8510     0.2980 C.ar  1 <1>  -0.1500 
 29 H       -2.4180    -0.5070    -0.3720 H     1 <1>   0.0800 
 30 H       -2.0480     0.8440     0.6630 H     1 <1>   0.0800 
 31 H       -2.2780    -0.7380     1.3520 H     1 <1>   0.0800 
 32 H       -0.7370    -2.7890     2.0560 H     1 <1>   0.1500 
 33 H        0.5310    -2.2200    -1.9690 H     1 <1>   0.1500 
 34 H       -0.8520    -5.1800     1.6990 H     1 <1>   0.1500 
 35 H        0.4480    -4.6290    -2.3450 H     1 <1>   0.1500 
 36 H        0.1370    -7.1070     0.2160 H     1 <1>   0.0800 
 37 H        0.0530    -6.8730    -1.5230 H     1 <1>   0.0800 
 38 H       -2.1620    -6.3450     0.3040 H     1 <1>   0.4500 
 39 H       -1.6490    -8.9790    -0.8930 H     1 <1>   0.0800 
 40 H       -1.9230    -8.5210     0.7730 H     1 <1>   0.0800 
 41 H       -2.2610    -5.2860    -1.8660 H     1 <1>   0.0800 
 42 H       -2.5400    -6.8940    -2.5060 H     1 <1>   0.0800 
 43 H       -4.0110    -9.3530     0.2500 H     1 <1>   0.0800 
 44 H       -4.2830    -5.2060    -0.7940 H     1 <1>   0.0800 
 45 H       -4.6900    -6.2900    -2.0720 H     1 <1>   0.0800 
 46 H       -4.8850    -9.2560    -1.8150 H     1 <1>   0.4000 
 47 H       -6.3250    -7.9630    -1.0810 H     1 <1>   0.0800 
 48 H       -6.3150    -8.1740     0.6350 H     1 <1>   0.0800 
 49 H       -7.2910    -6.0140    -2.0830 H     1 <1>   0.1500 
 50 H       -6.5730    -6.1110     2.1240 H     1 <1>   0.1500 
 51 H       -8.5580    -3.9370    -1.8160 H     1 <1>   0.1500 
 52 H       -7.8410    -4.0370     2.3830 H     1 <1>   0.1500 
 53 H       -8.8390    -2.9380     0.4160 H     1 <1>   0.1500 
@<TRIPOS>BOND
  1   1   2  2   
  2   1   3  2   
  3   1   4  1   
  4   1   5  1   
  5   4   6  ar  
  6   4   7  ar  
  7   5  29  1   
  8   5  30  1   
  9   5  31  1   
 10   6   8  ar  
 11   6  32  1   
 12   7   9  ar  
 13   7  33  1   
 14   8  10  ar  
 15   8  34  1   
 16   9  10  ar  
 17   9  35  1   
 18  10  11  1   
 19  11  12  1   
 20  11  36  1   
 21  11  37  1   
 22  12  13  1   
 23  12  14  1   
 24  12  38  1   
 25  13  15  1   
 26  13  39  1   
 27  13  40  1   
 28  14  16  1   
 29  14  41  1   
 30  14  42  1   
 31  15  17  1   
 32  15  18  1   
 33  15  43  1   
 34  16  18  1   
 35  16  44  1   
 36  16  45  1   
 37  17  46  1   
 38  18  19  1   
 39  18  20  1   
 40  19  21  ar  
 41  19  22  ar  
 42  20  23  1   
 43  20  47  1   
 44  20  48  1   
 45  23  24  ar  
 46  23  25  ar  
 47  24  26  ar  
 48  24  49  1   
 49  25  27  ar  
 50  25  50  1   
 51  26  28  ar  
 52  26  51  1   
 53  27  28  ar  
 54  27  52  1   
 55  28  53  1   
@<TRIPOS>SUBSTRUCTURE
  1 ****  21 GROUP 4 **** **** 0

# MOE 2024.06 (io_trps.svl 2023.06)
