@<TRIPOS>MOLECULE
NONAME
53 56 1 0 0 
SMALL
USER_CHARGES


@<TRIPOS>ATOM
  1 O        0.4800    -0.2620    -1.7610 O.2   1 <1>  -0.5700 
  2 C        1.2260    -0.7520    -0.9460 C.2   1 <1>   0.5690 
  3 N        2.0360    -0.0300    -0.1250 N.am  1 <1>  -0.4930 
  4 C        1.2760    -2.2650    -0.8320 C.3   1 <1>  -0.0190 
  5 C        2.2970     1.3620    -0.0610 C.2   1 <1>   0.0630 
  6 C        1.4350    -2.9100    -2.2110 C.3   1 <1>   0.1200 
  7 C        0.0050    -2.8090    -0.1710 C.3   1 <1>  -0.0170 
  8 C        3.5580     1.8610     0.2840 C.2   1 <1>   0.3720 
  9 C        1.5320     2.4580    -0.2640 C.2   1 <1>  -0.3320 
 10 O        1.5720    -4.3130    -2.0750 O.3   1 <1>  -0.3630 
 11 C       -0.0350    -4.3250    -0.2830 C.ar  1 <1>  -0.1430 
 12 N        3.6000     3.1560     0.2750 N.2   1 <1>  -0.7070 
 13 N        4.6620     1.0460     0.6040 N.pl3 1 <1>  -0.8210 
 14 N        2.3480     3.5260    -0.0730 N.pl3 1 <1>   0.3140 
 15 C        0.0560     2.5700    -0.6180 C.3   1 <1>  -0.0600 
 16 C        0.7480    -4.9840    -1.2290 C.ar  1 <1>   0.0830 
 17 C       -0.8550    -5.0630     0.5580 C.ar  1 <1>  -0.1500 
 18 C        5.7000     1.1050    -0.4620 C.3   1 <1>   0.2090 
 19 C        5.3040     1.4400     1.8910 C.3   1 <1>   0.2090 
 20 C        1.9960     4.9460    -0.2020 C.3   1 <1>   0.0160 
 21 C        0.7130    -6.3650    -1.3220 C.ar  1 <1>  -0.1500 
 22 C       -0.8930    -6.4520     0.4630 C.ar  1 <1>   0.0830 
 23 C        7.0380     1.1880     0.2560 C.3   1 <1>  -0.1600 
 24 C        6.7080     1.9180     1.5460 C.3   1 <1>  -0.1600 
 25 C       -0.1050    -7.0950    -0.4790 C.ar  1 <1>  -0.1500 
 26 O       -1.6690    -7.2440     1.2490 O.3   1 <1>  -0.3630 
 27 C       -2.5320    -6.6910     2.2160 C.3   1 <1>   0.0400 
 28 H        2.7570    -0.5410     0.3870 H     1 <1>   0.3700 
 29 H        2.1290    -2.5430    -0.2390 H     1 <1>   0.0800 
 30 H        2.3130    -2.5420    -2.7110 H     1 <1>   0.0800 
 31 H        0.5730    -2.7190    -2.8270 H     1 <1>   0.0800 
 32 H       -0.8630    -2.4070    -0.6660 H     1 <1>   0.0800 
 33 H       -0.0250    -2.5090     0.8620 H     1 <1>   0.0800 
 34 H       -0.4520     1.6490    -0.4000 H     1 <1>   0.0800 
 35 H       -0.0550     2.7820    -1.6670 H     1 <1>   0.0800 
 36 H       -0.4140     3.3480    -0.0460 H     1 <1>   0.0800 
 37 H       -1.4560    -4.5450     1.2790 H     1 <1>   0.1500 
 38 H        5.5590     1.9830    -1.0720 H     1 <1>   0.0800 
 39 H        5.6450     0.2310    -1.0870 H     1 <1>   0.0800 
 40 H        5.3560     0.5720     2.5240 H     1 <1>   0.0800 
 41 H        4.7480     2.2090     2.4020 H     1 <1>   0.0800 
 42 H        1.5050     5.1050    -1.1420 H     1 <1>   0.0800 
 43 H        2.8940     5.5360    -0.1600 H     1 <1>   0.0800 
 44 H        1.3470     5.2210     0.6070 H     1 <1>   0.0800 
 45 H        1.3260    -6.8590    -2.0530 H     1 <1>   0.1500 
 46 H        7.7750     1.7050    -0.3330 H     1 <1>   0.0800 
 47 H        7.3850     0.1930     0.4700 H     1 <1>   0.0800 
 48 H        7.4090     1.7110     2.3340 H     1 <1>   0.0800 
 49 H        6.6740     2.9790     1.3690 H     1 <1>   0.0800 
 50 H       -0.1380    -8.1670    -0.5460 H     1 <1>   0.1500 
 51 H       -3.0490    -7.4980     2.7020 H     1 <1>   0.0800 
 52 H       -3.2390    -6.0460     1.7250 H     1 <1>   0.0800 
 53 H       -1.9460    -6.1470     2.9360 H     1 <1>   0.0800 
@<TRIPOS>BOND
  1   1   2  2   
  2   2   3  am  
  3   2   4  1   
  4   3   5  1   
  5   3  28  1   
  6   4   6  1   
  7   4   7  1   
  8   4  29  1   
  9   5   8  1   
 10   5   9  2   
 11   6  10  1   
 12   6  30  1   
 13   6  31  1   
 14   7  11  1   
 15   7  32  1   
 16   7  33  1   
 17   8  12  2   
 18   8  13  1   
 19   9  14  1   
 20   9  15  1   
 21  10  16  1   
 22  11  16  ar  
 23  11  17  ar  
 24  12  14  1   
 25  13  18  1   
 26  13  19  1   
 27  14  20  1   
 28  15  34  1   
 29  15  35  1   
 30  15  36  1   
 31  16  21  ar  
 32  17  22  ar  
 33  17  37  1   
 34  18  23  1   
 35  18  38  1   
 36  18  39  1   
 37  19  24  1   
 38  19  40  1   
 39  19  41  1   
 40  20  42  1   
 41  20  43  1   
 42  20  44  1   
 43  21  25  ar  
 44  21  45  1   
 45  22  25  ar  
 46  22  26  1   
 47  23  24  1   
 48  23  46  1   
 49  23  47  1   
 50  24  48  1   
 51  24  49  1   
 52  25  50  1   
 53  26  27  1   
 54  27  51  1   
 55  27  52  1   
 56  27  53  1   
@<TRIPOS>SUBSTRUCTURE
  1 ****   2 GROUP 4 **** **** 0

# MOE 2024.06 (io_trps.svl 2023.06)
