@<TRIPOS>MOLECULE
NONAME
55 59 1 0 0 
SMALL
USER_CHARGES


@<TRIPOS>ATOM
  1 O       -0.5470    -0.5250    -0.8610 O.2   1 <1>  -0.5700 
  2 C       -1.5690    -0.1670    -0.3300 C.2   1 <1>   0.5690 
  3 N       -2.5520    -0.9650     0.1910 N.am  1 <1>  -0.4770 
  4 C       -1.9010     1.2920    -0.1680 C.3   1 <1>  -0.0990 
  5 C       -2.6280    -2.3690     0.1860 C.ar  1 <1>   0.1170 
  6 C       -3.6300    -0.1400     0.7780 C.3   1 <1>   0.1400 
  7 C       -3.3700     1.2810     0.2660 C.3   1 <1>  -0.1600 
  8 C       -3.2360    -3.0620     1.2310 C.ar  1 <1>  -0.1500 
  9 C       -2.1070    -3.1210    -0.8640 C.ar  1 <1>  -0.1500 
 10 C       -3.3290    -4.4410     1.2170 C.ar  1 <1>  -0.1500 
 11 C       -2.1990    -4.5000    -0.8740 C.ar  1 <1>  -0.1500 
 12 C       -2.8230    -5.1980     0.1590 C.ar  1 <1>   0.0860 
 13 C       -2.9360    -6.6440     0.1300 C.2   1 <1>   0.5440 
 14 O       -2.0090    -7.3190    -0.2790 O.2   1 <1>  -0.5700 
 15 N       -4.0860    -7.2890     0.5310 N.am  1 <1>  -0.6600 
 16 C       -4.1090    -8.7630     0.7880 C.3   1 <1>   0.1400 
 17 C       -5.4490    -6.7370     0.2670 C.3   1 <1>   0.1400 
 18 C       -4.9040    -9.4980    -0.3050 C.3   1 <1>   0.3430 
 19 C       -6.1850    -7.5800    -0.8010 C.3   1 <1>   0.2950 
 20 O       -6.1830    -8.9290    -0.4330 O.3   1 <1>  -0.5600 
 21 C       -5.0320   -10.9820     0.0310 C.ar  1 <1>  -0.1430 
 22 C       -7.6540    -7.1830    -1.0320 C.3   1 <1>  -0.1950 
 23 C       -4.0510   -11.8640    -0.4000 C.ar  1 <1>  -0.1500 
 24 C       -6.0990   -11.4720     0.7710 C.ar  1 <1>  -0.1500 
 25 C       -8.1690    -5.7820    -0.8910 C.3   1 <1>  -0.2000 
 26 C       -8.6140    -6.8510     0.0690 C.3   1 <1>  -0.2000 
 27 C       -4.1350   -13.2120    -0.0960 C.ar  1 <1>  -0.1500 
 28 C       -6.1850   -12.8190     1.0760 C.ar  1 <1>  -0.1500 
 29 C       -5.2020   -13.6910     0.6420 C.ar  1 <1>  -0.1500 
 30 H       -1.2710     1.7080     0.5970 H     1 <1>   0.0800 
 31 H       -1.7570     1.8220    -1.0920 H     1 <1>   0.0800 
 32 H       -4.5960    -0.5000     0.4660 H     1 <1>   0.0800 
 33 H       -3.5540    -0.1720     1.8510 H     1 <1>   0.0800 
 34 H       -4.0010     1.4640    -0.5870 H     1 <1>   0.0800 
 35 H       -3.5790     2.0210     1.0180 H     1 <1>   0.0800 
 36 H       -3.6310    -2.5210     2.0700 H     1 <1>   0.1500 
 37 H       -1.6210    -2.6210    -1.6820 H     1 <1>   0.1500 
 38 H       -3.7940    -4.9510     2.0420 H     1 <1>   0.1500 
 39 H       -1.7780    -5.0550    -1.6950 H     1 <1>   0.1500 
 40 H       -3.1090    -9.1580     0.8260 H     1 <1>   0.0800 
 41 H       -4.5680    -8.9510     1.7420 H     1 <1>   0.0800 
 42 H       -6.0110    -6.7410     1.1830 H     1 <1>   0.0800 
 43 H       -5.3810    -5.7220    -0.0810 H     1 <1>   0.0800 
 44 H       -4.3980    -9.3920    -1.2490 H     1 <1>   0.0800 
 45 H       -5.6600    -7.4900    -1.7370 H     1 <1>   0.0800 
 46 H       -8.0590    -7.7480    -1.8550 H     1 <1>   0.1000 
 47 H       -3.2140   -11.5060    -0.9740 H     1 <1>   0.1500 
 48 H       -6.8710   -10.8020     1.1110 H     1 <1>   0.1500 
 49 H       -7.5420    -4.9950    -0.5110 H     1 <1>   0.1000 
 50 H       -8.8770    -5.4200    -1.6170 H     1 <1>   0.1000 
 51 H       -9.6170    -7.2340    -0.0030 H     1 <1>   0.1000 
 52 H       -8.2660    -6.8220     1.0860 H     1 <1>   0.1000 
 53 H       -3.3700   -13.8890    -0.4350 H     1 <1>   0.1500 
 54 H       -7.0180   -13.1880     1.6480 H     1 <1>   0.1500 
 55 H       -5.2690   -14.7390     0.8780 H     1 <1>   0.1500 
@<TRIPOS>BOND
  1   1   2  2   
  2   2   3  am  
  3   2   4  1   
  4   3   5  1   
  5   3   6  1   
  6   4   7  1   
  7   4  30  1   
  8   4  31  1   
  9   5   8  ar  
 10   5   9  ar  
 11   6   7  1   
 12   6  32  1   
 13   6  33  1   
 14   7  34  1   
 15   7  35  1   
 16   8  10  ar  
 17   8  36  1   
 18   9  11  ar  
 19   9  37  1   
 20  10  12  ar  
 21  10  38  1   
 22  11  12  ar  
 23  11  39  1   
 24  12  13  1   
 25  13  14  2   
 26  13  15  am  
 27  15  16  1   
 28  15  17  1   
 29  16  18  1   
 30  16  40  1   
 31  16  41  1   
 32  17  19  1   
 33  17  42  1   
 34  17  43  1   
 35  18  20  1   
 36  18  21  1   
 37  18  44  1   
 38  19  20  1   
 39  19  22  1   
 40  19  45  1   
 41  21  23  ar  
 42  21  24  ar  
 43  22  25  1   
 44  22  26  1   
 45  22  46  1   
 46  23  27  ar  
 47  23  47  1   
 48  24  28  ar  
 49  24  48  1   
 50  25  26  1   
 51  25  49  1   
 52  25  50  1   
 53  26  51  1   
 54  26  52  1   
 55  27  29  ar  
 56  27  53  1   
 57  28  29  ar  
 58  28  54  1   
 59  29  55  1   
@<TRIPOS>SUBSTRUCTURE
  1 ****  15 GROUP 4 **** **** 0

# MOE 2024.06 (io_trps.svl 2023.06)
