@<TRIPOS>MOLECULE
NONAME
45 46 1 0 0 
SMALL
USER_CHARGES


@<TRIPOS>ATOM
  1 S        0.6700    -0.0420    -0.3280 S.o2  1 <1>   1.3330 
  2 O        0.4220    -0.3700    -1.7120 O.2   1 <1>  -0.6500 
  3 O        2.0070     0.3190     0.0890 O.2   1 <1>  -0.6500 
  4 N        0.0660    -1.2650     0.6750 N.am  1 <1>  -0.8490 
  5 C       -0.3530     1.3720     0.0750 C.3   1 <1>  -0.0550 
  6 C       -1.0440    -2.0170     0.0770 C.3   1 <1>   0.1160 
  7 C        1.1110    -2.1970     1.1180 C.3   1 <1>   0.1160 
  8 C       -0.0210     2.5990    -0.8050 C.3   1 <1>  -0.0800 
  9 C       -0.7990     3.8750    -0.4850 C.3   1 <1>   0.2000 
 10 C        1.4570     3.0220    -0.7340 C.3   1 <1>   0.3430 
 11 O       -0.8350     4.0650     0.8950 O.3   1 <1>  -0.6800 
 12 C        0.0890     4.9590    -1.1020 C.3   1 <1>   0.3430 
 13 N        1.4980     4.5100    -0.8590 N.4   1 <1>  -0.9590 
 14 C        2.0550     5.1170     0.3830 C.3   1 <1>   0.5240 
 15 C        2.1360     6.6110     0.1930 C.2   1 <1>  -0.1810 
 16 C        2.9740     7.3470    -0.5560 C.2   1 <1>  -0.0400 
 17 C        1.3060     7.5640     0.7850 C.2   1 <1>   0.1080 
 18 O        2.6330     8.5980    -0.4190 O.3   1 <1>  -0.0190 
 19 C        4.1490     7.0070    -1.4520 C.3   1 <1>  -0.0600 
 20 N        1.6230     8.7410     0.3870 N.2   1 <1>  -0.4100 
 21 C        0.1840     7.3070     1.7720 C.3   1 <1>  -0.0590 
 22 H       -1.3840     1.1090    -0.0630 H     1 <1>   0.0800 
 23 H       -0.2080     1.6080     1.1120 H     1 <1>   0.0800 
 24 H       -1.4410    -2.7210     0.7880 H     1 <1>   0.0800 
 25 H       -0.7080    -2.5550    -0.7960 H     1 <1>   0.0800 
 26 H       -1.8340    -1.3470    -0.2150 H     1 <1>   0.0800 
 27 H        0.6930    -2.9430     1.7730 H     1 <1>   0.0800 
 28 H        1.8750    -1.6660     1.6610 H     1 <1>   0.0800 
 29 H        1.5640    -2.6840     0.2710 H     1 <1>   0.0800 
 30 H       -0.2230     2.3350    -1.8300 H     1 <1>   0.0800 
 31 H       -1.8040     3.8910    -0.8730 H     1 <1>   0.0800 
 32 H        2.0220     2.5470    -1.5210 H     1 <1>   0.0800 
 33 H        1.8750     2.7200     0.2140 H     1 <1>   0.0800 
 34 H       -1.6110     3.6150     1.2960 H     1 <1>   0.4000 
 35 H       -0.1190     5.9280    -0.6800 H     1 <1>   0.0800 
 36 H       -0.0950     4.9960    -2.1640 H     1 <1>   0.0800 
 37 H        2.0940     4.8080    -1.6410 H     1 <1>   0.4500 
 38 H        1.4270     4.8850     1.2280 H     1 <1>   0.0800 
 39 H        3.0420     4.7280     0.5730 H     1 <1>   0.0800 
 40 H        4.3430     5.9510    -1.4540 H     1 <1>   0.0800 
 41 H        5.0270     7.5190    -1.1010 H     1 <1>   0.0800 
 42 H        3.9470     7.3320    -2.4570 H     1 <1>   0.0800 
 43 H        0.4840     6.5840     2.5070 H     1 <1>   0.0800 
 44 H       -0.6900     6.9530     1.2580 H     1 <1>   0.0800 
 45 H       -0.0670     8.2220     2.2790 H     1 <1>   0.0800 
@<TRIPOS>BOND
  1   1   2  2   
  2   1   3  2   
  3   1   4  am  
  4   1   5  1   
  5   4   6  1   
  6   4   7  1   
  7   5   8  1   
  8   5  22  1   
  9   5  23  1   
 10   6  24  1   
 11   6  25  1   
 12   6  26  1   
 13   7  27  1   
 14   7  28  1   
 15   7  29  1   
 16   8   9  1   
 17   8  10  1   
 18   8  30  1   
 19   9  11  1   
 20   9  12  1   
 21   9  31  1   
 22  10  13  1   
 23  10  32  1   
 24  10  33  1   
 25  11  34  1   
 26  12  13  1   
 27  12  35  1   
 28  12  36  1   
 29  13  14  1   
 30  13  37  1   
 31  14  15  1   
 32  14  38  1   
 33  14  39  1   
 34  15  16  2   
 35  15  17  1   
 36  16  18  1   
 37  16  19  1   
 38  17  20  2   
 39  17  21  1   
 40  18  20  1   
 41  19  40  1   
 42  19  41  1   
 43  19  42  1   
 44  21  43  1   
 45  21  44  1   
 46  21  45  1   
@<TRIPOS>SUBSTRUCTURE
  1 ****  10 GROUP 4 **** **** 0

# MOE 2024.06 (io_trps.svl 2023.06)
