@<TRIPOS>MOLECULE
NONAME
57 60 1 0 0 
SMALL
USER_CHARGES


@<TRIPOS>ATOM
  1 O       -0.0310     3.0420    -2.0040 O.co2 1 <1>  -0.9000 
  2 C       -0.8660     2.4640    -1.2960 C.2   1 <1>   0.9060 
  3 O       -1.9880     2.1800    -1.7170 O.co2 1 <1>  -0.9000 
  4 C       -0.5670     2.2310     0.1750 C.3   1 <1>  -0.1060 
  5 C       -1.7840     2.6370     1.0260 C.3   1 <1>   0.2000 
  6 C        0.5960     3.1370     0.5780 C.3   1 <1>   0.3430 
  7 C       -0.2000     0.7340     0.3700 C.3   1 <1>  -0.0170 
  8 O       -1.4790     2.4430     2.3700 O.3   1 <1>  -0.6800 
  9 C       -2.1700     4.1190     0.8740 C.3   1 <1>  -0.1600 
 10 N        0.2850     4.6140     0.5850 N.4   1 <1>  -0.9590 
 11 C        1.2710     0.4390     0.0900 C.ar  1 <1>  -0.1440 
 12 C       -1.1100     4.9700     0.1730 C.3   1 <1>   0.3430 
 13 C        1.2320     5.2610    -0.3590 C.3   1 <1>   0.4860 
 14 C        1.7550     0.4380    -1.2090 C.ar  1 <1>  -0.1500 
 15 C        2.1420     0.1800     1.1380 C.ar  1 <1>  -0.1500 
 16 C        1.1270     6.7680    -0.2120 C.ar  1 <1>  -0.1440 
 17 C        3.0940     0.1900    -1.4570 C.ar  1 <1>  -0.1500 
 18 C        3.4810    -0.0700     0.8910 C.ar  1 <1>  -0.1500 
 19 C        1.6690     7.4100     0.8810 C.ar  1 <1>  -0.1500 
 20 C        0.4600     7.5060    -1.2010 C.ar  1 <1>  -0.1500 
 21 C        3.9580    -0.0640    -0.4070 C.ar  1 <1>  -0.1500 
 22 C        1.5390     8.7960     1.0020 C.ar  1 <1>   0.0000 
 23 C        0.3280     8.8700    -1.0920 C.ar  1 <1>  -0.1500 
 24 C        0.8700     9.5190     0.0210 C.ar  1 <1>  -0.1520 
 25 C        1.9640     9.7290     1.9690 C.2   1 <1>  -0.1500 
 26 N        0.8840    10.8490     0.3760 N.pl3 1 <1>   0.0480 
 27 C        1.5540    10.9540     1.5630 C.2   1 <1>  -0.3020 
 28 C        0.2940    11.9710    -0.3820 C.3   1 <1>   0.0960 
 29 C        1.2600    12.4540    -1.4680 C.3   1 <1>  -0.2400 
 30 H       -2.6250     2.0060     0.7840 H     1 <1>   0.0800 
 31 H        1.4150     2.9390    -0.0940 H     1 <1>   0.0800 
 32 H        0.9110     2.8450     1.5660 H     1 <1>   0.0800 
 33 H       -0.4160     0.4200     1.3740 H     1 <1>   0.0800 
 34 H       -0.8140     0.1270    -0.2750 H     1 <1>   0.0800 
 35 H       -2.3030     2.4240     2.8960 H     1 <1>   0.4000 
 36 H       -3.0530     4.1660     0.2610 H     1 <1>   0.0800 
 37 H       -2.4220     4.5590     1.8220 H     1 <1>   0.0800 
 38 H        0.4460     4.9820     1.5250 H     1 <1>   0.4500 
 39 H       -1.2970     6.0150     0.3620 H     1 <1>   0.0800 
 40 H       -1.2050     4.8150    -0.8910 H     1 <1>   0.0800 
 41 H        2.2400     4.9500    -0.1430 H     1 <1>   0.0800 
 42 H        1.0010     4.9670    -1.3720 H     1 <1>   0.0800 
 43 H        1.0930     0.6370    -2.0370 H     1 <1>   0.1500 
 44 H        1.7820     0.1690     2.1520 H     1 <1>   0.1500 
 45 H        3.4560     0.1950    -2.4700 H     1 <1>   0.1500 
 46 H        4.1500    -0.2720     1.7090 H     1 <1>   0.1500 
 47 H        2.1970     6.8800     1.6530 H     1 <1>   0.1500 
 48 H        0.0480     6.9970    -2.0580 H     1 <1>   0.1500 
 49 H        4.9980    -0.2590    -0.6020 H     1 <1>   0.1500 
 50 H       -0.1810     9.4380    -1.8500 H     1 <1>   0.1500 
 51 H        2.5150     9.4770     2.8570 H     1 <1>   0.1500 
 52 H        1.7020    11.9020     2.0500 H     1 <1>   0.1500 
 53 H       -0.6300    11.6430    -0.8220 H     1 <1>   0.0800 
 54 H        0.0790    12.7730     0.3020 H     1 <1>   0.0800 
 55 H        1.4720    11.6570    -2.1600 H     1 <1>   0.0800 
 56 H        2.1800    12.7910    -1.0240 H     1 <1>   0.0800 
 57 H        0.8210    13.2710    -2.0110 H     1 <1>   0.0800 
@<TRIPOS>BOND
  1   1   2  ar  
  2   2   3  ar  
  3   2   4  1   
  4   4   5  1   
  5   4   6  1   
  6   4   7  1   
  7   5   8  1   
  8   5   9  1   
  9   5  30  1   
 10   6  10  1   
 11   6  31  1   
 12   6  32  1   
 13   7  11  1   
 14   7  33  1   
 15   7  34  1   
 16   8  35  1   
 17   9  12  1   
 18   9  36  1   
 19   9  37  1   
 20  10  12  1   
 21  10  13  1   
 22  10  38  1   
 23  11  14  ar  
 24  11  15  ar  
 25  12  39  1   
 26  12  40  1   
 27  13  16  1   
 28  13  41  1   
 29  13  42  1   
 30  14  17  ar  
 31  14  43  1   
 32  15  18  ar  
 33  15  44  1   
 34  16  19  ar  
 35  16  20  ar  
 36  17  21  ar  
 37  17  45  1   
 38  18  21  ar  
 39  18  46  1   
 40  19  22  ar  
 41  19  47  1   
 42  20  23  ar  
 43  20  48  1   
 44  21  49  1   
 45  22  24  ar  
 46  22  25  1   
 47  23  24  ar  
 48  23  50  1   
 49  24  26  1   
 50  25  27  2   
 51  25  51  1   
 52  26  27  1   
 53  26  28  1   
 54  27  52  1   
 55  28  29  1   
 56  28  53  1   
 57  28  54  1   
 58  29  55  1   
 59  29  56  1   
 60  29  57  1   
@<TRIPOS>SUBSTRUCTURE
  1 ****  10 GROUP 4 **** **** 0

# MOE 2024.06 (io_trps.svl 2023.06)
