@<TRIPOS>MOLECULE
NONAME
36 36 1 0 0 
SMALL
USER_CHARGES


@<TRIPOS>ATOM
  1 O        0.7430    -1.4750    -0.9820 O.2   1 <1>  -0.5700 
  2 C        0.7390    -0.8560     0.0630 C.2   1 <1>   0.7800 
  3 O        1.6060     0.1100     0.3250 O.3   1 <1>  -0.4300 
  4 N       -0.1640    -1.0930     1.0450 N.am  1 <1>  -0.7300 
  5 C        2.6510     0.5740    -0.5060 C.3   1 <1>   0.2800 
  6 C       -1.2370    -2.1380     1.1680 C.3   1 <1>   0.2200 
  7 C        3.3330     1.6860     0.2900 C.3   1 <1>  -0.2400 
  8 C        3.6570    -0.5520    -0.7680 C.3   1 <1>  -0.2400 
  9 C        2.0770     1.1570    -1.8020 C.3   1 <1>  -0.2400 
 10 C       -2.5320    -1.6790     0.4980 C.3   1 <1>   0.2000 
 11 C       -0.9500    -3.4410     0.4030 C.3   1 <1>   0.3430 
 12 O       -3.5820    -2.4510     1.0050 O.3   1 <1>  -0.5600 
 13 C       -2.3510    -2.0750    -0.9740 C.3   1 <1>   0.3430 
 14 N       -1.3470    -3.1830    -1.0110 N.4   1 <1>  -0.9060 
 15 C       -4.2780    -1.8830     2.0750 C.3   1 <1>   0.0400 
 16 H       -0.0460    -0.4880     1.8620 H     1 <1>   0.3700 
 17 H       -1.3910    -2.3460     2.2130 H     1 <1>   0.0800 
 18 H        4.1510     2.1010    -0.2720 H     1 <1>   0.0800 
 19 H        3.7230     1.3010     1.2150 H     1 <1>   0.0800 
 20 H        2.6370     2.4770     0.5040 H     1 <1>   0.0800 
 21 H        4.5150    -0.1610    -1.2850 H     1 <1>   0.0800 
 22 H        3.2340    -1.3220    -1.3860 H     1 <1>   0.0800 
 23 H        3.9910    -0.9820     0.1590 H     1 <1>   0.0800 
 24 H        2.8610     1.6290    -2.3670 H     1 <1>   0.0800 
 25 H        1.3280     1.8970    -1.5830 H     1 <1>   0.0800 
 26 H        1.6520     0.3910    -2.4230 H     1 <1>   0.0800 
 27 H       -2.7510    -0.6310     0.6210 H     1 <1>   0.0800 
 28 H       -1.5740    -4.2210     0.8090 H     1 <1>   0.0800 
 29 H        0.0860    -3.7290     0.4850 H     1 <1>   0.0800 
 30 H       -1.9660    -1.2320    -1.5260 H     1 <1>   0.0800 
 31 H       -3.2950    -2.3770    -1.3970 H     1 <1>   0.0800 
 32 H       -1.6790    -4.0210    -1.5010 H     1 <1>   0.4500 
 33 H       -0.4990    -2.8090    -1.4830 H     1 <1>   0.4500 
 34 H       -5.0370    -2.5790     2.3900 H     1 <1>   0.0800 
 35 H       -4.7470    -0.9680     1.7530 H     1 <1>   0.0800 
 36 H       -3.6030    -1.6930     2.8920 H     1 <1>   0.0800 
@<TRIPOS>BOND
  1   1   2  2   
  2   2   3  1   
  3   2   4  am  
  4   3   5  1   
  5   4   6  1   
  6   4  16  1   
  7   5   7  1   
  8   5   8  1   
  9   5   9  1   
 10   6  10  1   
 11   6  11  1   
 12   6  17  1   
 13   7  18  1   
 14   7  19  1   
 15   7  20  1   
 16   8  21  1   
 17   8  22  1   
 18   8  23  1   
 19   9  24  1   
 20   9  25  1   
 21   9  26  1   
 22  10  12  1   
 23  10  13  1   
 24  10  27  1   
 25  11  14  1   
 26  11  28  1   
 27  11  29  1   
 28  12  15  1   
 29  13  14  1   
 30  13  30  1   
 31  13  31  1   
 32  14  32  1   
 33  14  33  1   
 34  15  34  1   
 35  15  35  1   
 36  15  36  1   
@<TRIPOS>SUBSTRUCTURE
  1 ****   2 GROUP 4 **** **** 0

# MOE 2024.06 (io_trps.svl 2023.06)
