@<TRIPOS>MOLECULE
NONAME
50 52 1 0 0 
SMALL
USER_CHARGES


@<TRIPOS>ATOM
  1 O       -4.0360     2.3500    -1.8490 O.2   1 <1>  -0.5700 
  2 C       -3.1750     2.1010    -1.0410 C.2   1 <1>   0.5690 
  3 N       -2.5940     0.8760    -0.9740 N.am  1 <1>  -0.7300 
  4 C       -2.7520     3.1830    -0.0720 C.3   1 <1>   0.1570 
  5 C       -2.8090    -0.2490    -1.9090 C.3   1 <1>   0.2200 
  6 N       -1.2950     3.1210     0.1290 N.pl3 1 <1>   0.3140 
  7 C       -3.4240    -1.4460    -1.1990 C.3   1 <1>  -0.0800 
  8 C       -1.4560    -0.8220    -2.3140 C.3   1 <1>   0.1200 
  9 N       -0.7670     2.2380     0.9940 N.2   1 <1>  -0.7070 
 10 C       -0.3330     3.8060    -0.5130 C.2   1 <1>  -0.3320 
 11 C       -2.2050    -2.1360    -0.5800 C.3   1 <1>   0.1200 
 12 C       -4.5460    -1.1270    -0.1950 C.3   1 <1>  -0.0160 
 13 O       -1.0820    -1.6830    -1.2800 O.3   1 <1>  -0.5600 
 14 C        0.5110     2.3770     0.8820 C.2   1 <1>   0.1080 
 15 C        0.8760     3.3670    -0.0460 C.2   1 <1>  -0.0860 
 16 C       -0.6160     4.8620    -1.5760 C.3   1 <1>  -0.0600 
 17 C       -5.1360    -2.4040     0.3840 C.ar  1 <1>  -0.1440 
 18 C        1.4420     1.4890     1.6830 C.3   1 <1>  -0.0590 
 19 C        2.2030     3.7920    -0.4150 C.2   1 <1>   0.5950 
 20 C       -6.0870    -3.1380    -0.2960 C.ar  1 <1>  -0.1500 
 21 C       -4.7520    -2.8960     1.6150 C.ar  1 <1>  -0.1500 
 22 O        2.5110     4.1240    -1.5320 O.2   1 <1>  -0.5700 
 23 C        3.2920     3.8710     0.6320 C.3   1 <1>  -0.1790 
 24 C       -6.5900    -4.2980     0.2690 C.ar  1 <1>   0.1600 
 25 C       -5.3170    -4.0680     2.0900 C.ar  1 <1>   0.1600 
 26 N       -6.2260    -4.7820     1.4460 N.ar  1 <1>  -0.6200 
 27 H       -1.8130     0.7460    -0.3110 H     1 <1>   0.3700 
 28 H       -3.2390     3.0300     0.8700 H     1 <1>   0.0800 
 29 H       -3.0230     4.1460    -0.4580 H     1 <1>   0.0800 
 30 H       -3.3860     0.0700    -2.7610 H     1 <1>   0.0800 
 31 H       -3.8200    -2.1070    -1.9500 H     1 <1>   0.0800 
 32 H       -0.7050    -0.0630    -2.4440 H     1 <1>   0.0800 
 33 H       -1.5460    -1.4080    -3.2110 H     1 <1>   0.0800 
 34 H       -2.2640    -3.2080    -0.6630 H     1 <1>   0.0800 
 35 H       -2.0750    -1.8560     0.4510 H     1 <1>   0.0800 
 36 H       -5.3210    -0.5690    -0.6920 H     1 <1>   0.0800 
 37 H       -4.1710    -0.5140     0.6060 H     1 <1>   0.0800 
 38 H        0.2960     5.2890    -1.9510 H     1 <1>   0.0800 
 39 H       -1.2100     5.6580    -1.1640 H     1 <1>   0.0800 
 40 H       -1.1430     4.4230    -2.4040 H     1 <1>   0.0800 
 41 H        2.2400     1.1280     1.0610 H     1 <1>   0.0800 
 42 H        0.8980     0.6410     2.0580 H     1 <1>   0.0800 
 43 H        1.8440     2.0310     2.5170 H     1 <1>   0.0800 
 44 H       -6.4410    -2.8190    -1.2590 H     1 <1>   0.1500 
 45 H       -4.0200    -2.3810     2.2090 H     1 <1>   0.1500 
 46 H        2.8670     4.0580     1.6000 H     1 <1>   0.0800 
 47 H        3.9600     4.6770     0.3910 H     1 <1>   0.0800 
 48 H        3.8500     2.9540     0.6460 H     1 <1>   0.0800 
 49 H       -7.3310    -4.8580    -0.2760 H     1 <1>   0.1500 
 50 H       -5.0050    -4.4370     3.0520 H     1 <1>   0.1500 
@<TRIPOS>BOND
  1   1   2  2   
  2   2   3  am  
  3   2   4  1   
  4   3   5  1   
  5   3  27  1   
  6   4   6  1   
  7   4  28  1   
  8   4  29  1   
  9   5   7  1   
 10   5   8  1   
 11   5  30  1   
 12   6   9  1   
 13   6  10  1   
 14   7  11  1   
 15   7  12  1   
 16   7  31  1   
 17   8  13  1   
 18   8  32  1   
 19   8  33  1   
 20   9  14  2   
 21  10  15  2   
 22  10  16  1   
 23  11  13  1   
 24  11  34  1   
 25  11  35  1   
 26  12  17  1   
 27  12  36  1   
 28  12  37  1   
 29  14  15  1   
 30  14  18  1   
 31  15  19  1   
 32  16  38  1   
 33  16  39  1   
 34  16  40  1   
 35  17  20  ar  
 36  17  21  ar  
 37  18  41  1   
 38  18  42  1   
 39  18  43  1   
 40  19  22  2   
 41  19  23  1   
 42  20  24  ar  
 43  20  44  1   
 44  21  25  ar  
 45  21  45  1   
 46  23  46  1   
 47  23  47  1   
 48  23  48  1   
 49  24  26  ar  
 50  24  49  1   
 51  25  26  ar  
 52  25  50  1   
@<TRIPOS>SUBSTRUCTURE
  1 ****   3 GROUP 4 **** **** 0

# MOE 2024.06 (io_trps.svl 2023.06)
