@<TRIPOS>MOLECULE
NONAME
36 37 1 0 0 
SMALL
USER_CHARGES


@<TRIPOS>ATOM
  1 CL       0.8030    -2.9180    -3.0020 Cl    1 <1>  -0.1770 
  2 C        1.7100    -2.6230    -1.5270 C.ar  1 <1>   0.1770 
  3 C        1.1660    -2.8260    -0.2600 C.ar  1 <1>   0.4100 
  4 C        3.0080    -2.2020    -1.6160 C.ar  1 <1>   0.1600 
  5 N        1.9120    -2.6320     0.8150 N.ar  1 <1>  -0.6200 
  6 N       -0.1400    -3.2340    -0.0400 N.pl3 1 <1>  -0.8380 
  7 N        3.7510    -1.9920    -0.5430 N.ar  1 <1>  -0.6200 
  8 C        3.1510    -2.2220     0.6120 C.ar  1 <1>   0.4770 
  9 C       -0.4910    -4.0000     1.1980 C.3   1 <1>   0.3890 
 10 C       -1.2810    -2.4700    -0.6240 C.3   1 <1>   0.1290 
 11 C        3.9850    -1.9960     1.8510 C.3   1 <1>  -0.0960 
 12 C       -1.5630    -5.0370     0.9040 C.2   1 <1>   0.0070 
 13 N       -2.7200    -5.0630     1.4780 N.2   1 <1>  -0.3380 
 14 N       -1.4300    -6.0340     0.0190 N.pl3 1 <1>   0.0480 
 15 N       -3.3870    -6.0980     0.9700 N.2   1 <1>  -0.3380 
 16 C       -2.6070    -6.6560     0.1100 C.2   1 <1>   0.0370 
 17 C       -0.2810    -6.3740    -0.8610 C.3   1 <1>   0.1760 
 18 C       -0.6850    -6.2450    -2.3340 C.3   1 <1>  -0.2400 
 19 C        0.2280    -7.7860    -0.5520 C.3   1 <1>  -0.2400 
 20 H        3.4530    -2.0360    -2.5810 H     1 <1>   0.1500 
 21 H       -0.8450    -3.3170     1.9510 H     1 <1>   0.0800 
 22 H        0.3780    -4.5020     1.5860 H     1 <1>   0.0800 
 23 H       -0.9240    -1.6310    -1.1950 H     1 <1>   0.0800 
 24 H       -1.9200    -2.1000     0.1600 H     1 <1>   0.0800 
 25 H       -1.8580    -3.1120    -1.2660 H     1 <1>   0.0800 
 26 H        3.3620    -1.6550     2.6570 H     1 <1>   0.0800 
 27 H        4.7400    -1.2560     1.6590 H     1 <1>   0.0800 
 28 H        4.4570    -2.9170     2.1340 H     1 <1>   0.0800 
 29 H       -2.8600    -7.5210    -0.4730 H     1 <1>   0.1500 
 30 H        0.5160    -5.6790    -0.6660 H     1 <1>   0.0800 
 31 H       -1.4540    -6.9520    -2.5870 H     1 <1>   0.0800 
 32 H        0.1660    -6.4250    -2.9650 H     1 <1>   0.0800 
 33 H       -1.0410    -5.2490    -2.5300 H     1 <1>   0.0800 
 34 H       -0.5250    -8.5230    -0.7660 H     1 <1>   0.0800 
 35 H        0.5110    -7.8590     0.4830 H     1 <1>   0.0800 
 36 H        1.0940    -8.0020    -1.1530 H     1 <1>   0.0800 
@<TRIPOS>BOND
  1   1   2  1   
  2   2   3  ar  
  3   2   4  ar  
  4   3   5  ar  
  5   3   6  1   
  6   4   7  ar  
  7   4  20  1   
  8   5   8  ar  
  9   6   9  1   
 10   6  10  1   
 11   7   8  ar  
 12   8  11  1   
 13   9  12  1   
 14   9  21  1   
 15   9  22  1   
 16  10  23  1   
 17  10  24  1   
 18  10  25  1   
 19  11  26  1   
 20  11  27  1   
 21  11  28  1   
 22  12  13  2   
 23  12  14  1   
 24  13  15  1   
 25  14  16  1   
 26  14  17  1   
 27  15  16  2   
 28  16  29  1   
 29  17  18  1   
 30  17  19  1   
 31  17  30  1   
 32  18  31  1   
 33  18  32  1   
 34  18  33  1   
 35  19  34  1   
 36  19  35  1   
 37  19  36  1   
@<TRIPOS>SUBSTRUCTURE
  1 ****   6 GROUP 4 **** **** 0

# MOE 2024.06 (io_trps.svl 2023.06)
