@<TRIPOS>MOLECULE
NONAME
60 63 1 0 0 
SMALL
USER_CHARGES


@<TRIPOS>ATOM
  1 O       -0.2030    -0.3290     0.1860 O.3   1 <1>  -0.3630 
  2 C       -1.4580    -0.6400     0.5920 C.ar  1 <1>   0.0830 
  3 C        0.6140    -1.2560    -0.4970 C.3   1 <1>   0.2640 
  4 C       -2.0890    -1.8490     0.3210 C.ar  1 <1>  -0.1500 
  5 C       -2.1230     0.3320     1.3180 C.ar  1 <1>  -0.1500 
  6 C        1.9790    -0.6310    -0.7410 C.ar  1 <1>  -0.1440 
  7 C       -3.3840    -2.0770     0.7810 C.ar  1 <1>   0.0830 
  8 C       -3.4070     0.1110     1.7790 C.ar  1 <1>  -0.1500 
  9 C        2.7750    -0.2590     0.3330 C.ar  1 <1>  -0.1500 
 10 C        2.4460    -0.4310    -2.0320 C.ar  1 <1>  -0.1500 
 11 O       -4.0600    -3.2350     0.5410 O.3   1 <1>  -0.3630 
 12 C       -4.0430    -1.0920     1.5130 C.ar  1 <1>  -0.1430 
 13 C        4.0230     0.2990     0.1210 C.ar  1 <1>  -0.1500 
 14 C        3.6950     0.1270    -2.2460 C.ar  1 <1>  -0.1500 
 15 C       -3.4080    -4.3700     0.0050 C.3   1 <1>   0.0400 
 16 C       -5.4520    -1.3270     2.0240 C.3   1 <1>   0.4860 
 17 C        4.4850     0.4910    -1.1700 C.ar  1 <1>  -0.1500 
 18 N       -6.3350    -1.5790     0.8610 N.4   1 <1>  -0.9590 
 19 C       -7.6520    -2.1530     1.2600 C.3   1 <1>   0.3430 
 20 C       -6.4780    -0.3850    -0.0160 C.3   1 <1>   0.3430 
 21 C       -8.4320    -2.6280     0.0240 C.3   1 <1>   0.0000 
 22 C       -7.2320    -0.7740    -1.2890 C.3   1 <1>  -0.1600 
 23 C       -9.7730    -3.2220     0.4770 C.3   1 <1>   0.2000 
 24 C       -8.5810    -1.4500    -0.9810 C.3   1 <1>  -0.1600 
 25 C       -7.7900    -3.8490    -0.6610 C.3   1 <1>  -0.1600 
 26 O      -10.7060    -2.2490     0.7690 O.3   1 <1>  -0.6800 
 27 C      -10.2380    -4.1250    -0.6610 C.3   1 <1>  -0.1600 
 28 C       -8.9460    -4.5880    -1.3520 C.3   1 <1>  -0.1600 
 29 H        0.7180    -2.1350     0.1140 H     1 <1>   0.0800 
 30 H        0.1370    -1.5050    -1.4280 H     1 <1>   0.0800 
 31 H       -1.5780    -2.5990    -0.2460 H     1 <1>   0.1500 
 32 H       -1.6210     1.2630     1.5210 H     1 <1>   0.1500 
 33 H       -3.8950     0.8860     2.3470 H     1 <1>   0.1500 
 34 H        2.4190    -0.4010     1.3390 H     1 <1>   0.1500 
 35 H        1.8420    -0.7070    -2.8780 H     1 <1>   0.1500 
 36 H        4.6340     0.5840     0.9590 H     1 <1>   0.1500 
 37 H        4.0510     0.2800    -3.2490 H     1 <1>   0.1500 
 38 H       -4.1070    -5.1880    -0.0080 H     1 <1>   0.0800 
 39 H       -2.5690    -4.6220     0.6300 H     1 <1>   0.0800 
 40 H       -3.0870    -4.1530    -0.9980 H     1 <1>   0.0800 
 41 H       -5.7990    -0.4730     2.5820 H     1 <1>   0.0800 
 42 H       -5.4450    -2.1870     2.6730 H     1 <1>   0.0800 
 43 H        5.4550     0.9260    -1.3360 H     1 <1>   0.1500 
 44 H       -5.8230    -2.2960     0.3200 H     1 <1>   0.4500 
 45 H       -7.5050    -2.9870     1.9260 H     1 <1>   0.0800 
 46 H       -8.2370    -1.4080     1.7760 H     1 <1>   0.0800 
 47 H       -7.0230     0.3860     0.5040 H     1 <1>   0.0800 
 48 H       -5.5060     0.0020    -0.2800 H     1 <1>   0.0800 
 49 H       -7.4090     0.1140    -1.8720 H     1 <1>   0.0800 
 50 H       -6.6120    -1.4190    -1.8860 H     1 <1>   0.0800 
 51 H       -9.6330    -3.8170     1.3650 H     1 <1>   0.0800 
 52 H       -9.0320    -1.7860    -1.8990 H     1 <1>   0.0800 
 53 H       -9.2300    -0.6990    -0.5630 H     1 <1>   0.0800 
 54 H       -7.0140    -3.5970    -1.3620 H     1 <1>   0.0800 
 55 H       -7.3690    -4.5040     0.0840 H     1 <1>   0.0800 
 56 H      -11.2210    -2.0240    -0.0310 H     1 <1>   0.4000 
 57 H      -10.7950    -4.9630    -0.2790 H     1 <1>   0.0800 
 58 H      -10.8430    -3.5810    -1.3650 H     1 <1>   0.0800 
 59 H       -8.8210    -5.6550    -1.2690 H     1 <1>   0.0800 
 60 H       -8.9820    -4.3300    -2.3980 H     1 <1>   0.0800 
@<TRIPOS>BOND
  1   1   2  1   
  2   1   3  1   
  3   2   4  ar  
  4   2   5  ar  
  5   3   6  1   
  6   3  29  1   
  7   3  30  1   
  8   4   7  ar  
  9   4  31  1   
 10   5   8  ar  
 11   5  32  1   
 12   6   9  ar  
 13   6  10  ar  
 14   7  11  1   
 15   7  12  ar  
 16   8  12  ar  
 17   8  33  1   
 18   9  13  ar  
 19   9  34  1   
 20  10  14  ar  
 21  10  35  1   
 22  11  15  1   
 23  12  16  1   
 24  13  17  ar  
 25  13  36  1   
 26  14  17  ar  
 27  14  37  1   
 28  15  38  1   
 29  15  39  1   
 30  15  40  1   
 31  16  18  1   
 32  16  41  1   
 33  16  42  1   
 34  17  43  1   
 35  18  19  1   
 36  18  20  1   
 37  18  44  1   
 38  19  21  1   
 39  19  45  1   
 40  19  46  1   
 41  20  22  1   
 42  20  47  1   
 43  20  48  1   
 44  21  23  1   
 45  21  24  1   
 46  21  25  1   
 47  22  24  1   
 48  22  49  1   
 49  22  50  1   
 50  23  26  1   
 51  23  27  1   
 52  23  51  1   
 53  24  52  1   
 54  24  53  1   
 55  25  28  1   
 56  25  54  1   
 57  25  55  1   
 58  26  56  1   
 59  27  28  1   
 60  27  57  1   
 61  27  58  1   
 62  28  59  1   
 63  28  60  1   
@<TRIPOS>SUBSTRUCTURE
  1 ****   7 GROUP 4 **** **** 0

# MOE 2024.06 (io_trps.svl 2023.06)
