@<TRIPOS>MOLECULE
NONAME
58 61 1 0 0 
SMALL
USER_CHARGES


@<TRIPOS>ATOM
  1 S        0.7590     0.3940     0.2530 S.3   1 <1>  -0.4600 
  2 C        0.0900     1.4270     1.5720 C.3   1 <1>   0.0700 
  3 C       -0.0660     1.0270    -1.2220 C.3   1 <1>   0.0700 
  4 C        0.3930     2.8830     1.2160 C.3   1 <1>  -0.1600 
  5 C        0.2490     2.5210    -1.3200 C.3   1 <1>  -0.1600 
  6 C       -0.2780     3.3000    -0.1070 C.3   1 <1>   0.4230 
  7 N       -0.1310     4.7660    -0.3690 N.4   1 <1>  -0.9590 
  8 C        1.2900     5.2450    -0.3530 C.3   1 <1>   0.3430 
  9 C       -1.0050     5.5780     0.5340 C.3   1 <1>   0.3430 
 10 C        1.3450     6.7020    -0.7870 C.3   1 <1>  -0.1600 
 11 C       -0.9700     7.0450     0.1160 C.3   1 <1>  -0.1600 
 12 C        0.4660     7.5560     0.1210 C.3   1 <1>   0.2890 
 13 N        0.4960     8.9420    -0.3630 N.pl3 1 <1>  -0.8690 
 14 C        1.4220     9.8620     0.0580 C.ar  1 <1>   0.4100 
 15 N        2.4520     9.4140     0.7660 N.ar  1 <1>  -0.6200 
 16 C        1.2560    11.2070    -0.2630 C.ar  1 <1>  -0.1500 
 17 C        3.3280    10.3240     1.1610 C.ar  1 <1>   0.1600 
 18 C        2.1800    12.1360     0.1520 C.ar  1 <1>  -0.1500 
 19 C        3.2730    11.6880     0.8870 C.ar  1 <1>   0.0860 
 20 C        4.3080    12.5680     1.3720 C.2   1 <1>   0.5440 
 21 O        4.6500    12.4840     2.5370 O.2   1 <1>  -0.5700 
 22 N        4.9360    13.4940     0.5650 N.am  1 <1>  -0.6600 
 23 C        5.0010    13.4240    -0.9250 C.3   1 <1>   0.1400 
 24 C        5.8210    14.5540     1.1340 C.3   1 <1>   0.1400 
 25 C        4.8170    14.8220    -1.5380 C.3   1 <1>   0.1200 
 26 C        5.6040    15.8900     0.4020 C.3   1 <1>   0.1200 
 27 O        5.7300    15.7280    -0.9840 O.3   1 <1>  -0.5600 
 28 H        0.5800     1.1290     2.4840 H     1 <1>   0.0800 
 29 H       -0.9650     1.2260     1.6410 H     1 <1>   0.0800 
 30 H       -1.1190     0.8300    -1.1170 H     1 <1>   0.0800 
 31 H        0.3270     0.4800    -2.0620 H     1 <1>   0.0800 
 32 H        1.4610     2.9910     1.1530 H     1 <1>   0.0800 
 33 H        0.0350     3.4930     2.0240 H     1 <1>   0.0800 
 34 H       -0.2110     2.8930    -2.2180 H     1 <1>   0.0800 
 35 H        1.3150     2.6310    -1.4110 H     1 <1>   0.0800 
 36 H       -1.3310     3.0800    -0.0220 H     1 <1>   0.0800 
 37 H       -0.4740     4.9230    -1.3250 H     1 <1>   0.4500 
 38 H        1.8930     4.6520    -1.0200 H     1 <1>   0.0800 
 39 H        1.6980     5.1550     0.6410 H     1 <1>   0.0800 
 40 H       -0.6600     5.4910     1.5520 H     1 <1>   0.0800 
 41 H       -2.0200     5.2170     0.4890 H     1 <1>   0.0800 
 42 H        1.0340     6.7950    -1.8120 H     1 <1>   0.0800 
 43 H        2.3630     7.0450    -0.7150 H     1 <1>   0.0800 
 44 H       -1.5510     7.6210     0.8150 H     1 <1>   0.0800 
 45 H       -1.4070     7.1540    -0.8610 H     1 <1>   0.0800 
 46 H        0.8480     7.5200     1.1300 H     1 <1>   0.0800 
 47 H       -0.3620     9.3000    -0.7830 H     1 <1>   0.4000 
 48 H        0.3990    11.5090    -0.8340 H     1 <1>   0.1500 
 49 H        4.1600     9.9750     1.7500 H     1 <1>   0.1500 
 50 H        2.0680    13.1820    -0.0730 H     1 <1>   0.1500 
 51 H        4.2570    12.7570    -1.3180 H     1 <1>   0.0800 
 52 H        5.9660    13.0440    -1.2140 H     1 <1>   0.0800 
 53 H        6.8480    14.2520     1.0300 H     1 <1>   0.0800 
 54 H        5.6180    14.6900     2.1820 H     1 <1>   0.0800 
 55 H        3.8200    15.1870    -1.3630 H     1 <1>   0.0800 
 56 H        4.9920    14.7890    -2.5990 H     1 <1>   0.0800 
 57 H        6.3400    16.6080     0.7170 H     1 <1>   0.0800 
 58 H        4.6250    16.2820     0.6160 H     1 <1>   0.0800 
@<TRIPOS>BOND
  1   1   2  1   
  2   1   3  1   
  3   2   4  1   
  4   2  28  1   
  5   2  29  1   
  6   3   5  1   
  7   3  30  1   
  8   3  31  1   
  9   4   6  1   
 10   4  32  1   
 11   4  33  1   
 12   5   6  1   
 13   5  34  1   
 14   5  35  1   
 15   6   7  1   
 16   6  36  1   
 17   7   8  1   
 18   7   9  1   
 19   7  37  1   
 20   8  10  1   
 21   8  38  1   
 22   8  39  1   
 23   9  11  1   
 24   9  40  1   
 25   9  41  1   
 26  10  12  1   
 27  10  42  1   
 28  10  43  1   
 29  11  12  1   
 30  11  44  1   
 31  11  45  1   
 32  12  13  1   
 33  12  46  1   
 34  13  14  1   
 35  13  47  1   
 36  14  15  ar  
 37  14  16  ar  
 38  15  17  ar  
 39  16  18  ar  
 40  16  48  1   
 41  17  19  ar  
 42  17  49  1   
 43  18  19  ar  
 44  18  50  1   
 45  19  20  1   
 46  20  21  2   
 47  20  22  am  
 48  22  23  1   
 49  22  24  1   
 50  23  25  1   
 51  23  51  1   
 52  23  52  1   
 53  24  26  1   
 54  24  53  1   
 55  24  54  1   
 56  25  27  1   
 57  25  55  1   
 58  25  56  1   
 59  26  27  1   
 60  26  57  1   
 61  26  58  1   
@<TRIPOS>SUBSTRUCTURE
  1 ****  15 GROUP 4 **** **** 0

# MOE 2024.06 (io_trps.svl 2023.06)
