@<TRIPOS>MOLECULE
NONAME
48 50 1 0 0 
SMALL
USER_CHARGES


@<TRIPOS>ATOM
  1 S        0.4670    -0.1650     0.2630 S.3   1 <1>  -0.0800 
  2 C        0.4370     1.5270    -0.1340 C.2   1 <1>   0.4620 
  3 C       -1.1490    -0.2800    -0.3660 C.2   1 <1>   0.1980 
  4 N       -0.6840     1.8700    -0.6630 N.2   1 <1>  -0.3380 
  5 N        1.5280     2.3340     0.1360 N.pl3 1 <1>  -0.8220 
  6 N       -1.5760     0.8450    -0.7930 N.2   1 <1>  -0.3380 
  7 C       -1.8200    -1.6570    -0.3280 C.3   1 <1>   1.2000 
  8 C        2.7740     1.8440     0.8230 C.3   1 <1>   0.2090 
  9 C        1.4280     3.8070    -0.1570 C.3   1 <1>   0.2090 
 10 F       -1.9260    -2.1320     0.9090 F     1 <1>  -0.3400 
 11 F       -3.0500    -1.6640    -0.8320 F     1 <1>  -0.3400 
 12 F       -1.1370    -2.5700    -1.0130 F     1 <1>  -0.3400 
 13 C        4.0490     2.6000     0.3890 C.3   1 <1>   0.3430 
 14 C        2.7750     4.4450    -0.5520 C.3   1 <1>   0.3430 
 15 N        3.8670     4.0890     0.4200 N.4   1 <1>  -0.9590 
 16 C        5.1710     4.7550     0.0120 C.3   1 <1>   0.4600 
 17 C        5.0160     6.2610     0.2460 C.ar  1 <1>  -0.1430 
 18 C        5.7260     4.2920    -1.3640 C.2   1 <1>   0.9060 
 19 C        4.6340     7.1430    -0.7590 C.ar  1 <1>  -0.1500 
 20 C        5.2510     6.7590     1.5210 C.ar  1 <1>  -0.1500 
 21 O        6.6960     3.5290    -1.3460 O.co2 1 <1>  -0.9000 
 22 O        5.0810     4.5170    -2.3970 O.co2 1 <1>  -0.9000 
 23 C        4.4680     8.4930    -0.4960 C.ar  1 <1>   0.0830 
 24 C        5.1090     8.1100     1.7880 C.ar  1 <1>  -0.1500 
 25 O        4.0470     9.2780    -1.5180 O.3   1 <1>  -0.3630 
 26 C        4.7320     8.9860     0.7860 C.ar  1 <1>   0.0830 
 27 C        2.7990     9.9170    -1.3650 C.3   1 <1>   0.0400 
 28 O        4.6460    10.3000     1.1050 O.3   1 <1>  -0.3630 
 29 C        5.5920    11.1510     0.4960 C.3   1 <1>   0.0400 
 30 H        2.9280     0.8000     0.6150 H     1 <1>   0.0800 
 31 H        2.6480     1.9490     1.8860 H     1 <1>   0.0800 
 32 H        1.0410     4.3100     0.7110 H     1 <1>   0.0800 
 33 H        0.7330     3.9750    -0.9630 H     1 <1>   0.0800 
 34 H        4.3030     2.2930    -0.6140 H     1 <1>   0.0800 
 35 H        4.8690     2.3150     1.0280 H     1 <1>   0.0800 
 36 H        2.6600     5.5140    -0.6040 H     1 <1>   0.0800 
 37 H        3.0390     4.0990    -1.5390 H     1 <1>   0.0800 
 38 H        3.6150     4.4230     1.3520 H     1 <1>   0.4500 
 39 H        5.9260     4.4270     0.7030 H     1 <1>   0.0800 
 40 H        4.4540     6.8000    -1.7650 H     1 <1>   0.1500 
 41 H        5.5560     6.1050     2.3190 H     1 <1>   0.1500 
 42 H        5.2990     8.4970     2.7740 H     1 <1>   0.1500 
 43 H        2.5420    10.3780    -2.3010 H     1 <1>   0.0800 
 44 H        2.8720    10.6660    -0.5970 H     1 <1>   0.0800 
 45 H        2.0610     9.1810    -1.1020 H     1 <1>   0.0800 
 46 H        5.4620    12.1400     0.8960 H     1 <1>   0.0800 
 47 H        5.4320    11.1620    -0.5670 H     1 <1>   0.0800 
 48 H        6.5800    10.7890     0.7200 H     1 <1>   0.0800 
@<TRIPOS>BOND
  1   1   2  1   
  2   1   3  1   
  3   2   4  2   
  4   2   5  1   
  5   3   6  2   
  6   3   7  1   
  7   4   6  1   
  8   5   8  1   
  9   5   9  1   
 10   7  10  1   
 11   7  11  1   
 12   7  12  1   
 13   8  13  1   
 14   8  30  1   
 15   8  31  1   
 16   9  14  1   
 17   9  32  1   
 18   9  33  1   
 19  13  15  1   
 20  13  34  1   
 21  13  35  1   
 22  14  15  1   
 23  14  36  1   
 24  14  37  1   
 25  15  16  1   
 26  15  38  1   
 27  16  17  1   
 28  16  18  1   
 29  16  39  1   
 30  17  19  ar  
 31  17  20  ar  
 32  18  21  ar  
 33  18  22  ar  
 34  19  23  ar  
 35  19  40  1   
 36  20  24  ar  
 37  20  41  1   
 38  23  25  1   
 39  23  26  ar  
 40  24  26  ar  
 41  24  42  1   
 42  25  27  1   
 43  26  28  1   
 44  27  43  1   
 45  27  44  1   
 46  27  45  1   
 47  28  29  1   
 48  29  46  1   
 49  29  47  1   
 50  29  48  1   
@<TRIPOS>SUBSTRUCTURE
  1 ****  14 GROUP 4 **** **** 0

# MOE 2024.06 (io_trps.svl 2023.06)
