@<TRIPOS>MOLECULE
NONAME
52 54 1 0 0 
SMALL
USER_CHARGES


@<TRIPOS>ATOM
  1 O       -3.3350     0.5370     1.8530 O.2   1 <1>  -0.5700 
  2 C       -3.1560     1.1230     0.8120 C.2   1 <1>   0.5690 
  3 N       -3.8780     0.7640    -0.2880 N.am  1 <1>  -0.6600 
  4 C       -2.1390     2.2620     0.7450 C.3   1 <1>  -0.0190 
  5 C       -3.5480    -0.5530    -0.9020 C.3   1 <1>   0.1400 
  6 C       -5.3470     1.0020    -0.2300 C.3   1 <1>   0.1400 
  7 C       -2.8120     3.6170     0.4500 C.3   1 <1>  -0.1600 
  8 C       -0.9980     1.9770    -0.2630 C.3   1 <1>  -0.1600 
  9 C       -4.2300    -1.6960    -0.1230 C.3   1 <1>   0.3430 
 10 C       -6.0470    -0.1280     0.5560 C.3   1 <1>   0.3430 
 11 C       -1.8190     4.7950     0.5480 C.3   1 <1>   0.2000 
 12 C       -0.2380     3.2400    -0.7160 C.3   1 <1>  -0.1600 
 13 N       -5.7230    -1.4950     0.0090 N.4   1 <1>  -0.9590 
 14 O       -2.1860     5.7480    -0.4180 O.3   1 <1>  -0.5600 
 15 C       -0.3460     4.3690     0.3110 C.3   1 <1>   0.2000 
 16 C       -6.3340    -2.5590     0.8530 C.3   1 <1>   0.4860 
 17 C       -3.1840     6.6360    -0.0230 C.3   1 <1>   0.0400 
 18 O        0.3680     5.4490    -0.1650 O.3   1 <1>  -0.6800 
 19 C       -6.1260    -3.8970     0.1760 C.ar  1 <1>  -0.1440 
 20 C       -5.1740    -4.7780     0.6690 C.ar  1 <1>   0.1600 
 21 C       -6.8610    -4.2610    -0.9370 C.ar  1 <1>  -0.1500 
 22 N       -4.8870    -5.9490     0.1340 N.ar  1 <1>  -0.6200 
 23 C       -6.5800    -5.4900    -1.4960 C.ar  1 <1>  -0.1500 
 24 C       -5.5950    -6.2830    -0.9320 C.ar  1 <1>   0.1600 
 25 H       -1.6960     2.3340     1.7240 H     1 <1>   0.0800 
 26 H       -3.8600    -0.5630    -1.9320 H     1 <1>   0.0800 
 27 H       -2.4810    -0.7020    -0.8810 H     1 <1>   0.0800 
 28 H       -5.5370     1.9430     0.2590 H     1 <1>   0.0800 
 29 H       -5.7440     1.0660    -1.2290 H     1 <1>   0.0800 
 30 H       -3.6140     3.7790     1.1460 H     1 <1>   0.0800 
 31 H       -3.2240     3.5820    -0.5440 H     1 <1>   0.0800 
 32 H       -0.3060     1.2890     0.1920 H     1 <1>   0.0800 
 33 H       -1.3900     1.5020    -1.1460 H     1 <1>   0.0800 
 34 H       -3.7850    -1.7400     0.8590 H     1 <1>   0.0800 
 35 H       -4.0260    -2.6310    -0.6200 H     1 <1>   0.0800 
 36 H       -7.1130     0.0350     0.5360 H     1 <1>   0.0800 
 37 H       -5.7220    -0.0660     1.5830 H     1 <1>   0.0800 
 38 H       -1.8720     5.2470     1.5240 H     1 <1>   0.0800 
 39 H       -0.6590     3.5870    -1.6440 H     1 <1>   0.0800 
 40 H        0.7970     2.9980    -0.8860 H     1 <1>   0.0800 
 41 H       -6.1260    -1.5820    -0.9310 H     1 <1>   0.4500 
 42 H        0.1080     4.0560     1.2360 H     1 <1>   0.0800 
 43 H       -5.8790    -2.5650     1.8310 H     1 <1>   0.0800 
 44 H       -7.3900    -2.3820     0.9700 H     1 <1>   0.0800 
 45 H       -3.3810     7.3030    -0.8430 H     1 <1>   0.0800 
 46 H       -2.8410     7.2010     0.8270 H     1 <1>   0.0800 
 47 H       -4.0780     6.0890     0.2200 H     1 <1>   0.0800 
 48 H       -0.2680     5.9800    -0.6960 H     1 <1>   0.4000 
 49 H       -4.6080    -4.5140     1.5470 H     1 <1>   0.1500 
 50 H       -7.6280    -3.6350    -1.3620 H     1 <1>   0.1500 
 51 H       -7.1160    -5.8380    -2.3610 H     1 <1>   0.1500 
 52 H       -5.3820    -7.2410    -1.3780 H     1 <1>   0.1500 
@<TRIPOS>BOND
  1   1   2  2   
  2   2   3  am  
  3   2   4  1   
  4   3   5  1   
  5   3   6  1   
  6   4   7  1   
  7   4   8  1   
  8   4  25  1   
  9   5   9  1   
 10   5  26  1   
 11   5  27  1   
 12   6  10  1   
 13   6  28  1   
 14   6  29  1   
 15   7  11  1   
 16   7  30  1   
 17   7  31  1   
 18   8  12  1   
 19   8  32  1   
 20   8  33  1   
 21   9  13  1   
 22   9  34  1   
 23   9  35  1   
 24  10  13  1   
 25  10  36  1   
 26  10  37  1   
 27  11  14  1   
 28  11  15  1   
 29  11  38  1   
 30  12  15  1   
 31  12  39  1   
 32  12  40  1   
 33  13  16  1   
 34  13  41  1   
 35  14  17  1   
 36  15  18  1   
 37  15  42  1   
 38  16  19  1   
 39  16  43  1   
 40  16  44  1   
 41  17  45  1   
 42  17  46  1   
 43  17  47  1   
 44  18  48  1   
 45  19  20  ar  
 46  19  21  ar  
 47  20  22  ar  
 48  20  49  1   
 49  21  23  ar  
 50  21  50  1   
 51  22  24  ar  
 52  23  24  ar  
 53  23  51  1   
 54  24  52  1   
@<TRIPOS>SUBSTRUCTURE
  1 ****   3 GROUP 4 **** **** 0

# MOE 2024.06 (io_trps.svl 2023.06)
