@<TRIPOS>MOLECULE
NONAME
51 54 1 0 0 
SMALL
USER_CHARGES


@<TRIPOS>ATOM
  1 O       -0.1830    -0.9150    -2.0500 O.2   1 <1>  -0.5700 
  2 C        0.7210    -1.3090    -1.3240 C.2   1 <1>   0.5440 
  3 N        1.3590    -2.5120    -1.5940 N.am  1 <1>  -0.2980 
  4 C        1.1360    -0.5670    -0.1660 C.ar  1 <1>   0.0860 
  5 N        2.3470    -3.0370    -0.7970 N.2   1 <1>  -0.5120 
  6 C        0.9660    -3.3240    -2.7960 C.3   1 <1>   0.2010 
  7 C        2.1480    -1.1130     0.6390 C.ar  1 <1>   0.0860 
  8 C        0.5680     0.6620     0.1830 C.ar  1 <1>  -0.1500 
  9 C        2.7100    -2.3780     0.2450 C.2   1 <1>   0.3030 
 10 C        0.6960    -4.7900    -2.4640 C.2   1 <1>   0.5690 
 11 C        2.5490    -0.3940     1.7770 C.ar  1 <1>  -0.1500 
 12 C        0.9800     1.3490     1.3030 C.ar  1 <1>  -0.1500 
 13 C        3.7950    -3.0110     1.0980 C.3   1 <1>  -0.1790 
 14 O        1.3670    -5.6270    -3.0240 O.2   1 <1>  -0.5700 
 15 N       -0.2680    -5.1600    -1.5580 N.am  1 <1>  -0.6600 
 16 C        1.9770     0.8150     2.1050 C.ar  1 <1>  -0.1500 
 17 C       -1.2390    -4.2710    -0.8730 C.3   1 <1>   0.1400 
 18 C       -0.0850    -6.3910    -0.7470 C.3   1 <1>   0.1400 
 19 C       -1.0630    -4.6170     0.6020 C.3   1 <1>   0.2000 
 20 C       -0.7950    -6.1240     0.5930 C.3   1 <1>  -0.0800 
 21 O        0.0710    -3.9670     1.0630 O.3   1 <1>  -0.6800 
 22 C       -2.1090    -6.9180     0.7050 C.3   1 <1>   0.0210 
 23 C       -1.8610    -8.4140     0.6780 C.2   1 <1>   0.1080 
 24 N       -1.1880    -9.0290     1.5990 N.2   1 <1>  -0.7070 
 25 C       -2.3080    -9.2800    -0.3140 C.2   1 <1>  -0.1500 
 26 N       -1.1850   -10.3190     1.2150 N.pl3 1 <1>   0.3000 
 27 C       -1.8570   -10.4970     0.0580 C.2   1 <1>  -0.3320 
 28 C       -2.0290   -11.8370    -0.6320 C.3   1 <1>  -0.0600 
 29 H        0.0890    -2.9200    -3.2650 H     1 <1>   0.0800 
 30 H        1.7700    -3.2790    -3.5060 H     1 <1>   0.0800 
 31 H       -0.2080     1.0740    -0.4410 H     1 <1>   0.1500 
 32 H        3.3180    -0.7840     2.4180 H     1 <1>   0.1500 
 33 H        0.5320     2.2950     1.5600 H     1 <1>   0.1500 
 34 H        4.6500    -2.3620     1.1520 H     1 <1>   0.0800 
 35 H        4.1090    -3.9470     0.6710 H     1 <1>   0.0800 
 36 H        3.4200    -3.2010     2.0870 H     1 <1>   0.0800 
 37 H        2.2980     1.3520     2.9820 H     1 <1>   0.1500 
 38 H       -1.0830    -3.2260    -1.0600 H     1 <1>   0.0800 
 39 H       -2.2320    -4.5320    -1.1940 H     1 <1>   0.0800 
 40 H       -0.4890    -7.2400    -1.2700 H     1 <1>   0.0800 
 41 H        0.9660    -6.5580    -0.5800 H     1 <1>   0.0800 
 42 H       -1.8960    -4.3240     1.2170 H     1 <1>   0.0800 
 43 H       -0.1630    -6.4070     1.4180 H     1 <1>   0.0800 
 44 H        0.7780    -4.0470     0.3800 H     1 <1>   0.4000 
 45 H       -2.7760    -6.6580    -0.0970 H     1 <1>   0.0800 
 46 H       -2.5930    -6.6790     1.6350 H     1 <1>   0.0800 
 47 H       -2.8840    -9.0110    -1.1820 H     1 <1>   0.1500 
 48 H       -0.7160   -11.0500     1.7620 H     1 <1>   0.2700 
 49 H       -2.6010   -11.7180    -1.5350 H     1 <1>   0.0800 
 50 H       -2.5460   -12.5250     0.0130 H     1 <1>   0.0800 
 51 H       -1.0690   -12.2490    -0.8880 H     1 <1>   0.0800 
@<TRIPOS>BOND
  1   1   2  2   
  2   2   3  am  
  3   2   4  1   
  4   3   5  1   
  5   3   6  1   
  6   4   7  ar  
  7   4   8  ar  
  8   5   9  2   
  9   6  10  1   
 10   6  29  1   
 11   6  30  1   
 12   7   9  1   
 13   7  11  ar  
 14   8  12  ar  
 15   8  31  1   
 16   9  13  1   
 17  10  14  2   
 18  10  15  am  
 19  11  16  ar  
 20  11  32  1   
 21  12  16  ar  
 22  12  33  1   
 23  13  34  1   
 24  13  35  1   
 25  13  36  1   
 26  15  17  1   
 27  15  18  1   
 28  16  37  1   
 29  17  19  1   
 30  17  38  1   
 31  17  39  1   
 32  18  20  1   
 33  18  40  1   
 34  18  41  1   
 35  19  20  1   
 36  19  21  1   
 37  19  42  1   
 38  20  22  1   
 39  20  43  1   
 40  21  44  1   
 41  22  23  1   
 42  22  45  1   
 43  22  46  1   
 44  23  24  2   
 45  23  25  1   
 46  24  26  1   
 47  25  27  2   
 48  25  47  1   
 49  26  27  1   
 50  26  48  1   
 51  27  28  1   
 52  28  49  1   
 53  28  50  1   
 54  28  51  1   
@<TRIPOS>SUBSTRUCTURE
  1 ****  21 GROUP 4 **** **** 0

# MOE 2024.06 (io_trps.svl 2023.06)
