@<TRIPOS>MOLECULE
NONAME
37 38 1 0 0 
SMALL
USER_CHARGES


@<TRIPOS>ATOM
  1 O       -0.7810     0.7960     0.8550 O.2   1 <1>  -0.5700 
  2 C       -0.4110     1.9370     0.7120 C.2   1 <1>   0.5690 
  3 N       -0.4530     2.5780    -0.5010 N.am  1 <1>  -0.6600 
  4 C        0.1290     2.6530     1.9390 C.3   1 <1>  -0.0990 
  5 C       -0.0840     4.0180    -0.6910 C.3   1 <1>   0.1400 
  6 C       -0.9650     1.9060    -1.7260 C.3   1 <1>   0.0600 
  7 C        0.0820     4.1840     1.8260 C.3   1 <1>  -0.1600 
  8 C        0.6890     4.6230     0.4960 C.3   1 <1>   0.2890 
  9 N        0.6420     6.0970     0.4380 N.pl3 1 <1>  -0.8690 
 10 C        1.3340     6.8760    -0.4590 C.ar  1 <1>   0.4100 
 11 N        2.2990     6.2570    -1.1370 N.ar  1 <1>  -0.6200 
 12 C        1.0120     8.2390    -0.6190 C.ar  1 <1>   0.0860 
 13 C        2.9790     6.9870    -1.9980 C.ar  1 <1>   0.1600 
 14 C       -0.0430     8.8610     0.1480 C.2   1 <1>   0.5440 
 15 C        1.7500     8.9710    -1.5420 C.ar  1 <1>  -0.1500 
 16 C        2.7490     8.3290    -2.2370 C.ar  1 <1>  -0.1500 
 17 O       -1.0950     8.2860     0.3690 O.2   1 <1>  -0.5700 
 18 N        0.1220    10.1270     0.6450 N.am  1 <1>  -0.7300 
 19 C       -0.8850    10.8860     1.4320 C.3   1 <1>   0.0600 
 20 H        1.1450     2.3340     2.0800 H     1 <1>   0.0800 
 21 H       -0.4360     2.3400     2.7990 H     1 <1>   0.0800 
 22 H       -0.9900     4.5780    -0.8370 H     1 <1>   0.0800 
 23 H        0.5230     4.1150    -1.5740 H     1 <1>   0.0800 
 24 H       -1.2100     0.8770    -1.5250 H     1 <1>   0.0800 
 25 H       -0.2140     1.9340    -2.4960 H     1 <1>   0.0800 
 26 H       -1.8500     2.4100    -2.0730 H     1 <1>   0.0800 
 27 H        0.6310     4.6240     2.6400 H     1 <1>   0.0800 
 28 H       -0.9420     4.5110     1.8780 H     1 <1>   0.0800 
 29 H        1.7160     4.2990     0.4470 H     1 <1>   0.0800 
 30 H       -0.2450     6.5130     0.7630 H     1 <1>   0.4000 
 31 H        3.7630     6.4910    -2.5450 H     1 <1>   0.1500 
 32 H        1.5400    10.0120    -1.7160 H     1 <1>   0.1500 
 33 H        3.3450     8.8570    -2.9610 H     1 <1>   0.1500 
 34 H        1.0420    10.5650     0.5700 H     1 <1>   0.3700 
 35 H       -1.8370    10.3820     1.4140 H     1 <1>   0.0800 
 36 H       -1.0090    11.8700     1.0140 H     1 <1>   0.0800 
 37 H       -0.5590    10.9720     2.4530 H     1 <1>   0.0800 
@<TRIPOS>BOND
  1   1   2  2   
  2   2   3  am  
  3   2   4  1   
  4   3   5  1   
  5   3   6  1   
  6   4   7  1   
  7   4  20  1   
  8   4  21  1   
  9   5   8  1   
 10   5  22  1   
 11   5  23  1   
 12   6  24  1   
 13   6  25  1   
 14   6  26  1   
 15   7   8  1   
 16   7  27  1   
 17   7  28  1   
 18   8   9  1   
 19   8  29  1   
 20   9  10  1   
 21   9  30  1   
 22  10  11  ar  
 23  10  12  ar  
 24  11  13  ar  
 25  12  14  1   
 26  12  15  ar  
 27  13  16  ar  
 28  13  31  1   
 29  14  17  2   
 30  14  18  am  
 31  15  16  ar  
 32  15  32  1   
 33  16  33  1   
 34  18  19  1   
 35  18  34  1   
 36  19  35  1   
 37  19  36  1   
 38  19  37  1   
@<TRIPOS>SUBSTRUCTURE
  1 ****   9 GROUP 4 **** **** 0

# MOE 2024.06 (io_trps.svl 2023.06)
