@<TRIPOS>MOLECULE
NONAME
41 42 1 0 0 
SMALL
USER_CHARGES


@<TRIPOS>ATOM
  1 CL       1.8010    -0.8840     1.6130 Cl    1 <1>  -0.1770 
  2 C        1.1660    -2.2920     0.8080 C.ar  1 <1>   0.1770 
  3 C        0.8530    -3.4140     1.5480 C.ar  1 <1>  -0.1500 
  4 C        0.9840    -2.2660    -0.5650 C.ar  1 <1>  -0.1500 
  5 C        0.3480    -4.5120     0.8790 C.ar  1 <1>   0.1900 
  6 C        0.4740    -3.3820    -1.2090 C.ar  1 <1>  -0.1500 
  7 F        0.0680    -5.5690     1.5900 F     1 <1>  -0.1900 
  8 C        0.1340    -4.5360    -0.4990 C.ar  1 <1>   0.0860 
  9 C       -0.4070    -5.6910    -1.1780 C.2   1 <1>   0.5440 
 10 O        0.3100    -6.2910    -1.9560 O.2   1 <1>  -0.5700 
 11 N       -1.7140    -6.0970    -1.0080 N.am  1 <1>  -0.6600 
 12 C       -2.2000    -7.4160    -1.5330 C.3   1 <1>   0.1400 
 13 C       -2.7550    -5.2800    -0.3200 C.3   1 <1>   0.1400 
 14 C       -2.9530    -8.2090    -0.4520 C.3   1 <1>   0.2000 
 15 C       -3.4390    -6.1060     0.7720 C.3   1 <1>  -0.1600 
 16 O       -3.4650    -9.3640    -1.0200 O.3   1 <1>  -0.6800 
 17 C       -4.0910    -7.4120     0.2360 C.3   1 <1>  -0.1060 
 18 C       -4.6180    -8.2770     1.3990 C.2   1 <1>   0.9060 
 19 C       -5.2580    -7.1050    -0.7590 C.3   1 <1>  -0.1600 
 20 O       -4.7650    -7.7810     2.5230 O.co2 1 <1>  -0.9000 
 21 O       -4.8880    -9.4690     1.1790 O.co2 1 <1>  -0.9000 
 22 C       -6.4030    -6.2610    -0.1720 C.3   1 <1>  -0.1600 
 23 C       -7.5520    -6.1250    -1.1750 C.3   1 <1>  -0.2400 
 24 H        0.9990    -3.4340     2.6120 H     1 <1>   0.1500 
 25 H        1.2430    -1.3810    -1.1190 H     1 <1>   0.1500 
 26 H        0.3360    -3.3750    -2.2770 H     1 <1>   0.1500 
 27 H       -2.8490    -7.2390    -2.3710 H     1 <1>   0.0800 
 28 H       -1.3700    -8.0110    -1.8700 H     1 <1>   0.0800 
 29 H       -2.3260    -4.4010     0.1250 H     1 <1>   0.0800 
 30 H       -3.4810    -4.9560    -1.0440 H     1 <1>   0.0800 
 31 H       -2.2450    -8.5220     0.2960 H     1 <1>   0.0800 
 32 H       -2.7040    -6.3630     1.5150 H     1 <1>   0.0800 
 33 H       -4.1730    -5.5050     1.2770 H     1 <1>   0.0800 
 34 H       -4.0820    -9.7380    -0.3210 H     1 <1>   0.4000 
 35 H       -4.8850    -6.6170    -1.6390 H     1 <1>   0.0800 
 36 H       -5.6770    -8.0440    -1.0790 H     1 <1>   0.0800 
 37 H       -6.7720    -6.7290     0.7260 H     1 <1>   0.0800 
 38 H       -6.0510    -5.2790     0.0850 H     1 <1>   0.0800 
 39 H       -7.9450    -7.0960    -1.4210 H     1 <1>   0.0800 
 40 H       -7.2110    -5.6480    -2.0760 H     1 <1>   0.0800 
 41 H       -8.3430    -5.5350    -0.7470 H     1 <1>   0.0800 
@<TRIPOS>BOND
  1   1   2  1   
  2   2   3  ar  
  3   2   4  ar  
  4   3   5  ar  
  5   3  24  1   
  6   4   6  ar  
  7   4  25  1   
  8   5   7  1   
  9   5   8  ar  
 10   6   8  ar  
 11   6  26  1   
 12   8   9  1   
 13   9  10  2   
 14   9  11  am  
 15  11  12  1   
 16  11  13  1   
 17  12  14  1   
 18  12  27  1   
 19  12  28  1   
 20  13  15  1   
 21  13  29  1   
 22  13  30  1   
 23  14  16  1   
 24  14  17  1   
 25  14  31  1   
 26  15  17  1   
 27  15  32  1   
 28  15  33  1   
 29  16  34  1   
 30  17  18  1   
 31  17  19  1   
 32  18  20  ar  
 33  18  21  ar  
 34  19  22  1   
 35  19  35  1   
 36  19  36  1   
 37  22  23  1   
 38  22  37  1   
 39  22  38  1   
 40  23  39  1   
 41  23  40  1   
 42  23  41  1   
@<TRIPOS>SUBSTRUCTURE
  1 ****  13 GROUP 4 **** **** 0

# MOE 2024.06 (io_trps.svl 2023.06)
