@<TRIPOS>MOLECULE
NONAME
48 49 1 0 0 
SMALL
USER_CHARGES


@<TRIPOS>ATOM
  1 O       -0.9070    -1.3670    -1.7370 O.2   1 <1>  -0.5700 
  2 C       -1.5070    -0.9990    -0.7610 C.2   1 <1>   0.4230 
  3 C       -2.8950    -1.3240    -0.5620 C.ar  1 <1>   0.0860 
  4 C       -0.6960    -0.2510     0.2800 C.3   1 <1>  -0.1790 
  5 C       -3.8660    -0.5490     0.0710 C.ar  1 <1>   0.1660 
  6 C       -3.3560    -2.5410    -1.0420 C.ar  1 <1>   0.1600 
  7 N       -5.0950    -0.9690     0.2360 N.ar  1 <1>  -0.6200 
  8 C       -3.6050     0.8550     0.5920 C.3   1 <1>  -0.0960 
  9 N       -4.5840    -2.9790    -0.8930 N.ar  1 <1>  -0.6200 
 10 C       -5.4190    -2.1530    -0.2670 C.ar  1 <1>   0.7200 
 11 N       -6.7140    -2.5750    -0.1340 N.pl3 1 <1>  -0.8380 
 12 C       -7.3970    -3.2070    -1.3000 C.3   1 <1>   0.3530 
 13 C       -7.6540    -1.8530     0.7830 C.3   1 <1>   0.1290 
 14 C       -8.3350    -4.3490    -0.8970 C.ar  1 <1>  -0.1430 
 15 C       -8.0570    -5.3060     0.0850 C.ar  1 <1>  -0.1430 
 16 C       -9.5390    -4.4290    -1.5860 C.ar  1 <1>  -0.1500 
 17 C       -8.9850    -6.3060     0.3490 C.ar  1 <1>  -0.1500 
 18 C       -6.7780    -5.3250     0.9120 C.3   1 <1>   0.4860 
 19 C      -10.4540    -5.4290    -1.3170 C.ar  1 <1>  -0.1500 
 20 C      -10.1760    -6.3700    -0.3470 C.ar  1 <1>  -0.1500 
 21 N       -5.5790    -5.5700     0.0620 N.4   1 <1>  -0.9590 
 22 C       -5.7640    -6.6830    -0.9180 C.3   1 <1>   0.2630 
 23 C       -4.3590    -5.7530     0.8940 C.3   1 <1>   0.2630 
 24 H       -1.1060    -0.3920     1.2620 H     1 <1>   0.0800 
 25 H       -0.6650     0.7950     0.0400 H     1 <1>   0.0800 
 26 H        0.3120    -0.6240     0.2800 H     1 <1>   0.0800 
 27 H       -2.6590    -3.1720    -1.5710 H     1 <1>   0.1500 
 28 H       -2.9630     1.3990    -0.0760 H     1 <1>   0.0800 
 29 H       -3.1640     0.8140     1.5710 H     1 <1>   0.0800 
 30 H       -4.5300     1.3990     0.6660 H     1 <1>   0.0800 
 31 H       -6.6850    -3.5840    -2.0120 H     1 <1>   0.0800 
 32 H       -7.9620    -2.4410    -1.8070 H     1 <1>   0.0800 
 33 H       -7.1530    -1.5890     1.6990 H     1 <1>   0.0800 
 34 H       -8.5010    -2.4720     1.0240 H     1 <1>   0.0800 
 35 H       -8.0030    -0.9510     0.3100 H     1 <1>   0.0800 
 36 H       -9.7820    -3.7080    -2.3490 H     1 <1>   0.1500 
 37 H       -8.7950    -7.0500     1.1040 H     1 <1>   0.1500 
 38 H       -6.8550    -6.1000     1.6550 H     1 <1>   0.0800 
 39 H       -6.6720    -4.3840     1.4270 H     1 <1>   0.0800 
 40 H      -11.3820    -5.4730    -1.8610 H     1 <1>   0.1500 
 41 H      -10.8900    -7.1480    -0.1340 H     1 <1>   0.1500 
 42 H       -5.4540    -4.6770    -0.4610 H     1 <1>   0.4500 
 43 H       -5.9370    -7.6120    -0.4020 H     1 <1>   0.0800 
 44 H       -4.8870    -6.7840    -1.5360 H     1 <1>   0.0800 
 45 H       -6.6090    -6.4820    -1.5570 H     1 <1>   0.0800 
 46 H       -4.4440    -6.6420     1.4970 H     1 <1>   0.0800 
 47 H       -4.2220    -4.9020     1.5410 H     1 <1>   0.0800 
 48 H       -3.4910    -5.8430     0.2620 H     1 <1>   0.0800 
@<TRIPOS>BOND
  1   1   2  2   
  2   2   3  1   
  3   2   4  1   
  4   3   5  ar  
  5   3   6  ar  
  6   4  24  1   
  7   4  25  1   
  8   4  26  1   
  9   5   7  ar  
 10   5   8  1   
 11   6   9  ar  
 12   6  27  1   
 13   7  10  ar  
 14   8  28  1   
 15   8  29  1   
 16   8  30  1   
 17   9  10  ar  
 18  10  11  1   
 19  11  12  1   
 20  11  13  1   
 21  12  14  1   
 22  12  31  1   
 23  12  32  1   
 24  13  33  1   
 25  13  34  1   
 26  13  35  1   
 27  14  15  ar  
 28  14  16  ar  
 29  15  17  ar  
 30  15  18  1   
 31  16  19  ar  
 32  16  36  1   
 33  17  20  ar  
 34  17  37  1   
 35  18  21  1   
 36  18  38  1   
 37  18  39  1   
 38  19  20  ar  
 39  19  40  1   
 40  20  41  1   
 41  21  22  1   
 42  21  23  1   
 43  21  42  1   
 44  22  43  1   
 45  22  44  1   
 46  22  45  1   
 47  23  46  1   
 48  23  47  1   
 49  23  48  1   
@<TRIPOS>SUBSTRUCTURE
  1 ****  10 GROUP 4 **** **** 0

# MOE 2024.06 (io_trps.svl 2023.06)
