@<TRIPOS>MOLECULE
NONAME
63 66 1 0 0 
SMALL
USER_CHARGES


@<TRIPOS>ATOM
  1 O       -1.0870    -0.7390     0.2820 O.2   1 <1>  -0.5700 
  2 C        0.0510    -1.1320     0.4770 C.2   1 <1>   0.5440 
  3 N        1.0200    -0.2550     0.8990 N.am  1 <1>  -0.6600 
  4 C        0.3220    -2.5350     0.2620 C.ar  1 <1>   0.0860 
  5 C        0.7370     1.1830     1.1980 C.3   1 <1>   0.1400 
  6 C        2.4610    -0.6190     1.0760 C.3   1 <1>   0.1400 
  7 C        0.4840    -3.4090     1.3340 C.ar  1 <1>  -0.1500 
  8 C        0.3800    -3.0680    -1.0240 C.ar  1 <1>  -0.1500 
  9 C        1.7520     2.0990     0.4930 C.3   1 <1>   0.1200 
 10 C        3.3710     0.4030     0.3730 C.3   1 <1>   0.1200 
 11 C        0.6180    -4.7680     1.1290 C.ar  1 <1>  -0.1500 
 12 C        0.5100    -4.4290    -1.2240 C.ar  1 <1>  -0.1500 
 13 O        3.0610     1.7010     0.7870 O.3   1 <1>  -0.5600 
 14 C        0.5820    -5.3160    -0.1520 C.ar  1 <1>   0.0860 
 15 C        0.6310    -6.7480    -0.3660 C.2   1 <1>   0.5440 
 16 O        1.5660    -7.2020    -0.9960 O.2   1 <1>  -0.5700 
 17 N       -0.3340    -7.6160     0.1170 N.am  1 <1>  -0.6600 
 18 C       -1.8120    -7.3780     0.1580 C.3   1 <1>   0.2200 
 19 C        0.0340    -9.0440     0.3400 C.3   1 <1>   0.0600 
 20 C       -2.3740    -6.6420    -1.0560 C.3   1 <1>  -0.1600 
 21 C       -2.2740    -6.6020     1.3910 C.3   1 <1>  -0.1600 
 22 C       -3.6470    -5.9470    -0.5530 C.3   1 <1>  -0.0800 
 23 C       -3.4200    -5.6800     0.9390 C.3   1 <1>  -0.0800 
 24 C       -3.8770    -4.5780    -1.1950 C.3   1 <1>  -0.1600 
 25 C       -3.1350    -4.1690     1.0700 C.3   1 <1>  -0.1600 
 26 C       -3.0080    -3.6410    -0.3610 C.3   1 <1>   0.4230 
 27 N       -3.3440    -2.1930    -0.5210 N.4   1 <1>  -0.9590 
 28 C       -4.6900    -1.7700    -0.0260 C.3   1 <1>   0.2630 
 29 C       -3.1460    -1.7400    -1.9280 C.3   1 <1>   0.2630 
 30 H       -0.2560     1.4510     0.8830 H     1 <1>   0.0800 
 31 H        0.8010     1.3430     2.2600 H     1 <1>   0.0800 
 32 H        2.6970    -0.6300     2.1260 H     1 <1>   0.0800 
 33 H        2.6660    -1.5970     0.6780 H     1 <1>   0.0800 
 34 H        0.4920    -3.0140     2.3360 H     1 <1>   0.1500 
 35 H        0.3170    -2.4040    -1.8690 H     1 <1>   0.1500 
 36 H        1.6340     3.1130     0.8310 H     1 <1>   0.0800 
 37 H        1.6130     2.0710    -0.5740 H     1 <1>   0.0800 
 38 H        3.2570     0.3440    -0.6960 H     1 <1>   0.0800 
 39 H        4.4000     0.2170     0.6210 H     1 <1>   0.0800 
 40 H        0.7460    -5.4300     1.9690 H     1 <1>   0.1500 
 41 H        0.5560    -4.8300    -2.2240 H     1 <1>   0.1500 
 42 H       -2.3110    -8.3340     0.1860 H     1 <1>   0.0800 
 43 H       -0.4360    -9.4120     1.2360 H     1 <1>   0.0800 
 44 H        1.1010    -9.1460     0.4500 H     1 <1>   0.0800 
 45 H       -0.2830    -9.6370    -0.5000 H     1 <1>   0.0800 
 46 H       -1.6790    -5.9190    -1.4270 H     1 <1>   0.0800 
 47 H       -2.5990    -7.3350    -1.8480 H     1 <1>   0.0800 
 48 H       -2.6390    -7.3000     2.1230 H     1 <1>   0.0800 
 49 H       -1.4750    -6.0530     1.8410 H     1 <1>   0.0800 
 50 H       -4.4940    -6.5990    -0.6960 H     1 <1>   0.0800 
 51 H       -4.3150    -5.9210     1.4910 H     1 <1>   0.0800 
 52 H       -4.9160    -4.3230    -1.0950 H     1 <1>   0.0800 
 53 H       -3.5990    -4.5800    -2.2340 H     1 <1>   0.0800 
 54 H       -2.2410    -3.9670     1.6300 H     1 <1>   0.0800 
 55 H       -3.9650    -3.7250     1.5840 H     1 <1>   0.0800 
 56 H       -1.9880    -3.7960    -0.6670 H     1 <1>   0.0800 
 57 H       -2.6280    -1.6660     0.0300 H     1 <1>   0.4500 
 58 H       -5.4680    -2.3040    -0.5450 H     1 <1>   0.0800 
 59 H       -4.8280    -0.7140    -0.1890 H     1 <1>   0.0800 
 60 H       -4.7810    -1.9600     1.0300 H     1 <1>   0.0800 
 61 H       -3.8600    -2.2140    -2.5810 H     1 <1>   0.0800 
 62 H       -2.1510    -1.9870    -2.2600 H     1 <1>   0.0800 
 63 H       -3.2690    -0.6710    -1.9940 H     1 <1>   0.0800 
@<TRIPOS>BOND
  1   1   2  2   
  2   2   3  am  
  3   2   4  1   
  4   3   5  1   
  5   3   6  1   
  6   4   7  ar  
  7   4   8  ar  
  8   5   9  1   
  9   5  30  1   
 10   5  31  1   
 11   6  10  1   
 12   6  32  1   
 13   6  33  1   
 14   7  11  ar  
 15   7  34  1   
 16   8  12  ar  
 17   8  35  1   
 18   9  13  1   
 19   9  36  1   
 20   9  37  1   
 21  10  13  1   
 22  10  38  1   
 23  10  39  1   
 24  11  14  ar  
 25  11  40  1   
 26  12  14  ar  
 27  12  41  1   
 28  14  15  1   
 29  15  16  2   
 30  15  17  am  
 31  17  18  1   
 32  17  19  1   
 33  18  20  1   
 34  18  21  1   
 35  18  42  1   
 36  19  43  1   
 37  19  44  1   
 38  19  45  1   
 39  20  22  1   
 40  20  46  1   
 41  20  47  1   
 42  21  23  1   
 43  21  48  1   
 44  21  49  1   
 45  22  23  1   
 46  22  24  1   
 47  22  50  1   
 48  23  25  1   
 49  23  51  1   
 50  24  26  1   
 51  24  52  1   
 52  24  53  1   
 53  25  26  1   
 54  25  54  1   
 55  25  55  1   
 56  26  27  1   
 57  26  56  1   
 58  27  28  1   
 59  27  29  1   
 60  27  57  1   
 61  28  58  1   
 62  28  59  1   
 63  28  60  1   
 64  29  61  1   
 65  29  62  1   
 66  29  63  1   
@<TRIPOS>SUBSTRUCTURE
  1 ****   4 GROUP 4 **** **** 0

# MOE 2024.06 (io_trps.svl 2023.06)
