@<TRIPOS>MOLECULE
NONAME
49 51 1 0 0 
SMALL
USER_CHARGES


@<TRIPOS>ATOM
  1 S        0.9820     0.0380    -1.1490 S.o2  1 <1>   1.5010 
  2 O        2.1590    -0.8020    -1.0820 O.2   1 <1>  -0.6500 
  3 O        0.5230     0.5390    -2.4240 O.2   1 <1>  -0.6500 
  4 N        1.3830     1.3860    -0.2030 N.am  1 <1>  -0.8490 
  5 C       -0.3790    -0.7020    -0.2350 C.2   1 <1>  -0.0630 
  6 C        1.8430     1.1130     1.1820 C.3   1 <1>   0.2760 
  7 C        1.9510     2.5400    -0.9260 C.3   1 <1>   0.1960 
  8 C       -1.5420    -0.0480     0.1620 C.2   1 <1>   0.1080 
  9 C       -0.5410    -1.9620     0.2440 C.2   1 <1>  -0.3020 
 10 C        1.5480     2.3000     2.1300 C.3   1 <1>   0.1200 
 11 C        3.3180     0.6370     1.3210 C.3   1 <1>   0.3430 
 12 C        3.2420     3.1270    -0.3230 C.3   1 <1>  -0.0800 
 13 N       -2.3350    -0.8150     0.8400 N.2   1 <1>  -0.7070 
 14 C       -1.9010     1.3940    -0.1340 C.3   1 <1>  -0.0590 
 15 N       -1.7250    -2.0090     0.8790 N.pl3 1 <1>   0.3140 
 16 O        1.8280     3.5610     1.5930 O.3   1 <1>  -0.5600 
 17 N        4.1610     0.7720     0.0960 N.4   1 <1>  -0.9590 
 18 C        3.0990     3.7690     1.0720 C.3   1 <1>   0.1200 
 19 C        4.4320     2.1640    -0.3870 C.3   1 <1>   0.3430 
 20 C       -2.3380    -3.1790     1.5410 C.3   1 <1>   0.0960 
 21 C        5.4890     0.0240     0.2450 C.3   1 <1>   0.2370 
 22 C       -3.0030    -4.1090     0.5190 C.3   1 <1>  -0.2400 
 23 C        6.5610     0.2870    -0.8250 C.2   1 <1>   0.9060 
 24 O        7.1040     1.3980    -0.8310 O.co2 1 <1>  -0.9000 
 25 O        6.7780    -0.5810    -1.6680 O.co2 1 <1>  -0.9000 
 26 H        1.2500     0.3050     1.5740 H     1 <1>   0.0800 
 27 H        2.1550     2.2710    -1.9500 H     1 <1>   0.0800 
 28 H        1.2010     3.3140    -0.9530 H     1 <1>   0.0800 
 29 H        0.1140    -2.8100     0.1590 H     1 <1>   0.1500 
 30 H        2.0890     2.2010     3.0550 H     1 <1>   0.0800 
 31 H        0.4990     2.2980     2.3680 H     1 <1>   0.0800 
 32 H        3.2930    -0.4040     1.5970 H     1 <1>   0.0800 
 33 H        3.7850     1.1650     2.1350 H     1 <1>   0.0800 
 34 H        3.5240     3.9390    -0.9700 H     1 <1>   0.0800 
 35 H       -1.7220     1.6190    -1.1690 H     1 <1>   0.0800 
 36 H       -1.3180     2.0550     0.4800 H     1 <1>   0.0800 
 37 H       -2.9430     1.5590     0.0750 H     1 <1>   0.0800 
 38 H        3.6520     0.2780    -0.6660 H     1 <1>   0.4500 
 39 H        3.2230     4.8360     0.9880 H     1 <1>   0.0800 
 40 H        3.8310     3.4070     1.7730 H     1 <1>   0.0800 
 41 H        5.2510     2.5840     0.1770 H     1 <1>   0.0800 
 42 H        4.7720     2.1040    -1.4100 H     1 <1>   0.0800 
 43 H       -1.5750    -3.7050     2.0840 H     1 <1>   0.0800 
 44 H       -3.0720    -2.8210     2.2410 H     1 <1>   0.0800 
 45 H        5.9400     0.2860     1.1830 H     1 <1>   0.0800 
 46 H        5.3060    -1.0350     0.2450 H     1 <1>   0.0800 
 47 H       -2.2750    -4.4840    -0.1790 H     1 <1>   0.0800 
 48 H       -3.7700    -3.5770    -0.0180 H     1 <1>   0.0800 
 49 H       -3.4560    -4.9420     1.0240 H     1 <1>   0.0800 
@<TRIPOS>BOND
  1   1   2  2   
  2   1   3  2   
  3   1   4  am  
  4   1   5  1   
  5   4   6  1   
  6   4   7  1   
  7   5   8  1   
  8   5   9  2   
  9   6  10  1   
 10   6  11  1   
 11   6  26  1   
 12   7  12  1   
 13   7  27  1   
 14   7  28  1   
 15   8  13  2   
 16   8  14  1   
 17   9  15  1   
 18   9  29  1   
 19  10  16  1   
 20  10  30  1   
 21  10  31  1   
 22  11  17  1   
 23  11  32  1   
 24  11  33  1   
 25  12  18  1   
 26  12  19  1   
 27  12  34  1   
 28  13  15  1   
 29  14  35  1   
 30  14  36  1   
 31  14  37  1   
 32  15  20  1   
 33  16  18  1   
 34  17  19  1   
 35  17  21  1   
 36  17  38  1   
 37  18  39  1   
 38  18  40  1   
 39  19  41  1   
 40  19  42  1   
 41  20  22  1   
 42  20  43  1   
 43  20  44  1   
 44  21  23  1   
 45  21  45  1   
 46  21  46  1   
 47  22  47  1   
 48  22  48  1   
 49  22  49  1   
 50  23  24  ar  
 51  23  25  ar  
@<TRIPOS>SUBSTRUCTURE
  1 ****   4 GROUP 4 **** **** 0

# MOE 2024.06 (io_trps.svl 2023.06)
