@<TRIPOS>MOLECULE
NONAME
35 36 1 0 0 
SMALL
USER_CHARGES


@<TRIPOS>ATOM
  1 S        1.6560     0.2520    -0.9860 S.3   1 <1>  -0.0800 
  2 C        2.4140    -0.6770     0.2890 C.2   1 <1>   0.1980 
  3 C        0.1020    -0.3180    -0.4490 C.2   1 <1>  -0.1400 
  4 N        1.5940    -1.3300     1.0150 N.2   1 <1>  -0.5650 
  5 C        3.9310    -0.6120     0.3940 C.3   1 <1>   0.3890 
  6 C        0.2870    -1.1310     0.6060 C.2   1 <1>   0.0460 
  7 C       -1.1050     0.1790    -1.2200 C.3   1 <1>  -0.0600 
  8 N        4.3780     0.6970     0.9320 N.pl3 1 <1>  -0.8690 
  9 C       -0.7730    -1.8600     1.4040 C.3   1 <1>  -0.0590 
 10 C        4.6590     1.7270     0.1080 C.ar  1 <1>   0.7200 
 11 N        4.2210     2.8930     0.5490 N.ar  1 <1>  -0.6200 
 12 N        5.3150     1.4610    -1.0170 N.ar  1 <1>  -0.6200 
 13 C        4.4600     3.9400    -0.2200 C.ar  1 <1>   0.4100 
 14 C        5.5500     2.5090    -1.7820 C.ar  1 <1>   0.1600 
 15 N        4.0010     5.1730     0.2410 N.pl3 1 <1>  -0.8380 
 16 C        5.1410     3.7630    -1.4240 C.ar  1 <1>   0.1900 
 17 C        4.8810     6.3720     0.2190 C.3   1 <1>   0.1290 
 18 C        2.8560     5.2460     1.1910 C.3   1 <1>   0.1290 
 19 F        5.3910     4.7710    -2.2360 F     1 <1>  -0.1900 
 20 H        4.3640    -0.8030    -0.5710 H     1 <1>   0.0800 
 21 H        4.2620    -1.3880     1.0620 H     1 <1>   0.0800 
 22 H       -1.0260    -0.1190    -2.2500 H     1 <1>   0.0800 
 23 H       -1.1520     1.2520    -1.1710 H     1 <1>   0.0800 
 24 H       -2.0130    -0.2250    -0.8120 H     1 <1>   0.0800 
 25 H        3.7850     1.0200     1.6950 H     1 <1>   0.4000 
 26 H       -1.7550    -1.6530     1.0230 H     1 <1>   0.0800 
 27 H       -0.7250    -1.5470     2.4310 H     1 <1>   0.0800 
 28 H       -0.5950    -2.9180     1.3550 H     1 <1>   0.0800 
 29 H        6.0750     2.3600    -2.7090 H     1 <1>   0.1500 
 30 H        5.8770     6.1040    -0.0870 H     1 <1>   0.0800 
 31 H        4.9340     6.8100     1.2010 H     1 <1>   0.0800 
 32 H        4.4850     7.0970    -0.4710 H     1 <1>   0.0800 
 33 H        2.1640     4.4440     0.9990 H     1 <1>   0.0800 
 34 H        2.3370     6.1810     1.0730 H     1 <1>   0.0800 
 35 H        3.2160     5.1600     2.2020 H     1 <1>   0.0800 
@<TRIPOS>BOND
  1   1   2  1   
  2   1   3  1   
  3   2   4  2   
  4   2   5  1   
  5   3   6  2   
  6   3   7  1   
  7   4   6  1   
  8   5   8  1   
  9   5  20  1   
 10   5  21  1   
 11   6   9  1   
 12   7  22  1   
 13   7  23  1   
 14   7  24  1   
 15   8  10  1   
 16   8  25  1   
 17   9  26  1   
 18   9  27  1   
 19   9  28  1   
 20  10  11  ar  
 21  10  12  ar  
 22  11  13  ar  
 23  12  14  ar  
 24  13  15  1   
 25  13  16  ar  
 26  14  16  ar  
 27  14  29  1   
 28  15  17  1   
 29  15  18  1   
 30  16  19  1   
 31  17  30  1   
 32  17  31  1   
 33  17  32  1   
 34  18  33  1   
 35  18  34  1   
 36  18  35  1   
@<TRIPOS>SUBSTRUCTURE
  1 ****  10 GROUP 4 **** **** 0

# MOE 2024.06 (io_trps.svl 2023.06)
