@<TRIPOS>MOLECULE
NONAME
44 46 1 0 0 
SMALL
USER_CHARGES


@<TRIPOS>ATOM
  1 F       -1.0560     0.6150    -1.5420 F     1 <1>  -0.1900 
  2 C       -1.4760     1.0940    -0.3900 C.ar  1 <1>   0.1900 
  3 C       -0.9620     2.2930     0.1060 C.ar  1 <1>   0.4100 
  4 C       -2.4360     0.4180     0.3240 C.ar  1 <1>   0.1660 
  5 N       -1.4130     2.7660     1.2580 N.ar  1 <1>  -0.6200 
  6 N        0.0170     3.0400    -0.5350 N.pl3 1 <1>  -0.8380 
  7 N       -2.8760     0.8950     1.4780 N.ar  1 <1>  -0.6200 
  8 C       -3.0460    -0.8940    -0.1540 C.3   1 <1>  -0.0170 
  9 C       -2.3370     2.0400     1.8660 C.ar  1 <1>   0.4700 
 10 C        1.3370     2.4270    -0.8830 C.3   1 <1>   0.2090 
 11 C        0.1300     4.5210    -0.3260 C.3   1 <1>   0.2090 
 12 C       -4.4030    -0.6660    -0.8320 C.3   1 <1>  -0.2400 
 13 C        2.4160     2.7600     0.1690 C.3   1 <1>   0.2090 
 14 C        1.2060     4.8730     0.7210 C.3   1 <1>   0.2090 
 15 N        2.5280     4.2280     0.4250 N.pl3 1 <1>  -0.8380 
 16 C        3.4920     4.9340    -0.2610 C.ar  1 <1>   0.4100 
 17 N        3.0810     5.6140    -1.3130 N.ar  1 <1>  -0.6200 
 18 C        4.8330     4.9170     0.1170 C.ar  1 <1>  -0.1430 
 19 C        4.0200     6.2500    -1.9790 C.ar  1 <1>   0.4700 
 20 C        5.7160     5.6140    -0.6800 C.ar  1 <1>   0.1670 
 21 C        5.2850     4.1620     1.3700 C.3   1 <1>  -0.0970 
 22 N        5.3160     6.2910    -1.7360 N.ar  1 <1>  -0.6200 
 23 C        7.2100     5.6650    -0.4130 C.3   1 <1>  -0.0970 
 24 H       -3.1760    -1.5460     0.6930 H     1 <1>   0.0800 
 25 H       -2.3830    -1.3880    -0.8410 H     1 <1>   0.0800 
 26 H       -2.6970     2.4330     2.8020 H     1 <1>   0.1500 
 27 H        1.6560     2.8020    -1.8400 H     1 <1>   0.0800 
 28 H        1.2450     1.3590    -0.9600 H     1 <1>   0.0800 
 29 H       -0.8180     4.9230    -0.0150 H     1 <1>   0.0800 
 30 H        0.3900     4.9870    -1.2600 H     1 <1>   0.0800 
 31 H       -5.0850    -0.1990    -0.1430 H     1 <1>   0.0800 
 32 H       -4.8210    -1.6040    -1.1500 H     1 <1>   0.0800 
 33 H       -4.2870    -0.0280    -1.6900 H     1 <1>   0.0800 
 34 H        3.3640     2.3800    -0.1710 H     1 <1>   0.0800 
 35 H        2.1700     2.2630     1.0900 H     1 <1>   0.0800 
 36 H        0.8670     4.5470     1.6880 H     1 <1>   0.0800 
 37 H        1.3280     5.9410     0.7570 H     1 <1>   0.0800 
 38 H        3.6890     6.8070    -2.8380 H     1 <1>   0.1500 
 39 H        4.4880     4.1030     2.0890 H     1 <1>   0.0800 
 40 H        6.1050     4.6640     1.8490 H     1 <1>   0.0800 
 41 H        5.5860     3.1650     1.1070 H     1 <1>   0.0800 
 42 H        7.5670     4.7290    -0.0270 H     1 <1>   0.0800 
 43 H        7.4230     6.4490     0.2900 H     1 <1>   0.0800 
 44 H        7.7400     5.8700    -1.3260 H     1 <1>   0.0800 
@<TRIPOS>BOND
  1   1   2  1   
  2   2   3  ar  
  3   2   4  ar  
  4   3   5  ar  
  5   3   6  1   
  6   4   7  ar  
  7   4   8  1   
  8   5   9  ar  
  9   6  10  1   
 10   6  11  1   
 11   7   9  ar  
 12   8  12  1   
 13   8  24  1   
 14   8  25  1   
 15   9  26  1   
 16  10  13  1   
 17  10  27  1   
 18  10  28  1   
 19  11  14  1   
 20  11  29  1   
 21  11  30  1   
 22  12  31  1   
 23  12  32  1   
 24  12  33  1   
 25  13  15  1   
 26  13  34  1   
 27  13  35  1   
 28  14  15  1   
 29  14  36  1   
 30  14  37  1   
 31  15  16  1   
 32  16  17  ar  
 33  16  18  ar  
 34  17  19  ar  
 35  18  20  ar  
 36  18  21  1   
 37  19  22  ar  
 38  19  38  1   
 39  20  22  ar  
 40  20  23  1   
 41  21  39  1   
 42  21  40  1   
 43  21  41  1   
 44  23  42  1   
 45  23  43  1   
 46  23  44  1   
@<TRIPOS>SUBSTRUCTURE
  1 ****  10 GROUP 4 **** **** 0

# MOE 2024.06 (io_trps.svl 2023.06)
