@<TRIPOS>MOLECULE
NONAME
43 44 1 0 0 
SMALL
USER_CHARGES


@<TRIPOS>ATOM
  1 CL       2.7440    -3.6060     0.4810 Cl    1 <1>  -0.1770 
  2 C        1.1550    -4.2040     0.0730 C.ar  1 <1>   0.1770 
  3 C        0.0630    -3.7770     0.8040 C.ar  1 <1>  -0.1500 
  4 C        1.0150    -5.0930    -0.9740 C.ar  1 <1>  -0.1500 
  5 C       -1.2020    -4.2490     0.4890 C.ar  1 <1>  -0.1440 
  6 C       -0.2450    -5.5680    -1.2940 C.ar  1 <1>  -0.1500 
  7 C       -1.3580    -5.1540    -0.5610 C.ar  1 <1>   0.0830 
  8 C       -2.4030    -3.7680     1.2920 C.3   1 <1>  -0.0960 
  9 O       -2.6190    -5.5960    -0.8160 O.3   1 <1>  -0.3630 
 10 C       -2.9010    -6.5930    -1.7900 C.3   1 <1>   0.1810 
 11 C       -2.3380    -7.9790    -1.4540 C.2   1 <1>   0.5690 
 12 O       -1.7090    -8.5160    -2.3370 O.2   1 <1>  -0.5700 
 13 N       -2.5470    -8.6120    -0.2470 N.am  1 <1>  -0.6600 
 14 C       -2.0690   -10.0090    -0.0670 C.3   1 <1>   0.3200 
 15 C       -3.1120    -7.9570     0.9770 C.3   1 <1>   0.1400 
 16 C       -3.1980   -10.9540    -0.4250 C.2   1 <1>  -0.3320 
 17 C       -4.6290    -7.7310     0.8950 C.3   1 <1>   0.1200 
 18 N       -3.9490   -11.6640     0.4420 N.pl3 1 <1>   0.0480 
 19 C       -3.6500   -11.2560    -1.6620 C.2   1 <1>   0.0770 
 20 O       -5.2790    -8.9350     0.6860 O.3   1 <1>  -0.6800 
 21 C       -4.8200   -12.3420    -0.3390 C.2   1 <1>   0.0360 
 22 C       -3.8810   -11.6950     1.9140 C.3   1 <1>   0.0160 
 23 N       -4.6730   -12.1250    -1.6060 N.2   1 <1>  -0.5650 
 24 H        0.2140    -3.0810     1.6090 H     1 <1>   0.1500 
 25 H        1.8810    -5.4060    -1.5280 H     1 <1>   0.1500 
 26 H       -0.3300    -6.2560    -2.1140 H     1 <1>   0.1500 
 27 H       -2.1120    -3.0370     2.0250 H     1 <1>   0.0800 
 28 H       -2.8640    -4.5960     1.7970 H     1 <1>   0.0800 
 29 H       -3.1250    -3.3190     0.6330 H     1 <1>   0.0800 
 30 H       -2.5120    -6.2570    -2.7330 H     1 <1>   0.0800 
 31 H       -3.9680    -6.6640    -1.8810 H     1 <1>   0.0800 
 32 H       -1.7330   -10.1670     0.9420 H     1 <1>   0.0800 
 33 H       -1.2310   -10.2010    -0.7160 H     1 <1>   0.0800 
 34 H       -2.6200    -7.0160     1.1390 H     1 <1>   0.0800 
 35 H       -2.9070    -8.5590     1.8440 H     1 <1>   0.0800 
 36 H       -4.8830    -7.0630     0.0930 H     1 <1>   0.0800 
 37 H       -4.9970    -7.3150     1.8170 H     1 <1>   0.0800 
 38 H       -3.2830   -10.8780    -2.6040 H     1 <1>   0.1500 
 39 H       -4.8400    -9.4310    -0.0460 H     1 <1>   0.4000 
 40 H       -5.5660   -12.9980     0.0740 H     1 <1>   0.1500 
 41 H       -4.1090   -10.7200     2.3020 H     1 <1>   0.0800 
 42 H       -2.8940   -11.9880     2.2200 H     1 <1>   0.0800 
 43 H       -4.5960   -12.4020     2.2930 H     1 <1>   0.0800 
@<TRIPOS>BOND
  1   1   2  1   
  2   2   3  ar  
  3   2   4  ar  
  4   3   5  ar  
  5   3  24  1   
  6   4   6  ar  
  7   4  25  1   
  8   5   7  ar  
  9   5   8  1   
 10   6   7  ar  
 11   6  26  1   
 12   7   9  1   
 13   8  27  1   
 14   8  28  1   
 15   8  29  1   
 16   9  10  1   
 17  10  11  1   
 18  10  30  1   
 19  10  31  1   
 20  11  12  2   
 21  11  13  am  
 22  13  14  1   
 23  13  15  1   
 24  14  16  1   
 25  14  32  1   
 26  14  33  1   
 27  15  17  1   
 28  15  34  1   
 29  15  35  1   
 30  16  18  1   
 31  16  19  2   
 32  17  20  1   
 33  17  36  1   
 34  17  37  1   
 35  18  21  1   
 36  18  22  1   
 37  19  23  1   
 38  19  38  1   
 39  20  39  1   
 40  21  23  2   
 41  21  40  1   
 42  22  41  1   
 43  22  42  1   
 44  22  43  1   
@<TRIPOS>SUBSTRUCTURE
  1 ****  13 GROUP 4 **** **** 0

# MOE 2024.06 (io_trps.svl 2023.06)
