@<TRIPOS>MOLECULE
NONAME
41 43 1 0 0 
SMALL
USER_CHARGES


@<TRIPOS>ATOM
  1 O       -9.1840    -0.2770    -1.9870 O.2   1 <1>  -0.5700 
  2 C       -8.3590    -0.0200    -1.1300 C.2   1 <1>   0.5440 
  3 N       -7.9090    -1.0630    -0.3700 N.am  1 <1>  -0.7300 
  4 C       -7.8890     1.3450    -0.9320 C.ar  1 <1>   0.0860 
  5 C       -8.2470    -2.4920    -0.5510 C.3   1 <1>   0.1400 
  6 C       -7.1390     1.7750     0.1780 C.ar  1 <1>   0.0830 
  7 C       -8.1930     2.3100    -1.9020 C.ar  1 <1>  -0.1500 
  8 C       -9.7050    -2.7640    -0.1370 C.3   1 <1>  -0.0800 
  9 O       -6.7810     0.8970     1.1560 O.3   1 <1>  -0.3630 
 10 C       -6.7470     3.1150     0.2930 C.ar  1 <1>   0.0830 
 11 C       -7.7900     3.6270    -1.7910 C.ar  1 <1>  -0.1500 
 12 C      -10.0070    -2.3310     1.3100 C.3   1 <1>  -0.1600 
 13 C      -10.0630    -4.2470    -0.3220 C.3   1 <1>  -0.1600 
 14 C       -5.7830     1.2850     2.0830 C.3   1 <1>   0.1200 
 15 O       -6.0500     3.5650     1.3670 O.3   1 <1>  -0.3630 
 16 C       -7.0640     4.0320    -0.6890 C.ar  1 <1>  -0.1500 
 17 C      -11.4580    -2.6300     1.6840 C.3   1 <1>   0.3430 
 18 C      -11.5140    -4.5190     0.0780 C.3   1 <1>   0.3430 
 19 C       -6.0060     2.7380     2.5090 C.3   1 <1>   0.1200 
 20 N      -11.7370    -4.0790     1.4830 N.4   1 <1>  -0.9060 
 21 H       -7.2260    -0.8300     0.3590 H     1 <1>   0.3700 
 22 H       -7.5700    -3.0900     0.0330 H     1 <1>   0.0800 
 23 H       -8.1120    -2.7470    -1.5900 H     1 <1>   0.0800 
 24 H       -8.7610     2.0180    -2.7690 H     1 <1>   0.1500 
 25 H      -10.3380    -2.1960    -0.7990 H     1 <1>   0.0800 
 26 H       -8.0420     4.3370    -2.5600 H     1 <1>   0.1500 
 27 H       -9.8490    -1.2700     1.4100 H     1 <1>   0.0800 
 28 H       -9.3410    -2.8220     1.9980 H     1 <1>   0.0800 
 29 H       -9.4040    -4.8700     0.2580 H     1 <1>   0.0800 
 30 H       -9.9360    -4.5160    -1.3570 H     1 <1>   0.0800 
 31 H       -4.8230     1.1790     1.6080 H     1 <1>   0.0800 
 32 H       -5.8350     0.6260     2.9300 H     1 <1>   0.0800 
 33 H       -6.7460     5.0540    -0.5850 H     1 <1>   0.1500 
 34 H      -12.1130    -2.0410     1.0610 H     1 <1>   0.0800 
 35 H      -11.6310    -2.3550     2.7120 H     1 <1>   0.0800 
 36 H      -11.7270    -5.5720    -0.0200 H     1 <1>   0.0800 
 37 H      -12.1730    -3.9770    -0.5820 H     1 <1>   0.0800 
 38 H       -5.2060     3.0820     3.1390 H     1 <1>   0.0800 
 39 H       -6.9400     2.8390     3.0340 H     1 <1>   0.0800 
 40 H      -12.7050    -4.2830     1.7600 H     1 <1>   0.4500 
 41 H      -11.1240    -4.6220     2.1020 H     1 <1>   0.4500 
@<TRIPOS>BOND
  1   1   2  2   
  2   2   3  am  
  3   2   4  1   
  4   3   5  1   
  5   3  21  1   
  6   4   6  ar  
  7   4   7  ar  
  8   5   8  1   
  9   5  22  1   
 10   5  23  1   
 11   6   9  1   
 12   6  10  ar  
 13   7  11  ar  
 14   7  24  1   
 15   8  12  1   
 16   8  13  1   
 17   8  25  1   
 18   9  14  1   
 19  10  15  1   
 20  10  16  ar  
 21  11  16  ar  
 22  11  26  1   
 23  12  17  1   
 24  12  27  1   
 25  12  28  1   
 26  13  18  1   
 27  13  29  1   
 28  13  30  1   
 29  14  19  1   
 30  14  31  1   
 31  14  32  1   
 32  15  19  1   
 33  16  33  1   
 34  17  20  1   
 35  17  34  1   
 36  17  35  1   
 37  18  20  1   
 38  18  36  1   
 39  18  37  1   
 40  19  38  1   
 41  19  39  1   
 42  20  40  1   
 43  20  41  1   
@<TRIPOS>SUBSTRUCTURE
  1 ****   2 GROUP 4 **** **** 0

# MOE 2024.06 (io_trps.svl 2023.06)
