@<TRIPOS>MOLECULE
NONAME
54 57 1 0 0 
SMALL
USER_CHARGES


@<TRIPOS>ATOM
  1 O        1.4320     0.0580     2.3290 O.2   1 <1>  -0.5700 
  2 C        1.8160    -1.0270     1.9160 C.2   1 <1>   0.4690 
  3 C        2.9530    -1.1680     1.0470 C.ar  1 <1>   0.0860 
  4 C        1.1150    -2.1950     2.2970 C.2   1 <1>  -0.1360 
  5 C        3.3080    -2.4510     0.5900 C.ar  1 <1>   0.1000 
  6 C        3.7160    -0.0680     0.6470 C.ar  1 <1>  -0.1500 
  7 C        1.4570    -3.4260     1.8440 C.2   1 <1>  -0.0380 
  8 N        2.5320    -3.5530     0.9750 N.pl3 1 <1>  -0.6000 
  9 C        4.4330    -2.5940    -0.2360 C.ar  1 <1>  -0.1430 
 10 C        4.8100    -0.2140    -0.1740 C.ar  1 <1>  -0.1430 
 11 C        0.6450    -4.6430     2.2860 C.3   1 <1>   0.4810 
 12 C        5.1630    -1.4840    -0.6090 C.ar  1 <1>  -0.1500 
 13 C        4.8930    -3.9510    -0.7460 C.3   1 <1>  -0.0970 
 14 C        5.6360     0.9840    -0.6060 C.3   1 <1>  -0.0970 
 15 N        0.0790    -5.3400     1.1020 N.4   1 <1>  -0.9590 
 16 C       -0.5380    -4.4670     0.0600 C.3   1 <1>   0.3430 
 17 C       -0.9010    -6.4300     1.3490 C.3   1 <1>   0.3430 
 18 C       -1.4810    -5.3870    -0.7390 C.3   1 <1>   0.2000 
 19 C       -1.4490    -6.7610    -0.0480 C.3   1 <1>  -0.0800 
 20 O       -2.7720    -4.8830    -0.6920 O.3   1 <1>  -0.6800 
 21 C       -0.5620    -7.7930    -0.7980 C.3   1 <1>   0.0200 
 22 C        0.9120    -7.4970    -0.5750 C.2   1 <1>  -0.3320 
 23 N        1.6340    -6.5890    -1.2660 N.pl3 1 <1>   0.3000 
 24 C        1.7190    -7.9850     0.3940 C.2   1 <1>  -0.1500 
 25 N        2.8060    -6.3560    -0.6540 N.2   1 <1>  -0.7070 
 26 C        2.8830    -7.2370     0.2920 C.2   1 <1>   0.1080 
 27 C        4.1030    -7.3890     1.1740 C.3   1 <1>  -0.0590 
 28 H        0.2930    -2.0290     2.9700 H     1 <1>   0.1500 
 29 H        3.4310     0.9100     0.9980 H     1 <1>   0.1500 
 30 H        2.8330    -4.4640     0.5790 H     1 <1>   0.4000 
 31 H       -0.1530    -4.3190     2.9340 H     1 <1>   0.0800 
 32 H        1.2800    -5.3150     2.8400 H     1 <1>   0.0800 
 33 H        6.0230    -1.5890    -1.2470 H     1 <1>   0.1500 
 34 H        5.8840    -3.8920    -1.1570 H     1 <1>   0.0800 
 35 H        4.2320    -4.2920    -1.5210 H     1 <1>   0.0800 
 36 H        4.9140    -4.6680     0.0540 H     1 <1>   0.0800 
 37 H        5.6340     1.0640    -1.6780 H     1 <1>   0.0800 
 38 H        6.6500     0.8720    -0.2660 H     1 <1>   0.0800 
 39 H        5.2370     1.8940    -0.1950 H     1 <1>   0.0800 
 40 H        0.8930    -5.7990     0.6480 H     1 <1>   0.4500 
 41 H       -1.1050    -3.6730     0.5160 H     1 <1>   0.0800 
 42 H        0.2240    -4.0420    -0.5730 H     1 <1>   0.0800 
 43 H       -0.4380    -7.2890     1.8070 H     1 <1>   0.0800 
 44 H       -1.6980    -6.0710     1.9800 H     1 <1>   0.0800 
 45 H       -1.1960    -5.4350    -1.7760 H     1 <1>   0.0800 
 46 H       -2.4400    -7.1760     0.0250 H     1 <1>   0.0800 
 47 H       -3.1880    -4.9430     0.1900 H     1 <1>   0.4000 
 48 H       -0.7970    -7.8150    -1.8490 H     1 <1>   0.0800 
 49 H       -0.7710    -8.7760    -0.4080 H     1 <1>   0.0800 
 50 H        1.3540    -6.0900    -2.1240 H     1 <1>   0.2700 
 51 H        1.5280    -8.7550     1.1230 H     1 <1>   0.1500 
 52 H        4.0150    -8.2630     1.7930 H     1 <1>   0.0800 
 53 H        4.2190    -6.5240     1.7990 H     1 <1>   0.0800 
 54 H        4.9780    -7.4920     0.5580 H     1 <1>   0.0800 
@<TRIPOS>BOND
  1   1   2  2   
  2   2   3  1   
  3   2   4  1   
  4   3   5  ar  
  5   3   6  ar  
  6   4   7  2   
  7   4  28  1   
  8   5   8  1   
  9   5   9  ar  
 10   6  10  ar  
 11   6  29  1   
 12   7   8  1   
 13   7  11  1   
 14   8  30  1   
 15   9  12  ar  
 16   9  13  1   
 17  10  12  ar  
 18  10  14  1   
 19  11  15  1   
 20  11  31  1   
 21  11  32  1   
 22  12  33  1   
 23  13  34  1   
 24  13  35  1   
 25  13  36  1   
 26  14  37  1   
 27  14  38  1   
 28  14  39  1   
 29  15  16  1   
 30  15  17  1   
 31  15  40  1   
 32  16  18  1   
 33  16  41  1   
 34  16  42  1   
 35  17  19  1   
 36  17  43  1   
 37  17  44  1   
 38  18  19  1   
 39  18  20  1   
 40  18  45  1   
 41  19  21  1   
 42  19  46  1   
 43  20  47  1   
 44  21  22  1   
 45  21  48  1   
 46  21  49  1   
 47  22  23  1   
 48  22  24  2   
 49  23  25  1   
 50  23  50  1   
 51  24  26  1   
 52  24  51  1   
 53  25  26  2   
 54  26  27  1   
 55  27  52  1   
 56  27  53  1   
 57  27  54  1   
@<TRIPOS>SUBSTRUCTURE
  1 ****   8 GROUP 4 **** **** 0

# MOE 2024.06 (io_trps.svl 2023.06)
