@<TRIPOS>MOLECULE
NONAME
54 56 1 0 0 
SMALL
USER_CHARGES


@<TRIPOS>ATOM
  1 F       -1.8020    -1.6180    -0.5480 F     1 <1>  -0.1900 
  2 C       -2.8670    -0.8630    -0.4550 C.ar  1 <1>   0.1900 
  3 C       -2.8330     0.5080    -0.7320 C.ar  1 <1>   0.0830 
  4 C       -4.0340    -1.4930    -0.0710 C.ar  1 <1>  -0.1500 
  5 O       -1.7490     1.2410    -1.1180 O.3   1 <1>  -0.3630 
  6 C       -4.0150     1.2180    -0.6070 C.ar  1 <1>  -0.1500 
  7 C       -5.1970    -0.7540     0.0430 C.ar  1 <1>  -0.1500 
  8 C       -0.4560     0.6920    -1.2510 C.3   1 <1>   0.0400 
  9 C       -5.2170     0.6180    -0.2200 C.ar  1 <1>   0.0530 
 10 C       -6.4260     1.4010    -0.1080 C.2   1 <1>   0.0870 
 11 O       -6.5400     2.5400    -0.7440 O.3   1 <1>  -0.0190 
 12 C       -7.5960     1.2120     0.5580 C.2   1 <1>  -0.0860 
 13 N       -7.6960     3.1200    -0.5560 N.2   1 <1>  -0.4100 
 14 C       -8.3510     2.3420     0.2340 C.2   1 <1>   0.3720 
 15 C       -8.0100     0.1350     1.3970 C.2   1 <1>   0.7160 
 16 N       -9.6530     2.6030     0.6900 N.pl3 1 <1>  -0.8210 
 17 O       -7.5260     0.0370     2.5100 O.2   1 <1>  -0.5700 
 18 N       -8.8950    -0.8300     0.9600 N.am  1 <1>  -0.6600 
 19 C       -9.7430     2.8820     2.1500 C.3   1 <1>   0.1290 
 20 C      -10.4300     3.5900    -0.1110 C.3   1 <1>   0.1290 
 21 C       -9.6070    -0.7630    -0.3450 C.3   1 <1>   0.1400 
 22 C       -9.2130    -2.0420     1.7620 C.3   1 <1>   0.1400 
 23 C       -9.2480    -1.9960    -1.1790 C.3   1 <1>  -0.1600 
 24 C       -8.8600    -3.2940     0.9530 C.3   1 <1>  -0.1600 
 25 C       -9.5530    -3.3030    -0.4240 C.3   1 <1>  -0.0800 
 26 C       -9.1320    -4.5180    -1.2650 C.3   1 <1>   0.1200 
 27 O       -9.4770    -5.6830    -0.5870 O.3   1 <1>  -0.5600 
 28 C       -9.1380    -6.8510    -1.2600 C.3   1 <1>   0.0400 
 29 H       -4.0290    -2.5480     0.1370 H     1 <1>   0.1500 
 30 H       -3.9950     2.2730    -0.8160 H     1 <1>   0.1500 
 31 H       -6.0980    -1.2610     0.3380 H     1 <1>   0.1500 
 32 H        0.2140     1.4820    -1.5400 H     1 <1>   0.0800 
 33 H       -0.4740    -0.0670    -2.0130 H     1 <1>   0.0800 
 34 H       -0.1490     0.2830    -0.3040 H     1 <1>   0.0800 
 35 H       -9.2340     2.1200     2.7150 H     1 <1>   0.0800 
 36 H      -10.7740     2.9000     2.4570 H     1 <1>   0.0800 
 37 H       -9.2900     3.8340     2.3700 H     1 <1>   0.0800 
 38 H      -10.3630     3.3440    -1.1570 H     1 <1>   0.0800 
 39 H      -10.0360     4.5810     0.0380 H     1 <1>   0.0800 
 40 H      -11.4650     3.5690     0.1810 H     1 <1>   0.0800 
 41 H       -9.3510     0.1270    -0.8900 H     1 <1>   0.0800 
 42 H      -10.6680    -0.7400    -0.1600 H     1 <1>   0.0800 
 43 H      -10.2640    -2.0420     1.9970 H     1 <1>   0.0800 
 44 H       -8.6650    -2.0480     2.6890 H     1 <1>   0.0800 
 45 H       -8.2030    -1.9490    -1.4310 H     1 <1>   0.0800 
 46 H       -9.8090    -1.9690    -2.0970 H     1 <1>   0.0800 
 47 H       -9.1580    -4.1630     1.5130 H     1 <1>   0.0800 
 48 H       -7.7930    -3.3380     0.8290 H     1 <1>   0.0800 
 49 H      -10.6180    -3.3620    -0.2740 H     1 <1>   0.0800 
 50 H       -8.0670    -4.5150    -1.4250 H     1 <1>   0.0800 
 51 H       -9.6420    -4.5120    -2.2130 H     1 <1>   0.0800 
 52 H       -9.4460    -7.6860    -0.6550 H     1 <1>   0.0800 
 53 H       -8.0720    -6.8820    -1.4050 H     1 <1>   0.0800 
 54 H       -9.6530    -6.8790    -2.2050 H     1 <1>   0.0800 
@<TRIPOS>BOND
  1   1   2  1   
  2   2   3  ar  
  3   2   4  ar  
  4   3   5  1   
  5   3   6  ar  
  6   4   7  ar  
  7   4  29  1   
  8   5   8  1   
  9   6   9  ar  
 10   6  30  1   
 11   7   9  ar  
 12   7  31  1   
 13   8  32  1   
 14   8  33  1   
 15   8  34  1   
 16   9  10  1   
 17  10  11  1   
 18  10  12  2   
 19  11  13  1   
 20  12  14  1   
 21  12  15  1   
 22  13  14  2   
 23  14  16  1   
 24  15  17  2   
 25  15  18  am  
 26  16  19  1   
 27  16  20  1   
 28  18  21  1   
 29  18  22  1   
 30  19  35  1   
 31  19  36  1   
 32  19  37  1   
 33  20  38  1   
 34  20  39  1   
 35  20  40  1   
 36  21  23  1   
 37  21  41  1   
 38  21  42  1   
 39  22  24  1   
 40  22  43  1   
 41  22  44  1   
 42  23  25  1   
 43  23  45  1   
 44  23  46  1   
 45  24  25  1   
 46  24  47  1   
 47  24  48  1   
 48  25  26  1   
 49  25  49  1   
 50  26  27  1   
 51  26  50  1   
 52  26  51  1   
 53  27  28  1   
 54  28  52  1   
 55  28  53  1   
 56  28  54  1   
@<TRIPOS>SUBSTRUCTURE
  1 ****   7 GROUP 4 **** **** 0

# MOE 2024.06 (io_trps.svl 2023.06)
