@<TRIPOS>MOLECULE
NONAME
53 55 1 0 0 
SMALL
USER_CHARGES


@<TRIPOS>ATOM
  1 O        2.3600    -1.0540     3.0500 O.2   1 <1>  -0.5700 
  2 C        2.3390    -1.3240     1.8630 C.2   1 <1>   0.5440 
  3 N        2.6580    -0.3370     0.9590 N.am  1 <1>  -0.6600 
  4 C        2.0310    -2.6710     1.4350 C.ar  1 <1>   0.0860 
  5 C        2.9400     1.0650     1.3470 C.3   1 <1>   0.1400 
  6 C        2.6470    -0.4840    -0.5140 C.3   1 <1>   0.1400 
  7 C        0.8240    -2.9970     0.8060 C.ar  1 <1>   0.0830 
  8 C        2.9580    -3.6910     1.6510 C.ar  1 <1>  -0.1500 
  9 C        2.6450     1.8630     0.0850 C.3   1 <1>   0.1760 
 10 C        2.9920     0.9010    -1.0560 C.3   1 <1>  -0.1600 
 11 O       -0.0780    -2.0020     0.6210 O.3   1 <1>  -0.3630 
 12 C        0.5780    -4.3070     0.3960 C.ar  1 <1>  -0.1500 
 13 C        2.7100    -4.9880     1.2460 C.ar  1 <1>  -0.1500 
 14 N        3.4060     3.1380     0.0390 N.pl3 1 <1>   0.3140 
 15 C       -1.3720    -2.2320     0.1060 C.3   1 <1>   0.1200 
 16 C        1.5190    -5.2960     0.6140 C.ar  1 <1>  -0.1500 
 17 N        4.7550     3.1720     0.0420 N.2   1 <1>  -0.7070 
 18 C        2.8920     4.3920    -0.0040 C.2   1 <1>  -0.3320 
 19 C       -2.1470    -0.9210     0.1590 C.3   1 <1>   0.1200 
 20 C        5.0630     4.4270     0.0010 C.2   1 <1>   0.1080 
 21 C        3.9400     5.2420    -0.0290 C.2   1 <1>  -0.1500 
 22 C        1.4140     4.7430    -0.0170 C.3   1 <1>  -0.0600 
 23 O       -3.3920    -1.1290    -0.4280 O.3   1 <1>  -0.5600 
 24 C        6.4940     4.9080    -0.0100 C.3   1 <1>  -0.0590 
 25 C       -4.2260    -0.0200    -0.3940 C.3   1 <1>   0.1200 
 26 C       -5.5270    -0.4030    -1.0880 C.3   1 <1>  -0.2400 
 27 H        3.9780     1.1480     1.6220 H     1 <1>   0.0800 
 28 H        2.3130     1.3720     2.1670 H     1 <1>   0.0800 
 29 H        1.6630    -0.7770    -0.8370 H     1 <1>   0.0800 
 30 H        3.3670    -1.2210    -0.8280 H     1 <1>   0.0800 
 31 H        3.8820    -3.4500     2.1480 H     1 <1>   0.1500 
 32 H        1.5940     2.0770     0.0610 H     1 <1>   0.0800 
 33 H        2.4450     1.1230    -1.9540 H     1 <1>   0.0800 
 34 H        4.0470     0.9330    -1.2640 H     1 <1>   0.0800 
 35 H       -0.3380    -4.5780    -0.0940 H     1 <1>   0.1500 
 36 H        3.4410    -5.7590     1.4230 H     1 <1>   0.1500 
 37 H       -1.8580    -2.9730     0.7170 H     1 <1>   0.0800 
 38 H       -1.2780    -2.5710    -0.9100 H     1 <1>   0.0800 
 39 H        1.3250    -6.3070     0.2970 H     1 <1>   0.1500 
 40 H       -1.6300    -0.1580    -0.3970 H     1 <1>   0.0800 
 41 H       -2.2900    -0.6160     1.1810 H     1 <1>   0.0800 
 42 H        3.9390     6.3170    -0.0650 H     1 <1>   0.1500 
 43 H        0.9370     4.3180    -0.8820 H     1 <1>   0.0800 
 44 H        1.2890     5.8110    -0.0500 H     1 <1>   0.0800 
 45 H        0.9350     4.3730     0.8720 H     1 <1>   0.0800 
 46 H        7.0010     4.5010    -0.8650 H     1 <1>   0.0800 
 47 H        6.9900     4.5730     0.8820 H     1 <1>   0.0800 
 48 H        6.5310     5.9800    -0.0530 H     1 <1>   0.0800 
 49 H       -3.7460     0.7950    -0.9090 H     1 <1>   0.0800 
 50 H       -4.4080     0.2470     0.6340 H     1 <1>   0.0800 
 51 H       -5.3320    -0.6820    -2.1080 H     1 <1>   0.0800 
 52 H       -6.2030     0.4310    -1.0820 H     1 <1>   0.0800 
 53 H       -5.9900    -1.2260    -0.5730 H     1 <1>   0.0800 
@<TRIPOS>BOND
  1   1   2  2   
  2   2   3  am  
  3   2   4  1   
  4   3   5  1   
  5   3   6  1   
  6   4   7  ar  
  7   4   8  ar  
  8   5   9  1   
  9   5  27  1   
 10   5  28  1   
 11   6  10  1   
 12   6  29  1   
 13   6  30  1   
 14   7  11  1   
 15   7  12  ar  
 16   8  13  ar  
 17   8  31  1   
 18   9  10  1   
 19   9  14  1   
 20   9  32  1   
 21  10  33  1   
 22  10  34  1   
 23  11  15  1   
 24  12  16  ar  
 25  12  35  1   
 26  13  16  ar  
 27  13  36  1   
 28  14  17  1   
 29  14  18  1   
 30  15  19  1   
 31  15  37  1   
 32  15  38  1   
 33  16  39  1   
 34  17  20  2   
 35  18  21  2   
 36  18  22  1   
 37  19  23  1   
 38  19  40  1   
 39  19  41  1   
 40  20  21  1   
 41  20  24  1   
 42  21  42  1   
 43  22  43  1   
 44  22  44  1   
 45  22  45  1   
 46  23  25  1   
 47  24  46  1   
 48  24  47  1   
 49  24  48  1   
 50  25  26  1   
 51  25  49  1   
 52  25  50  1   
 53  26  51  1   
 54  26  52  1   
 55  26  53  1   
@<TRIPOS>SUBSTRUCTURE
  1 ****   3 GROUP 4 **** **** 0

# MOE 2024.06 (io_trps.svl 2023.06)
