@<TRIPOS>MOLECULE
NONAME
44 46 1 0 0 
SMALL
USER_CHARGES


@<TRIPOS>ATOM
  1 F        0.9960    -3.0560    -2.0220 F     1 <1>  -0.3400 
  2 C       -0.0950    -2.5920    -1.4240 C.3   1 <1>   1.1640 
  3 F        0.2730    -1.4870    -0.7880 F     1 <1>  -0.3400 
  4 F       -0.9190    -2.2090    -2.3910 F     1 <1>  -0.3400 
  5 C       -0.7540    -3.6190    -0.4870 C.ar  1 <1>  -0.1440 
  6 C       -1.5950    -3.1990     0.5380 C.ar  1 <1>  -0.1500 
  7 C       -0.5350    -4.9830    -0.6440 C.ar  1 <1>  -0.1500 
  8 C       -2.2000    -4.1140     1.3810 C.ar  1 <1>  -0.1500 
  9 C       -1.1370    -5.9000     0.1990 C.ar  1 <1>  -0.1500 
 10 C       -1.9790    -5.4720     1.2140 C.ar  1 <1>  -0.1430 
 11 C       -2.6680    -6.4750     2.1200 C.3   1 <1>   0.4870 
 12 N       -3.6450    -7.2440     1.3080 N.4   1 <1>  -0.9590 
 13 C       -4.6450    -6.3980     0.5840 C.3   1 <1>   0.3430 
 14 C       -4.4060    -8.3000     2.0240 C.3   1 <1>   0.3430 
 15 C       -5.9250    -7.2400     0.4770 C.3   1 <1>   0.2000 
 16 C       -5.6200    -8.5940     1.1350 C.3   1 <1>  -0.0800 
 17 O       -6.9440    -6.6150     1.1840 O.3   1 <1>  -0.6800 
 18 C       -5.3520    -9.7190     0.1050 C.3   1 <1>   0.0200 
 19 C       -3.9790    -9.6320    -0.5390 C.2   1 <1>  -0.0400 
 20 O       -3.6520    -8.5840    -1.2430 O.3   1 <1>  -0.0190 
 21 C       -2.9200   -10.4560    -0.5120 C.2   1 <1>  -0.1500 
 22 N       -2.4170    -8.6310    -1.6360 N.2   1 <1>  -0.4100 
 23 C       -1.9560    -9.7620    -1.2370 C.2   1 <1>   0.1080 
 24 C       -0.5540   -10.2600    -1.5180 C.3   1 <1>  -0.0590 
 25 H       -1.7820    -2.1460     0.6850 H     1 <1>   0.1500 
 26 H        0.1090    -5.3450    -1.4310 H     1 <1>   0.1500 
 27 H       -2.8430    -3.7490     2.1650 H     1 <1>   0.1500 
 28 H       -0.9380    -6.9470     0.0440 H     1 <1>   0.1500 
 29 H       -3.1710    -5.9590     2.9200 H     1 <1>   0.0800 
 30 H       -1.9320    -7.1390     2.5450 H     1 <1>   0.0800 
 31 H       -3.1040    -7.7050     0.5520 H     1 <1>   0.4500 
 32 H       -4.8500    -5.4890     1.1260 H     1 <1>   0.0800 
 33 H       -4.2730    -6.1490    -0.3970 H     1 <1>   0.0800 
 34 H       -3.8060    -9.1820     2.1840 H     1 <1>   0.0800 
 35 H       -4.7430    -7.9210     2.9750 H     1 <1>   0.0800 
 36 H       -6.2490    -7.3300    -0.5470 H     1 <1>   0.0800 
 37 H       -6.4520    -8.9130     1.7410 H     1 <1>   0.0800 
 38 H       -6.8410    -6.6700     2.1540 H     1 <1>   0.4000 
 39 H       -6.1080    -9.7070    -0.6630 H     1 <1>   0.0800 
 40 H       -5.4250   -10.6700     0.6020 H     1 <1>   0.0800 
 41 H       -2.7970   -11.4190    -0.0500 H     1 <1>   0.1500 
 42 H       -0.0140   -10.3890    -0.5990 H     1 <1>   0.0800 
 43 H       -0.0280    -9.5540    -2.1360 H     1 <1>   0.0800 
 44 H       -0.5990   -11.2010    -2.0360 H     1 <1>   0.0800 
@<TRIPOS>BOND
  1   1   2  1   
  2   2   3  1   
  3   2   4  1   
  4   2   5  1   
  5   5   6  ar  
  6   5   7  ar  
  7   6   8  ar  
  8   6  25  1   
  9   7   9  ar  
 10   7  26  1   
 11   8  10  ar  
 12   8  27  1   
 13   9  10  ar  
 14   9  28  1   
 15  10  11  1   
 16  11  12  1   
 17  11  29  1   
 18  11  30  1   
 19  12  13  1   
 20  12  14  1   
 21  12  31  1   
 22  13  15  1   
 23  13  32  1   
 24  13  33  1   
 25  14  16  1   
 26  14  34  1   
 27  14  35  1   
 28  15  16  1   
 29  15  17  1   
 30  15  36  1   
 31  16  18  1   
 32  16  37  1   
 33  17  38  1   
 34  18  19  1   
 35  18  39  1   
 36  18  40  1   
 37  19  20  1   
 38  19  21  2   
 39  20  22  1   
 40  21  23  1   
 41  21  41  1   
 42  22  23  2   
 43  23  24  1   
 44  24  42  1   
 45  24  43  1   
 46  24  44  1   
@<TRIPOS>SUBSTRUCTURE
  1 ****   9 GROUP 4 **** **** 0

# MOE 2024.06 (io_trps.svl 2023.06)
