@<TRIPOS>MOLECULE
NONAME
21 22 1 0 0 
SMALL
USER_CHARGES


@<TRIPOS>ATOM
  1 O        6.4110    -0.6100     1.0000 O.3   1 <1>  -0.5380 
  2 C        5.8320     0.3330     0.1190 C.3   1 <1>   0.2580 
  3 C        7.6100    -1.1810     0.5310 C.3   1 <1>   0.1200 
  4 C        6.8360     1.3890    -0.3590 C.3   1 <1>   0.1200 
  5 C        4.4650     0.8450     0.6390 C.3   1 <1>   0.4720 
  6 C        4.9770    -0.3410    -0.9850 C.3   1 <1>   0.4720 
  7 C        8.5850    -0.1060     0.0070 C.3   1 <1>   0.1200 
  8 O        7.9320     0.7310    -0.9070 O.3   1 <1>  -0.5600 
  9 N        3.8600    -0.3860     0.0220 N.4   1 <1>  -0.8440 
 10 H        7.3790    -1.8800    -0.2530 H     1 <1>   0.0800 
 11 H        8.0610    -1.7230     1.3450 H     1 <1>   0.0800 
 12 H        7.1710     2.0060     0.4570 H     1 <1>   0.0800 
 13 H        6.4140     2.0190    -1.1230 H     1 <1>   0.0800 
 14 H        4.1260     1.7340     0.1380 H     1 <1>   0.0000 
 15 H        4.3710     0.8660     1.7100 H     1 <1>   0.0000 
 16 H        5.3150    -1.3180    -1.2810 H     1 <1>   0.0000 
 17 H        4.7370     0.3190    -1.8000 H     1 <1>   0.0000 
 18 H        9.4150    -0.5680    -0.4990 H     1 <1>   0.0800 
 19 H        8.9700     0.4910     0.8170 H     1 <1>   0.0800 
 20 H        2.9170    -0.2700    -0.3620 H     1 <1>   0.4500 
 21 H        3.9720    -1.1920     0.6510 H     1 <1>   0.4500 
@<TRIPOS>BOND
  1   1   2  1   
  2   1   3  1   
  3   2   4  1   
  4   2   5  1   
  5   2   6  1   
  6   3   7  1   
  7   3  10  1   
  8   3  11  1   
  9   4   8  1   
 10   4  12  1   
 11   4  13  1   
 12   5   9  1   
 13   5  14  1   
 14   5  15  1   
 15   6   9  1   
 16   6  16  1   
 17   6  17  1   
 18   7   8  1   
 19   7  18  1   
 20   7  19  1   
 21   9  20  1   
 22   9  21  1   
@<TRIPOS>SUBSTRUCTURE
  1 ****   2 GROUP 4 **** **** 0

# MOE 2024.06 (io_trps.svl 2023.06)
