@<TRIPOS>MOLECULE
NONAME
44 45 1 0 0 
SMALL
USER_CHARGES


@<TRIPOS>ATOM
  1 S        0.1860     0.0270    -0.9320 S.o2  1 <1>   1.3330 
  2 O        0.9640     0.2340    -2.1330 O.2   1 <1>  -0.6500 
  3 O       -0.6750    -1.1290    -0.8240 O.2   1 <1>  -0.6500 
  4 N        1.2510    -0.0010     0.3920 N.am  1 <1>  -0.8490 
  5 C       -0.7840     1.5100    -0.6480 C.3   1 <1>  -0.0550 
  6 C        2.5450    -0.6060     0.0620 C.3   1 <1>   0.1160 
  7 C        0.6870    -0.6450     1.5830 C.3   1 <1>   0.1160 
  8 C        0.0070     2.8270    -0.8110 C.3   1 <1>  -0.0800 
  9 C       -0.8500     4.0910    -0.7260 C.3   1 <1>   0.2000 
 10 C        1.1070     3.0500     0.2360 C.3   1 <1>   0.1400 
 11 O       -1.7140     3.9810     0.3540 O.3   1 <1>  -0.6800 
 12 C        0.1590     5.1950    -0.4150 C.3   1 <1>   0.1400 
 13 N        1.1960     4.5240     0.4120 N.am  1 <1>  -0.6600 
 14 C        2.3160     5.1300     0.9340 C.2   1 <1>   0.6160 
 15 O        3.2430     4.4300     1.2930 O.2   1 <1>  -0.5700 
 16 C        2.4200     6.5690     1.0540 C.2   1 <1>   0.0140 
 17 C        1.4600     7.3490     1.6400 C.2   1 <1>  -0.1360 
 18 C        3.5830     7.2340     0.5570 C.2   1 <1>  -0.1500 
 19 C        1.5900     8.7560     1.7230 C.2   1 <1>   0.6160 
 20 C        3.7180     8.5840     0.6390 C.2   1 <1>  -0.0290 
 21 O        0.7390     9.4780     2.2190 O.2   1 <1>  -0.5700 
 22 N        2.7180     9.3280     1.2140 N.am  1 <1>  -0.5390 
 23 C        4.9300     9.3380     0.1310 C.3   1 <1>  -0.1020 
 24 H       -1.5930     1.5200    -1.3530 H     1 <1>   0.0800 
 25 H       -1.2180     1.4650     0.3320 H     1 <1>   0.0800 
 26 H        3.1960    -0.5860     0.9190 H     1 <1>   0.0800 
 27 H        3.0210    -0.0520    -0.7310 H     1 <1>   0.0800 
 28 H        2.4110    -1.6250    -0.2600 H     1 <1>   0.0800 
 29 H        1.3630    -0.5420     2.4150 H     1 <1>   0.0800 
 30 H        0.5140    -1.6930     1.3990 H     1 <1>   0.0800 
 31 H       -0.2490    -0.1830     1.8470 H     1 <1>   0.0800 
 32 H        0.4810     2.8220    -1.7770 H     1 <1>   0.0800 
 33 H       -1.4300     4.2800    -1.6140 H     1 <1>   0.0800 
 34 H        2.0490     2.6430    -0.0960 H     1 <1>   0.0800 
 35 H        0.8440     2.6040     1.1790 H     1 <1>   0.0800 
 36 H       -1.1890     3.9950     1.1790 H     1 <1>   0.4000 
 37 H       -0.3100     6.0180     0.0960 H     1 <1>   0.0800 
 38 H        0.6110     5.5460    -1.3270 H     1 <1>   0.0800 
 39 H        0.5700     6.9300     2.0670 H     1 <1>   0.1500 
 40 H        4.3510     6.6190     0.1190 H     1 <1>   0.1500 
 41 H        2.7680    10.3430     1.3070 H     1 <1>   0.3700 
 42 H        4.6350    10.0440    -0.6240 H     1 <1>   0.0800 
 43 H        5.6470     8.6600    -0.2940 H     1 <1>   0.0800 
 44 H        5.3990     9.8680     0.9410 H     1 <1>   0.0800 
@<TRIPOS>BOND
  1   1   2  2   
  2   1   3  2   
  3   1   4  am  
  4   1   5  1   
  5   4   6  1   
  6   4   7  1   
  7   5   8  1   
  8   5  24  1   
  9   5  25  1   
 10   6  26  1   
 11   6  27  1   
 12   6  28  1   
 13   7  29  1   
 14   7  30  1   
 15   7  31  1   
 16   8   9  1   
 17   8  10  1   
 18   8  32  1   
 19   9  11  1   
 20   9  12  1   
 21   9  33  1   
 22  10  13  1   
 23  10  34  1   
 24  10  35  1   
 25  11  36  1   
 26  12  13  1   
 27  12  37  1   
 28  12  38  1   
 29  13  14  am  
 30  14  15  2   
 31  14  16  1   
 32  16  17  2   
 33  16  18  1   
 34  17  19  1   
 35  17  39  1   
 36  18  20  2   
 37  18  40  1   
 38  19  21  2   
 39  19  22  am  
 40  20  22  1   
 41  20  23  1   
 42  22  41  1   
 43  23  42  1   
 44  23  43  1   
 45  23  44  1   
@<TRIPOS>SUBSTRUCTURE
  1 ****  13 GROUP 4 **** **** 0

# MOE 2024.06 (io_trps.svl 2023.06)
