@<TRIPOS>MOLECULE
NONAME
54 56 1 0 0 
SMALL
USER_CHARGES


@<TRIPOS>ATOM
  1 O       -4.2460     1.7060     0.5470 O.2   1 <1>  -0.5700 
  2 C       -3.2690     1.1600     0.0630 C.2   1 <1>   0.7030 
  3 N       -3.1500    -0.2080     0.2530 N.am  1 <1>  -0.6600 
  4 C       -2.2960     1.9790    -0.6420 C.2   1 <1>   0.2770 
  5 C       -2.0740    -0.9640    -0.4710 C.3   1 <1>   0.3210 
  6 C       -4.3690    -1.0570     0.5220 C.3   1 <1>   0.1400 
  7 N       -0.9630     2.2040    -0.2670 N.pl3 1 <1>  -0.6290 
  8 C       -2.5000     2.6990    -1.7790 C.2   1 <1>   0.1820 
  9 C       -2.5110    -1.2730    -1.8980 C.2   1 <1>   0.0460 
 10 C       -4.7750    -1.1200     2.0110 C.3   1 <1>   0.3430 
 11 C       -0.4120     3.0150    -1.2000 C.cat 1 <1>   0.7910 
 12 C       -0.2190     1.8030     0.8190 C.2   1 <1>   0.2290 
 13 N       -1.3410     3.3230    -2.1150 N.pl3 1 <1>  -0.7000 
 14 C       -3.7480     2.8570    -2.6270 C.3   1 <1>  -0.0720 
 15 N       -2.8740    -0.2760    -2.7330 N.2   1 <1>  -0.5650 
 16 C       -2.6020    -2.4760    -2.5150 C.2   1 <1>  -0.3320 
 17 N       -5.4020     0.1510     2.4950 N.4   1 <1>  -0.9590 
 18 C        0.9300     3.4120    -1.1060 C.2   1 <1>  -0.1410 
 19 C        1.0870     2.1840     0.9340 C.2   1 <1>  -0.1500 
 20 C       -3.1730    -0.8870    -3.8340 C.2   1 <1>   0.0360 
 21 N       -3.0290    -2.2250    -3.7670 N.pl3 1 <1>   0.0330 
 22 C       -2.3100    -3.8900    -2.0380 C.3   1 <1>  -0.0600 
 23 C       -5.2390     0.3340     3.9670 C.3   1 <1>   0.2630 
 24 C       -6.8390     0.2630     2.0980 C.3   1 <1>   0.2630 
 25 C        1.6910     3.0000    -0.0440 C.2   1 <1>  -0.1380 
 26 C        3.1490     3.3960     0.1140 C.3   1 <1>  -0.1020 
 27 H       -1.8620    -1.8790     0.0520 H     1 <1>   0.0800 
 28 H       -1.1610    -0.4000    -0.5090 H     1 <1>   0.0800 
 29 H       -4.1750    -2.0650     0.1950 H     1 <1>   0.0800 
 30 H       -5.1940    -0.6980    -0.0700 H     1 <1>   0.0800 
 31 H       -3.8940    -1.3390     2.5910 H     1 <1>   0.0800 
 32 H       -5.4700    -1.9310     2.1530 H     1 <1>   0.0800 
 33 H       -0.6920     1.1870     1.5680 H     1 <1>   0.1500 
 34 H       -1.1810     3.9160    -2.9320 H     1 <1>   0.4500 
 35 H       -4.5570     2.2740    -2.2270 H     1 <1>   0.0800 
 36 H       -3.5530     2.5190    -3.6290 H     1 <1>   0.0800 
 37 H       -4.0490     3.8890    -2.6570 H     1 <1>   0.0800 
 38 H       -4.9050     0.9260     2.0030 H     1 <1>   0.4500 
 39 H        1.3310     4.0410    -1.8780 H     1 <1>   0.1500 
 40 H        1.6770     1.8680     1.7780 H     1 <1>   0.1500 
 41 H       -3.5060    -0.3980    -4.7340 H     1 <1>   0.1500 
 42 H       -3.2020    -2.9010    -4.5190 H     1 <1>   0.2700 
 43 H       -1.9680    -3.8950    -1.0190 H     1 <1>   0.0800 
 44 H       -1.5450    -4.3340    -2.6510 H     1 <1>   0.0800 
 45 H       -3.1960    -4.4960    -2.1030 H     1 <1>   0.0800 
 46 H       -5.7510    -0.4480     4.5030 H     1 <1>   0.0800 
 47 H       -5.6470     1.2850     4.2710 H     1 <1>   0.0800 
 48 H       -4.1950     0.3100     4.2340 H     1 <1>   0.0800 
 49 H       -7.4180    -0.5290     2.5440 H     1 <1>   0.0800 
 50 H       -6.9370     0.2060     1.0260 H     1 <1>   0.0800 
 51 H       -7.2410     1.2100     2.4230 H     1 <1>   0.0800 
 52 H        3.2880     3.9420     1.0310 H     1 <1>   0.0800 
 53 H        3.4730     4.0170    -0.7030 H     1 <1>   0.0800 
 54 H        3.7710     2.5180     0.1390 H     1 <1>   0.0800 
@<TRIPOS>BOND
  1   1   2  2   
  2   2   3  am  
  3   2   4  1   
  4   3   5  1   
  5   3   6  1   
  6   4   7  1   
  7   4   8  2   
  8   5   9  1   
  9   5  27  1   
 10   5  28  1   
 11   6  10  1   
 12   6  29  1   
 13   6  30  1   
 14   7  11  ar  
 15   7  12  1   
 16   8  13  1   
 17   8  14  1   
 18   9  15  1   
 19   9  16  2   
 20  10  17  1   
 21  10  31  1   
 22  10  32  1   
 23  11  13  ar  
 24  11  18  1   
 25  12  19  2   
 26  12  33  1   
 27  13  34  1   
 28  14  35  1   
 29  14  36  1   
 30  14  37  1   
 31  15  20  2   
 32  16  21  1   
 33  16  22  1   
 34  17  23  1   
 35  17  24  1   
 36  17  38  1   
 37  18  25  2   
 38  18  39  1   
 39  19  25  1   
 40  19  40  1   
 41  20  21  1   
 42  20  41  1   
 43  21  42  1   
 44  22  43  1   
 45  22  44  1   
 46  22  45  1   
 47  23  46  1   
 48  23  47  1   
 49  23  48  1   
 50  24  49  1   
 51  24  50  1   
 52  24  51  1   
 53  25  26  1   
 54  26  52  1   
 55  26  53  1   
 56  26  54  1   
@<TRIPOS>SUBSTRUCTURE
  1 ****   2 GROUP 4 **** **** 0

# MOE 2024.06 (io_trps.svl 2023.06)
