@<TRIPOS>MOLECULE
NONAME
53 55 1 0 0 
SMALL
USER_CHARGES


@<TRIPOS>ATOM
  1 O       -1.5570     0.5510    -1.5550 O.2   1 <1>  -0.5700 
  2 C       -1.9160     1.0080    -0.4880 C.2   1 <1>   0.5440 
  3 N       -2.4320     0.1470     0.4380 N.am  1 <1>  -0.7300 
  4 C       -1.8000     2.4270    -0.2010 C.ar  1 <1>   0.0860 
  5 C       -2.5780    -1.3150     0.2540 C.3   1 <1>   0.2200 
  6 C       -0.8120     3.2010    -0.8060 C.ar  1 <1>  -0.1500 
  7 C       -2.6620     3.0780     0.6820 C.ar  1 <1>  -0.1500 
  8 C       -4.0340    -1.6360    -0.0350 C.3   1 <1>  -0.0800 
  9 C       -2.3650    -2.0210     1.5880 C.3   1 <1>   0.1200 
 10 C       -0.6670     4.5520    -0.5500 C.ar  1 <1>   0.0830 
 11 C       -2.5310     4.4270     0.9610 C.ar  1 <1>  -0.1500 
 12 C       -4.6380    -1.7110     1.3730 C.3   1 <1>   0.1200 
 13 C       -4.1780    -2.9610    -0.8060 C.3   1 <1>  -0.0160 
 14 O       -3.5840    -1.9380     2.2650 O.3   1 <1>  -0.5600 
 15 O        0.3470     5.1600    -1.2280 O.3   1 <1>  -0.3630 
 16 C       -1.5300     5.1850     0.3600 C.ar  1 <1>   0.0830 
 17 C       -5.6340    -3.2620    -1.1270 C.ar  1 <1>  -0.1430 
 18 C        0.2360     6.4970    -1.6590 C.3   1 <1>   0.1200 
 19 O       -1.3680     6.5050     0.6480 O.3   1 <1>  -0.3630 
 20 C       -6.3110    -2.5840    -2.1200 C.ar  1 <1>  -0.1500 
 21 C       -6.3540    -4.2230    -0.4460 C.ar  1 <1>  -0.1500 
 22 C        1.2140     6.7030    -2.8120 C.3   1 <1>  -0.2400 
 23 C       -2.1390     7.1800     1.6140 C.3   1 <1>   0.1200 
 24 C       -7.6380    -2.8860    -2.3750 C.ar  1 <1>   0.1600 
 25 C       -7.6800    -4.4490    -0.7790 C.ar  1 <1>   0.1600 
 26 C       -1.6420     8.6200     1.6890 C.3   1 <1>  -0.2400 
 27 N       -8.3400    -3.8020    -1.7260 N.ar  1 <1>  -0.6200 
 28 H       -2.6990     0.4810     1.3650 H     1 <1>   0.3700 
 29 H       -1.9030    -1.6690    -0.5070 H     1 <1>   0.0800 
 30 H       -0.1370     2.7340    -1.5010 H     1 <1>   0.1500 
 31 H       -3.4520     2.5240     1.1550 H     1 <1>   0.1500 
 32 H       -4.4950    -0.8520    -0.6110 H     1 <1>   0.0800 
 33 H       -1.5890    -1.5680     2.1790 H     1 <1>   0.0800 
 34 H       -2.1460    -3.0630     1.4360 H     1 <1>   0.0800 
 35 H       -3.2240     4.8680     1.6520 H     1 <1>   0.1500 
 36 H       -5.3620    -2.4990     1.4810 H     1 <1>   0.0800 
 37 H       -5.0920    -0.7730     1.6410 H     1 <1>   0.0800 
 38 H       -3.7580    -3.7730    -0.2380 H     1 <1>   0.0800 
 39 H       -3.6310    -2.8950    -1.7310 H     1 <1>   0.0800 
 40 H       -0.7760     6.6750    -1.9790 H     1 <1>   0.0800 
 41 H        0.4830     7.1410    -0.8340 H     1 <1>   0.0800 
 42 H       -5.8190    -1.8240    -2.6990 H     1 <1>   0.1500 
 43 H       -5.9000    -4.7990     0.3390 H     1 <1>   0.1500 
 44 H        0.9680     6.0440    -3.6250 H     1 <1>   0.0800 
 45 H        2.2180     6.5080    -2.4810 H     1 <1>   0.0800 
 46 H        1.1570     7.7180    -3.1600 H     1 <1>   0.0800 
 47 H       -3.1710     7.1500     1.3090 H     1 <1>   0.0800 
 48 H       -2.0110     6.6830     2.5600 H     1 <1>   0.0800 
 49 H       -8.1500    -2.3470    -3.1530 H     1 <1>   0.1500 
 50 H       -8.2260    -5.2020    -0.2370 H     1 <1>   0.1500 
 51 H       -1.7600     9.1020     0.7350 H     1 <1>   0.0800 
 52 H       -0.6050     8.6380     1.9750 H     1 <1>   0.0800 
 53 H       -2.2100     9.1650     2.4210 H     1 <1>   0.0800 
@<TRIPOS>BOND
  1   1   2  2   
  2   2   3  am  
  3   2   4  1   
  4   3   5  1   
  5   3  28  1   
  6   4   6  ar  
  7   4   7  ar  
  8   5   8  1   
  9   5   9  1   
 10   5  29  1   
 11   6  10  ar  
 12   6  30  1   
 13   7  11  ar  
 14   7  31  1   
 15   8  12  1   
 16   8  13  1   
 17   8  32  1   
 18   9  14  1   
 19   9  33  1   
 20   9  34  1   
 21  10  15  1   
 22  10  16  ar  
 23  11  16  ar  
 24  11  35  1   
 25  12  14  1   
 26  12  36  1   
 27  12  37  1   
 28  13  17  1   
 29  13  38  1   
 30  13  39  1   
 31  15  18  1   
 32  16  19  1   
 33  17  20  ar  
 34  17  21  ar  
 35  18  22  1   
 36  18  40  1   
 37  18  41  1   
 38  19  23  1   
 39  20  24  ar  
 40  20  42  1   
 41  21  25  ar  
 42  21  43  1   
 43  22  44  1   
 44  22  45  1   
 45  22  46  1   
 46  23  26  1   
 47  23  47  1   
 48  23  48  1   
 49  24  27  ar  
 50  24  49  1   
 51  25  27  ar  
 52  25  50  1   
 53  26  51  1   
 54  26  52  1   
 55  26  53  1   
@<TRIPOS>SUBSTRUCTURE
  1 ****   2 GROUP 4 **** **** 0

# MOE 2024.06 (io_trps.svl 2023.06)
