@<TRIPOS>MOLECULE
NONAME
25 25 1 0 0 
SMALL
USER_CHARGES


@<TRIPOS>ATOM
  1 S       -0.5510     0.2860    -2.2150 S.3   1 <1>   0.1810 
  2 N       -0.2830    -1.2080    -1.4240 N.2   1 <1>  -0.5100 
  3 C       -1.4800     0.9830    -0.9080 C.2   1 <1>   0.1040 
  4 C       -0.8560    -1.1430    -0.2840 C.2   1 <1>   0.1390 
  5 N       -1.9780     2.2760    -1.0400 N.am  1 <1>  -0.4940 
  6 C       -1.5410     0.0520     0.0620 C.2   1 <1>  -0.1500 
  7 C       -2.7150     3.0010    -0.1570 C.2   1 <1>   0.7800 
  8 O       -3.0530     2.5800     0.9290 O.2   1 <1>  -0.5700 
  9 O       -3.0420     4.2210    -0.5780 O.3   1 <1>  -0.4300 
 10 C       -3.7970     5.1890     0.1210 C.3   1 <1>   0.2800 
 11 C       -3.8700     6.3940    -0.8180 C.3   1 <1>  -0.2400 
 12 C       -3.0740     5.5960     1.4100 C.3   1 <1>  -0.2400 
 13 C       -5.2140     4.6680     0.3850 C.3   1 <1>  -0.2400 
 14 H       -0.8310    -1.9670     0.4090 H     1 <1>   0.1500 
 15 H       -1.7810     2.7760    -1.9030 H     1 <1>   0.3700 
 16 H       -2.0430     0.1670     1.0050 H     1 <1>   0.1500 
 17 H       -2.8820     6.7600    -1.0340 H     1 <1>   0.0800 
 18 H       -4.4330     7.1890    -0.3630 H     1 <1>   0.0800 
 19 H       -4.3540     6.1220    -1.7390 H     1 <1>   0.0800 
 20 H       -2.0630     5.8910     1.1970 H     1 <1>   0.0800 
 21 H       -3.0660     4.7920     2.1220 H     1 <1>   0.0800 
 22 H       -3.5810     6.4260     1.8670 H     1 <1>   0.0800 
 23 H       -5.6660     4.3280    -0.5300 H     1 <1>   0.0800 
 24 H       -5.8230     5.4540     0.7930 H     1 <1>   0.0800 
 25 H       -5.2070     3.8630     1.0970 H     1 <1>   0.0800 
@<TRIPOS>BOND
  1   1   2  1   
  2   1   3  1   
  3   2   4  2   
  4   3   5  1   
  5   3   6  2   
  6   4   6  1   
  7   4  14  1   
  8   5   7  am  
  9   5  15  1   
 10   6  16  1   
 11   7   8  2   
 12   7   9  1   
 13   9  10  1   
 14  10  11  1   
 15  10  12  1   
 16  10  13  1   
 17  11  17  1   
 18  11  18  1   
 19  11  19  1   
 20  12  20  1   
 21  12  21  1   
 22  12  22  1   
 23  13  23  1   
 24  13  24  1   
 25  13  25  1   
@<TRIPOS>SUBSTRUCTURE
  1 ****   7 GROUP 4 **** **** 0

# MOE 2024.06 (io_trps.svl 2023.06)
