@<TRIPOS>MOLECULE
NONAME
37 39 1 0 0 
SMALL
USER_CHARGES


@<TRIPOS>ATOM
  1 O       -0.4320     0.0700    -0.7080 O.2   1 <1>  -0.5700 
  2 C        0.6210    -0.4650    -0.4500 C.2   1 <1>   0.5690 
  3 N        1.7480     0.2290    -0.1330 N.am  1 <1>  -0.4930 
  4 C        0.6850    -1.9890    -0.4950 C.3   1 <1>  -0.0190 
  5 C        1.9550     1.6270    -0.0470 C.2   1 <1>   0.0630 
  6 C        0.9250    -2.6700     0.8730 C.3   1 <1>   0.0580 
  7 C        1.8270    -2.5750    -1.3810 C.3   1 <1>  -0.1600 
  8 C        1.0710     2.6720    -0.3160 C.2   1 <1>   0.1390 
  9 C        3.0970     2.2390     0.3270 C.2   1 <1>  -0.3020 
 10 C        2.2650    -2.1990     1.4120 C.2   1 <1>  -0.2880 
 11 C        1.3610    -4.0550     0.3970 C.3   1 <1>  -0.1600 
 12 C        2.5420    -3.5530    -0.4310 C.3   1 <1>   0.0580 
 13 N        1.6140     3.8390    -0.1270 N.2   1 <1>  -0.7070 
 14 N        2.8720     3.5730     0.2730 N.pl3 1 <1>   0.3140 
 15 C        3.2160    -2.7060     0.6320 C.2   1 <1>  -0.2880 
 16 C        3.8340     4.6620     0.5970 C.3   1 <1>   0.1760 
 17 C        5.0500     4.6100    -0.3390 C.3   1 <1>  -0.2400 
 18 C        4.2670     4.5850     2.0680 C.3   1 <1>  -0.2400 
 19 H        2.5410    -0.3550     0.1430 H     1 <1>   0.3700 
 20 H       -0.2560    -2.3400    -0.8810 H     1 <1>   0.0800 
 21 H        0.1050    -2.6620     1.5700 H     1 <1>   0.0800 
 22 H        1.4110    -3.1030    -2.2210 H     1 <1>   0.0800 
 23 H        2.5070    -1.8230    -1.7440 H     1 <1>   0.0800 
 24 H        0.0550     2.5310    -0.6430 H     1 <1>   0.1500 
 25 H        4.0360     1.8150     0.6220 H     1 <1>   0.1500 
 26 H        2.3150    -1.5530     2.2740 H     1 <1>   0.1500 
 27 H        1.6770    -4.6840     1.2130 H     1 <1>   0.0800 
 28 H        0.6140    -4.5600    -0.1920 H     1 <1>   0.0800 
 29 H        3.1520    -4.3190    -0.8790 H     1 <1>   0.0800 
 30 H        4.2880    -2.6020     0.6530 H     1 <1>   0.1500 
 31 H        3.3190     5.5940     0.4390 H     1 <1>   0.0800 
 32 H        5.6030     3.6980    -0.2000 H     1 <1>   0.0800 
 33 H        5.7030     5.4400    -0.1380 H     1 <1>   0.0800 
 34 H        4.7250     4.6760    -1.3630 H     1 <1>   0.0800 
 35 H        4.8010     3.6720     2.2630 H     1 <1>   0.0800 
 36 H        3.4020     4.6320     2.7050 H     1 <1>   0.0800 
 37 H        4.9080     5.4140     2.3060 H     1 <1>   0.0800 
@<TRIPOS>BOND
  1   1   2  2   
  2   2   3  am  
  3   2   4  1   
  4   3   5  1   
  5   3  19  1   
  6   4   6  1   
  7   4   7  1   
  8   4  20  1   
  9   5   8  1   
 10   5   9  2   
 11   6  10  1   
 12   6  11  1   
 13   6  21  1   
 14   7  12  1   
 15   7  22  1   
 16   7  23  1   
 17   8  13  2   
 18   8  24  1   
 19   9  14  1   
 20   9  25  1   
 21  10  15  2   
 22  10  26  1   
 23  11  12  1   
 24  11  27  1   
 25  11  28  1   
 26  12  15  1   
 27  12  29  1   
 28  13  14  1   
 29  14  16  1   
 30  15  30  1   
 31  16  17  1   
 32  16  18  1   
 33  16  31  1   
 34  17  32  1   
 35  17  33  1   
 36  17  34  1   
 37  18  35  1   
 38  18  36  1   
 39  18  37  1   
@<TRIPOS>SUBSTRUCTURE
  1 ****   3 GROUP 4 **** **** 0

# MOE 2024.06 (io_trps.svl 2023.06)
