@<TRIPOS>MOLECULE
NONAME
55 58 1 0 0 
SMALL
USER_CHARGES


@<TRIPOS>ATOM
  1 O        0.0980     1.2340     1.3960 O.2   1 <1>  -0.5700 
  2 C        0.1710     2.3650     0.9540 C.2   1 <1>   0.5440 
  3 N       -0.9510     3.1700     0.9720 N.am  1 <1>  -0.6600 
  4 C        1.4370     2.8280     0.4250 C.ar  1 <1>   0.0860 
  5 C       -2.3030     2.6390     1.3220 C.3   1 <1>   0.1400 
  6 C       -0.9550     4.6200     0.6510 C.3   1 <1>   0.1400 
  7 C        1.5750     3.2050    -0.9120 C.ar  1 <1>  -0.1500 
  8 C        2.5660     2.9070     1.2390 C.ar  1 <1>  -0.1500 
  9 C       -3.2650     2.7920     0.1210 C.3   1 <1>   0.0000 
 10 C       -1.8730     4.8650    -0.5500 C.3   1 <1>  -0.1600 
 11 C        2.7830     3.6530    -1.4120 C.ar  1 <1>  -0.1500 
 12 C        3.7790     3.3560     0.7490 C.ar  1 <1>  -0.1500 
 13 C       -4.7050     2.3460     0.4520 C.3   1 <1>   0.2000 
 14 C       -3.2810     4.2780    -0.3330 C.3   1 <1>  -0.1600 
 15 C       -2.8770     1.8600    -1.0470 C.3   1 <1>  -0.1600 
 16 C        3.8940     3.7270    -0.5860 C.ar  1 <1>   0.0820 
 17 O       -4.6940     1.1920     1.2140 O.3   1 <1>  -0.6800 
 18 C       -5.3300     1.9890    -0.8940 C.3   1 <1>  -0.1600 
 19 C       -4.1770     1.5100    -1.7860 C.3   1 <1>  -0.1600 
 20 O        5.0550     4.1750    -1.1180 O.3   1 <1>  -0.1650 
 21 C        6.2650     3.7530    -0.6700 C.ar  1 <1>   0.0820 
 22 C        6.5180     2.4110    -0.4140 C.ar  1 <1>  -0.1500 
 23 C        7.2660     4.6930    -0.4860 C.ar  1 <1>  -0.1500 
 24 C        7.7640     2.0130     0.0390 C.ar  1 <1>  -0.1500 
 25 C        8.5120     4.2950    -0.0340 C.ar  1 <1>  -0.1500 
 26 C        8.7690     2.9590     0.2330 C.ar  1 <1>   0.0820 
 27 O       10.0170     2.6550     0.6750 O.3   1 <1>  -0.3620 
 28 C       10.3890     1.3240     0.9530 C.3   1 <1>   0.0400 
 29 H       -2.2350     1.6060     1.6150 H     1 <1>   0.0800 
 30 H       -2.6860     3.1870     2.1650 H     1 <1>   0.0800 
 31 H       -1.3240     5.1620     1.5060 H     1 <1>   0.0800 
 32 H        0.0370     4.9770     0.4400 H     1 <1>   0.0800 
 33 H        0.7180     3.1370    -1.5600 H     1 <1>   0.1500 
 34 H        2.4790     2.6100     2.2710 H     1 <1>   0.1500 
 35 H       -1.9510     5.9250    -0.7200 H     1 <1>   0.0800 
 36 H       -1.4230     4.4360    -1.4270 H     1 <1>   0.0800 
 37 H        2.8750     3.9430    -2.4430 H     1 <1>   0.1500 
 38 H        4.6300     3.4180     1.4050 H     1 <1>   0.1500 
 39 H       -5.2670     3.0920     0.9880 H     1 <1>   0.0800 
 40 H       -3.8490     4.3900    -1.2390 H     1 <1>   0.0800 
 41 H       -3.7700     4.8630     0.4280 H     1 <1>   0.0800 
 42 H       -2.1530     2.2990    -1.7080 H     1 <1>   0.0800 
 43 H       -2.4490     0.9540    -0.6530 H     1 <1>   0.0800 
 44 H       -4.2170     0.4940     0.7260 H     1 <1>   0.4000 
 45 H       -6.1120     1.2550    -0.7970 H     1 <1>   0.0800 
 46 H       -5.7570     2.8790    -1.3230 H     1 <1>   0.0800 
 47 H       -4.2370     0.4480    -1.9480 H     1 <1>   0.0800 
 48 H       -4.2170     2.0080    -2.7400 H     1 <1>   0.0800 
 49 H        5.7440     1.6810    -0.5720 H     1 <1>   0.1500 
 50 H        7.0680     5.7290    -0.6950 H     1 <1>   0.1500 
 51 H        7.9330     0.9710     0.2320 H     1 <1>   0.1500 
 52 H        9.2940     5.0170     0.1150 H     1 <1>   0.1500 
 53 H       11.4140     1.3250     1.2780 H     1 <1>   0.0800 
 54 H       10.2910     0.7390     0.0550 H     1 <1>   0.0800 
 55 H        9.7580     0.9400     1.7350 H     1 <1>   0.0800 
@<TRIPOS>BOND
  1   1   2  2   
  2   2   3  am  
  3   2   4  1   
  4   3   5  1   
  5   3   6  1   
  6   4   7  ar  
  7   4   8  ar  
  8   5   9  1   
  9   5  29  1   
 10   5  30  1   
 11   6  10  1   
 12   6  31  1   
 13   6  32  1   
 14   7  11  ar  
 15   7  33  1   
 16   8  12  ar  
 17   8  34  1   
 18   9  13  1   
 19   9  14  1   
 20   9  15  1   
 21  10  14  1   
 22  10  35  1   
 23  10  36  1   
 24  11  16  ar  
 25  11  37  1   
 26  12  16  ar  
 27  12  38  1   
 28  13  17  1   
 29  13  18  1   
 30  13  39  1   
 31  14  40  1   
 32  14  41  1   
 33  15  19  1   
 34  15  42  1   
 35  15  43  1   
 36  16  20  1   
 37  17  44  1   
 38  18  19  1   
 39  18  45  1   
 40  18  46  1   
 41  19  47  1   
 42  19  48  1   
 43  20  21  1   
 44  21  22  ar  
 45  21  23  ar  
 46  22  24  ar  
 47  22  49  1   
 48  23  25  ar  
 49  23  50  1   
 50  24  26  ar  
 51  24  51  1   
 52  25  26  ar  
 53  25  52  1   
 54  26  27  1   
 55  27  28  1   
 56  28  53  1   
 57  28  54  1   
 58  28  55  1   
@<TRIPOS>SUBSTRUCTURE
  1 ****   4 GROUP 4 **** **** 0

# MOE 2024.06 (io_trps.svl 2023.06)
