@<TRIPOS>MOLECULE
NONAME
56 57 1 0 0 
SMALL
USER_CHARGES


@<TRIPOS>ATOM
  1 F        0.3300     2.4350    -1.1100 F     1 <1>  -0.1900 
  2 C        1.5590     2.6280    -0.7120 C.ar  1 <1>   0.1900 
  3 C        2.5820     1.9690    -1.3670 C.ar  1 <1>  -0.1500 
  4 C        1.7910     3.4840     0.3460 C.ar  1 <1>  -0.1500 
  5 C        3.8840     2.1770    -0.9430 C.ar  1 <1>  -0.1500 
  6 C        3.0970     3.6830     0.7600 C.ar  1 <1>  -0.1500 
  7 C        4.1470     3.0340     0.1210 C.ar  1 <1>  -0.1430 
  8 C        5.5790     3.2620     0.5910 C.3   1 <1>   0.2540 
  9 N        5.8910     4.6970     0.6980 N.3   1 <1>  -0.8100 
 10 C        7.1860     4.9230     1.4040 C.3   1 <1>   0.1710 
 11 C        5.8040     5.3870    -0.5980 C.3   1 <1>   0.0300 
 12 C        7.5170     6.3860     1.7560 C.2   1 <1>   0.5690 
 13 O        7.0130     6.8460     2.7570 O.2   1 <1>  -0.5700 
 14 N        8.3790     7.1400     0.9880 N.am  1 <1>  -0.6600 
 15 C        8.6110     8.5810     1.3000 C.3   1 <1>   0.1400 
 16 C        9.0790     6.6560    -0.2400 C.3   1 <1>   0.1400 
 17 C        8.0220     9.4900     0.1890 C.3   1 <1>   0.0000 
 18 C        9.3740     7.8070    -1.2170 C.3   1 <1>  -0.1600 
 19 C        8.2340     8.8380    -1.2130 C.3   1 <1>  -0.1600 
 20 C        6.5040     9.6260     0.4530 C.3   1 <1>   0.1200 
 21 C        8.7640    10.8590     0.2110 C.3   1 <1>  -0.1600 
 22 O        5.9150    10.4690    -0.4810 O.3   1 <1>  -0.6800 
 23 C        8.6950    11.6950     1.5150 C.3   1 <1>  -0.0800 
 24 C        7.5260    12.6930     1.5130 C.3   1 <1>  -0.2400 
 25 C        9.9990    12.4850     1.6910 C.3   1 <1>  -0.2400 
 26 H        2.3600     1.3100    -2.1860 H     1 <1>   0.1500 
 27 H        0.9720     3.9830     0.8310 H     1 <1>   0.1500 
 28 H        4.6900     1.6710    -1.4440 H     1 <1>   0.1500 
 29 H        3.3070     4.3520     1.5790 H     1 <1>   0.1500 
 30 H        6.2730     2.7900    -0.0830 H     1 <1>   0.0800 
 31 H        5.6870     2.8030     1.5590 H     1 <1>   0.0800 
 32 H        7.9880     4.4960     0.8330 H     1 <1>   0.0800 
 33 H        7.1520     4.3940     2.3400 H     1 <1>   0.0800 
 34 H        4.8090     5.2950    -1.0000 H     1 <1>   0.0800 
 35 H        6.5020     4.9670    -1.3010 H     1 <1>   0.0800 
 36 H        6.0080     6.4370    -0.4750 H     1 <1>   0.0800 
 37 H        9.6730     8.7380     1.3780 H     1 <1>   0.0800 
 38 H        8.1860     8.8380     2.2540 H     1 <1>   0.0800 
 39 H        8.4620     5.9370    -0.7450 H     1 <1>   0.0800 
 40 H        9.9990     6.1720     0.0390 H     1 <1>   0.0800 
 41 H        9.5020     7.4060    -2.2070 H     1 <1>   0.0800 
 42 H       10.2980     8.2840    -0.9430 H     1 <1>   0.0800 
 43 H        8.4170     9.5900    -1.9610 H     1 <1>   0.0800 
 44 H        7.3360     8.3250    -1.5120 H     1 <1>   0.0800 
 45 H        6.3120    10.0160     1.4370 H     1 <1>   0.0800 
 46 H        6.0200     8.6660     0.3810 H     1 <1>   0.0800 
 47 H        8.4250    11.4700    -0.6080 H     1 <1>   0.0800 
 48 H        9.7980    10.6470     0.0030 H     1 <1>   0.0800 
 49 H        6.3460    11.3450    -0.4470 H     1 <1>   0.4000 
 50 H        8.5940    11.0510     2.3710 H     1 <1>   0.0800 
 51 H        7.5870    13.3510     0.6640 H     1 <1>   0.0800 
 52 H        7.5540    13.2940     2.4050 H     1 <1>   0.0800 
 53 H        6.5770    12.1940     1.4970 H     1 <1>   0.0800 
 54 H       10.1570    13.1500     0.8590 H     1 <1>   0.0800 
 55 H       10.8380    11.8160     1.7610 H     1 <1>   0.0800 
 56 H        9.9650    13.0700     2.5940 H     1 <1>   0.0800 
@<TRIPOS>BOND
  1   1   2  1   
  2   2   3  ar  
  3   2   4  ar  
  4   3   5  ar  
  5   3  26  1   
  6   4   6  ar  
  7   4  27  1   
  8   5   7  ar  
  9   5  28  1   
 10   6   7  ar  
 11   6  29  1   
 12   7   8  1   
 13   8   9  1   
 14   8  30  1   
 15   8  31  1   
 16   9  10  1   
 17   9  11  1   
 18  10  12  1   
 19  10  32  1   
 20  10  33  1   
 21  11  34  1   
 22  11  35  1   
 23  11  36  1   
 24  12  13  2   
 25  12  14  am  
 26  14  15  1   
 27  14  16  1   
 28  15  17  1   
 29  15  37  1   
 30  15  38  1   
 31  16  18  1   
 32  16  39  1   
 33  16  40  1   
 34  17  19  1   
 35  17  20  1   
 36  17  21  1   
 37  18  19  1   
 38  18  41  1   
 39  18  42  1   
 40  19  43  1   
 41  19  44  1   
 42  20  22  1   
 43  20  45  1   
 44  20  46  1   
 45  21  23  1   
 46  21  47  1   
 47  21  48  1   
 48  22  49  1   
 49  23  24  1   
 50  23  25  1   
 51  23  50  1   
 52  24  51  1   
 53  24  52  1   
 54  24  53  1   
 55  25  54  1   
 56  25  55  1   
 57  25  56  1   
@<TRIPOS>SUBSTRUCTURE
  1 ****  11 GROUP 4 **** **** 0

# MOE 2024.06 (io_trps.svl 2023.06)
