@<TRIPOS>MOLECULE
NONAME
49 51 1 0 0 
SMALL
USER_CHARGES


@<TRIPOS>ATOM
  1 O       -1.1270    -2.1120    -0.3210 O.2   1 <1>  -0.5700 
  2 C       -0.0820    -2.7060    -0.2790 C.2   1 <1>   0.5690 
  3 N        0.1800    -3.7370    -1.1090 N.am  1 <1>  -0.7300 
  4 C        0.9880    -2.3250     0.7210 C.3   1 <1>  -0.0990 
  5 C        1.4360    -4.5130    -1.0640 C.3   1 <1>   0.1400 
  6 C        2.3760    -2.3350     0.0540 C.3   1 <1>  -0.0800 
  7 C        2.6350    -3.5630    -0.8560 C.3   1 <1>  -0.0800 
  8 C        3.5290    -2.2860     1.0670 C.3   1 <1>  -0.1600 
  9 C        3.8610    -4.2690    -0.2650 C.3   1 <1>  -0.1600 
 10 C        4.6210    -3.1550     0.4550 C.3   1 <1>   0.2200 
 11 N        5.6090    -3.6280     1.4740 N.am  1 <1>  -0.6600 
 12 C        6.8730    -3.0980     1.6020 C.2   1 <1>   0.5690 
 13 C        5.1870    -4.7320     2.3930 C.3   1 <1>   0.0600 
 14 O        7.6810    -3.5730     2.3660 O.2   1 <1>  -0.5700 
 15 C        7.2960    -1.8890     0.7760 C.3   1 <1>  -0.0990 
 16 C        8.6250    -1.2590     1.2200 C.3   1 <1>  -0.0170 
 17 C        8.9480    -0.0470     0.3510 C.ar  1 <1>  -0.1440 
 18 C        9.7170    -0.1360    -0.8070 C.ar  1 <1>  -0.1440 
 19 C        8.4420     1.1850     0.7400 C.ar  1 <1>  -0.1500 
 20 C        9.9610     1.0080    -1.5530 C.ar  1 <1>  -0.1500 
 21 C       10.3090    -1.4550    -1.2870 C.3   1 <1>  -0.0970 
 22 C        8.6900     2.3200    -0.0090 C.ar  1 <1>  -0.1500 
 23 C        9.4510     2.2320    -1.1590 C.ar  1 <1>  -0.1500 
 24 H       -0.5570    -4.0190    -1.7590 H     1 <1>   0.3700 
 25 H        0.7740    -1.3510     1.1220 H     1 <1>   0.0800 
 26 H        0.9490    -3.0370     1.5240 H     1 <1>   0.0800 
 27 H        1.3680    -5.2140    -0.2500 H     1 <1>   0.0800 
 28 H        1.5580    -5.0660    -1.9800 H     1 <1>   0.0800 
 29 H        2.4380    -1.4590    -0.5720 H     1 <1>   0.0800 
 30 H        2.9140    -3.1850    -1.8260 H     1 <1>   0.0800 
 31 H        3.2140    -2.7010     2.0070 H     1 <1>   0.0800 
 32 H        3.8720    -1.2790     1.2240 H     1 <1>   0.0800 
 33 H        4.4650    -4.7260    -1.0290 H     1 <1>   0.0800 
 34 H        3.5310    -5.0180     0.4300 H     1 <1>   0.0800 
 35 H        5.1170    -2.5780    -0.3060 H     1 <1>   0.0800 
 36 H        4.1570    -4.6180     2.6780 H     1 <1>   0.0800 
 37 H        5.7820    -4.7280     3.2900 H     1 <1>   0.0800 
 38 H        5.3200    -5.6800     1.9020 H     1 <1>   0.0800 
 39 H        7.3810    -2.1920    -0.2500 H     1 <1>   0.0800 
 40 H        6.5300    -1.1390     0.8470 H     1 <1>   0.0800 
 41 H        9.4140    -1.9870     1.1690 H     1 <1>   0.0800 
 42 H        8.5490    -0.9550     2.2500 H     1 <1>   0.0800 
 43 H        7.8500     1.2670     1.6340 H     1 <1>   0.1500 
 44 H       10.5540     0.9550    -2.4480 H     1 <1>   0.1500 
 45 H       10.7720    -1.3430    -2.2500 H     1 <1>   0.0800 
 46 H        9.5420    -2.2020    -1.3700 H     1 <1>   0.0800 
 47 H       11.0550    -1.7940    -0.5910 H     1 <1>   0.0800 
 48 H        8.2930     3.2700     0.3030 H     1 <1>   0.1500 
 49 H        9.6480     3.1120    -1.7450 H     1 <1>   0.1500 
@<TRIPOS>BOND
  1   1   2  2   
  2   2   3  am  
  3   2   4  1   
  4   3   5  1   
  5   3  24  1   
  6   4   6  1   
  7   4  25  1   
  8   4  26  1   
  9   5   7  1   
 10   5  27  1   
 11   5  28  1   
 12   6   7  1   
 13   6   8  1   
 14   6  29  1   
 15   7   9  1   
 16   7  30  1   
 17   8  10  1   
 18   8  31  1   
 19   8  32  1   
 20   9  10  1   
 21   9  33  1   
 22   9  34  1   
 23  10  11  1   
 24  10  35  1   
 25  11  12  am  
 26  11  13  1   
 27  12  14  2   
 28  12  15  1   
 29  13  36  1   
 30  13  37  1   
 31  13  38  1   
 32  15  16  1   
 33  15  39  1   
 34  15  40  1   
 35  16  17  1   
 36  16  41  1   
 37  16  42  1   
 38  17  18  ar  
 39  17  19  ar  
 40  18  20  ar  
 41  18  21  1   
 42  19  22  ar  
 43  19  43  1   
 44  20  23  ar  
 45  20  44  1   
 46  21  45  1   
 47  21  46  1   
 48  21  47  1   
 49  22  23  ar  
 50  22  48  1   
 51  23  49  1   
@<TRIPOS>SUBSTRUCTURE
  1 ****  10 GROUP 4 **** **** 0

# MOE 2024.06 (io_trps.svl 2023.06)
