@<TRIPOS>MOLECULE
NONAME
54 57 1 0 0 
SMALL
USER_CHARGES


@<TRIPOS>ATOM
  1 O       -0.5300    -0.8360     1.0160 O.2   1 <1>  -0.5700 
  2 C        0.5800    -1.3380     0.9080 C.2   1 <1>   0.5440 
  3 N        0.9010    -2.4940     1.6130 N.am  1 <1>  -0.2980 
  4 C        1.5810    -0.7710     0.0460 C.ar  1 <1>   0.0860 
  5 N        2.1190    -3.1270     1.5230 N.2   1 <1>  -0.5120 
  6 C       -0.0760    -3.0930     2.5780 C.3   1 <1>   0.2010 
  7 C        2.8170    -1.4260    -0.0340 C.ar  1 <1>   0.0860 
  8 C        1.3820     0.3900    -0.7090 C.ar  1 <1>  -0.1500 
  9 C        3.0010    -2.6100     0.7450 C.2   1 <1>   0.3040 
 10 C       -0.4730    -4.5250     2.2190 C.2   1 <1>   0.5690 
 11 C        3.8160    -0.9030    -0.8630 C.ar  1 <1>  -0.1500 
 12 C        2.3760     0.8920    -1.5210 C.ar  1 <1>  -0.1500 
 13 O       -0.3310    -5.3790     3.0660 O.2   1 <1>  -0.5700 
 14 N       -1.0150    -4.8630     0.9990 N.am  1 <1>  -0.6600 
 15 C        3.6000     0.2420    -1.5980 C.ar  1 <1>  -0.1500 
 16 C       -1.0730    -6.2840     0.5720 C.3   1 <1>   0.1400 
 17 C       -1.7310    -3.9190     0.0990 C.3   1 <1>   0.1400 
 18 C       -2.5450    -6.7380     0.5020 C.3   1 <1>   0.4230 
 19 C       -3.2000    -4.3550     0.0060 C.3   1 <1>  -0.1600 
 20 N       -2.7160    -8.2310     0.2520 N.4   1 <1>  -0.9590 
 21 C       -3.3930    -5.8330    -0.4430 C.3   1 <1>   0.0000 
 22 C       -4.0790    -8.6180    -0.2360 C.3   1 <1>   0.3430 
 23 C       -1.6650    -8.8670    -0.6080 C.3   1 <1>   0.2630 
 24 C       -4.8980    -6.2070    -0.2930 C.3   1 <1>  -0.1600 
 25 C       -2.9310    -6.0120    -1.9170 C.3   1 <1>   0.1200 
 26 C       -5.1370    -7.6290     0.2510 C.3   1 <1>  -0.1600 
 27 O       -3.5370    -5.0960    -2.7600 O.3   1 <1>  -0.6800 
 28 H        0.3850    -3.1050     3.5480 H     1 <1>   0.0800 
 29 H       -0.9640    -2.4950     2.6510 H     1 <1>   0.0800 
 30 H        0.4320     0.8950    -0.6480 H     1 <1>   0.1500 
 31 H        3.9580    -3.0930     0.6630 H     1 <1>   0.0600 
 32 H        4.7660    -1.4040    -0.9250 H     1 <1>   0.1500 
 33 H        2.2080     1.7870    -2.0970 H     1 <1>   0.1500 
 34 H        4.3740     0.6380    -2.2340 H     1 <1>   0.1500 
 35 H       -0.5880    -6.3690    -0.3830 H     1 <1>   0.0800 
 36 H       -0.5390    -6.9010     1.2730 H     1 <1>   0.0800 
 37 H       -1.6950    -2.9180     0.4850 H     1 <1>   0.0800 
 38 H       -1.2670    -3.9170    -0.8730 H     1 <1>   0.0800 
 39 H       -2.9350    -6.5540     1.4900 H     1 <1>   0.0800 
 40 H       -3.6330    -4.2090     0.9810 H     1 <1>   0.0800 
 41 H       -3.7150    -3.6840    -0.6600 H     1 <1>   0.0800 
 42 H       -2.6220    -8.6530     1.1890 H     1 <1>   0.4500 
 43 H       -4.0920    -8.6250    -1.3140 H     1 <1>   0.0800 
 44 H       -4.3230    -9.6120     0.1050 H     1 <1>   0.0800 
 45 H       -1.6720    -8.4370    -1.5960 H     1 <1>   0.0800 
 46 H       -1.8440    -9.9270    -0.6950 H     1 <1>   0.0800 
 47 H       -0.6860    -8.7270    -0.1770 H     1 <1>   0.0800 
 48 H       -5.3940    -5.5230     0.3760 H     1 <1>   0.0800 
 49 H       -5.4000    -6.1090    -1.2400 H     1 <1>   0.0800 
 50 H       -3.1660    -6.9920    -2.2900 H     1 <1>   0.0800 
 51 H       -1.8720    -5.8560    -2.0180 H     1 <1>   0.0800 
 52 H       -6.1100    -7.9670    -0.0620 H     1 <1>   0.0800 
 53 H       -5.1390    -7.6190     1.3280 H     1 <1>   0.0800 
 54 H       -4.5110    -5.1870    -2.7710 H     1 <1>   0.4000 
@<TRIPOS>BOND
  1   1   2  2   
  2   2   3  am  
  3   2   4  1   
  4   3   5  1   
  5   3   6  1   
  6   4   7  ar  
  7   4   8  ar  
  8   5   9  2   
  9   6  10  1   
 10   6  28  1   
 11   6  29  1   
 12   7   9  1   
 13   7  11  ar  
 14   8  12  ar  
 15   8  30  1   
 16   9  31  1   
 17  10  13  2   
 18  10  14  am  
 19  11  15  ar  
 20  11  32  1   
 21  12  15  ar  
 22  12  33  1   
 23  14  16  1   
 24  14  17  1   
 25  15  34  1   
 26  16  18  1   
 27  16  35  1   
 28  16  36  1   
 29  17  19  1   
 30  17  37  1   
 31  17  38  1   
 32  18  20  1   
 33  18  21  1   
 34  18  39  1   
 35  19  21  1   
 36  19  40  1   
 37  19  41  1   
 38  20  22  1   
 39  20  23  1   
 40  20  42  1   
 41  21  24  1   
 42  21  25  1   
 43  22  26  1   
 44  22  43  1   
 45  22  44  1   
 46  23  45  1   
 47  23  46  1   
 48  23  47  1   
 49  24  26  1   
 50  24  48  1   
 51  24  49  1   
 52  25  27  1   
 53  25  50  1   
 54  25  51  1   
 55  26  52  1   
 56  26  53  1   
 57  27  54  1   
@<TRIPOS>SUBSTRUCTURE
  1 ****  17 GROUP 4 **** **** 0

# MOE 2024.06 (io_trps.svl 2023.06)
