@<TRIPOS>MOLECULE
NONAME
53 56 1 0 0 
SMALL
USER_CHARGES


@<TRIPOS>ATOM
  1 O       -0.3210    -0.4130     1.1400 O.3   1 <1>  -0.5600 
  2 C        0.4350     0.7510     1.0110 C.3   1 <1>   0.1200 
  3 C       -1.6900    -0.1410     1.0790 C.3   1 <1>   0.1200 
  4 C       -0.4790     1.7580     0.3280 C.3   1 <1>   0.2890 
  5 C       -1.8390     1.3700     0.8770 C.3   1 <1>  -0.0800 
  6 N       -0.1480     3.1640     0.6660 N.pl3 1 <1>  -0.8690 
  7 C       -2.9960     1.7680    -0.0580 C.3   1 <1>  -0.0170 
  8 C        0.5570     4.0780    -0.0150 C.ar  1 <1>   0.4100 
  9 C       -4.4080     1.4050     0.4200 C.ar  1 <1>  -0.1430 
 10 N        0.5580     5.2750     0.5190 N.ar  1 <1>  -0.6200 
 11 C        1.2520     3.7850    -1.2030 C.ar  1 <1>  -0.1500 
 12 C       -5.4980     1.4540    -0.4860 C.ar  1 <1>   0.0000 
 13 C       -4.6910     1.0380     1.7060 C.ar  1 <1>  -0.1500 
 14 C        1.2420     6.2330    -0.0940 C.ar  1 <1>   0.7710 
 15 C        1.9400     4.7760    -1.8180 C.ar  1 <1>   0.2180 
 16 C       -6.7790     1.0850    -0.0050 C.ar  1 <1>   0.3100 
 17 C       -5.3970     1.8580    -1.8390 C.ar  1 <1>  -0.1500 
 18 C       -5.9970     0.7010     2.0800 C.ar  1 <1>   0.1600 
 19 N        1.9140     5.9990    -1.2360 N.ar  1 <1>  -0.1790 
 20 N        1.2660     7.4880     0.4380 N.pl3 1 <1>  -0.8380 
 21 C        2.7270     4.5880    -3.1040 C.3   1 <1>  -0.0970 
 22 N       -7.0100     0.7100     1.2770 N.ar  1 <1>  -0.6200 
 23 C       -7.8720     1.1080    -0.8860 C.ar  1 <1>  -0.1500 
 24 C       -6.4840     1.8740    -2.6700 C.ar  1 <1>  -0.1500 
 25 C        0.4140     7.8420     1.6230 C.3   1 <1>   0.1290 
 26 C        2.1350     8.6330     0.0150 C.3   1 <1>   0.1290 
 27 C       -7.7380     1.4920    -2.1920 C.ar  1 <1>  -0.1500 
 28 H        0.7030     1.0780     2.0010 H     1 <1>   0.0800 
 29 H        1.3150     0.5340     0.4330 H     1 <1>   0.0800 
 30 H       -2.0940    -0.6950     0.2480 H     1 <1>   0.0800 
 31 H       -2.1490    -0.4770     1.9920 H     1 <1>   0.0800 
 32 H       -0.4440     1.5980    -0.7350 H     1 <1>   0.0800 
 33 H       -1.9670     1.8270     1.8420 H     1 <1>   0.0800 
 34 H       -0.5490     3.4890     1.5520 H     1 <1>   0.4000 
 35 H       -2.8230     1.2890    -1.0060 H     1 <1>   0.0800 
 36 H       -2.9620     2.8320    -0.2180 H     1 <1>   0.0800 
 37 H        1.2270     2.7860    -1.5940 H     1 <1>   0.1500 
 38 H       -3.9460     0.9920     2.4770 H     1 <1>   0.1500 
 39 H       -4.4480     2.1670    -2.2330 H     1 <1>   0.1500 
 40 H       -6.1680     0.4150     3.1040 H     1 <1>   0.1500 
 41 H        2.3790     6.8030    -1.6350 H     1 <1>   0.4570 
 42 H        2.6560     3.5690    -3.4440 H     1 <1>   0.0800 
 43 H        3.7670     4.8160    -2.9470 H     1 <1>   0.0800 
 44 H        2.3410     5.2270    -3.8790 H     1 <1>   0.0800 
 45 H       -8.8280     0.8140    -0.4930 H     1 <1>   0.1500 
 46 H       -6.3890     2.1820    -3.6980 H     1 <1>   0.1500 
 47 H        0.0740     8.8610     1.5480 H     1 <1>   0.0800 
 48 H        0.9840     7.7300     2.5290 H     1 <1>   0.0800 
 49 H       -0.4580     7.2110     1.6850 H     1 <1>   0.0800 
 50 H        2.5260     9.1330     0.8870 H     1 <1>   0.0800 
 51 H        1.5550     9.3430    -0.5500 H     1 <1>   0.0800 
 52 H        2.9740     8.3070    -0.5730 H     1 <1>   0.0800 
 53 H       -8.5860     1.5060    -2.8550 H     1 <1>   0.1500 
@<TRIPOS>BOND
  1   1   2  1   
  2   1   3  1   
  3   2   4  1   
  4   2  28  1   
  5   2  29  1   
  6   3   5  1   
  7   3  30  1   
  8   3  31  1   
  9   4   5  1   
 10   4   6  1   
 11   4  32  1   
 12   5   7  1   
 13   5  33  1   
 14   6   8  1   
 15   6  34  1   
 16   7   9  1   
 17   7  35  1   
 18   7  36  1   
 19   8  10  ar  
 20   8  11  ar  
 21   9  12  ar  
 22   9  13  ar  
 23  10  14  ar  
 24  11  15  ar  
 25  11  37  1   
 26  12  16  ar  
 27  12  17  ar  
 28  13  18  ar  
 29  13  38  1   
 30  14  19  ar  
 31  14  20  1   
 32  15  19  ar  
 33  15  21  1   
 34  16  22  ar  
 35  16  23  ar  
 36  17  24  ar  
 37  17  39  1   
 38  18  22  ar  
 39  18  40  1   
 40  19  41  1   
 41  20  25  1   
 42  20  26  1   
 43  21  42  1   
 44  21  43  1   
 45  21  44  1   
 46  23  27  ar  
 47  23  45  1   
 48  24  27  ar  
 49  24  46  1   
 50  25  47  1   
 51  25  48  1   
 52  25  49  1   
 53  26  50  1   
 54  26  51  1   
 55  26  52  1   
 56  27  53  1   
@<TRIPOS>SUBSTRUCTURE
  1 ****   7 GROUP 4 **** **** 0

# MOE 2024.06 (io_trps.svl 2023.06)
