@<TRIPOS>MOLECULE
NONAME
52 54 1 0 0 
SMALL
USER_CHARGES


@<TRIPOS>ATOM
  1 O        0.3380    -0.7370     1.0550 O.2   1 <1>  -0.5700 
  2 C        1.2400    -0.9170     0.2700 C.2   1 <1>   0.5690 
  3 N        2.1070     0.0740    -0.1250 N.am  1 <1>  -0.5470 
  4 C        1.4010    -2.3440    -0.3190 C.3   1 <1>   0.4840 
  5 C        2.1520     1.4390     0.2100 C.ar  1 <1>   0.1170 
  6 N        0.1090    -3.1290    -0.3760 N.4   1 <1>  -0.9590 
  7 C        2.4310    -3.1280     0.5030 C.3   1 <1>  -0.2400 
  8 C        3.3640     2.1270     0.1090 C.ar  1 <1>  -0.1440 
  9 C        1.0180     2.1380     0.6170 C.ar  1 <1>  -0.1500 
 10 C        0.2230    -4.5490    -0.8370 C.3   1 <1>   0.3430 
 11 C       -1.0010    -2.4080    -1.0580 C.3   1 <1>   0.3430 
 12 C        3.4180     3.4780     0.4150 C.ar  1 <1>  -0.1500 
 13 C        4.6490     1.4310    -0.3260 C.3   1 <1>  -0.0970 
 14 C        1.0820     3.4840     0.9220 C.ar  1 <1>  -0.1500 
 15 C       -1.1520    -5.1920    -1.0600 C.3   1 <1>  -0.1600 
 16 C       -2.3420    -3.0210    -0.6460 C.3   1 <1>  -0.1600 
 17 C        2.2840     4.1570     0.8210 C.ar  1 <1>  -0.1500 
 18 C       -2.2590    -4.5040    -0.2500 C.3   1 <1>   0.4230 
 19 O       -1.8590    -4.5640     1.0680 O.3   1 <1>  -0.6800 
 20 C       -3.6400    -5.1680    -0.3110 C.ar  1 <1>  -0.1440 
 21 C       -4.6440    -4.7200     0.5440 C.ar  1 <1>  -0.1500 
 22 C       -3.9420    -6.2020    -1.1930 C.ar  1 <1>  -0.1500 
 23 C       -5.9050    -5.2890     0.5240 C.ar  1 <1>  -0.1500 
 24 C       -5.2030    -6.7710    -1.2130 C.ar  1 <1>  -0.1500 
 25 C       -6.1860    -6.3170    -0.3550 C.ar  1 <1>  -0.1500 
 26 H        2.9060    -0.2020    -0.6920 H     1 <1>   0.3700 
 27 H        1.7780    -2.2340    -1.3220 H     1 <1>   0.0800 
 28 H       -0.2240    -3.1880     0.6080 H     1 <1>   0.4500 
 29 H        2.0480    -3.3320     1.4890 H     1 <1>   0.0800 
 30 H        3.3280    -2.5440     0.6150 H     1 <1>   0.0800 
 31 H        2.7080    -4.0480     0.0220 H     1 <1>   0.0800 
 32 H        0.0700     1.6420     0.6980 H     1 <1>   0.1500 
 33 H        0.7440    -5.1160    -0.0820 H     1 <1>   0.0800 
 34 H        0.7950    -4.6030    -1.7490 H     1 <1>   0.0800 
 35 H       -0.8770    -2.4870    -2.1260 H     1 <1>   0.0800 
 36 H       -1.0020    -1.3620    -0.7940 H     1 <1>   0.0800 
 37 H        4.3470     4.0180     0.3430 H     1 <1>   0.1500 
 38 H        4.8490     0.5880     0.3110 H     1 <1>   0.0800 
 39 H        5.4890     2.1000    -0.2580 H     1 <1>   0.0800 
 40 H        4.5670     1.1020    -1.3460 H     1 <1>   0.0800 
 41 H        0.1970     4.0080     1.2390 H     1 <1>   0.1500 
 42 H       -1.1000    -6.2350    -0.8070 H     1 <1>   0.0800 
 43 H       -1.3930    -5.1300    -2.1060 H     1 <1>   0.0800 
 44 H       -3.0130    -2.9190    -1.4800 H     1 <1>   0.0800 
 45 H       -2.7650    -2.4500     0.1610 H     1 <1>   0.0800 
 46 H        2.3380     5.2060     1.0580 H     1 <1>   0.1500 
 47 H       -2.4750    -5.1720     1.5300 H     1 <1>   0.4000 
 48 H       -4.4570    -3.9180     1.2380 H     1 <1>   0.1500 
 49 H       -3.2150    -6.5900    -1.8820 H     1 <1>   0.1500 
 50 H       -6.6700    -4.9320     1.1930 H     1 <1>   0.1500 
 51 H       -5.4240    -7.5720    -1.8990 H     1 <1>   0.1500 
 52 H       -7.1670    -6.7610    -0.3720 H     1 <1>   0.1500 
@<TRIPOS>BOND
  1   1   2  2   
  2   2   3  am  
  3   2   4  1   
  4   3   5  1   
  5   3  26  1   
  6   4   6  1   
  7   4   7  1   
  8   4  27  1   
  9   5   8  ar  
 10   5   9  ar  
 11   6  10  1   
 12   6  11  1   
 13   6  28  1   
 14   7  29  1   
 15   7  30  1   
 16   7  31  1   
 17   8  12  ar  
 18   8  13  1   
 19   9  14  ar  
 20   9  32  1   
 21  10  15  1   
 22  10  33  1   
 23  10  34  1   
 24  11  16  1   
 25  11  35  1   
 26  11  36  1   
 27  12  17  ar  
 28  12  37  1   
 29  13  38  1   
 30  13  39  1   
 31  13  40  1   
 32  14  17  ar  
 33  14  41  1   
 34  15  18  1   
 35  15  42  1   
 36  15  43  1   
 37  16  18  1   
 38  16  44  1   
 39  16  45  1   
 40  17  46  1   
 41  18  19  1   
 42  18  20  1   
 43  19  47  1   
 44  20  21  ar  
 45  20  22  ar  
 46  21  23  ar  
 47  21  48  1   
 48  22  24  ar  
 49  22  49  1   
 50  23  25  ar  
 51  23  50  1   
 52  24  25  ar  
 53  24  51  1   
 54  25  52  1   
@<TRIPOS>SUBSTRUCTURE
  1 ****  11 GROUP 4 **** **** 0

# MOE 2024.06 (io_trps.svl 2023.06)
