@<TRIPOS>MOLECULE
NONAME
49 50 1 0 0 
SMALL
USER_CHARGES


@<TRIPOS>ATOM
  1 S       -0.2790     0.5280    -0.8380 S.o2  1 <1>   1.3330 
  2 O       -1.0940    -0.5960    -1.2220 O.2   1 <1>  -0.6500 
  3 O       -0.1150     1.6610    -1.7210 O.2   1 <1>  -0.6500 
  4 N        1.2730    -0.0480    -0.4600 N.am  1 <1>  -0.8490 
  5 C       -0.8660     1.1770     0.7350 C.3   1 <1>  -0.0550 
  6 C        2.1140    -0.1470    -1.6620 C.3   1 <1>   0.1160 
  7 C        1.2500    -1.3680     0.1920 C.3   1 <1>   0.1160 
  8 C       -0.3530     2.5830     1.1400 C.3   1 <1>  -0.0800 
  9 C       -0.9240     3.7140     0.2650 C.3   1 <1>   0.2000 
 10 C        1.1790     2.7480     1.0830 C.3   1 <1>   0.3430 
 11 O       -1.4820     4.6700     1.1080 O.3   1 <1>  -0.6800 
 12 C        0.2930     4.3280    -0.4370 C.3   1 <1>   0.3430 
 13 N        1.4480     4.0770     0.4750 N.4   1 <1>  -0.9590 
 14 C        1.5640     5.1570     1.4950 C.3   1 <1>   0.4860 
 15 C        1.9710     6.4350     0.7920 C.ar  1 <1>  -0.1440 
 16 C        1.0310     7.4280     0.5630 C.ar  1 <1>  -0.1500 
 17 C        3.2750     6.6200     0.3640 C.ar  1 <1>  -0.1500 
 18 C        1.3780     8.5950    -0.0980 C.ar  1 <1>  -0.1440 
 19 C        3.6260     7.7830    -0.2970 C.ar  1 <1>  -0.1500 
 20 C        2.6860     8.7730    -0.5340 C.ar  1 <1>  -0.1440 
 21 C        0.3130     9.6590    -0.3300 C.3   1 <1>  -0.0970 
 22 C        3.1150    10.0380    -1.2660 C.3   1 <1>  -0.0970 
 23 H       -1.9390     1.2190     0.6980 H     1 <1>   0.0800 
 24 H       -0.6180     0.4800     1.5110 H     1 <1>   0.0800 
 25 H        3.0950    -0.5110    -1.4050 H     1 <1>   0.0800 
 26 H        2.2260     0.8200    -2.1230 H     1 <1>   0.0800 
 27 H        1.6680    -0.8180    -2.3780 H     1 <1>   0.0800 
 28 H        2.2490    -1.6650     0.4650 H     1 <1>   0.0800 
 29 H        0.8380    -2.1120    -0.4710 H     1 <1>   0.0800 
 30 H        0.6520    -1.3410     1.0860 H     1 <1>   0.0800 
 31 H       -0.6560     2.7380     2.1610 H     1 <1>   0.0800 
 32 H       -1.6730     3.4020    -0.4450 H     1 <1>   0.0800 
 33 H        1.6150     1.9920     0.4550 H     1 <1>   0.0800 
 34 H        1.6180     2.6690     2.0650 H     1 <1>   0.0800 
 35 H       -2.4080     4.4430     1.3390 H     1 <1>   0.4000 
 36 H        0.1440     5.3760    -0.6390 H     1 <1>   0.0800 
 37 H        0.4590     3.8160    -1.3700 H     1 <1>   0.0800 
 38 H        2.3140     4.0820    -0.0780 H     1 <1>   0.4500 
 39 H        0.6250     5.3010     2.0040 H     1 <1>   0.0800 
 40 H        2.3140     4.9020     2.2260 H     1 <1>   0.0800 
 41 H        0.0170     7.2940     0.9010 H     1 <1>   0.1500 
 42 H        4.0310     5.8750     0.5380 H     1 <1>   0.1500 
 43 H        4.6420     7.9160    -0.6250 H     1 <1>   0.1500 
 44 H       -0.6310     9.3650     0.0920 H     1 <1>   0.0800 
 45 H        0.1760     9.8200    -1.3840 H     1 <1>   0.0800 
 46 H        0.6110    10.5840     0.1290 H     1 <1>   0.0800 
 47 H        4.1530     9.9940    -1.5400 H     1 <1>   0.0800 
 48 H        2.9710    10.8960    -0.6340 H     1 <1>   0.0800 
 49 H        2.5360    10.1610    -2.1630 H     1 <1>   0.0800 
@<TRIPOS>BOND
  1   1   2  2   
  2   1   3  2   
  3   1   4  am  
  4   1   5  1   
  5   4   6  1   
  6   4   7  1   
  7   5   8  1   
  8   5  23  1   
  9   5  24  1   
 10   6  25  1   
 11   6  26  1   
 12   6  27  1   
 13   7  28  1   
 14   7  29  1   
 15   7  30  1   
 16   8   9  1   
 17   8  10  1   
 18   8  31  1   
 19   9  11  1   
 20   9  12  1   
 21   9  32  1   
 22  10  13  1   
 23  10  33  1   
 24  10  34  1   
 25  11  35  1   
 26  12  13  1   
 27  12  36  1   
 28  12  37  1   
 29  13  14  1   
 30  13  38  1   
 31  14  15  1   
 32  14  39  1   
 33  14  40  1   
 34  15  16  ar  
 35  15  17  ar  
 36  16  18  ar  
 37  16  41  1   
 38  17  19  ar  
 39  17  42  1   
 40  18  20  ar  
 41  18  21  1   
 42  19  20  ar  
 43  19  43  1   
 44  20  22  1   
 45  21  44  1   
 46  21  45  1   
 47  21  46  1   
 48  22  47  1   
 49  22  48  1   
 50  22  49  1   
@<TRIPOS>SUBSTRUCTURE
  1 ****  13 GROUP 4 **** **** 0

# MOE 2024.06 (io_trps.svl 2023.06)
