@<TRIPOS>MOLECULE
NONAME
45 47 1 0 0 
SMALL
USER_CHARGES


@<TRIPOS>ATOM
  1 S       -0.3580     0.0150     0.2290 S.o2  1 <1>   1.3330 
  2 O       -1.1120     1.1950    -0.1270 O.2   1 <1>  -0.6500 
  3 O       -0.3330    -0.4240     1.6060 O.2   1 <1>  -0.6500 
  4 N       -0.9190    -1.2800    -0.7160 N.am  1 <1>  -0.8490 
  5 C        1.3170     0.2370    -0.3720 C.3   1 <1>  -0.0550 
  6 C       -0.5470    -2.5940    -0.1810 C.3   1 <1>   0.1160 
  7 C       -2.3680    -1.2220    -0.9340 C.3   1 <1>   0.1160 
  8 C        2.0530     1.4280     0.2760 C.3   1 <1>  -0.0800 
  9 C        3.3660     1.7100    -0.4330 C.3   1 <1>   0.2200 
 10 C        2.5280     1.1050     1.6960 C.3   1 <1>   0.1200 
 11 N        3.7640     3.1140    -0.1780 N.am  1 <1>  -0.7300 
 12 C        4.3240     0.7650     0.2840 C.3   1 <1>   0.1200 
 13 O        3.8240     0.5980     1.5790 O.3   1 <1>  -0.5600 
 14 C        4.0000     4.0560    -1.1390 C.2   1 <1>   0.5440 
 15 O        3.8940     3.7230    -2.3040 O.2   1 <1>  -0.5700 
 16 C        4.3820     5.4090    -0.7760 C.ar  1 <1>   0.0860 
 17 C        4.0600     5.9610     0.4570 C.ar  1 <1>  -0.1500 
 18 C        5.1040     6.2110    -1.6860 C.ar  1 <1>  -0.1500 
 19 C        4.4520     7.2590     0.7860 C.ar  1 <1>   0.0000 
 20 C        5.4980     7.4920    -1.3820 C.ar  1 <1>  -0.1500 
 21 C        5.1690     8.0180    -0.1320 C.ar  1 <1>  -0.1520 
 22 C        4.2820     8.0720     1.9280 C.2   1 <1>  -0.1500 
 23 N        5.4270     9.2420     0.4260 N.pl3 1 <1>   0.0330 
 24 C        4.8820     9.2600     1.6800 C.2   1 <1>  -0.3020 
 25 H        1.8780    -0.6630    -0.2120 H     1 <1>   0.0800 
 26 H        1.2640     0.4060    -1.4300 H     1 <1>   0.0800 
 27 H       -0.8460    -3.3700    -0.8660 H     1 <1>   0.0800 
 28 H       -1.0260    -2.7630     0.7700 H     1 <1>   0.0800 
 29 H        0.5190    -2.6540    -0.0460 H     1 <1>   0.0800 
 30 H       -2.6860    -2.0470    -1.5480 H     1 <1>   0.0800 
 31 H       -2.6280    -0.3070    -1.4410 H     1 <1>   0.0800 
 32 H       -2.8900    -1.2560     0.0080 H     1 <1>   0.0800 
 33 H        1.4080     2.2900     0.2580 H     1 <1>   0.0800 
 34 H        3.3260     1.5140    -1.4920 H     1 <1>   0.0800 
 35 H        1.9170     0.3820     2.2070 H     1 <1>   0.0800 
 36 H        2.5830     2.0010     2.2900 H     1 <1>   0.0800 
 37 H        4.0010     3.3170     0.7940 H     1 <1>   0.3700 
 38 H        5.3280     1.1510     0.3300 H     1 <1>   0.0800 
 39 H        4.3280    -0.2010    -0.1880 H     1 <1>   0.0800 
 40 H        3.4940     5.4060     1.1810 H     1 <1>   0.1500 
 41 H        5.3490     5.7930    -2.6480 H     1 <1>   0.1500 
 42 H        6.0480     8.0870    -2.0890 H     1 <1>   0.1500 
 43 H        3.7610     7.7630     2.8170 H     1 <1>   0.1500 
 44 H        5.9390    10.0050    -0.0280 H     1 <1>   0.2700 
 45 H        4.9540    10.1230     2.3190 H     1 <1>   0.1500 
@<TRIPOS>BOND
  1   1   2  2   
  2   1   3  2   
  3   1   4  am  
  4   1   5  1   
  5   4   6  1   
  6   4   7  1   
  7   5   8  1   
  8   5  25  1   
  9   5  26  1   
 10   6  27  1   
 11   6  28  1   
 12   6  29  1   
 13   7  30  1   
 14   7  31  1   
 15   7  32  1   
 16   8   9  1   
 17   8  10  1   
 18   8  33  1   
 19   9  11  1   
 20   9  12  1   
 21   9  34  1   
 22  10  13  1   
 23  10  35  1   
 24  10  36  1   
 25  11  14  am  
 26  11  37  1   
 27  12  13  1   
 28  12  38  1   
 29  12  39  1   
 30  14  15  2   
 31  14  16  1   
 32  16  17  ar  
 33  16  18  ar  
 34  17  19  ar  
 35  17  40  1   
 36  18  20  ar  
 37  18  41  1   
 38  19  21  ar  
 39  19  22  1   
 40  20  21  ar  
 41  20  42  1   
 42  21  23  1   
 43  22  24  2   
 44  22  43  1   
 45  23  24  1   
 46  23  44  1   
 47  24  45  1   
@<TRIPOS>SUBSTRUCTURE
  1 ****  11 GROUP 4 **** **** 0

# MOE 2024.06 (io_trps.svl 2023.06)
