@<TRIPOS>MOLECULE
NONAME
49 51 1 0 0 
SMALL
USER_CHARGES


@<TRIPOS>ATOM
  1 F       -1.1470    -0.2480    -0.6490 F     1 <1>  -0.1900 
  2 C       -2.0250     0.6100    -0.1960 C.ar  1 <1>   0.1900 
  3 C       -3.1240     0.1300     0.4920 C.ar  1 <1>  -0.1440 
  4 C       -1.8220     1.9520    -0.4410 C.ar  1 <1>  -0.1500 
  5 C       -4.0500     1.0520     0.9530 C.ar  1 <1>  -0.1500 
  6 C       -3.3130    -1.3530     0.7270 C.3   1 <1>   0.4870 
  7 C       -2.7610     2.8760     0.0140 C.ar  1 <1>   0.0830 
  8 C       -3.8840     2.4100     0.7270 C.ar  1 <1>   0.0830 
  9 N       -3.6610    -2.0110    -0.5630 N.4   1 <1>  -0.9590 
 10 O       -2.6150     4.2080    -0.2390 O.3   1 <1>  -0.3620 
 11 O       -4.8850     3.1800     1.2390 O.3   1 <1>  -0.3620 
 12 C       -4.9890    -1.5320    -1.0700 C.3   1 <1>   0.3430 
 13 C       -3.7750    -3.4920    -0.3870 C.3   1 <1>   0.3430 
 14 C       -1.5250     4.7290    -0.9690 C.3   1 <1>   0.0400 
 15 C       -4.6790     4.5240     1.6170 C.3   1 <1>   0.0400 
 16 C       -6.0050    -2.5820    -0.6120 C.3   1 <1>   0.2000 
 17 C       -5.2100    -3.8770    -0.7670 C.3   1 <1>  -0.0800 
 18 O       -6.2890    -2.3620     0.7340 O.3   1 <1>  -0.6800 
 19 C       -5.7320    -5.1060     0.0030 C.3   1 <1>   0.0200 
 20 C       -4.7350    -6.2440    -0.0880 C.2   1 <1>  -0.0400 
 21 O       -4.2240    -6.5680    -1.2460 O.3   1 <1>  -0.0190 
 22 C       -4.1980    -7.0510     0.8390 C.2   1 <1>  -0.1500 
 23 N       -3.3620    -7.5340    -1.1410 N.2   1 <1>  -0.4100 
 24 C       -3.3320    -7.8550     0.1030 C.2   1 <1>   0.1080 
 25 C       -2.4680    -8.9570     0.6760 C.3   1 <1>  -0.0590 
 26 H       -0.9440     2.2440    -0.9830 H     1 <1>   0.1500 
 27 H       -4.9210     0.7330     1.5000 H     1 <1>   0.1500 
 28 H       -4.0990    -1.5130     1.4480 H     1 <1>   0.0800 
 29 H       -2.3990    -1.7690     1.1190 H     1 <1>   0.0800 
 30 H       -2.9160    -1.7730    -1.2340 H     1 <1>   0.4500 
 31 H       -5.2470    -0.5530    -0.7020 H     1 <1>   0.0800 
 32 H       -4.9730    -1.5080    -2.1470 H     1 <1>   0.0800 
 33 H       -3.0670    -4.0190    -1.0070 H     1 <1>   0.0800 
 34 H       -3.5970    -3.7560     0.6430 H     1 <1>   0.0800 
 35 H       -1.6470     5.7950    -1.0340 H     1 <1>   0.0800 
 36 H       -1.5290     4.3040    -1.9570 H     1 <1>   0.0800 
 37 H       -0.6120     4.4990    -0.4500 H     1 <1>   0.0800 
 38 H       -5.4860     4.8180     2.2630 H     1 <1>   0.0800 
 39 H       -4.6810     5.1380     0.7350 H     1 <1>   0.0800 
 40 H       -3.7420     4.6050     2.1390 H     1 <1>   0.0800 
 41 H       -6.9200    -2.5510    -1.1800 H     1 <1>   0.0800 
 42 H       -5.1970    -4.1290    -1.8140 H     1 <1>   0.0800 
 43 H       -7.1640    -2.7340     0.9770 H     1 <1>   0.4000 
 44 H       -6.6700    -5.4270    -0.4180 H     1 <1>   0.0800 
 45 H       -5.8910    -4.8780     1.0420 H     1 <1>   0.0800 
 46 H       -4.3630    -7.1020     1.9000 H     1 <1>   0.1500 
 47 H       -1.8110    -8.5580     1.4250 H     1 <1>   0.0800 
 48 H       -1.8770    -9.4040    -0.1040 H     1 <1>   0.0800 
 49 H       -3.0890    -9.7160     1.1160 H     1 <1>   0.0800 
@<TRIPOS>BOND
  1   1   2  1   
  2   2   3  ar  
  3   2   4  ar  
  4   3   5  ar  
  5   3   6  1   
  6   4   7  ar  
  7   4  26  1   
  8   5   8  ar  
  9   5  27  1   
 10   6   9  1   
 11   6  28  1   
 12   6  29  1   
 13   7   8  ar  
 14   7  10  1   
 15   8  11  1   
 16   9  12  1   
 17   9  13  1   
 18   9  30  1   
 19  10  14  1   
 20  11  15  1   
 21  12  16  1   
 22  12  31  1   
 23  12  32  1   
 24  13  17  1   
 25  13  33  1   
 26  13  34  1   
 27  14  35  1   
 28  14  36  1   
 29  14  37  1   
 30  15  38  1   
 31  15  39  1   
 32  15  40  1   
 33  16  17  1   
 34  16  18  1   
 35  16  41  1   
 36  17  19  1   
 37  17  42  1   
 38  18  43  1   
 39  19  20  1   
 40  19  44  1   
 41  19  45  1   
 42  20  21  1   
 43  20  22  2   
 44  21  23  1   
 45  22  24  1   
 46  22  46  1   
 47  23  24  2   
 48  24  25  1   
 49  25  47  1   
 50  25  48  1   
 51  25  49  1   
@<TRIPOS>SUBSTRUCTURE
  1 ****   9 GROUP 4 **** **** 0

# MOE 2024.06 (io_trps.svl 2023.06)
