@<TRIPOS>MOLECULE
NONAME
49 51 1 0 0 
SMALL
USER_CHARGES


@<TRIPOS>ATOM
  1 O       -0.4730     0.1200     0.2840 O.2   1 <1>  -0.5700 
  2 C       -1.5090     0.7280     0.1430 C.2   1 <1>   0.5690 
  3 N       -2.7170     0.0970     0.2210 N.am  1 <1>  -0.6600 
  4 C       -1.4640     2.2260    -0.1190 C.3   1 <1>  -0.0990 
  5 C       -4.0510     0.7250     0.0940 C.3   1 <1>   0.1400 
  6 C       -2.8360    -1.3620     0.4160 C.3   1 <1>   0.1400 
  7 C       -0.0640     2.7490    -0.4680 C.3   1 <1>  -0.0160 
  8 C       -5.0470    -0.3450     0.5660 C.3   1 <1>  -0.0800 
  9 C       -4.3290    -1.6810     0.2930 C.3   1 <1>  -0.0800 
 10 C       -0.1090     4.2450    -0.7340 C.ar  1 <1>  -0.1440 
 11 C       -6.4940    -0.2450    -0.0110 C.3   1 <1>   0.2800 
 12 C       -4.7010    -2.2300    -1.0930 C.3   1 <1>  -0.1600 
 13 C        0.1460     5.1470     0.2880 C.ar  1 <1>  -0.1500 
 14 C       -0.4090     4.7210    -2.0010 C.ar  1 <1>  -0.1500 
 15 O       -6.4790     0.3870    -1.2410 O.3   1 <1>  -0.6800 
 16 C       -7.0680    -1.6530    -0.2530 C.3   1 <1>  -0.1600 
 17 C       -7.4450     0.5630     0.8980 C.3   1 <1>  -0.1600 
 18 C       -6.2100    -2.5170    -1.2030 C.3   1 <1>  -0.1600 
 19 C        0.1020     6.5090     0.0460 C.ar  1 <1>  -0.1500 
 20 C       -0.4540     6.0830    -2.2450 C.ar  1 <1>  -0.1500 
 21 C       -7.0400     2.0250     1.1550 C.3   1 <1>  -0.2400 
 22 C       -0.1980     6.9780    -1.2210 C.ar  1 <1>  -0.1500 
 23 H       -2.1270     2.4530    -0.9330 H     1 <1>   0.0800 
 24 H       -1.8200     2.7320     0.7580 H     1 <1>   0.0800 
 25 H       -4.1190     1.6150     0.6940 H     1 <1>   0.0800 
 26 H       -4.1990     0.9790    -0.9410 H     1 <1>   0.0800 
 27 H       -2.2470    -1.8890    -0.3150 H     1 <1>   0.0800 
 28 H       -2.4780    -1.6080     1.4010 H     1 <1>   0.0800 
 29 H        0.3080     2.2360    -1.3380 H     1 <1>   0.0800 
 30 H        0.6140     2.5430     0.3430 H     1 <1>   0.0800 
 31 H       -5.1120    -0.2600     1.6350 H     1 <1>   0.0800 
 32 H       -4.5960    -2.4150     1.0340 H     1 <1>   0.0800 
 33 H       -4.4290    -1.5000    -1.8370 H     1 <1>   0.0800 
 34 H       -4.1460    -3.1290    -1.3020 H     1 <1>   0.0800 
 35 H        0.3800     4.7910     1.2760 H     1 <1>   0.1500 
 36 H       -0.6090     4.0320    -2.8030 H     1 <1>   0.1500 
 37 H       -7.3730     0.3630    -1.6250 H     1 <1>   0.4000 
 38 H       -7.1240    -2.1540     0.6970 H     1 <1>   0.0800 
 39 H       -8.0740    -1.5930    -0.6300 H     1 <1>   0.0800 
 40 H       -8.4310     0.5530     0.4670 H     1 <1>   0.0800 
 41 H       -7.5200     0.0630     1.8480 H     1 <1>   0.0800 
 42 H       -6.3960    -3.5550    -0.9860 H     1 <1>   0.0800 
 43 H       -6.5140    -2.3410    -2.2210 H     1 <1>   0.0800 
 44 H        0.3020     7.2030     0.8430 H     1 <1>   0.1500 
 45 H       -0.6880     6.4450    -3.2300 H     1 <1>   0.1500 
 46 H       -6.9060     2.5530     0.2270 H     1 <1>   0.0800 
 47 H       -6.1270     2.0770     1.7200 H     1 <1>   0.0800 
 48 H       -7.8090     2.5230     1.7180 H     1 <1>   0.0800 
 49 H       -0.2320     8.0370    -1.4100 H     1 <1>   0.1500 
@<TRIPOS>BOND
  1   1   2  2   
  2   2   3  am  
  3   2   4  1   
  4   3   5  1   
  5   3   6  1   
  6   4   7  1   
  7   4  23  1   
  8   4  24  1   
  9   5   8  1   
 10   5  25  1   
 11   5  26  1   
 12   6   9  1   
 13   6  27  1   
 14   6  28  1   
 15   7  10  1   
 16   7  29  1   
 17   7  30  1   
 18   8   9  1   
 19   8  11  1   
 20   8  31  1   
 21   9  12  1   
 22   9  32  1   
 23  10  13  ar  
 24  10  14  ar  
 25  11  15  1   
 26  11  16  1   
 27  11  17  1   
 28  12  18  1   
 29  12  33  1   
 30  12  34  1   
 31  13  19  ar  
 32  13  35  1   
 33  14  20  ar  
 34  14  36  1   
 35  15  37  1   
 36  16  18  1   
 37  16  38  1   
 38  16  39  1   
 39  17  21  1   
 40  17  40  1   
 41  17  41  1   
 42  18  42  1   
 43  18  43  1   
 44  19  22  ar  
 45  19  44  1   
 46  20  22  ar  
 47  20  45  1   
 48  21  46  1   
 49  21  47  1   
 50  21  48  1   
 51  22  49  1   
@<TRIPOS>SUBSTRUCTURE
  1 ****   5 GROUP 4 **** **** 0

# MOE 2024.06 (io_trps.svl 2023.06)
