@<TRIPOS>MOLECULE
NONAME
44 46 1 0 0 
SMALL
USER_CHARGES


@<TRIPOS>ATOM
  1 O        1.3210     0.0870     0.0410 O.2   1 <1>  -0.5700 
  2 C        1.4720     1.2790     0.0420 C.2   1 <1>   0.4230 
  3 C        2.5200     2.0360     0.6500 C.ar  1 <1>   0.0860 
  4 C        0.5160     2.2230    -0.6550 C.3   1 <1>  -0.0990 
  5 C        2.3510     3.3880     0.4250 C.ar  1 <1>  -0.1440 
  6 C        3.6110     1.5910     1.3860 C.ar  1 <1>  -0.1500 
  7 C        1.0910     3.6310    -0.3950 C.3   1 <1>  -0.0160 
  8 C        3.2460     4.3430     0.9090 C.ar  1 <1>   0.0860 
  9 C        4.5120     2.5110     1.8900 C.ar  1 <1>  -0.1500 
 10 C        3.0830     5.7630     0.6580 C.2   1 <1>   0.5440 
 11 C        4.3280     3.8650     1.6560 C.ar  1 <1>  -0.1500 
 12 O        1.9890     6.2840     0.7570 O.2   1 <1>  -0.5700 
 13 N        4.1820     6.5060     0.2920 N.am  1 <1>  -0.4940 
 14 C        4.3080     7.9080     0.1070 C.2   1 <1>  -0.0880 
 15 N        5.4010     8.5450    -0.4030 N.pl3 1 <1>   0.3140 
 16 C        3.4140     8.8810     0.4000 C.2   1 <1>  -0.1500 
 17 N        5.2230     9.8910    -0.4200 N.2   1 <1>  -0.7070 
 18 C        6.6680     7.9100    -0.8750 C.3   1 <1>   0.1760 
 19 C        4.0340    10.0730     0.0550 C.2   1 <1>   0.1080 
 20 C        7.7570     8.0720     0.2040 C.3   1 <1>  -0.1600 
 21 C        7.0950     8.4840    -2.2370 C.3   1 <1>  -0.2400 
 22 C        3.4250    11.4460     0.2040 C.3   1 <1>  -0.0590 
 23 C        9.0280     7.2560    -0.0780 C.3   1 <1>  -0.2400 
 24 H       -0.4680     2.1200    -0.2340 H     1 <1>   0.0800 
 25 H        0.4860     2.0010    -1.7060 H     1 <1>   0.0800 
 26 H        3.7350     0.5350     1.5570 H     1 <1>   0.1500 
 27 H        0.3900     4.2290     0.1630 H     1 <1>   0.0800 
 28 H        1.3280     4.1300    -1.3180 H     1 <1>   0.0800 
 29 H        5.3550     2.1710     2.4690 H     1 <1>   0.1500 
 30 H        5.0330     4.5640     2.0730 H     1 <1>   0.1500 
 31 H        5.0240     5.9550     0.1360 H     1 <1>   0.3700 
 32 H        2.4290     8.7740     0.8160 H     1 <1>   0.1500 
 33 H        6.4720     6.8630    -1.0090 H     1 <1>   0.0800 
 34 H        7.3560     7.7570     1.1520 H     1 <1>   0.0800 
 35 H        8.0160     9.1150     0.2900 H     1 <1>   0.0800 
 36 H        7.3780     9.5170    -2.1350 H     1 <1>   0.0800 
 37 H        6.2800     8.4160    -2.9360 H     1 <1>   0.0800 
 38 H        7.9280     7.9370    -2.6380 H     1 <1>   0.0800 
 39 H        2.4340    11.3750     0.6120 H     1 <1>   0.0800 
 40 H        3.3780    11.9220    -0.7580 H     1 <1>   0.0800 
 41 H        4.0360    12.0400     0.8580 H     1 <1>   0.0800 
 42 H        8.7920     6.2140    -0.2050 H     1 <1>   0.0800 
 43 H        9.7110     7.3530     0.7480 H     1 <1>   0.0800 
 44 H        9.5250     7.6130    -0.9630 H     1 <1>   0.0800 
@<TRIPOS>BOND
  1   1   2  2   
  2   2   3  1   
  3   2   4  1   
  4   3   5  ar  
  5   3   6  ar  
  6   4   7  1   
  7   4  24  1   
  8   4  25  1   
  9   5   7  1   
 10   5   8  ar  
 11   6   9  ar  
 12   6  26  1   
 13   7  27  1   
 14   7  28  1   
 15   8  10  1   
 16   8  11  ar  
 17   9  11  ar  
 18   9  29  1   
 19  10  12  2   
 20  10  13  am  
 21  11  30  1   
 22  13  14  1   
 23  13  31  1   
 24  14  15  1   
 25  14  16  2   
 26  15  17  1   
 27  15  18  1   
 28  16  19  1   
 29  16  32  1   
 30  17  19  2   
 31  18  20  1   
 32  18  21  1   
 33  18  33  1   
 34  19  22  1   
 35  20  23  1   
 36  20  34  1   
 37  20  35  1   
 38  21  36  1   
 39  21  37  1   
 40  21  38  1   
 41  22  39  1   
 42  22  40  1   
 43  22  41  1   
 44  23  42  1   
 45  23  43  1   
 46  23  44  1   
@<TRIPOS>SUBSTRUCTURE
  1 ****  13 GROUP 4 **** **** 0

# MOE 2024.06 (io_trps.svl 2023.06)
