@<TRIPOS>MOLECULE
NONAME
47 49 1 0 0 
SMALL
USER_CHARGES


@<TRIPOS>ATOM
  1 O       -1.4150     1.4440     2.8970 O.3   1 <1>  -0.5600 
  2 C       -0.0820     1.4480     2.4790 C.3   1 <1>   0.1200 
  3 C       -2.2690     1.2770     1.8010 C.3   1 <1>   0.1200 
  4 C       -0.1040     1.9320     1.0340 C.3   1 <1>   0.2890 
  5 C       -1.3900     1.2830     0.5450 C.3   1 <1>  -0.0800 
  6 N       -0.2110     3.4120     1.0260 N.pl3 1 <1>  -0.8690 
  7 C       -2.0490     1.9340    -0.6850 C.3   1 <1>  -0.0170 
  8 C        0.3130     4.2520     0.0760 C.ar  1 <1>   0.4100 
  9 C       -3.2780     1.1520    -1.1220 C.ar  1 <1>  -0.1430 
 10 N        0.8930     3.6860    -0.9610 N.ar  1 <1>  -0.6200 
 11 C        0.2190     5.6330     0.1970 C.ar  1 <1>  -0.1430 
 12 C       -4.5570     1.5470    -0.7840 C.ar  1 <1>  -0.1500 
 13 C       -3.1750     0.0060    -1.8830 C.ar  1 <1>  -0.1500 
 14 C        1.3730     4.5050    -1.8720 C.ar  1 <1>   0.4770 
 15 C        0.7610     6.3720    -0.8270 C.ar  1 <1>   0.1600 
 16 C       -0.4600     6.2540     1.4230 C.3   1 <1>  -0.0170 
 17 C       -5.6390     0.7930    -1.2050 C.ar  1 <1>   0.1600 
 18 C       -4.3230    -0.6760    -2.2530 C.ar  1 <1>   0.1600 
 19 N        1.3420     5.8220    -1.8740 N.ar  1 <1>  -0.6200 
 20 C        2.0370     3.8640    -3.0660 C.3   1 <1>  -0.0970 
 21 C       -0.4670     7.7900     1.4640 C.3   1 <1>  -0.1600 
 22 N       -5.5530    -0.3110    -1.9300 N.ar  1 <1>  -0.6200 
 23 C       -1.1530     8.3110     2.7310 C.3   1 <1>  -0.2400 
 24 H        0.5010     2.0860     3.1200 H     1 <1>   0.0800 
 25 H        0.2840     0.4380     2.5340 H     1 <1>   0.0800 
 26 H       -2.8070     0.3510     1.9090 H     1 <1>   0.0800 
 27 H       -2.9590     2.1020     1.8010 H     1 <1>   0.0800 
 28 H        0.7640     1.6050     0.4870 H     1 <1>   0.0800 
 29 H       -1.1680     0.2590     0.3040 H     1 <1>   0.0800 
 30 H       -0.7510     3.7930     1.8050 H     1 <1>   0.4000 
 31 H       -1.3400     1.9640    -1.4940 H     1 <1>   0.0800 
 32 H       -2.3290     2.9500    -0.4680 H     1 <1>   0.0800 
 33 H       -4.7220     2.4320    -0.1980 H     1 <1>   0.1500 
 34 H       -2.2140    -0.3630    -2.1910 H     1 <1>   0.1500 
 35 H        0.7310     7.4460    -0.8120 H     1 <1>   0.1500 
 36 H       -1.4770     5.9060     1.4590 H     1 <1>   0.0800 
 37 H        0.0420     5.8930     2.3040 H     1 <1>   0.0800 
 38 H       -6.6300     1.1150    -0.9320 H     1 <1>   0.1500 
 39 H       -4.2230    -1.5690    -2.8460 H     1 <1>   0.1500 
 40 H        1.4040     3.9760    -3.9260 H     1 <1>   0.0800 
 41 H        2.2070     2.8180    -2.8870 H     1 <1>   0.0800 
 42 H        2.9790     4.3440    -3.2560 H     1 <1>   0.0800 
 43 H        0.5450     8.1570     1.4410 H     1 <1>   0.0800 
 44 H       -0.9890     8.1730     0.6030 H     1 <1>   0.0800 
 45 H       -0.6390     7.9620     3.6100 H     1 <1>   0.0800 
 46 H       -2.1760     7.9790     2.7720 H     1 <1>   0.0800 
 47 H       -1.1440     9.3870     2.7380 H     1 <1>   0.0800 
@<TRIPOS>BOND
  1   1   2  1   
  2   1   3  1   
  3   2   4  1   
  4   2  24  1   
  5   2  25  1   
  6   3   5  1   
  7   3  26  1   
  8   3  27  1   
  9   4   5  1   
 10   4   6  1   
 11   4  28  1   
 12   5   7  1   
 13   5  29  1   
 14   6   8  1   
 15   6  30  1   
 16   7   9  1   
 17   7  31  1   
 18   7  32  1   
 19   8  10  ar  
 20   8  11  ar  
 21   9  12  ar  
 22   9  13  ar  
 23  10  14  ar  
 24  11  15  ar  
 25  11  16  1   
 26  12  17  ar  
 27  12  33  1   
 28  13  18  ar  
 29  13  34  1   
 30  14  19  ar  
 31  14  20  1   
 32  15  19  ar  
 33  15  35  1   
 34  16  21  1   
 35  16  36  1   
 36  16  37  1   
 37  17  22  ar  
 38  17  38  1   
 39  18  22  ar  
 40  18  39  1   
 41  20  40  1   
 42  20  41  1   
 43  20  42  1   
 44  21  23  1   
 45  21  43  1   
 46  21  44  1   
 47  23  45  1   
 48  23  46  1   
 49  23  47  1   
@<TRIPOS>SUBSTRUCTURE
  1 ****   7 GROUP 4 **** **** 0

# MOE 2024.06 (io_trps.svl 2023.06)
