@<TRIPOS>MOLECULE
NONAME
40 42 1 0 0 
SMALL
USER_CHARGES


@<TRIPOS>ATOM
  1 S        0.2570    -0.2840     1.2510 S.o2  1 <1>   1.3330 
  2 O        0.4970     0.1120     2.6170 O.2   1 <1>  -0.6500 
  3 O       -1.0320    -0.1940     0.6110 O.2   1 <1>  -0.6500 
  4 N        0.7390    -1.8670     1.1910 N.am  1 <1>  -0.9140 
  5 C        1.5210     0.3220     0.1420 C.3   1 <1>   0.0250 
  6 C        1.4420    -2.0490    -0.0620 C.3   1 <1>   0.1960 
  7 C        2.4350    -0.8680    -0.3740 C.3   1 <1>   0.2800 
  8 C        2.5200     1.3620     0.7920 C.3   1 <1>  -0.1600 
  9 O        3.2340     0.1820    -0.6700 O.3   1 <1>  -0.5600 
 10 C        3.6720    -1.7300    -0.9230 C.3   1 <1>   0.1400 
 11 C        3.7700     0.5800     0.5140 C.3   1 <1>   0.2000 
 12 N        4.9790    -1.4510    -0.1280 N.am  1 <1>  -0.6600 
 13 C        5.1800     0.0150     0.2890 C.3   1 <1>   0.1400 
 14 C        5.8320    -2.4310     0.2950 C.2   1 <1>   0.7800 
 15 O        6.7980    -2.1810     0.9870 O.2   1 <1>  -0.5700 
 16 O        5.5450    -3.6820    -0.0740 O.3   1 <1>  -0.4300 
 17 C        6.2780    -4.8500     0.2270 C.3   1 <1>   0.2800 
 18 C        6.2970    -5.0900     1.7410 C.3   1 <1>  -0.2400 
 19 C        5.5140    -5.9870    -0.4530 C.3   1 <1>  -0.2400 
 20 C        7.6870    -4.7610    -0.3700 C.3   1 <1>  -0.2400 
 21 H        1.3790    -1.9630     1.9790 H     1 <1>   0.4200 
 22 H        1.0300     0.7760    -0.7010 H     1 <1>   0.0800 
 23 H        1.8920    -3.0240    -0.0040 H     1 <1>   0.0800 
 24 H        0.7120    -2.0920    -0.8560 H     1 <1>   0.0800 
 25 H        2.5230     2.3010     0.2660 H     1 <1>   0.0800 
 26 H        2.3830     1.5320     1.8460 H     1 <1>   0.0800 
 27 H        3.8510    -1.4750    -1.9570 H     1 <1>   0.0800 
 28 H        3.5110    -2.7900    -0.9450 H     1 <1>   0.0800 
 29 H        3.5960    -0.1100     1.3330 H     1 <1>   0.0800 
 30 H        5.7650     0.0820     1.1910 H     1 <1>   0.0800 
 31 H        5.6810     0.5560    -0.4940 H     1 <1>   0.0800 
 32 H        6.7360    -6.0480     1.9540 H     1 <1>   0.0800 
 33 H        5.2980    -5.0780     2.1360 H     1 <1>   0.0800 
 34 H        6.8870    -4.3470     2.2450 H     1 <1>   0.0800 
 35 H        6.0090    -6.9250    -0.2790 H     1 <1>   0.0800 
 36 H        5.4680    -5.8210    -1.5150 H     1 <1>   0.0800 
 37 H        4.5150    -6.0530    -0.0630 H     1 <1>   0.0800 
 38 H        8.1910    -5.7030    -0.2600 H     1 <1>   0.0800 
 39 H        8.2770    -4.0180     0.1350 H     1 <1>   0.0800 
 40 H        7.6370    -4.5210    -1.4160 H     1 <1>   0.0800 
@<TRIPOS>BOND
  1   1   2  2   
  2   1   3  2   
  3   1   4  am  
  4   1   5  1   
  5   4   6  1   
  6   4  21  1   
  7   5   7  1   
  8   5   8  1   
  9   5  22  1   
 10   6   7  1   
 11   6  23  1   
 12   6  24  1   
 13   7   9  1   
 14   7  10  1   
 15   8  11  1   
 16   8  25  1   
 17   8  26  1   
 18   9  11  1   
 19  10  12  1   
 20  10  27  1   
 21  10  28  1   
 22  11  13  1   
 23  11  29  1   
 24  12  13  1   
 25  12  14  am  
 26  13  30  1   
 27  13  31  1   
 28  14  15  2   
 29  14  16  1   
 30  16  17  1   
 31  17  18  1   
 32  17  19  1   
 33  17  20  1   
 34  18  32  1   
 35  18  33  1   
 36  18  34  1   
 37  19  35  1   
 38  19  36  1   
 39  19  37  1   
 40  20  38  1   
 41  20  39  1   
 42  20  40  1   
@<TRIPOS>SUBSTRUCTURE
  1 ****  10 GROUP 4 **** **** 0

# MOE 2024.06 (io_trps.svl 2023.06)
