@<TRIPOS>MOLECULE
NONAME
37 39 1 0 0 
SMALL
USER_CHARGES


@<TRIPOS>ATOM
  1 CL       1.4400     0.8750    -1.7700 Cl    1 <1>  -0.1770 
  2 C        2.2730    -0.2780    -0.7570 C.ar  1 <1>   0.1770 
  3 C        2.9580     0.1650     0.3670 C.ar  1 <1>  -0.1440 
  4 C        2.2460    -1.6120    -1.1130 C.ar  1 <1>  -0.1500 
  5 C        3.6330    -0.7630     1.1520 C.ar  1 <1>  -0.1500 
  6 C        2.9680     1.6390     0.7280 C.3   1 <1>   0.4870 
  7 C        2.9250    -2.5150    -0.3200 C.ar  1 <1>   0.1770 
  8 C        3.6160    -2.1050     0.8060 C.ar  1 <1>  -0.1500 
  9 N        4.2960     2.2130     0.3830 N.4   1 <1>  -0.9590 
 10 CL       2.9150    -4.2040    -0.7490 Cl    1 <1>  -0.1770 
 11 C        4.5460     3.5330     1.0710 C.3   1 <1>   0.3430 
 12 C        4.5730     2.1780    -1.0960 C.3   1 <1>   0.3430 
 13 C        6.0070     4.0610     0.9780 C.3   1 <1>   0.2200 
 14 C        6.0490     2.3900    -1.4630 C.3   1 <1>  -0.0190 
 15 N        6.2790     4.5910    -0.3770 N.am  1 <1>  -0.7300 
 16 C        7.0750     3.0080     1.3710 C.3   1 <1>   0.1200 
 17 C        6.3210     3.8680    -1.5090 C.2   1 <1>   0.5690 
 18 C        7.0970     1.6470    -0.6040 C.3   1 <1>   0.1200 
 19 O        6.8560     1.7530     0.7750 O.3   1 <1>  -0.5600 
 20 O        6.5450     4.3990    -2.5610 O.2   1 <1>  -0.5700 
 21 H        1.7120    -1.9440    -1.9850 H     1 <1>   0.1500 
 22 H        4.1720    -0.4610     2.0360 H     1 <1>   0.1500 
 23 H        2.7890     1.7380     1.7860 H     1 <1>   0.0800 
 24 H        2.1870     2.1660     0.2050 H     1 <1>   0.0800 
 25 H        4.1330    -2.8370     1.4040 H     1 <1>   0.1500 
 26 H        5.0210     1.5790     0.7740 H     1 <1>   0.4500 
 27 H        3.8840     4.2840     0.6730 H     1 <1>   0.0800 
 28 H        4.3130     3.4180     2.1160 H     1 <1>   0.0800 
 29 H        4.2850     1.2130    -1.4790 H     1 <1>   0.0800 
 30 H        3.9700     2.9170    -1.6010 H     1 <1>   0.0800 
 31 H        6.1010     4.8890     1.6600 H     1 <1>   0.0800 
 32 H        6.1710     2.0400    -2.4730 H     1 <1>   0.0800 
 33 H        6.5270     5.5830    -0.4690 H     1 <1>   0.3700 
 34 H        7.0430     2.8520     2.4350 H     1 <1>   0.0800 
 35 H        8.0650     3.3500     1.1190 H     1 <1>   0.0800 
 36 H        8.0910     2.0090    -0.8120 H     1 <1>   0.0800 
 37 H        7.0730     0.5970    -0.8420 H     1 <1>   0.0800 
@<TRIPOS>BOND
  1   1   2  1   
  2   2   3  ar  
  3   2   4  ar  
  4   3   5  ar  
  5   3   6  1   
  6   4   7  ar  
  7   4  21  1   
  8   5   8  ar  
  9   5  22  1   
 10   6   9  1   
 11   6  23  1   
 12   6  24  1   
 13   7   8  ar  
 14   7  10  1   
 15   8  25  1   
 16   9  11  1   
 17   9  12  1   
 18   9  26  1   
 19  11  13  1   
 20  11  27  1   
 21  11  28  1   
 22  12  14  1   
 23  12  29  1   
 24  12  30  1   
 25  13  15  1   
 26  13  16  1   
 27  13  31  1   
 28  14  17  1   
 29  14  18  1   
 30  14  32  1   
 31  15  17  am  
 32  15  33  1   
 33  16  19  1   
 34  16  34  1   
 35  16  35  1   
 36  17  20  2   
 37  18  19  1   
 38  18  36  1   
 39  18  37  1   
@<TRIPOS>SUBSTRUCTURE
  1 ****   9 GROUP 4 **** **** 0

# MOE 2024.06 (io_trps.svl 2023.06)
