@<TRIPOS>MOLECULE
NONAME
45 48 1 0 0 
SMALL
USER_CHARGES


@<TRIPOS>ATOM
  1 CL       0.4280     3.2080     2.5640 Cl    1 <1>  -0.1770 
  2 C        0.2810     2.8230     0.8650 C.ar  1 <1>   0.1770 
  3 C        1.3230     2.2210     0.1680 C.ar  1 <1>  -0.1440 
  4 C       -0.9210     3.1230     0.2520 C.ar  1 <1>  -0.1500 
  5 C        1.1130     1.8990    -1.1690 C.ar  1 <1>  -0.1500 
  6 C        2.6630     1.9100     0.8360 C.3   1 <1>   0.3640 
  7 C       -1.1070     2.8110    -1.0830 C.ar  1 <1>  -0.1500 
  8 C       -0.0900     2.1950    -1.7900 C.ar  1 <1>  -0.1500 
  9 N        2.8350     0.4370     0.8090 N.am  1 <1>  -0.7300 
 10 C        3.8500     2.6310     0.1330 C.3   1 <1>   0.2610 
 11 C        4.0050    -0.1750     0.5240 C.2   1 <1>   0.5690 
 12 O        5.0880     2.0320     0.4910 O.3   1 <1>  -0.5600 
 13 C        3.8750     4.1450     0.4180 C.2   1 <1>   0.5690 
 14 O        4.0920    -1.3760     0.5450 O.2   1 <1>  -0.5700 
 15 C        5.2190     0.6730     0.1340 C.3   1 <1>   0.1810 
 16 O        3.0800     4.5990     1.2090 O.2   1 <1>  -0.5700 
 17 N        4.7640     4.9760    -0.2250 N.am  1 <1>  -0.6600 
 18 C        4.8440     6.4250     0.1520 C.3   1 <1>   0.3210 
 19 C        5.7880     4.5330    -1.2260 C.3   1 <1>   0.1400 
 20 C        6.2920     6.8850     0.2380 C.2   1 <1>  -0.1810 
 21 C        7.1970     4.6870    -0.6480 C.3   1 <1>   0.0210 
 22 C        7.3720     6.0950    -0.1330 C.2   1 <1>   0.1080 
 23 C        6.8430     8.0500     0.6450 C.2   1 <1>  -0.3320 
 24 N        8.5090     6.6970     0.0150 N.2   1 <1>  -0.7070 
 25 N        8.1800     7.9090     0.5020 N.pl3 1 <1>   0.3000 
 26 C        6.1790     9.3090     1.1710 C.3   1 <1>  -0.0600 
 27 H       -1.7030     3.5960     0.8190 H     1 <1>   0.1500 
 28 H        1.8820     1.4080    -1.7410 H     1 <1>   0.1500 
 29 H        2.6530     2.2170     1.8670 H     1 <1>   0.0800 
 30 H       -2.0410     3.0430    -1.5670 H     1 <1>   0.1500 
 31 H       -0.2370     1.9420    -2.8260 H     1 <1>   0.1500 
 32 H        2.0370    -0.1330     1.0910 H     1 <1>   0.3700 
 33 H        3.7380     2.5140    -0.9270 H     1 <1>   0.0800 
 34 H        5.3680     0.6130    -0.9280 H     1 <1>   0.0800 
 35 H        6.0930     0.2890     0.6280 H     1 <1>   0.0800 
 36 H        4.3300     7.0080    -0.5900 H     1 <1>   0.0800 
 37 H        4.3730     6.5970     1.1040 H     1 <1>   0.0800 
 38 H        5.6350     3.5140    -1.5260 H     1 <1>   0.0800 
 39 H        5.7000     5.1510    -2.1030 H     1 <1>   0.0800 
 40 H        7.9320     4.4890    -1.4070 H     1 <1>   0.0800 
 41 H        7.3420     3.9920     0.1590 H     1 <1>   0.0800 
 42 H        8.8900     8.6150     0.7270 H     1 <1>   0.2700 
 43 H        5.1110     9.1860     1.2020 H     1 <1>   0.0800 
 44 H        6.4080    10.1450     0.5340 H     1 <1>   0.0800 
 45 H        6.5250     9.5220     2.1670 H     1 <1>   0.0800 
@<TRIPOS>BOND
  1   1   2  1   
  2   2   3  ar  
  3   2   4  ar  
  4   3   5  ar  
  5   3   6  1   
  6   4   7  ar  
  7   4  27  1   
  8   5   8  ar  
  9   5  28  1   
 10   6   9  1   
 11   6  10  1   
 12   6  29  1   
 13   7   8  ar  
 14   7  30  1   
 15   8  31  1   
 16   9  11  am  
 17   9  32  1   
 18  10  12  1   
 19  10  13  1   
 20  10  33  1   
 21  11  14  2   
 22  11  15  1   
 23  12  15  1   
 24  13  16  2   
 25  13  17  am  
 26  15  34  1   
 27  15  35  1   
 28  17  18  1   
 29  17  19  1   
 30  18  20  1   
 31  18  36  1   
 32  18  37  1   
 33  19  21  1   
 34  19  38  1   
 35  19  39  1   
 36  20  22  1   
 37  20  23  2   
 38  21  22  1   
 39  21  40  1   
 40  21  41  1   
 41  22  24  2   
 42  23  25  1   
 43  23  26  1   
 44  24  25  1   
 45  25  42  1   
 46  26  43  1   
 47  26  44  1   
 48  26  45  1   
@<TRIPOS>SUBSTRUCTURE
  1 ****  13 GROUP 4 **** **** 0

# MOE 2024.06 (io_trps.svl 2023.06)
