@<TRIPOS>MOLECULE
NONAME
44 45 1 0 0 
SMALL
USER_CHARGES


@<TRIPOS>ATOM
  1 O       -1.8810     0.9450    -2.3960 O.2   1 <1>  -0.5700 
  2 C       -1.9900     0.7620    -1.2070 C.2   1 <1>   0.5690 
  3 N       -2.2450    -0.4660    -0.6970 N.am  1 <1>  -0.7300 
  4 C       -1.8380     1.9340    -0.2380 C.3   1 <1>  -0.0190 
  5 C       -2.5130    -1.6780    -1.4900 C.3   1 <1>   0.2840 
  6 C       -2.5470     3.2080    -0.7420 C.3   1 <1>  -0.1600 
  7 C       -0.3490     2.2190     0.0640 C.3   1 <1>  -0.1600 
  8 C       -3.8170    -2.2820    -1.0000 C.ar  1 <1>  -0.1440 
  9 C       -2.5230     4.3400     0.3070 C.3   1 <1>   0.2000 
 10 C       -0.0850     3.6380     0.6080 C.3   1 <1>  -0.1600 
 11 C       -3.8490    -3.0920     0.1330 C.ar  1 <1>   0.0820 
 12 C       -4.9900    -2.0170    -1.6880 C.ar  1 <1>  -0.1500 
 13 O       -2.4490     5.5730    -0.3660 O.3   1 <1>  -0.5600 
 14 C       -1.3250     4.2240     1.2880 C.3   1 <1>   0.2000 
 15 O       -2.6760    -3.3140     0.7850 O.3   1 <1>  -0.3630 
 16 C       -5.0610    -3.6330     0.5560 C.ar  1 <1>  -0.1500 
 17 C       -6.1910    -2.5570    -1.2630 C.ar  1 <1>  -0.1500 
 18 C       -3.6440     6.0150    -0.9330 C.3   1 <1>   0.0400 
 19 O       -1.0020     5.4790     1.7620 O.3   1 <1>  -0.6800 
 20 C       -2.5840    -4.2480     1.8390 C.3   1 <1>   0.0400 
 21 C       -6.2250    -3.3660    -0.1420 C.ar  1 <1>  -0.1500 
 22 H       -2.3590    -0.6140     0.3060 H     1 <1>   0.3700 
 23 H       -2.3170     1.6480     0.6820 H     1 <1>   0.0800 
 24 H       -2.5830    -1.4320    -2.5360 H     1 <1>   0.0800 
 25 H       -1.7040    -2.3760    -1.3630 H     1 <1>   0.0800 
 26 H       -3.5670     2.9740    -0.9920 H     1 <1>   0.0800 
 27 H       -2.0480     3.5370    -1.6380 H     1 <1>   0.0800 
 28 H        0.0030     1.4900     0.7740 H     1 <1>   0.0800 
 29 H        0.2300     2.0920    -0.8360 H     1 <1>   0.0800 
 30 H       -3.4270     4.3210     0.8930 H     1 <1>   0.0800 
 31 H        0.1840     4.2790    -0.2150 H     1 <1>   0.0800 
 32 H        0.7380     3.6140     1.3000 H     1 <1>   0.0800 
 33 H       -4.9720    -1.3840    -2.5600 H     1 <1>   0.1500 
 34 H       -1.5910     3.6120     2.1330 H     1 <1>   0.0800 
 35 H       -5.1210    -4.2610     1.4240 H     1 <1>   0.1500 
 36 H       -7.0970    -2.3470    -1.8050 H     1 <1>   0.1500 
 37 H       -3.4640     6.9730    -1.3860 H     1 <1>   0.0800 
 38 H       -4.3890     6.1130    -0.1630 H     1 <1>   0.0800 
 39 H       -3.9650     5.3170    -1.6870 H     1 <1>   0.0800 
 40 H       -1.2250     6.1030     1.0330 H     1 <1>   0.4000 
 41 H       -1.5560    -4.3030     2.1480 H     1 <1>   0.0800 
 42 H       -2.9100    -5.2090     1.4830 H     1 <1>   0.0800 
 43 H       -3.1940    -3.9120     2.6580 H     1 <1>   0.0800 
 44 H       -7.1600    -3.7850     0.1880 H     1 <1>   0.1500 
@<TRIPOS>BOND
  1   1   2  2   
  2   2   3  am  
  3   2   4  1   
  4   3   5  1   
  5   3  22  1   
  6   4   6  1   
  7   4   7  1   
  8   4  23  1   
  9   5   8  1   
 10   5  24  1   
 11   5  25  1   
 12   6   9  1   
 13   6  26  1   
 14   6  27  1   
 15   7  10  1   
 16   7  28  1   
 17   7  29  1   
 18   8  11  ar  
 19   8  12  ar  
 20   9  13  1   
 21   9  14  1   
 22   9  30  1   
 23  10  14  1   
 24  10  31  1   
 25  10  32  1   
 26  11  15  1   
 27  11  16  ar  
 28  12  17  ar  
 29  12  33  1   
 30  13  18  1   
 31  14  19  1   
 32  14  34  1   
 33  15  20  1   
 34  16  21  ar  
 35  16  35  1   
 36  17  21  ar  
 37  17  36  1   
 38  18  37  1   
 39  18  38  1   
 40  18  39  1   
 41  19  40  1   
 42  20  41  1   
 43  20  42  1   
 44  20  43  1   
 45  21  44  1   
@<TRIPOS>SUBSTRUCTURE
  1 ****   3 GROUP 4 **** **** 0

# MOE 2024.06 (io_trps.svl 2023.06)
