@<TRIPOS>MOLECULE
NONAME
51 54 1 0 0 
SMALL
USER_CHARGES


@<TRIPOS>ATOM
  1 O       -2.8940     2.1160    -2.3230 O.2   1 <1>  -0.5700 
  2 C       -3.0520     1.6860    -1.1780 C.2   1 <1>   0.5440 
  3 N       -4.3570     1.3400    -0.8240 N.am  1 <1>  -0.6600 
  4 C       -1.9490     1.6190    -0.2390 C.ar  1 <1>   0.3960 
  5 C       -5.2200     0.6410    -1.8010 C.3   1 <1>   0.1400 
  6 C       -4.7570     1.1200     0.5870 C.3   1 <1>   0.1400 
  7 N       -1.6000     2.7490     0.4250 N.ar  1 <1>  -0.6200 
  8 C       -1.2750     0.3800     0.0060 C.ar  1 <1>  -0.1710 
  9 C       -5.1010    -0.8600    -1.5460 C.3   1 <1>  -0.1600 
 10 C       -4.7020    -0.3730     0.9120 C.3   1 <1>  -0.1600 
 11 C       -0.6070     2.6670     1.2760 C.ar  1 <1>   0.1600 
 12 O       -1.5700    -0.7070    -0.5530 O.3   1 <1>  -0.8290 
 13 C       -0.2250     0.3490     0.9260 C.ar  1 <1>  -0.1500 
 14 C       -5.4780    -1.2330    -0.0990 C.3   1 <1>   0.4240 
 15 C        0.1080     1.5070     1.5620 C.ar  1 <1>  -0.1500 
 16 O       -6.8390    -0.9090     0.1020 O.3   1 <1>  -0.5600 
 17 C       -5.2090    -2.7290     0.1670 C.ar  1 <1>  -0.1440 
 18 C       -7.7850    -1.8450    -0.3110 C.3   1 <1>   0.1200 
 19 C       -6.2270    -3.6190     0.4770 C.ar  1 <1>  -0.1440 
 20 C       -3.9090    -3.2080     0.0880 C.ar  1 <1>  -0.1500 
 21 C       -7.6510    -3.1040     0.5450 C.3   1 <1>  -0.0170 
 22 C       -5.9430    -4.9550     0.7160 C.ar  1 <1>  -0.1500 
 23 C       -3.6040    -4.5420     0.3250 C.ar  1 <1>   0.0820 
 24 C       -4.6350    -5.4290     0.6450 C.ar  1 <1>   0.0820 
 25 O       -2.3220    -5.0110     0.2560 O.3   1 <1>  -0.3630 
 26 O       -4.3120    -6.7350     0.8750 O.3   1 <1>  -0.3630 
 27 C       -1.2470    -4.1290    -0.0180 C.3   1 <1>   0.0400 
 28 C       -5.2810    -7.6800     1.2650 C.3   1 <1>   0.0400 
 29 H       -4.9060     0.8660    -2.8060 H     1 <1>   0.0800 
 30 H       -6.2370     0.9680    -1.6790 H     1 <1>   0.0800 
 31 H       -5.7590     1.4860     0.7260 H     1 <1>   0.0800 
 32 H       -4.1060     1.6650     1.2480 H     1 <1>   0.0800 
 33 H       -4.0770    -1.1340    -1.7280 H     1 <1>   0.0800 
 34 H       -5.7010    -1.4080    -2.2450 H     1 <1>   0.0800 
 35 H       -5.0840    -0.5500     1.8990 H     1 <1>   0.0800 
 36 H       -3.6680    -0.6590     0.9220 H     1 <1>   0.0800 
 37 H       -0.3270     3.5690     1.7900 H     1 <1>   0.1500 
 38 H        0.2770    -0.5850     1.0940 H     1 <1>   0.1500 
 39 H        0.9080     1.5340     2.2750 H     1 <1>   0.1500 
 40 H       -7.6310    -2.0680    -1.3520 H     1 <1>   0.0800 
 41 H       -8.7580    -1.4060    -0.1850 H     1 <1>   0.0800 
 42 H       -3.1300    -2.5130    -0.1650 H     1 <1>   0.1500 
 43 H       -8.3340    -3.8510     0.1870 H     1 <1>   0.0800 
 44 H       -7.9020    -2.8710     1.5640 H     1 <1>   0.0800 
 45 H       -6.7530    -5.6140     0.9570 H     1 <1>   0.1500 
 46 H       -0.3330    -4.6920    -0.0010 H     1 <1>   0.0800 
 47 H       -1.2190    -3.3580     0.7330 H     1 <1>   0.0800 
 48 H       -1.3890    -3.6890    -0.9910 H     1 <1>   0.0800 
 49 H       -4.7840    -8.6220     1.4120 H     1 <1>   0.0800 
 50 H       -6.0130    -7.7710     0.4830 H     1 <1>   0.0800 
 51 H       -5.7320    -7.3560     2.1860 H     1 <1>   0.0800 
@<TRIPOS>BOND
  1   1   2  2   
  2   2   3  am  
  3   2   4  1   
  4   3   5  1   
  5   3   6  1   
  6   4   7  ar  
  7   4   8  ar  
  8   5   9  1   
  9   5  29  1   
 10   5  30  1   
 11   6  10  1   
 12   6  31  1   
 13   6  32  1   
 14   7  11  ar  
 15   8  12  1   
 16   8  13  ar  
 17   9  14  1   
 18   9  33  1   
 19   9  34  1   
 20  10  14  1   
 21  10  35  1   
 22  10  36  1   
 23  11  15  ar  
 24  11  37  1   
 25  13  15  ar  
 26  13  38  1   
 27  14  16  1   
 28  14  17  1   
 29  15  39  1   
 30  16  18  1   
 31  17  19  ar  
 32  17  20  ar  
 33  18  21  1   
 34  18  40  1   
 35  18  41  1   
 36  19  21  1   
 37  19  22  ar  
 38  20  23  ar  
 39  20  42  1   
 40  21  43  1   
 41  21  44  1   
 42  22  24  ar  
 43  22  45  1   
 44  23  24  ar  
 45  23  25  1   
 46  24  26  1   
 47  25  27  1   
 48  26  28  1   
 49  27  46  1   
 50  27  47  1   
 51  27  48  1   
 52  28  49  1   
 53  28  50  1   
 54  28  51  1   
@<TRIPOS>SUBSTRUCTURE
  1 ****  10 GROUP 4 **** **** 0

# MOE 2024.06 (io_trps.svl 2023.06)
