@<TRIPOS>MOLECULE
NONAME
48 50 1 0 0 
SMALL
USER_CHARGES


@<TRIPOS>ATOM
  1 S        0.2920    -2.5150     1.8890 S.3   1 <1>  -0.0800 
  2 C        0.4930    -2.4610     0.1440 C.2   1 <1>   0.1980 
  3 C       -1.4200    -2.7190     1.6700 C.2   1 <1>  -0.1100 
  4 N       -0.5990    -2.6290    -0.5010 N.2   1 <1>  -0.5650 
  5 C        1.9030    -2.1810    -0.4070 C.3   1 <1>   0.4000 
  6 C       -1.6820    -2.7510     0.3550 C.2   1 <1>   0.0770 
  7 N        2.9510    -3.1240     0.1320 N.am  1 <1>  -0.6600 
  8 C        2.2440    -0.7080    -0.1040 C.3   1 <1>  -0.1600 
  9 C        2.6660    -4.4580     0.1900 C.2   1 <1>   0.5690 
 10 C        4.3770    -2.7200    -0.0670 C.3   1 <1>   0.1400 
 11 C        3.6890    -0.3310    -0.4310 C.3   1 <1>  -0.1600 
 12 O        1.8670    -4.9590    -0.5680 O.2   1 <1>  -0.5700 
 13 C        3.3690    -5.3690     1.1960 C.3   1 <1>   0.1310 
 14 C        4.6270    -1.2660     0.3310 C.3   1 <1>  -0.1600 
 15 S        2.1930    -6.0990     2.4020 S.3   1 <1>  -0.4600 
 16 C        0.9950    -7.0130     1.3880 C.3   1 <1>   0.0700 
 17 C       -0.2620    -6.1440     1.2660 C.3   1 <1>   0.3430 
 18 N       -1.1630    -6.6120     0.1700 N.4   1 <1>  -0.9590 
 19 C       -0.7510    -6.0510    -1.1450 C.3   1 <1>   0.3430 
 20 C       -2.5640    -6.1810     0.3580 C.3   1 <1>   0.3430 
 21 C       -2.0030    -6.1190    -2.0080 C.3   1 <1>  -0.1600 
 22 C       -3.1750    -6.2610    -1.0330 C.3   1 <1>  -0.1600 
 23 H       -2.0390    -2.7760     2.5470 H     1 <1>   0.1500 
 24 H        1.8700    -2.3060    -1.4750 H     1 <1>   0.0800 
 25 H       -2.6590    -2.8480    -0.0890 H     1 <1>   0.1500 
 26 H        2.0680    -0.5080     0.9380 H     1 <1>   0.0800 
 27 H        1.5760    -0.0770    -0.6630 H     1 <1>   0.0800 
 28 H        4.6260    -2.8460    -1.1070 H     1 <1>   0.0800 
 29 H        5.0330    -3.3520     0.5050 H     1 <1>   0.0800 
 30 H        3.8750     0.6890    -0.1400 H     1 <1>   0.0800 
 31 H        3.8620    -0.4150    -1.4910 H     1 <1>   0.0800 
 32 H        4.0880    -4.8240     1.7780 H     1 <1>   0.0800 
 33 H        3.8530    -6.1830     0.6890 H     1 <1>   0.0800 
 34 H        5.6480    -1.0100     0.1080 H     1 <1>   0.0800 
 35 H        4.4850    -1.1550     1.3920 H     1 <1>   0.0800 
 36 H        0.7870    -7.9340     1.9010 H     1 <1>   0.0800 
 37 H        1.4580    -7.2070     0.4380 H     1 <1>   0.0800 
 38 H        0.0330    -5.1260     1.0700 H     1 <1>   0.0800 
 39 H       -0.7820    -6.1650     2.2090 H     1 <1>   0.0800 
 40 H       -1.1460    -7.6360     0.1010 H     1 <1>   0.4500 
 41 H        0.0730    -6.5970    -1.5770 H     1 <1>   0.0800 
 42 H       -0.4580    -5.0200    -1.0260 H     1 <1>   0.0800 
 43 H       -2.5850    -5.1600     0.7010 H     1 <1>   0.0800 
 44 H       -3.0860    -6.8090     1.0630 H     1 <1>   0.0800 
 45 H       -1.9500    -6.9670    -2.6690 H     1 <1>   0.0800 
 46 H       -2.0830    -5.2250    -2.6010 H     1 <1>   0.0800 
 47 H       -3.9080    -5.4860    -1.1720 H     1 <1>   0.0800 
 48 H       -3.6560    -7.2160    -1.1630 H     1 <1>   0.0800 
@<TRIPOS>BOND
  1   1   2  1   
  2   1   3  1   
  3   2   4  2   
  4   2   5  1   
  5   3   6  2   
  6   3  23  1   
  7   4   6  1   
  8   5   7  1   
  9   5   8  1   
 10   5  24  1   
 11   6  25  1   
 12   7   9  am  
 13   7  10  1   
 14   8  11  1   
 15   8  26  1   
 16   8  27  1   
 17   9  12  2   
 18   9  13  1   
 19  10  14  1   
 20  10  28  1   
 21  10  29  1   
 22  11  14  1   
 23  11  30  1   
 24  11  31  1   
 25  13  15  1   
 26  13  32  1   
 27  13  33  1   
 28  14  34  1   
 29  14  35  1   
 30  15  16  1   
 31  16  17  1   
 32  16  36  1   
 33  16  37  1   
 34  17  18  1   
 35  17  38  1   
 36  17  39  1   
 37  18  19  1   
 38  18  20  1   
 39  18  40  1   
 40  19  21  1   
 41  19  41  1   
 42  19  42  1   
 43  20  22  1   
 44  20  43  1   
 45  20  44  1   
 46  21  22  1   
 47  21  45  1   
 48  21  46  1   
 49  22  47  1   
 50  22  48  1   
@<TRIPOS>SUBSTRUCTURE
  1 ****   2 GROUP 4 **** **** 0

# MOE 2024.06 (io_trps.svl 2023.06)
