@<TRIPOS>MOLECULE
NONAME
60 62 1 0 0 
SMALL
USER_CHARGES


@<TRIPOS>ATOM
  1 O       -1.8930     0.2950     2.1350 O.2   1 <1>  -0.5700 
  2 C       -1.9020     0.8750     1.0650 C.2   1 <1>   0.5440 
  3 N       -2.3360     0.2080    -0.0600 N.am  1 <1>  -0.6600 
  4 C       -1.4670     2.2490     0.9890 C.ar  1 <1>   0.0860 
  5 C       -2.4520    -1.2870    -0.0570 C.3   1 <1>   0.3640 
  6 C       -2.8450     0.9680    -1.2450 C.3   1 <1>   0.1400 
  7 C       -0.3370     2.6070     0.2350 C.ar  1 <1>   0.1000 
  8 C       -2.1660     3.2500     1.6640 C.ar  1 <1>  -0.1500 
  9 C       -1.0920    -1.8840    -0.4300 C.ar  1 <1>  -0.1430 
 10 C       -3.5720    -1.8580    -0.9780 C.3   1 <1>   0.2000 
 11 C       -3.6260     0.1070    -2.2490 C.3   1 <1>   0.1200 
 12 N        0.4320     1.6470    -0.4140 N.pl3 1 <1>  -0.8690 
 13 C        0.0210     3.9490     0.1440 C.ar  1 <1>  -0.1500 
 14 C       -1.7890     4.5750     1.5760 C.ar  1 <1>  -0.1500 
 15 C       -0.4900    -2.7880     0.4350 C.ar  1 <1>  -0.1500 
 16 C       -0.4420    -1.5550    -1.6130 C.ar  1 <1>  -0.1500 
 17 O       -4.3620    -0.8670    -1.5830 O.3   1 <1>  -0.5600 
 18 C       -4.5240    -2.7880    -0.2150 C.3   1 <1>   0.1200 
 19 C        1.8370     1.4900    -0.0280 C.3   1 <1>   0.2890 
 20 C       -0.6930     4.9270     0.8060 C.ar  1 <1>  -0.1500 
 21 C        0.7340    -3.3590     0.1300 C.ar  1 <1>   0.0830 
 22 C        0.7850    -2.1140    -1.9250 C.ar  1 <1>  -0.1500 
 23 O       -3.8380    -3.8930     0.2850 O.3   1 <1>  -0.6800 
 24 C        2.6410     1.1950    -1.2860 C.3   1 <1>  -0.2400 
 25 C        1.9210     0.3460     0.9740 C.3   1 <1>  -0.2400 
 26 O        1.2460    -4.2540     1.0100 O.3   1 <1>  -0.3630 
 27 C        1.3900    -3.0020    -1.0530 C.ar  1 <1>   0.0830 
 28 C        1.3280    -5.5890     0.5650 C.3   1 <1>   0.0400 
 29 O        2.6130    -3.4760    -1.3920 O.3   1 <1>  -0.3630 
 30 C        3.6850    -3.0800    -0.5650 C.3   1 <1>   0.0400 
 31 H       -2.6780    -1.6010     0.9470 H     1 <1>   0.0800 
 32 H       -3.4990     1.7480    -0.8940 H     1 <1>   0.0800 
 33 H       -2.0220     1.4420    -1.7510 H     1 <1>   0.0800 
 34 H       -3.0150     2.9700     2.2630 H     1 <1>   0.1500 
 35 H       -3.1240    -2.4240    -1.7760 H     1 <1>   0.0800 
 36 H       -2.9660    -0.3730    -2.9490 H     1 <1>   0.0800 
 37 H       -4.3130     0.7230    -2.8020 H     1 <1>   0.0800 
 38 H       -0.0070     0.7130    -0.4360 H     1 <1>   0.4000 
 39 H        0.8710     4.2180    -0.4560 H     1 <1>   0.1500 
 40 H       -2.3430     5.3340     2.1020 H     1 <1>   0.1500 
 41 H       -0.9690    -3.0590     1.3600 H     1 <1>   0.1500 
 42 H       -0.8780    -0.8550    -2.3010 H     1 <1>   0.1500 
 43 H       -5.3040    -3.1450    -0.8650 H     1 <1>   0.0800 
 44 H       -4.9610    -2.2670     0.6190 H     1 <1>   0.0800 
 45 H        2.2000     2.3960     0.4310 H     1 <1>   0.0800 
 46 H       -0.4000     5.9590     0.7280 H     1 <1>   0.1500 
 47 H        1.2860    -1.8570    -2.8410 H     1 <1>   0.1500 
 48 H       -3.5170    -4.4660    -0.4400 H     1 <1>   0.4000 
 49 H        2.2960     0.2910    -1.7510 H     1 <1>   0.0800 
 50 H        3.6800     1.0810    -1.0380 H     1 <1>   0.0800 
 51 H        2.5430     2.0110    -1.9790 H     1 <1>   0.0800 
 52 H        1.5700    -0.5700     0.5380 H     1 <1>   0.0800 
 53 H        1.3260     0.5720     1.8410 H     1 <1>   0.0800 
 54 H        2.9380     0.2070     1.2900 H     1 <1>   0.0800 
 55 H        1.6680    -6.1960     1.3850 H     1 <1>   0.0800 
 56 H        2.0250    -5.6510    -0.2510 H     1 <1>   0.0800 
 57 H        0.3510    -5.9100     0.2490 H     1 <1>   0.0800 
 58 H        4.5980    -3.4410    -1.0030 H     1 <1>   0.0800 
 59 H        3.5560    -3.5040     0.4140 H     1 <1>   0.0800 
 60 H        3.7010    -2.0060    -0.5080 H     1 <1>   0.0800 
@<TRIPOS>BOND
  1   1   2  2   
  2   2   3  am  
  3   2   4  1   
  4   3   5  1   
  5   3   6  1   
  6   4   7  ar  
  7   4   8  ar  
  8   5   9  1   
  9   5  10  1   
 10   5  31  1   
 11   6  11  1   
 12   6  32  1   
 13   6  33  1   
 14   7  12  1   
 15   7  13  ar  
 16   8  14  ar  
 17   8  34  1   
 18   9  15  ar  
 19   9  16  ar  
 20  10  17  1   
 21  10  18  1   
 22  10  35  1   
 23  11  17  1   
 24  11  36  1   
 25  11  37  1   
 26  12  19  1   
 27  12  38  1   
 28  13  20  ar  
 29  13  39  1   
 30  14  20  ar  
 31  14  40  1   
 32  15  21  ar  
 33  15  41  1   
 34  16  22  ar  
 35  16  42  1   
 36  18  23  1   
 37  18  43  1   
 38  18  44  1   
 39  19  24  1   
 40  19  25  1   
 41  19  45  1   
 42  20  46  1   
 43  21  26  1   
 44  21  27  ar  
 45  22  27  ar  
 46  22  47  1   
 47  23  48  1   
 48  24  49  1   
 49  24  50  1   
 50  24  51  1   
 51  25  52  1   
 52  25  53  1   
 53  25  54  1   
 54  26  28  1   
 55  27  29  1   
 56  28  55  1   
 57  28  56  1   
 58  28  57  1   
 59  29  30  1   
 60  30  58  1   
 61  30  59  1   
 62  30  60  1   
@<TRIPOS>SUBSTRUCTURE
  1 ****   9 GROUP 4 **** **** 0

# MOE 2024.06 (io_trps.svl 2023.06)
