@<TRIPOS>MOLECULE
NONAME
54 56 1 0 0 
SMALL
USER_CHARGES


@<TRIPOS>ATOM
  1 CL       2.6530     1.6560    -0.8520 Cl    1 <1>  -0.1770 
  2 C        2.7080     0.0230    -0.2400 C.ar  1 <1>   0.1770 
  3 C        2.2870    -1.0140    -1.0520 C.ar  1 <1>  -0.1500 
  4 C        3.1700    -0.2050     1.0420 C.ar  1 <1>  -0.1500 
  5 C        2.3200    -2.3200    -0.5820 C.ar  1 <1>  -0.1440 
  6 C        3.2050    -1.5020     1.5210 C.ar  1 <1>  -0.1500 
  7 C        2.7830    -2.5530     0.7180 C.ar  1 <1>   0.0830 
  8 C        1.8780    -3.4390    -1.5170 C.3   1 <1>   0.4870 
  9 O        2.7900    -3.7940     1.2590 O.3   1 <1>  -0.3630 
 10 N        0.9970    -4.3640    -0.7680 N.4   1 <1>  -0.9590 
 11 C        4.0050    -4.5510     1.2060 C.3   1 <1>   0.0140 
 12 C        1.0900    -5.7630    -1.2640 C.3   1 <1>   0.3430 
 13 C       -0.4110    -3.9540    -0.5220 C.3   1 <1>   0.3430 
 14 C        3.8320    -5.7540     0.2960 C.2   1 <1>   0.9060 
 15 C        0.6130    -6.6830    -0.1230 C.3   1 <1>   0.4230 
 16 C       -1.0210    -4.9180     0.5160 C.3   1 <1>  -0.1600 
 17 O        3.2910    -6.7900     0.7160 O.co2 1 <1>  -0.9000 
 18 O        3.9990    -5.6120    -0.9170 O.co2 1 <1>  -0.9000 
 19 N        1.0940    -8.1050    -0.1810 N.4   1 <1>  -0.9590 
 20 C       -0.8850    -6.4440     0.1850 C.3   1 <1>   0.0000 
 21 C        0.3980    -9.0410     0.7470 C.3   1 <1>   0.3430 
 22 C        1.3550    -8.6980    -1.5240 C.3   1 <1>   0.2630 
 23 C       -1.3180    -7.2820     1.4260 C.3   1 <1>  -0.1600 
 24 C       -1.7430    -6.8380    -1.0480 C.3   1 <1>   0.1200 
 25 C       -0.2450    -8.2800     1.9090 C.3   1 <1>  -0.1600 
 26 O       -3.0310    -6.3530    -0.9250 O.3   1 <1>  -0.6800 
 27 H        1.9470    -0.7800    -2.0450 H     1 <1>   0.1500 
 28 H        3.4940     0.6210     1.6510 H     1 <1>   0.1500 
 29 H        3.5540    -1.7030     2.5190 H     1 <1>   0.1500 
 30 H        2.7590    -3.9630    -1.8550 H     1 <1>   0.0800 
 31 H        1.3660    -3.0410    -2.3760 H     1 <1>   0.0800 
 32 H        1.4820    -4.3520     0.1510 H     1 <1>   0.4500 
 33 H        4.8020    -3.9320     0.8360 H     1 <1>   0.0800 
 34 H        4.2360    -4.8870     2.1980 H     1 <1>   0.0800 
 35 H        0.4800    -5.8840    -2.1400 H     1 <1>   0.0800 
 36 H        2.0960    -6.0140    -1.5290 H     1 <1>   0.0800 
 37 H       -0.4420    -2.9440    -0.1440 H     1 <1>   0.0800 
 38 H       -0.9770    -3.9940    -1.4400 H     1 <1>   0.0800 
 39 H        1.1120    -6.2890     0.7470 H     1 <1>   0.0800 
 40 H       -0.5350    -4.7160     1.4560 H     1 <1>   0.0800 
 41 H       -2.0550    -4.6550     0.6560 H     1 <1>   0.0800 
 42 H        2.0610    -7.9560     0.2320 H     1 <1>   0.4500 
 43 H       -0.3720    -9.5740     0.2140 H     1 <1>   0.0800 
 44 H        1.1040    -9.7620     1.1290 H     1 <1>   0.0800 
 45 H        0.4400    -8.7870    -2.0850 H     1 <1>   0.0800 
 46 H        1.7910    -9.6780    -1.4140 H     1 <1>   0.0800 
 47 H        2.0540    -8.0860    -2.0720 H     1 <1>   0.0800 
 48 H       -1.5700    -6.6400     2.2540 H     1 <1>   0.0800 
 49 H       -2.2120    -7.8380     1.2010 H     1 <1>   0.0800 
 50 H       -1.7960    -7.9080    -1.1640 H     1 <1>   0.0800 
 51 H       -1.3580    -6.4200    -1.9600 H     1 <1>   0.0800 
 52 H       -0.6980    -8.9870     2.5830 H     1 <1>   0.0800 
 53 H        0.5250    -7.7680     2.4630 H     1 <1>   0.0800 
 54 H       -3.5520    -6.8520    -0.2620 H     1 <1>   0.4000 
@<TRIPOS>BOND
  1   1   2  1   
  2   2   3  ar  
  3   2   4  ar  
  4   3   5  ar  
  5   3  27  1   
  6   4   6  ar  
  7   4  28  1   
  8   5   7  ar  
  9   5   8  1   
 10   6   7  ar  
 11   6  29  1   
 12   7   9  1   
 13   8  10  1   
 14   8  30  1   
 15   8  31  1   
 16   9  11  1   
 17  10  12  1   
 18  10  13  1   
 19  10  32  1   
 20  11  14  1   
 21  11  33  1   
 22  11  34  1   
 23  12  15  1   
 24  12  35  1   
 25  12  36  1   
 26  13  16  1   
 27  13  37  1   
 28  13  38  1   
 29  14  17  ar  
 30  14  18  ar  
 31  15  19  1   
 32  15  20  1   
 33  15  39  1   
 34  16  20  1   
 35  16  40  1   
 36  16  41  1   
 37  19  21  1   
 38  19  22  1   
 39  19  42  1   
 40  20  23  1   
 41  20  24  1   
 42  21  25  1   
 43  21  43  1   
 44  21  44  1   
 45  22  45  1   
 46  22  46  1   
 47  22  47  1   
 48  23  25  1   
 49  23  48  1   
 50  23  49  1   
 51  24  26  1   
 52  24  50  1   
 53  24  51  1   
 54  25  52  1   
 55  25  53  1   
 56  26  54  1   
@<TRIPOS>SUBSTRUCTURE
  1 ****  10 GROUP 4 **** **** 0

# MOE 2024.06 (io_trps.svl 2023.06)
