@<TRIPOS>MOLECULE
NONAME
51 54 1 0 0 
SMALL
USER_CHARGES


@<TRIPOS>ATOM
  1 O        0.4230    -0.1970    -0.8670 O.3   1 <1>  -0.5600 
  2 C        1.5660    -0.6480    -0.1840 C.3   1 <1>   0.4240 
  3 C       -0.8120    -0.7300    -0.4830 C.3   1 <1>   0.1200 
  4 C        1.4820    -2.1340     0.2060 C.ar  1 <1>  -0.1440 
  5 C        1.7480     0.2550     1.0400 C.3   1 <1>  -0.1600 
  6 C        2.7190    -0.4260    -1.1640 C.3   1 <1>  -0.1600 
  7 C       -0.8240    -2.2300    -0.7700 C.3   1 <1>  -0.0160 
  8 C        0.3540    -2.8880    -0.0790 C.ar  1 <1>  -0.1440 
  9 C        2.5410    -2.7530     0.8560 C.ar  1 <1>  -0.1500 
 10 C        1.8500     1.7190     0.6140 C.3   1 <1>   0.3430 
 11 C        2.8030     1.0430    -1.5710 C.3   1 <1>   0.3430 
 12 C        0.2990    -4.2290     0.2650 C.ar  1 <1>  -0.1500 
 13 C        2.5040    -4.0880     1.2160 C.ar  1 <1>   0.0830 
 14 N        2.9590     1.9310    -0.3760 N.4   1 <1>  -0.9590 
 15 C        1.3660    -4.8530     0.9080 C.ar  1 <1>   0.0830 
 16 O        3.6320    -4.5170     1.8550 O.3   1 <1>  -0.3630 
 17 C        4.3120     1.8070     0.2500 C.3   1 <1>   0.5230 
 18 O        1.3180    -6.1800     1.2240 O.3   1 <1>  -0.3630 
 19 C        3.6810    -5.7110     2.6020 C.3   1 <1>   0.0400 
 20 C        4.5320     2.8870     1.2950 C.2   1 <1>  -0.0400 
 21 C        0.2850    -7.0290     0.7730 C.3   1 <1>   0.0400 
 22 O        5.4240     2.6380     2.2320 O.3   1 <1>  -0.2800 
 23 C        3.9840     4.1110     1.4830 C.2   1 <1>  -0.1500 
 24 C        5.4690     3.6810     3.0350 C.2   1 <1>  -0.0100 
 25 C        4.6010     4.6300     2.6280 C.2   1 <1>  -0.1500 
 26 H       -1.5800    -0.2350    -1.0520 H     1 <1>   0.0800 
 27 H       -0.9720    -0.5400     0.5640 H     1 <1>   0.0800 
 28 H        2.6230    -0.0280     1.5930 H     1 <1>   0.0800 
 29 H        0.9120     0.1300     1.7040 H     1 <1>   0.0800 
 30 H        2.5460    -1.0290    -2.0380 H     1 <1>   0.0800 
 31 H        3.6510    -0.7480    -0.7400 H     1 <1>   0.0800 
 32 H       -0.7650    -2.3960    -1.8310 H     1 <1>   0.0800 
 33 H       -1.7470    -2.6500    -0.4140 H     1 <1>   0.0800 
 34 H        3.4320    -2.2080     1.1030 H     1 <1>   0.1500 
 35 H        2.0030     2.3370     1.4850 H     1 <1>   0.0800 
 36 H        0.9130     2.0070     0.1630 H     1 <1>   0.0800 
 37 H        1.8930     1.3030    -2.0900 H     1 <1>   0.0800 
 38 H        3.6260     1.1860    -2.2530 H     1 <1>   0.0800 
 39 H       -0.5910    -4.7760     0.0220 H     1 <1>   0.1500 
 40 H        2.8930     2.9020    -0.7020 H     1 <1>   0.4500 
 41 H        5.0820     1.8880    -0.4990 H     1 <1>   0.0800 
 42 H        4.4080     0.8440     0.7240 H     1 <1>   0.0800 
 43 H        4.5970    -5.7180     3.1630 H     1 <1>   0.0800 
 44 H        3.6630    -6.5460     1.9240 H     1 <1>   0.0800 
 45 H        2.8390    -5.7410     3.2710 H     1 <1>   0.0800 
 46 H        0.5180    -8.0310     1.0830 H     1 <1>   0.0800 
 47 H        0.2360    -6.9810    -0.3010 H     1 <1>   0.0800 
 48 H       -0.6430    -6.7170     1.2180 H     1 <1>   0.0800 
 49 H        3.2380     4.6380     0.9140 H     1 <1>   0.1500 
 50 H        6.1470     3.6670     3.8720 H     1 <1>   0.1500 
 51 H        4.4060     5.5930     3.0690 H     1 <1>   0.1500 
@<TRIPOS>BOND
  1   1   2  1   
  2   1   3  1   
  3   2   4  1   
  4   2   5  1   
  5   2   6  1   
  6   3   7  1   
  7   3  26  1   
  8   3  27  1   
  9   4   8  ar  
 10   4   9  ar  
 11   5  10  1   
 12   5  28  1   
 13   5  29  1   
 14   6  11  1   
 15   6  30  1   
 16   6  31  1   
 17   7   8  1   
 18   7  32  1   
 19   7  33  1   
 20   8  12  ar  
 21   9  13  ar  
 22   9  34  1   
 23  10  14  1   
 24  10  35  1   
 25  10  36  1   
 26  11  14  1   
 27  11  37  1   
 28  11  38  1   
 29  12  15  ar  
 30  12  39  1   
 31  13  15  ar  
 32  13  16  1   
 33  14  17  1   
 34  14  40  1   
 35  15  18  1   
 36  16  19  1   
 37  17  20  1   
 38  17  41  1   
 39  17  42  1   
 40  18  21  1   
 41  19  43  1   
 42  19  44  1   
 43  19  45  1   
 44  20  22  1   
 45  20  23  2   
 46  21  46  1   
 47  21  47  1   
 48  21  48  1   
 49  22  24  1   
 50  23  25  1   
 51  23  49  1   
 52  24  25  2   
 53  24  50  1   
 54  25  51  1   
@<TRIPOS>SUBSTRUCTURE
  1 ****   2 GROUP 4 **** **** 0

# MOE 2024.06 (io_trps.svl 2023.06)
