@<TRIPOS>MOLECULE
NONAME
47 50 1 0 0 
SMALL
USER_CHARGES


@<TRIPOS>ATOM
  1 S       -0.7450     2.0800     1.1890 S.3   1 <1>  -0.0800 
  2 C       -0.1830     1.7250    -0.4310 C.2   1 <1>  -0.0450 
  3 C       -1.6960     0.6200     1.1740 C.2   1 <1>   0.2280 
  4 C       -0.7750     0.5690    -0.8100 C.2   1 <1>   0.0460 
  5 C        0.7160     2.6310    -1.1020 C.2   1 <1>   0.7150 
  6 N       -1.6110    -0.0500     0.0960 N.2   1 <1>  -0.5650 
  7 C       -0.6130    -0.1240    -2.1480 C.3   1 <1>  -0.0590 
  8 O        0.4230     3.0150    -2.2200 O.2   1 <1>  -0.5700 
  9 N        1.9120     3.0560    -0.5500 N.am  1 <1>  -0.6600 
 10 C        2.5680     2.3260     0.5840 C.3   1 <1>   0.1400 
 11 C        2.7350     4.0560    -1.2990 C.3   1 <1>   0.1400 
 12 C        2.5030     3.1250     1.8940 C.3   1 <1>   0.1400 
 13 C        3.7790     4.8050    -0.4630 C.3   1 <1>  -0.1600 
 14 N        3.4910     4.2450     1.9230 N.am  1 <1>  -0.6600 
 15 C        3.2650     5.2970     0.8930 C.3   1 <1>   0.1400 
 16 C        4.5430     4.2280     2.8140 C.2   1 <1>   0.5690 
 17 O        4.6840     3.3190     3.6000 O.2   1 <1>  -0.5700 
 18 C        5.5660     5.3460     2.8850 C.3   1 <1>   0.0810 
 19 C        6.3970     5.4110     1.6260 C.2   1 <1>   0.2980 
 20 O        7.0890     4.3410     1.2680 O.3   1 <1>  -0.2800 
 21 N        6.5000     6.4180     0.8430 N.2   1 <1>  -0.5650 
 22 C        7.6920     4.6780     0.1460 C.ar  1 <1>   0.1400 
 23 C        7.3380     5.9740    -0.1340 C.ar  1 <1>   0.2270 
 24 C        8.5360     3.9430    -0.6750 C.ar  1 <1>  -0.1500 
 25 C        7.8310     6.5940    -1.2770 C.ar  1 <1>  -0.1500 
 26 C        9.0250     4.5600    -1.8110 C.ar  1 <1>  -0.1500 
 27 C        8.6730     5.8810    -2.1100 C.ar  1 <1>  -0.1500 
 28 H       -2.2720     0.3950     2.0540 H     1 <1>   0.1500 
 29 H        0.0630     0.4160    -2.7840 H     1 <1>   0.0800 
 30 H       -1.5690    -0.1880    -2.6360 H     1 <1>   0.0800 
 31 H       -0.2330    -1.1180    -1.9980 H     1 <1>   0.0800 
 32 H        3.5950     2.1110     0.3430 H     1 <1>   0.0800 
 33 H        2.0790     1.3810     0.7360 H     1 <1>   0.0800 
 34 H        2.0690     4.7860    -1.7290 H     1 <1>   0.0800 
 35 H        3.2280     3.5560    -2.1160 H     1 <1>   0.0800 
 36 H        2.6920     2.4470     2.7080 H     1 <1>   0.0800 
 37 H        1.5140     3.5220     2.0360 H     1 <1>   0.0800 
 38 H        4.0890     5.6620    -1.0340 H     1 <1>   0.0800 
 39 H        4.6530     4.1930    -0.3330 H     1 <1>   0.0800 
 40 H        2.2150     5.5330     0.8330 H     1 <1>   0.0800 
 41 H        3.7800     6.2010     1.1630 H     1 <1>   0.0800 
 42 H        6.2210     5.1730     3.7180 H     1 <1>   0.0800 
 43 H        5.0660     6.2810     3.0470 H     1 <1>   0.0800 
 44 H        8.7890     2.9300    -0.4180 H     1 <1>   0.1500 
 45 H        7.5490     7.6100    -1.4860 H     1 <1>   0.1500 
 46 H        9.6840     4.0250    -2.4740 H     1 <1>   0.1500 
 47 H        9.0670     6.3420    -3.0000 H     1 <1>   0.1500 
@<TRIPOS>BOND
  1   1   2  1   
  2   1   3  1   
  3   2   4  2   
  4   2   5  1   
  5   3   6  2   
  6   3  28  1   
  7   4   6  1   
  8   4   7  1   
  9   5   8  2   
 10   5   9  am  
 11   7  29  1   
 12   7  30  1   
 13   7  31  1   
 14   9  10  1   
 15   9  11  1   
 16  10  12  1   
 17  10  32  1   
 18  10  33  1   
 19  11  13  1   
 20  11  34  1   
 21  11  35  1   
 22  12  14  1   
 23  12  36  1   
 24  12  37  1   
 25  13  15  1   
 26  13  38  1   
 27  13  39  1   
 28  14  15  1   
 29  14  16  am  
 30  15  40  1   
 31  15  41  1   
 32  16  17  2   
 33  16  18  1   
 34  18  19  1   
 35  18  42  1   
 36  18  43  1   
 37  19  20  1   
 38  19  21  2   
 39  20  22  1   
 40  21  23  1   
 41  22  23  ar  
 42  22  24  ar  
 43  23  25  ar  
 44  24  26  ar  
 45  24  44  1   
 46  25  27  ar  
 47  25  45  1   
 48  26  27  ar  
 49  26  46  1   
 50  27  47  1   
@<TRIPOS>SUBSTRUCTURE
  1 ****  13 GROUP 4 **** **** 0

# MOE 2024.06 (io_trps.svl 2023.06)
