@<TRIPOS>MOLECULE
NONAME
50 52 1 0 0 
SMALL
USER_CHARGES


@<TRIPOS>ATOM
  1 S       -0.1050     0.0230    -1.7530 S.o2  1 <1>   1.5760 
  2 O       -0.3290    -1.1280    -2.6000 O.2   1 <1>  -0.6500 
  3 O        0.3250     1.2770    -2.3280 O.2   1 <1>  -0.6500 
  4 N       -1.4820     0.3000    -0.8180 N.am  1 <1>  -0.8490 
  5 N        0.9960    -0.4320    -0.5620 N.am  1 <1>  -0.8490 
  6 C       -2.6670     0.4270    -1.6650 C.3   1 <1>   0.1960 
  7 C       -1.3270     1.4920     0.0230 C.3   1 <1>   0.1960 
  8 C        2.3310    -0.4920    -1.1520 C.3   1 <1>   0.3390 
  9 C        0.6340    -1.7100     0.0690 C.3   1 <1>   0.1160 
 10 C       -3.9180     0.5100    -0.7910 C.3   1 <1>  -0.1600 
 11 C       -2.5250     1.6180     0.9640 C.3   1 <1>  -0.1600 
 12 C        3.3930    -0.7960    -0.1020 C.ar  1 <1>  -0.1430 
 13 C       -3.8350     1.6910     0.1810 C.3   1 <1>   0.4180 
 14 C        3.5780     0.0650     0.9700 C.ar  1 <1>  -0.1500 
 15 C        4.1850    -1.9310    -0.2050 C.ar  1 <1>  -0.1500 
 16 O       -3.7880     2.8930    -0.5500 O.3   1 <1>  -0.5600 
 17 C       -5.0170     1.6990     1.1470 C.2   1 <1>  -0.2880 
 18 C        4.5410    -0.2030     1.9270 C.ar  1 <1>  -0.1500 
 19 C        5.1480    -2.2010     0.7520 C.ar  1 <1>  -0.1500 
 20 C       -5.0020     3.4200    -1.0080 C.3   1 <1>   0.1200 
 21 C       -5.9600     2.6450     1.1700 C.2   1 <1>  -0.2760 
 22 C        5.3270    -1.3370     1.8190 C.ar  1 <1>  -0.1500 
 23 C       -5.9100     3.7880     0.1730 C.3   1 <1>  -0.0220 
 24 C       -7.1170     2.6850     2.1520 C.3   1 <1>  -0.1020 
 25 H       -2.7480    -0.4340    -2.3070 H     1 <1>   0.0800 
 26 H       -2.5850     1.3060    -2.2860 H     1 <1>   0.0800 
 27 H       -1.2450     2.3740    -0.5920 H     1 <1>   0.0800 
 28 H       -0.4280     1.4100     0.6110 H     1 <1>   0.0800 
 29 H        2.5710     0.4580    -1.6000 H     1 <1>   0.0800 
 30 H        2.3540    -1.2380    -1.9300 H     1 <1>   0.0800 
 31 H       -0.3650    -1.6550     0.4670 H     1 <1>   0.0800 
 32 H        1.3010    -1.9290     0.8840 H     1 <1>   0.0800 
 33 H        0.6760    -2.5130    -0.6470 H     1 <1>   0.0800 
 34 H       -4.0020    -0.4040    -0.2310 H     1 <1>   0.0800 
 35 H       -4.7950     0.5900    -1.4030 H     1 <1>   0.0800 
 36 H       -2.4250     2.5000     1.5700 H     1 <1>   0.0800 
 37 H       -2.5380     0.7670     1.6190 H     1 <1>   0.0800 
 38 H        2.9630     0.9440     1.0590 H     1 <1>   0.1500 
 39 H        4.0570    -2.6110    -1.0290 H     1 <1>   0.1500 
 40 H       -5.0100     0.8620     1.8200 H     1 <1>   0.1500 
 41 H        4.6770     0.4700     2.7560 H     1 <1>   0.1500 
 42 H        5.7590    -3.0820     0.6680 H     1 <1>   0.1500 
 43 H       -5.4790     2.6900    -1.6370 H     1 <1>   0.0800 
 44 H       -4.7810     4.2930    -1.5950 H     1 <1>   0.0800 
 45 H        6.0750    -1.5460     2.5620 H     1 <1>   0.1500 
 46 H       -6.8950     3.9960    -0.2060 H     1 <1>   0.0800 
 47 H       -5.5400     4.6750     0.6530 H     1 <1>   0.0800 
 48 H       -7.0820     3.5930     2.7270 H     1 <1>   0.0800 
 49 H       -7.0660     1.8510     2.8290 H     1 <1>   0.0800 
 50 H       -8.0540     2.6400     1.6270 H     1 <1>   0.0800 
@<TRIPOS>BOND
  1   1   2  2   
  2   1   3  2   
  3   1   4  am  
  4   1   5  am  
  5   4   6  1   
  6   4   7  1   
  7   5   8  1   
  8   5   9  1   
  9   6  10  1   
 10   6  25  1   
 11   6  26  1   
 12   7  11  1   
 13   7  27  1   
 14   7  28  1   
 15   8  12  1   
 16   8  29  1   
 17   8  30  1   
 18   9  31  1   
 19   9  32  1   
 20   9  33  1   
 21  10  13  1   
 22  10  34  1   
 23  10  35  1   
 24  11  13  1   
 25  11  36  1   
 26  11  37  1   
 27  12  14  ar  
 28  12  15  ar  
 29  13  16  1   
 30  13  17  1   
 31  14  18  ar  
 32  14  38  1   
 33  15  19  ar  
 34  15  39  1   
 35  16  20  1   
 36  17  21  2   
 37  17  40  1   
 38  18  22  ar  
 39  18  41  1   
 40  19  22  ar  
 41  19  42  1   
 42  20  23  1   
 43  20  43  1   
 44  20  44  1   
 45  21  23  1   
 46  21  24  1   
 47  22  45  1   
 48  23  46  1   
 49  23  47  1   
 50  24  48  1   
 51  24  49  1   
 52  24  50  1   
@<TRIPOS>SUBSTRUCTURE
  1 ****   4 GROUP 4 **** **** 0

# MOE 2024.06 (io_trps.svl 2023.06)
