@<TRIPOS>MOLECULE
NONAME
41 42 1 0 0 
SMALL
USER_CHARGES


@<TRIPOS>ATOM
  1 O       -0.1510     1.0860     1.4410 O.2   1 <1>  -0.5700 
  2 C       -0.1090     2.2480     1.1250 C.2   1 <1>   0.5690 
  3 N       -1.0940     3.0990     1.4790 N.am  1 <1>  -0.7300 
  4 C        1.0500     2.7750     0.2800 C.3   1 <1>   0.1810 
  5 C       -1.1620     4.5160     1.0430 C.3   1 <1>   0.3640 
  6 O        1.2150     4.1690     0.4170 O.3   1 <1>  -0.5600 
  7 C       -2.4890     4.7180     0.3110 C.ar  1 <1>  -0.1440 
  8 C        0.0430     4.9390     0.1540 C.3   1 <1>   0.2610 
  9 C       -2.9320     3.8110    -0.6450 C.ar  1 <1>  -0.1500 
 10 C       -3.2730     5.8270     0.5940 C.ar  1 <1>  -0.1500 
 11 C        0.3430     6.4300     0.3640 C.2   1 <1>   0.5690 
 12 C       -4.1350     4.0090    -1.3000 C.ar  1 <1>  -0.1500 
 13 C       -4.4760     6.0270    -0.0600 C.ar  1 <1>  -0.1500 
 14 O       -0.5210     7.2540     0.1820 O.2   1 <1>  -0.5700 
 15 N        1.5910     6.8060     0.7560 N.am  1 <1>  -0.7300 
 16 C       -4.9080     5.1170    -1.0070 C.ar  1 <1>  -0.1500 
 17 C        2.0170     8.1950     1.0520 C.3   1 <1>   0.1400 
 18 C        2.2440     8.9730    -0.2470 C.3   1 <1>   0.1400 
 19 N        2.7180    10.3460     0.0580 N.am  1 <1>  -0.7300 
 20 C        3.9480    10.8830    -0.1020 C.2   1 <1>   0.5690 
 21 O        4.1450    12.0320     0.1910 O.2   1 <1>  -0.5700 
 22 C        5.0900    10.0560    -0.6400 C.3   1 <1>  -0.1790 
 23 H       -1.9010     2.7310     1.9860 H     1 <1>   0.3700 
 24 H        0.8760     2.5480    -0.7560 H     1 <1>   0.0800 
 25 H        1.9630     2.3020     0.5940 H     1 <1>   0.0800 
 26 H       -1.1600     5.1280     1.9290 H     1 <1>   0.0800 
 27 H       -0.2110     4.7970    -0.8800 H     1 <1>   0.0800 
 28 H       -2.3480     2.9400    -0.8860 H     1 <1>   0.1500 
 29 H       -2.9490     6.5530     1.3220 H     1 <1>   0.1500 
 30 H       -4.4710     3.3000    -2.0360 H     1 <1>   0.1500 
 31 H       -5.0720     6.8930     0.1660 H     1 <1>   0.1500 
 32 H        2.2790     6.0560     0.8900 H     1 <1>   0.3700 
 33 H       -5.8440     5.2730    -1.5160 H     1 <1>   0.1500 
 34 H        1.2490     8.6810     1.6300 H     1 <1>   0.0800 
 35 H        2.9250     8.1710     1.6300 H     1 <1>   0.0800 
 36 H        1.3180     9.0370    -0.7940 H     1 <1>   0.0800 
 37 H        2.9660     8.4570    -0.8550 H     1 <1>   0.0800 
 38 H        2.0100    10.9940     0.4120 H     1 <1>   0.3700 
 39 H        5.2260     9.1800    -0.0350 H     1 <1>   0.0800 
 40 H        5.9950    10.6350    -0.6200 H     1 <1>   0.0800 
 41 H        4.8840     9.7710    -1.6550 H     1 <1>   0.0800 
@<TRIPOS>BOND
  1   1   2  2   
  2   2   3  am  
  3   2   4  1   
  4   3   5  1   
  5   3  23  1   
  6   4   6  1   
  7   4  24  1   
  8   4  25  1   
  9   5   7  1   
 10   5   8  1   
 11   5  26  1   
 12   6   8  1   
 13   7   9  ar  
 14   7  10  ar  
 15   8  11  1   
 16   8  27  1   
 17   9  12  ar  
 18   9  28  1   
 19  10  13  ar  
 20  10  29  1   
 21  11  14  2   
 22  11  15  am  
 23  12  16  ar  
 24  12  30  1   
 25  13  16  ar  
 26  13  31  1   
 27  15  17  1   
 28  15  32  1   
 29  16  33  1   
 30  17  18  1   
 31  17  34  1   
 32  17  35  1   
 33  18  19  1   
 34  18  36  1   
 35  18  37  1   
 36  19  20  am  
 37  19  38  1   
 38  20  21  2   
 39  20  22  1   
 40  22  39  1   
 41  22  40  1   
 42  22  41  1   
@<TRIPOS>SUBSTRUCTURE
  1 ****  11 GROUP 4 **** **** 0

# MOE 2024.06 (io_trps.svl 2023.06)
