@<TRIPOS>MOLECULE
NONAME
42 43 1 0 0 
SMALL
USER_CHARGES


@<TRIPOS>ATOM
  1 O       -0.5030     0.4940     1.3670 O.2   1 <1>  -0.5700 
  2 C       -1.5770     1.0010     1.1090 C.2   1 <1>   0.7800 
  3 O       -2.5710     0.2380     0.6660 O.3   1 <1>  -0.4300 
  4 N       -1.8170     2.3430     1.2400 N.am  1 <1>  -0.6600 
  5 C       -2.3860    -1.1480     0.4970 C.3   1 <1>   0.2640 
  6 C       -0.7530     3.2940     1.6880 C.3   1 <1>   0.1400 
  7 C       -3.1220     2.9790     0.9100 C.3   1 <1>   0.1400 
  8 C       -3.6640    -1.7290    -0.0840 C.ar  1 <1>  -0.1440 
  9 C       -0.5090     4.3540     0.6060 C.3   1 <1>   0.2000 
 10 C       -2.9050     4.0010    -0.2060 C.3   1 <1>  -0.1600 
 11 C       -4.7730    -1.9180     0.7260 C.ar  1 <1>  -0.1500 
 12 C       -3.7350    -2.0690    -1.4260 C.ar  1 <1>  -0.1500 
 13 O        0.4130     5.2860     1.0880 O.3   1 <1>  -0.6800 
 14 C       -1.8520     5.0430     0.2090 C.3   1 <1>   0.5600 
 15 C       -5.9400    -2.4460     0.2020 C.ar  1 <1>  -0.1500 
 16 C       -4.9020    -2.5980    -1.9520 C.ar  1 <1>  -0.1500 
 17 O       -2.2850     5.7570     1.3470 O.3   1 <1>  -0.5600 
 18 O       -1.6960     6.0160    -0.7950 O.3   1 <1>  -0.5600 
 19 C       -6.0050    -2.7870    -1.1380 C.ar  1 <1>  -0.1500 
 20 C       -3.3930     6.6070     1.2370 C.3   1 <1>   0.0400 
 21 C       -0.9640     5.6950    -1.9410 C.3   1 <1>   0.0400 
 22 H       -2.1680    -1.5820     1.4580 H     1 <1>   0.0800 
 23 H       -1.5520    -1.3050    -0.1650 H     1 <1>   0.0800 
 24 H        0.1660     2.7690     1.8820 H     1 <1>   0.0800 
 25 H       -1.0750     3.7700     2.5980 H     1 <1>   0.0800 
 26 H       -3.5100     3.4650     1.7900 H     1 <1>   0.0800 
 27 H       -3.8430     2.2450     0.5920 H     1 <1>   0.0800 
 28 H       -0.0680     3.8610    -0.2400 H     1 <1>   0.0800 
 29 H       -3.8310     4.4780    -0.4610 H     1 <1>   0.0800 
 30 H       -2.5660     3.4680    -1.0740 H     1 <1>   0.0800 
 31 H       -4.7310    -1.6510     1.7670 H     1 <1>   0.1500 
 32 H       -2.8850    -1.9220    -2.0690 H     1 <1>   0.1500 
 33 H       -0.1030     6.0330     1.4630 H     1 <1>   0.4000 
 34 H       -6.7970    -2.5920     0.8350 H     1 <1>   0.1500 
 35 H       -4.9520    -2.8610    -2.9940 H     1 <1>   0.1500 
 36 H       -6.9120    -3.1970    -1.5460 H     1 <1>   0.1500 
 37 H       -3.5370     7.0870     2.1890 H     1 <1>   0.0800 
 38 H       -4.2710     6.0400     0.9910 H     1 <1>   0.0800 
 39 H       -3.2050     7.3590     0.4900 H     1 <1>   0.0800 
 40 H       -1.0740     6.5050    -2.6390 H     1 <1>   0.0800 
 41 H       -1.3410     4.7900    -2.3820 H     1 <1>   0.0800 
 42 H        0.0760     5.5930    -1.6840 H     1 <1>   0.0800 
@<TRIPOS>BOND
  1   1   2  2   
  2   2   3  1   
  3   2   4  am  
  4   3   5  1   
  5   4   6  1   
  6   4   7  1   
  7   5   8  1   
  8   5  22  1   
  9   5  23  1   
 10   6   9  1   
 11   6  24  1   
 12   6  25  1   
 13   7  10  1   
 14   7  26  1   
 15   7  27  1   
 16   8  11  ar  
 17   8  12  ar  
 18   9  13  1   
 19   9  14  1   
 20   9  28  1   
 21  10  14  1   
 22  10  29  1   
 23  10  30  1   
 24  11  15  ar  
 25  11  31  1   
 26  12  16  ar  
 27  12  32  1   
 28  13  33  1   
 29  14  17  1   
 30  14  18  1   
 31  15  19  ar  
 32  15  34  1   
 33  16  19  ar  
 34  16  35  1   
 35  17  20  1   
 36  18  21  1   
 37  19  36  1   
 38  20  37  1   
 39  20  38  1   
 40  20  39  1   
 41  21  40  1   
 42  21  41  1   
 43  21  42  1   
@<TRIPOS>SUBSTRUCTURE
  1 ****   4 GROUP 4 **** **** 0

# MOE 2024.06 (io_trps.svl 2023.06)
