@<TRIPOS>MOLECULE
NONAME
51 53 1 0 0 
SMALL
USER_CHARGES


@<TRIPOS>ATOM
  1 O       -2.2140     0.9940    -1.9370 O.2   1 <1>  -0.5700 
  2 C       -2.2340     1.1110    -0.7370 C.2   1 <1>   0.5690 
  3 N       -2.4260     0.0410     0.0790 N.am  1 <1>  -0.7300 
  4 C       -1.9910     2.5100    -0.1420 C.3   1 <1>   0.4040 
  5 C       -2.5990    -1.3610    -0.3770 C.3   1 <1>   0.2200 
  6 N       -0.5420     2.9650    -0.1600 N.4   1 <1>  -0.9590 
  7 C       -3.9720    -1.8620     0.0570 C.3   1 <1>  -0.0800 
  8 C       -1.6840    -2.2500     0.4530 C.3   1 <1>   0.1200 
  9 C       -0.3540     4.2090     0.6490 C.3   1 <1>   0.4230 
 10 C       -0.0330     3.0550    -1.5750 C.3   1 <1>   0.2630 
 11 C       -3.7140    -2.3850     1.4810 C.3   1 <1>   0.1200 
 12 C       -4.4920    -2.9670    -0.8830 C.3   1 <1>  -0.0170 
 13 O       -2.3300    -2.3460     1.6810 O.3   1 <1>  -0.5600 
 14 C       -1.0390     5.4370     0.0240 C.3   1 <1>  -0.1600 
 15 C        1.1290     4.5700     0.7660 C.3   1 <1>  -0.1600 
 16 C       -5.8500    -3.4910    -0.4390 C.ar  1 <1>  -0.1430 
 17 C        0.0550     6.4750    -0.2530 C.3   1 <1>  -0.1600 
 18 C        1.3760     5.7160    -0.2150 C.3   1 <1>  -0.1600 
 19 C       -5.9970    -4.7170     0.1790 C.ar  1 <1>  -0.1500 
 20 C       -7.0090    -2.7670    -0.6360 C.ar  1 <1>  -0.1500 
 21 C       -7.2570    -5.1430     0.5650 C.ar  1 <1>   0.1600 
 22 C       -8.2210    -3.2850    -0.2120 C.ar  1 <1>   0.1600 
 23 N       -8.3730    -4.4550     0.3870 N.ar  1 <1>  -0.6200 
 24 H       -2.4330     0.1030     1.1030 H     1 <1>   0.3700 
 25 H       -2.3520     2.5060     0.8710 H     1 <1>   0.0800 
 26 H       -2.5900     3.2080    -0.7010 H     1 <1>   0.0800 
 27 H       -2.4200    -1.4530    -1.4360 H     1 <1>   0.0800 
 28 H        0.0100     2.2290     0.3010 H     1 <1>   0.4500 
 29 H       -4.6910    -1.0620     0.0710 H     1 <1>   0.0800 
 30 H       -0.7010    -1.8360     0.5880 H     1 <1>   0.0800 
 31 H       -1.6120    -3.2390     0.0330 H     1 <1>   0.0800 
 32 H       -0.7460     4.0470     1.6410 H     1 <1>   0.0800 
 33 H       -0.5750     3.8050    -2.1270 H     1 <1>   0.0800 
 34 H       -0.1530     2.1100    -2.0810 H     1 <1>   0.0800 
 35 H        1.0130     3.3100    -1.5840 H     1 <1>   0.0800 
 36 H       -4.0440    -3.4000     1.6160 H     1 <1>   0.0800 
 37 H       -4.1770    -1.7590     2.2240 H     1 <1>   0.0800 
 38 H       -3.7900    -3.7820    -0.9260 H     1 <1>   0.0800 
 39 H       -4.5860    -2.5730    -1.8810 H     1 <1>   0.0800 
 40 H       -1.5570     5.2030    -0.8880 H     1 <1>   0.0800 
 41 H       -1.7510     5.8510     0.7170 H     1 <1>   0.0800 
 42 H        1.3000     4.9440     1.7610 H     1 <1>   0.0800 
 43 H        1.7910     3.7380     0.6020 H     1 <1>   0.0800 
 44 H       -0.0910     6.9770    -1.1960 H     1 <1>   0.0800 
 45 H        0.0520     7.2160     0.5300 H     1 <1>   0.0800 
 46 H        2.1890     6.3480     0.1030 H     1 <1>   0.0800 
 47 H        1.6050     5.3340    -1.1950 H     1 <1>   0.0800 
 48 H       -5.1480    -5.3480     0.3650 H     1 <1>   0.1500 
 49 H       -6.9830    -1.8060    -1.1170 H     1 <1>   0.1500 
 50 H       -7.3520    -6.1010     1.0470 H     1 <1>   0.1500 
 51 H       -9.1150    -2.7060    -0.3750 H     1 <1>   0.1500 
@<TRIPOS>BOND
  1   1   2  2   
  2   2   3  am  
  3   2   4  1   
  4   3   5  1   
  5   3  24  1   
  6   4   6  1   
  7   4  25  1   
  8   4  26  1   
  9   5   7  1   
 10   5   8  1   
 11   5  27  1   
 12   6   9  1   
 13   6  10  1   
 14   6  28  1   
 15   7  11  1   
 16   7  12  1   
 17   7  29  1   
 18   8  13  1   
 19   8  30  1   
 20   8  31  1   
 21   9  14  1   
 22   9  15  1   
 23   9  32  1   
 24  10  33  1   
 25  10  34  1   
 26  10  35  1   
 27  11  13  1   
 28  11  36  1   
 29  11  37  1   
 30  12  16  1   
 31  12  38  1   
 32  12  39  1   
 33  14  17  1   
 34  14  40  1   
 35  14  41  1   
 36  15  18  1   
 37  15  42  1   
 38  15  43  1   
 39  16  19  ar  
 40  16  20  ar  
 41  17  18  1   
 42  17  44  1   
 43  17  45  1   
 44  18  46  1   
 45  18  47  1   
 46  19  21  ar  
 47  19  48  1   
 48  20  22  ar  
 49  20  49  1   
 50  21  23  ar  
 51  21  50  1   
 52  22  23  ar  
 53  22  51  1   
@<TRIPOS>SUBSTRUCTURE
  1 ****   3 GROUP 4 **** **** 0

# MOE 2024.06 (io_trps.svl 2023.06)
