@<TRIPOS>MOLECULE
NONAME
50 53 1 0 0 
SMALL
USER_CHARGES


@<TRIPOS>ATOM
  1 O       -0.0360     1.3350    -0.3370 O.2   1 <1>  -0.5700 
  2 C       -0.1130     2.5310    -0.1820 C.2   1 <1>   0.5690 
  3 N       -1.1790     3.1240     0.4400 N.am  1 <1>  -0.6600 
  4 C        1.0190     3.4020    -0.7270 C.3   1 <1>   0.1810 
  5 C       -1.2650     4.6150     0.5830 C.3   1 <1>   0.3640 
  6 C       -2.2750     2.3350     1.0750 C.3   1 <1>   0.0600 
  7 O        1.1080     4.6440    -0.0730 O.3   1 <1>  -0.5600 
  8 C       -2.6260     5.1430     0.1000 C.ar  1 <1>  -0.1440 
  9 C       -0.0980     5.3910    -0.0820 C.3   1 <1>   0.2610 
 10 C       -3.1970     4.8540    -1.1450 C.ar  1 <1>  -0.1440 
 11 C       -3.3190     5.9680     0.9780 C.ar  1 <1>  -0.1500 
 12 C        0.1100     6.7210     0.6480 C.2   1 <1>   0.5690 
 13 C       -4.4360     5.3900    -1.4660 C.ar  1 <1>  -0.1500 
 14 C       -2.5430     3.9600    -2.1930 C.3   1 <1>  -0.0960 
 15 C       -4.5510     6.4970     0.6460 C.ar  1 <1>  -0.1500 
 16 O       -0.5880     7.6710     0.3840 O.2   1 <1>  -0.5700 
 17 N        1.0990     6.8180     1.5710 N.am  1 <1>  -0.7300 
 18 C       -5.1120     6.2070    -0.5810 C.ar  1 <1>  -0.1500 
 19 C        1.4680     8.0480     2.3050 C.3   1 <1>   0.3200 
 20 C        2.6370     8.7240     1.6220 C.2   1 <1>   0.0060 
 21 N        3.8440     8.7840     2.0830 N.2   1 <1>  -0.3380 
 22 N        2.5460     9.3490     0.4490 N.pl3 1 <1>   0.0480 
 23 N        4.5730     9.4700     1.1920 N.2   1 <1>  -0.3380 
 24 C        3.7660     9.7850     0.2420 C.2   1 <1>   0.0060 
 25 C        1.6060     9.6950    -0.6170 C.3   1 <1>   0.0960 
 26 C        3.8960    10.5440    -1.0500 C.3   1 <1>   0.0200 
 27 C        2.4270    10.6440    -1.5190 C.3   1 <1>  -0.1600 
 28 H        0.8710     3.5740    -1.7770 H     1 <1>   0.0800 
 29 H        1.9550     2.8920    -0.5880 H     1 <1>   0.0800 
 30 H       -1.1950     4.8120     1.6380 H     1 <1>   0.0800 
 31 H       -2.3770     2.6150     2.1080 H     1 <1>   0.0800 
 32 H       -2.0640     1.2810     1.0240 H     1 <1>   0.0800 
 33 H       -3.2050     2.5220     0.5670 H     1 <1>   0.0800 
 34 H       -0.3390     5.6150    -1.1040 H     1 <1>   0.0800 
 35 H       -2.9030     6.2170     1.9390 H     1 <1>   0.1500 
 36 H       -4.8920     5.1740    -2.4170 H     1 <1>   0.1500 
 37 H       -3.0300     4.0640    -3.1450 H     1 <1>   0.0800 
 38 H       -2.6170     2.9300    -1.8950 H     1 <1>   0.0800 
 39 H       -1.5100     4.2110    -2.3310 H     1 <1>   0.0800 
 40 H       -5.0710     7.1360     1.3380 H     1 <1>   0.1500 
 41 H        1.7990     6.0690     1.5980 H     1 <1>   0.3700 
 42 H       -6.0720     6.6150    -0.8460 H     1 <1>   0.1500 
 43 H        0.6310     8.7240     2.3420 H     1 <1>   0.0800 
 44 H        1.7410     7.7920     3.3130 H     1 <1>   0.0800 
 45 H        1.3270     8.8000    -1.1420 H     1 <1>   0.0800 
 46 H        0.7350    10.1730    -0.2050 H     1 <1>   0.0800 
 47 H        4.3360    11.5110    -0.8850 H     1 <1>   0.0800 
 48 H        4.4930     9.9770    -1.7420 H     1 <1>   0.0800 
 49 H        2.3230    10.3800    -2.5560 H     1 <1>   0.0800 
 50 H        2.0720    11.6510    -1.3840 H     1 <1>   0.0800 
@<TRIPOS>BOND
  1   1   2  2   
  2   2   3  am  
  3   2   4  1   
  4   3   5  1   
  5   3   6  1   
  6   4   7  1   
  7   4  28  1   
  8   4  29  1   
  9   5   8  1   
 10   5   9  1   
 11   5  30  1   
 12   6  31  1   
 13   6  32  1   
 14   6  33  1   
 15   7   9  1   
 16   8  10  ar  
 17   8  11  ar  
 18   9  12  1   
 19   9  34  1   
 20  10  13  ar  
 21  10  14  1   
 22  11  15  ar  
 23  11  35  1   
 24  12  16  2   
 25  12  17  am  
 26  13  18  ar  
 27  13  36  1   
 28  14  37  1   
 29  14  38  1   
 30  14  39  1   
 31  15  18  ar  
 32  15  40  1   
 33  17  19  1   
 34  17  41  1   
 35  18  42  1   
 36  19  20  1   
 37  19  43  1   
 38  19  44  1   
 39  20  21  2   
 40  20  22  1   
 41  21  23  1   
 42  22  24  1   
 43  22  25  1   
 44  23  24  2   
 45  24  26  1   
 46  25  27  1   
 47  25  45  1   
 48  25  46  1   
 49  26  27  1   
 50  26  47  1   
 51  26  48  1   
 52  27  49  1   
 53  27  50  1   
@<TRIPOS>SUBSTRUCTURE
  1 ****  12 GROUP 4 **** **** 0

# MOE 2024.06 (io_trps.svl 2023.06)
