@<TRIPOS>MOLECULE
NONAME
51 53 1 0 0 
SMALL
USER_CHARGES


@<TRIPOS>ATOM
  1 F        0.1550    -1.6580    -2.2550 F     1 <1>  -0.1900 
  2 C        1.0440    -1.5680    -1.2990 C.ar  1 <1>   0.1900 
  3 C        1.5310    -2.7290    -0.7050 C.ar  1 <1>  -0.1440 
  4 C        1.4520    -0.2980    -0.9240 C.ar  1 <1>  -0.1500 
  5 C        2.4690    -2.5890     0.3100 C.ar  1 <1>  -0.1500 
  6 C        1.0830    -4.1290    -1.1310 C.3   1 <1>   0.0450 
  7 C        2.3870    -0.1690     0.0900 C.ar  1 <1>  -0.1500 
  8 C        2.8750    -1.3190     0.6860 C.ar  1 <1>   0.1900 
  9 C        0.5560    -4.9580     0.0350 C.2   1 <1>   0.5690 
 10 F        3.7570    -1.2000     1.6410 F     1 <1>  -0.1900 
 11 O        1.3220    -5.7680     0.5050 O.2   1 <1>  -0.5700 
 12 N       -0.7220    -4.8060     0.5300 N.am  1 <1>  -0.6600 
 13 C       -1.6680    -3.7520     0.0550 C.3   1 <1>   0.2200 
 14 C       -1.1800    -5.7110     1.6320 C.3   1 <1>   0.0600 
 15 C       -2.3540    -2.9580     1.1670 C.3   1 <1>  -0.1600 
 16 C       -2.8130    -4.3230    -0.7770 C.3   1 <1>  -0.1600 
 17 C       -3.5930    -2.3580     0.4890 C.3   1 <1>  -0.0800 
 18 C       -3.8980    -3.2380    -0.7290 C.3   1 <1>  -0.0800 
 19 C       -4.8740    -2.3570     1.3390 C.3   1 <1>  -0.1600 
 20 C       -5.3310    -3.7500    -0.5260 C.3   1 <1>  -0.1600 
 21 C       -6.0110    -2.7110     0.3730 C.3   1 <1>   0.4230 
 22 N       -6.4330    -1.5120    -0.4220 N.4   1 <1>  -0.9590 
 23 C       -6.9760    -0.4090     0.4350 C.3   1 <1>   0.2630 
 24 C       -7.4560    -1.8430    -1.4670 C.3   1 <1>   0.2630 
 25 H        1.0470     0.5670    -1.4170 H     1 <1>   0.1500 
 26 H        2.8850    -3.4480     0.8090 H     1 <1>   0.1500 
 27 H        1.9310    -4.6400    -1.5480 H     1 <1>   0.0800 
 28 H        0.3370    -4.0950    -1.9010 H     1 <1>   0.0800 
 29 H        2.7340     0.7960     0.4140 H     1 <1>   0.1500 
 30 H       -1.1510    -3.0370    -0.5560 H     1 <1>   0.0800 
 31 H       -2.2330    -5.9120     1.5530 H     1 <1>   0.0800 
 32 H       -0.9760    -5.2510     2.5830 H     1 <1>   0.0800 
 33 H       -0.6570    -6.6520     1.5890 H     1 <1>   0.0800 
 34 H       -2.6500    -3.6050     1.9710 H     1 <1>   0.0800 
 35 H       -1.7020    -2.1930     1.5510 H     1 <1>   0.0800 
 36 H       -2.4960    -4.5190    -1.7860 H     1 <1>   0.0800 
 37 H       -3.1670    -5.2380    -0.3370 H     1 <1>   0.0800 
 38 H       -3.3670    -1.3600     0.1490 H     1 <1>   0.0800 
 39 H       -3.8390    -2.6340    -1.6190 H     1 <1>   0.0800 
 40 H       -5.0050    -1.4390     1.8790 H     1 <1>   0.0800 
 41 H       -4.8220    -3.1480     2.0670 H     1 <1>   0.0800 
 42 H       -5.3060    -4.6760     0.0220 H     1 <1>   0.0800 
 43 H       -5.8320    -3.9440    -1.4560 H     1 <1>   0.0800 
 44 H       -6.8550    -3.1330     0.8950 H     1 <1>   0.0800 
 45 H       -5.5840    -1.1710    -0.8950 H     1 <1>   0.4500 
 46 H       -7.8100    -0.7630     1.0180 H     1 <1>   0.0800 
 47 H       -7.3090     0.4110    -0.1790 H     1 <1>   0.0800 
 48 H       -6.2190    -0.0370     1.1060 H     1 <1>   0.0800 
 49 H       -8.3250    -2.2910    -1.0130 H     1 <1>   0.0800 
 50 H       -7.0540    -2.5280    -2.1940 H     1 <1>   0.0800 
 51 H       -7.7620    -0.9490    -1.9850 H     1 <1>   0.0800 
@<TRIPOS>BOND
  1   1   2  1   
  2   2   3  ar  
  3   2   4  ar  
  4   3   5  ar  
  5   3   6  1   
  6   4   7  ar  
  7   4  25  1   
  8   5   8  ar  
  9   5  26  1   
 10   6   9  1   
 11   6  27  1   
 12   6  28  1   
 13   7   8  ar  
 14   7  29  1   
 15   8  10  1   
 16   9  11  2   
 17   9  12  am  
 18  12  13  1   
 19  12  14  1   
 20  13  15  1   
 21  13  16  1   
 22  13  30  1   
 23  14  31  1   
 24  14  32  1   
 25  14  33  1   
 26  15  17  1   
 27  15  34  1   
 28  15  35  1   
 29  16  18  1   
 30  16  36  1   
 31  16  37  1   
 32  17  18  1   
 33  17  19  1   
 34  17  38  1   
 35  18  20  1   
 36  18  39  1   
 37  19  21  1   
 38  19  40  1   
 39  19  41  1   
 40  20  21  1   
 41  20  42  1   
 42  20  43  1   
 43  21  22  1   
 44  21  44  1   
 45  22  23  1   
 46  22  24  1   
 47  22  45  1   
 48  23  46  1   
 49  23  47  1   
 50  23  48  1   
 51  24  49  1   
 52  24  50  1   
 53  24  51  1   
@<TRIPOS>SUBSTRUCTURE
  1 ****  13 GROUP 4 **** **** 0

# MOE 2024.06 (io_trps.svl 2023.06)
