@<TRIPOS>MOLECULE
NONAME
48 51 1 0 0 
SMALL
USER_CHARGES


@<TRIPOS>ATOM
  1 O        0.3080     0.2250    -0.2630 O.3   1 <1>  -0.5600 
  2 C        0.2090     1.5550     0.1560 C.3   1 <1>   0.2950 
  3 C        1.5070    -0.3960     0.0970 C.3   1 <1>   0.2000 
  4 C       -1.1780     2.0620    -0.2520 C.3   1 <1>  -0.1950 
  5 C        1.3350     2.4160    -0.4590 C.3   1 <1>   0.2090 
  6 C        2.6990     0.3330    -0.5630 C.3   1 <1>   0.2090 
  7 C        1.3860    -1.8660    -0.3260 C.3   1 <1>  -0.1600 
  8 C       -1.8610     3.1540     0.5120 C.3   1 <1>  -0.2000 
  9 C       -2.3900     1.7480     0.5670 C.3   1 <1>  -0.2000 
 10 N        2.6960     1.8060    -0.2530 N.pl3 1 <1>  -0.8380 
 11 C        2.5720    -2.7290     0.1370 C.3   1 <1>  -0.1600 
 12 C        3.8120     2.5130     0.1080 C.ar  1 <1>   0.4100 
 13 C        2.3520    -4.2030    -0.2200 C.3   1 <1>  -0.1600 
 14 N        4.8050     1.8040     0.6380 N.ar  1 <1>  -0.6200 
 15 C        3.9440     3.9280    -0.0630 C.ar  1 <1>   0.2270 
 16 C        3.5340    -5.0620     0.2350 C.3   1 <1>  -0.2400 
 17 C        5.9050     2.4240     1.0170 C.ar  1 <1>   0.7710 
 18 N        3.1270     4.8940    -0.5940 N.2   1 <1>  -0.5650 
 19 C        5.1060     4.5210     0.3440 C.ar  1 <1>   0.1560 
 20 N        6.0950     3.7520     0.8950 N.ar  1 <1>  -0.1260 
 21 N        6.8540     1.6550     1.5450 N.pl3 1 <1>  -0.9000 
 22 C        3.7900     5.9920    -0.4920 C.2   1 <1>   0.0360 
 23 N        5.0130     5.8380     0.0770 N.pl3 1 <1>   0.0330 
 24 H        0.2930     1.5720     1.2290 H     1 <1>   0.0800 
 25 H        1.6030    -0.3440     1.1680 H     1 <1>   0.0800 
 26 H       -1.3020     2.0660    -1.3220 H     1 <1>   0.1000 
 27 H        1.2780     3.3850    -0.0020 H     1 <1>   0.0800 
 28 H        1.1560     2.5340    -1.5140 H     1 <1>   0.0800 
 29 H        2.6360     0.2020    -1.6290 H     1 <1>   0.0800 
 30 H        3.6130    -0.1260    -0.2360 H     1 <1>   0.0800 
 31 H        0.4820    -2.2620     0.1040 H     1 <1>   0.0800 
 32 H        1.2980    -1.9200    -1.3980 H     1 <1>   0.0800 
 33 H       -1.3980     3.5570     1.3970 H     1 <1>   0.1000 
 34 H       -2.4230     3.8940    -0.0310 H     1 <1>   0.1000 
 35 H       -3.3040     1.5100     0.0510 H     1 <1>   0.1000 
 36 H       -2.2660     1.1740     1.4690 H     1 <1>   0.1000 
 37 H        3.4800    -2.3900    -0.3310 H     1 <1>   0.0800 
 38 H        2.6860    -2.6360     1.2040 H     1 <1>   0.0800 
 39 H        1.4520    -4.5600     0.2520 H     1 <1>   0.0800 
 40 H        2.2310    -4.3030    -1.2860 H     1 <1>   0.0800 
 41 H        3.6610    -4.9940     1.3010 H     1 <1>   0.0800 
 42 H        4.4420    -4.7400    -0.2440 H     1 <1>   0.0800 
 43 H        3.3600    -6.0920    -0.0230 H     1 <1>   0.0800 
 44 H        6.9800     4.1290     1.2170 H     1 <1>   0.4570 
 45 H        7.7760     1.9090     1.9030 H     1 <1>   0.4000 
 46 H        6.6520     0.6510     1.6160 H     1 <1>   0.4000 
 47 H        3.4280     6.9550    -0.8200 H     1 <1>   0.1500 
 48 H        5.6880     6.5930     0.2400 H     1 <1>   0.2700 
@<TRIPOS>BOND
  1   1   2  1   
  2   1   3  1   
  3   2   4  1   
  4   2   5  1   
  5   2  24  1   
  6   3   6  1   
  7   3   7  1   
  8   3  25  1   
  9   4   8  1   
 10   4   9  1   
 11   4  26  1   
 12   5  10  1   
 13   5  27  1   
 14   5  28  1   
 15   6  10  1   
 16   6  29  1   
 17   6  30  1   
 18   7  11  1   
 19   7  31  1   
 20   7  32  1   
 21   8   9  1   
 22   8  33  1   
 23   8  34  1   
 24   9  35  1   
 25   9  36  1   
 26  10  12  1   
 27  11  13  1   
 28  11  37  1   
 29  11  38  1   
 30  12  14  ar  
 31  12  15  ar  
 32  13  16  1   
 33  13  39  1   
 34  13  40  1   
 35  14  17  ar  
 36  15  18  1   
 37  15  19  ar  
 38  16  41  1   
 39  16  42  1   
 40  16  43  1   
 41  17  20  ar  
 42  17  21  1   
 43  18  22  2   
 44  19  20  ar  
 45  19  23  1   
 46  20  44  1   
 47  21  45  1   
 48  21  46  1   
 49  22  23  1   
 50  22  47  1   
 51  23  48  1   
@<TRIPOS>SUBSTRUCTURE
  1 ****  10 GROUP 4 **** **** 0

# MOE 2024.06 (io_trps.svl 2023.06)
