@<TRIPOS>MOLECULE
NONAME
47 50 1 0 0 
SMALL
USER_CHARGES


@<TRIPOS>ATOM
  1 S        0.4530    -0.6200     0.1060 S.3   1 <1>  -0.0800 
  2 C       -0.2210    -1.9100     1.0920 C.ar  1 <1>   0.2970 
  3 C       -0.9980    -0.5500    -0.8880 C.2   1 <1>  -0.1400 
  4 N        0.4360    -2.4050     2.1190 N.ar  1 <1>  -0.5670 
  5 C       -1.4700    -2.2780     0.6440 C.ar  1 <1>   0.0000 
  6 C       -1.9060    -1.4590    -0.4770 C.2   1 <1>  -0.1810 
  7 C       -0.9740     0.4930    -1.9900 C.3   1 <1>  -0.0600 
  8 C       -0.2460    -3.3450     2.7360 C.ar  1 <1>   0.4700 
  9 C       -2.0420    -3.3360     1.3710 C.ar  1 <1>   0.4100 
 10 C       -3.2840    -1.6090    -1.1030 C.3   1 <1>  -0.0590 
 11 N       -1.4400    -3.8320     2.4420 N.ar  1 <1>  -0.6200 
 12 N       -3.2310    -3.9440     1.0300 N.pl3 1 <1>  -0.8380 
 13 C       -3.3570    -4.6920    -0.2670 C.3   1 <1>   0.2090 
 14 C       -4.2390    -4.2820     2.0680 C.3   1 <1>   0.2090 
 15 C       -3.4180    -6.2200    -0.0840 C.3   1 <1>  -0.1060 
 16 C       -4.2880    -5.7910     2.2980 C.3   1 <1>  -0.1600 
 17 C       -3.8980    -6.8480    -1.3920 C.2   1 <1>   0.9060 
 18 C       -4.5060    -6.5150     0.9710 C.3   1 <1>   0.2000 
 19 C       -2.0240    -6.7940     0.3070 C.3   1 <1>  -0.0650 
 20 O       -4.1950    -8.0530    -1.3950 O.co2 1 <1>  -0.9000 
 21 O       -4.0260    -6.1520    -2.4080 O.co2 1 <1>  -0.9000 
 22 O       -4.5780    -7.8720     1.2220 O.3   1 <1>  -0.6800 
 23 C       -0.9400    -6.6330    -0.7740 C.3   1 <1>  -0.1950 
 24 C        0.4990    -6.8370    -0.4220 C.3   1 <1>  -0.2000 
 25 C        0.0010    -5.4700    -0.7920 C.3   1 <1>  -0.2000 
 26 H       -1.8610     0.4410    -2.5930 H     1 <1>   0.0800 
 27 H       -0.1210     0.3300    -2.6240 H     1 <1>   0.0800 
 28 H       -0.9040     1.4750    -1.5590 H     1 <1>   0.0800 
 29 H        0.2310    -3.7810     3.5980 H     1 <1>   0.1500 
 30 H       -4.0230    -1.7740    -0.3400 H     1 <1>   0.0800 
 31 H       -3.2910    -2.4340    -1.7910 H     1 <1>   0.0800 
 32 H       -3.5630    -0.7230    -1.6400 H     1 <1>   0.0800 
 33 H       -4.2620    -4.3640    -0.7490 H     1 <1>   0.0800 
 34 H       -2.5400    -4.4440    -0.9210 H     1 <1>   0.0800 
 35 H       -4.0010    -3.7810     2.9910 H     1 <1>   0.0800 
 36 H       -5.2030    -3.9350     1.7390 H     1 <1>   0.0800 
 37 H       -5.0970    -6.0190     2.9660 H     1 <1>   0.0800 
 38 H       -3.3690    -6.1080     2.7550 H     1 <1>   0.0800 
 39 H       -5.4620    -6.2260     0.5670 H     1 <1>   0.0800 
 40 H       -1.6830    -6.3390     1.2180 H     1 <1>   0.0800 
 41 H       -2.1260    -7.8480     0.4960 H     1 <1>   0.0800 
 42 H       -4.5160    -8.3070     0.3220 H     1 <1>   0.4000 
 43 H       -1.2510    -7.0320    -1.7260 H     1 <1>   0.1000 
 44 H        0.7590    -7.0290     0.6040 H     1 <1>   0.1000 
 45 H        1.1230    -7.3700    -1.1170 H     1 <1>   0.1000 
 46 H        0.2600    -5.0480    -1.7470 H     1 <1>   0.1000 
 47 H       -0.0610    -4.7300    -0.0170 H     1 <1>   0.1000 
@<TRIPOS>BOND
  1   1   2  1   
  2   1   3  1   
  3   2   4  ar  
  4   2   5  ar  
  5   3   6  2   
  6   3   7  1   
  7   4   8  ar  
  8   5   6  1   
  9   5   9  ar  
 10   6  10  1   
 11   7  26  1   
 12   7  27  1   
 13   7  28  1   
 14   8  11  ar  
 15   8  29  1   
 16   9  11  ar  
 17   9  12  1   
 18  10  30  1   
 19  10  31  1   
 20  10  32  1   
 21  12  13  1   
 22  12  14  1   
 23  13  15  1   
 24  13  33  1   
 25  13  34  1   
 26  14  16  1   
 27  14  35  1   
 28  14  36  1   
 29  15  17  1   
 30  15  18  1   
 31  15  19  1   
 32  16  18  1   
 33  16  37  1   
 34  16  38  1   
 35  17  20  ar  
 36  17  21  ar  
 37  18  22  1   
 38  18  39  1   
 39  19  23  1   
 40  19  40  1   
 41  19  41  1   
 42  22  42  1   
 43  23  24  1   
 44  23  25  1   
 45  23  43  1   
 46  24  25  1   
 47  24  44  1   
 48  24  45  1   
 49  25  46  1   
 50  25  47  1   
@<TRIPOS>SUBSTRUCTURE
  1 ****  12 GROUP 4 **** **** 0

# MOE 2024.06 (io_trps.svl 2023.06)
