@<TRIPOS>MOLECULE
NONAME
44 46 1 0 0 
SMALL
USER_CHARGES


@<TRIPOS>ATOM
  1 CL      -0.0420     0.5860    -1.1760 Cl    1 <1>  -0.1770 
  2 C       -1.6710     0.8750    -0.6250 C.ar  1 <1>   0.1770 
  3 C       -2.1720     2.1630    -0.6280 C.ar  1 <1>  -0.1500 
  4 C       -2.4430    -0.1850    -0.1910 C.ar  1 <1>  -0.1500 
  5 C       -3.4650     2.3860    -0.1890 C.ar  1 <1>  -0.1500 
  6 C       -3.7330     0.0510     0.2470 C.ar  1 <1>  -0.1500 
  7 C       -4.2760     1.3390     0.2550 C.ar  1 <1>   0.0530 
  8 C       -5.6170     1.6010     0.7170 C.2   1 <1>   0.0870 
  9 O       -5.8540     2.6880     1.4080 O.3   1 <1>  -0.0190 
 10 C       -6.8000     0.9320     0.6150 C.2   1 <1>  -0.0860 
 11 N       -7.1000     2.7970     1.7840 N.2   1 <1>  -0.4100 
 12 C       -7.6870     1.7610     1.3150 C.2   1 <1>   0.3720 
 13 C       -7.1380    -0.3010    -0.0290 C.2   1 <1>   0.7160 
 14 N       -9.0460     1.5680     1.5260 N.pl3 1 <1>  -0.8520 
 15 O       -6.4230    -0.7800    -0.8900 O.2   1 <1>  -0.5700 
 16 N       -8.2890    -0.9420     0.3200 N.am  1 <1>  -0.5790 
 17 C       -9.9030     1.8690     0.3450 C.3   1 <1>   0.2090 
 18 C       -8.8910    -2.1210    -0.3070 C.3   1 <1>   0.0540 
 19 C      -11.2310     1.1180     0.4560 C.3   1 <1>   0.1200 
 20 C       -8.2190    -3.4310    -0.0730 C.3   1 <1>  -0.2000 
 21 C       -9.5100    -3.1090     0.6220 C.3   1 <1>  -0.2000 
 22 C       -9.5370    -1.8010    -1.6530 C.3   1 <1>  -0.1450 
 23 O      -11.9490     1.3150    -0.7210 O.3   1 <1>  -0.5600 
 24 C      -13.1770     0.6620    -0.7500 C.3   1 <1>   0.0400 
 25 H       -1.5540     2.9740    -0.9690 H     1 <1>   0.1500 
 26 H       -2.0350    -1.1800    -0.1980 H     1 <1>   0.1500 
 27 H       -3.8570     3.3890    -0.1910 H     1 <1>   0.1500 
 28 H       -4.3290    -0.7770     0.5870 H     1 <1>   0.1500 
 29 H       -9.3160     2.2060     2.2870 H     1 <1>   0.4000 
 30 H       -8.8820    -0.4330     0.9860 H     1 <1>   0.3700 
 31 H       -9.4040     1.5640    -0.5600 H     1 <1>   0.0800 
 32 H      -10.0910     2.9280     0.2960 H     1 <1>   0.0800 
 33 H      -11.8090     1.4970     1.2800 H     1 <1>   0.0800 
 34 H      -11.0560     0.0630     0.5740 H     1 <1>   0.0800 
 35 H       -7.2980    -3.4340     0.4840 H     1 <1>   0.1000 
 36 H       -8.2280    -4.1680    -0.8570 H     1 <1>   0.1000 
 37 H      -10.3880    -3.6500     0.3150 H     1 <1>   0.1000 
 38 H       -9.4850    -2.9270     1.6820 H     1 <1>   0.1000 
 39 H       -8.7900    -1.4480    -2.3410 H     1 <1>   0.0800 
 40 H      -10.2980    -1.0510    -1.5370 H     1 <1>   0.0800 
 41 H       -9.9870    -2.6830    -2.0700 H     1 <1>   0.0800 
 42 H      -13.6480     0.8770    -1.6930 H     1 <1>   0.0800 
 43 H      -13.7940     1.0270     0.0540 H     1 <1>   0.0800 
 44 H      -13.0200    -0.3990    -0.6570 H     1 <1>   0.0800 
@<TRIPOS>BOND
  1   1   2  1   
  2   2   3  ar  
  3   2   4  ar  
  4   3   5  ar  
  5   3  25  1   
  6   4   6  ar  
  7   4  26  1   
  8   5   7  ar  
  9   5  27  1   
 10   6   7  ar  
 11   6  28  1   
 12   7   8  1   
 13   8   9  1   
 14   8  10  2   
 15   9  11  1   
 16  10  12  1   
 17  10  13  1   
 18  11  12  2   
 19  12  14  1   
 20  13  15  2   
 21  13  16  am  
 22  14  17  1   
 23  14  29  1   
 24  16  18  1   
 25  16  30  1   
 26  17  19  1   
 27  17  31  1   
 28  17  32  1   
 29  18  20  1   
 30  18  21  1   
 31  18  22  1   
 32  19  23  1   
 33  19  33  1   
 34  19  34  1   
 35  20  21  1   
 36  20  35  1   
 37  20  36  1   
 38  21  37  1   
 39  21  38  1   
 40  22  39  1   
 41  22  40  1   
 42  22  41  1   
 43  23  24  1   
 44  24  42  1   
 45  24  43  1   
 46  24  44  1   
@<TRIPOS>SUBSTRUCTURE
  1 ****  10 GROUP 4 **** **** 0

# MOE 2024.06 (io_trps.svl 2023.06)
