@<TRIPOS>MOLECULE
NONAME
53 56 1 0 0 
SMALL
USER_CHARGES


@<TRIPOS>ATOM
  1 O       -0.8980     1.1650    -2.6200 O.2   1 <1>  -0.5700 
  2 C       -1.4610     1.0950    -1.5470 C.2   1 <1>   0.5440 
  3 N       -2.1910    -0.0320    -1.2270 N.am  1 <1>  -0.6600 
  4 C       -1.3490     2.2120    -0.6360 C.ar  1 <1>   0.0860 
  5 C       -2.2740    -1.1970    -2.1500 C.3   1 <1>   0.1400 
  6 C       -2.9940    -0.1830     0.0150 C.3   1 <1>   0.1400 
  7 C       -0.4820     2.1770     0.4610 C.ar  1 <1>   0.0730 
  8 C       -2.1150     3.3570    -0.8490 C.ar  1 <1>  -0.1500 
  9 C       -3.7330    -1.4490    -2.5390 C.3   1 <1>  -0.1600 
 10 C       -4.4670    -0.3580    -0.3510 C.3   1 <1>  -0.1600 
 11 C        0.3310     1.0250     0.7260 C.1   1 <1>   0.4840 
 12 C       -0.4150     3.2750     1.3130 C.ar  1 <1>  -0.1500 
 13 C       -2.0410     4.4410     0.0040 C.ar  1 <1>  -0.1500 
 14 C       -4.7400    -1.4800    -1.3740 C.3   1 <1>   0.4240 
 15 N        0.9680     0.1150     0.9840 N.1   1 <1>  -0.5570 
 16 C       -1.1880     4.4000     1.0900 C.ar  1 <1>  -0.1500 
 17 O       -5.9580    -1.1490    -1.9950 O.3   1 <1>  -0.5600 
 18 C       -4.8310    -2.8810    -0.7060 C.ar  1 <1>  -0.1430 
 19 C       -7.1370    -1.4400    -1.3160 C.3   1 <1>   0.1200 
 20 C       -6.0400    -3.5700    -0.6550 C.ar  1 <1>  -0.1430 
 21 C       -3.7240    -3.4940    -0.1300 C.ar  1 <1>  -0.1500 
 22 C       -7.2890    -2.9540    -1.2540 C.3   1 <1>  -0.0170 
 23 C       -6.1290    -4.8180    -0.0590 C.ar  1 <1>  -0.1500 
 24 C       -3.7900    -4.7420     0.4650 C.ar  1 <1>   0.0820 
 25 C       -5.0150    -5.4220     0.5150 C.ar  1 <1>   0.0820 
 26 O       -2.6080    -5.1970     0.9690 O.3   1 <1>  -0.3620 
 27 O       -5.1010    -6.6370     1.1330 O.3   1 <1>  -0.3620 
 28 C       -2.2950    -6.5720     0.9670 C.3   1 <1>   0.0400 
 29 C       -6.3360    -7.2830     1.3510 C.3   1 <1>   0.0400 
 30 H       -1.8390    -2.0580    -1.6810 H     1 <1>   0.0800 
 31 H       -1.7050    -1.0130    -3.0460 H     1 <1>   0.0800 
 32 H       -2.8960     0.6820     0.6460 H     1 <1>   0.0800 
 33 H       -2.6340    -1.0280     0.5740 H     1 <1>   0.0800 
 34 H       -2.7740     3.3890    -1.7010 H     1 <1>   0.1500 
 35 H       -3.7970    -2.3720    -3.0850 H     1 <1>   0.0800 
 36 H       -4.0090    -0.6560    -3.2110 H     1 <1>   0.0800 
 37 H       -4.8090     0.5750    -0.7610 H     1 <1>   0.0800 
 38 H       -5.0210    -0.5520     0.5480 H     1 <1>   0.0800 
 39 H        0.2500     3.2530     2.1600 H     1 <1>   0.1500 
 40 H       -2.6420     5.3160    -0.1790 H     1 <1>   0.1500 
 41 H       -1.1250     5.2430     1.7580 H     1 <1>   0.1500 
 42 H       -7.9520    -1.0020    -1.8650 H     1 <1>   0.0800 
 43 H       -7.1000    -1.0090    -0.3310 H     1 <1>   0.0800 
 44 H       -2.7660    -3.0220    -0.1240 H     1 <1>   0.1500 
 45 H       -7.4420    -3.3380    -2.2470 H     1 <1>   0.0800 
 46 H       -8.1510    -3.1970    -0.6590 H     1 <1>   0.0800 
 47 H       -7.0830    -5.3070    -0.0530 H     1 <1>   0.1500 
 48 H       -1.2280    -6.6730     1.0470 H     1 <1>   0.0800 
 49 H       -2.6410    -7.0120     0.0480 H     1 <1>   0.0800 
 50 H       -2.7680    -7.0360     1.8140 H     1 <1>   0.0800 
 51 H       -6.1470    -8.1810     1.9110 H     1 <1>   0.0800 
 52 H       -6.7730    -7.5310     0.4010 H     1 <1>   0.0800 
 53 H       -6.9770    -6.6290     1.9160 H     1 <1>   0.0800 
@<TRIPOS>BOND
  1   1   2  2   
  2   2   3  am  
  3   2   4  1   
  4   3   5  1   
  5   3   6  1   
  6   4   7  ar  
  7   4   8  ar  
  8   5   9  1   
  9   5  30  1   
 10   5  31  1   
 11   6  10  1   
 12   6  32  1   
 13   6  33  1   
 14   7  11  1   
 15   7  12  ar  
 16   8  13  ar  
 17   8  34  1   
 18   9  14  1   
 19   9  35  1   
 20   9  36  1   
 21  10  14  1   
 22  10  37  1   
 23  10  38  1   
 24  11  15  3   
 25  12  16  ar  
 26  12  39  1   
 27  13  16  ar  
 28  13  40  1   
 29  14  17  1   
 30  14  18  1   
 31  16  41  1   
 32  17  19  1   
 33  18  20  ar  
 34  18  21  ar  
 35  19  22  1   
 36  19  42  1   
 37  19  43  1   
 38  20  22  1   
 39  20  23  ar  
 40  21  24  ar  
 41  21  44  1   
 42  22  45  1   
 43  22  46  1   
 44  23  25  ar  
 45  23  47  1   
 46  24  25  ar  
 47  24  26  1   
 48  25  27  1   
 49  26  28  1   
 50  27  29  1   
 51  28  48  1   
 52  28  49  1   
 53  28  50  1   
 54  29  51  1   
 55  29  52  1   
 56  29  53  1   
@<TRIPOS>SUBSTRUCTURE
  1 ****   6 GROUP 4 **** **** 0

# MOE 2024.06 (io_trps.svl 2023.06)
