@<TRIPOS>MOLECULE
NONAME
51 53 1 0 0 
SMALL
USER_CHARGES


@<TRIPOS>ATOM
  1 CL      -0.6920    -1.0800    -2.2860 Cl    1 <1>  -0.1770 
  2 C       -1.5640    -1.3420    -0.7930 C.ar  1 <1>   0.1770 
  3 C       -2.0470    -2.6030    -0.4700 C.ar  1 <1>  -0.1440 
  4 C       -1.7490    -0.2510     0.0340 C.ar  1 <1>  -0.1500 
  5 C       -2.7770    -2.7680     0.7180 C.ar  1 <1>   0.0860 
  6 C       -1.7550    -3.7760    -1.4070 C.3   1 <1>  -0.0970 
  7 C       -2.4330    -0.4140     1.2230 C.ar  1 <1>  -0.1500 
  8 C       -3.3850    -4.0240     1.1240 C.2   1 <1>   0.5440 
  9 C       -2.9330    -1.6590     1.5530 C.ar  1 <1>  -0.1500 
 10 O       -3.0410    -4.5210     2.1790 O.2   1 <1>  -0.5700 
 11 N       -4.3460    -4.6790     0.3720 N.am  1 <1>  -0.6600 
 12 C       -5.2110    -4.0240    -0.6640 C.3   1 <1>   0.2200 
 13 C       -4.4120    -6.1730     0.4630 C.3   1 <1>   0.0600 
 14 C       -5.6690    -2.6170    -0.2750 C.3   1 <1>  -0.1600 
 15 C       -6.5410    -4.7560    -0.8620 C.3   1 <1>  -0.1600 
 16 C       -6.9560    -2.3520    -1.0670 C.3   1 <1>  -0.0800 
 17 C       -7.5030    -3.7280    -1.4680 C.3   1 <1>  -0.0800 
 18 C       -8.0520    -1.6680    -0.2390 C.3   1 <1>  -0.1600 
 19 C       -8.9230    -3.8150    -0.8950 C.3   1 <1>  -0.1600 
 20 C       -8.9180    -2.8220     0.2620 C.3   1 <1>   0.4230 
 21 N      -10.2900    -2.4310     0.7080 N.4   1 <1>  -0.9590 
 22 C      -11.1150    -1.7040    -0.3130 C.3   1 <1>   0.2630 
 23 C      -10.2220    -1.6380     1.9740 C.3   1 <1>   0.2630 
 24 H       -1.3560     0.7090    -0.2500 H     1 <1>   0.1500 
 25 H       -1.9260    -4.7240    -0.9320 H     1 <1>   0.0800 
 26 H       -0.7240    -3.7580    -1.7130 H     1 <1>   0.0800 
 27 H       -2.3730    -3.7100    -2.2840 H     1 <1>   0.0800 
 28 H       -2.5740     0.4230     1.8870 H     1 <1>   0.1500 
 29 H       -3.4600    -1.7890     2.4830 H     1 <1>   0.1500 
 30 H       -4.6860    -3.9860    -1.6040 H     1 <1>   0.0800 
 31 H       -4.4620    -6.6040    -0.5210 H     1 <1>   0.0800 
 32 H       -5.2740    -6.4670     1.0340 H     1 <1>   0.0800 
 33 H       -3.5350    -6.5610     0.9520 H     1 <1>   0.0800 
 34 H       -5.8620    -2.5930     0.7830 H     1 <1>   0.0800 
 35 H       -4.9310    -1.8760    -0.5250 H     1 <1>   0.0800 
 36 H       -6.4310    -5.6080    -1.5100 H     1 <1>   0.0800 
 37 H       -6.9090    -5.0780     0.0970 H     1 <1>   0.0800 
 38 H       -6.7240    -1.7740    -1.9470 H     1 <1>   0.0800 
 39 H       -7.5120    -3.8300    -2.5420 H     1 <1>   0.0800 
 40 H       -8.6060    -1.0230    -0.8950 H     1 <1>   0.0800 
 41 H       -7.6410    -1.0870     0.5680 H     1 <1>   0.0800 
 42 H       -9.1670    -4.8120    -0.5730 H     1 <1>   0.0800 
 43 H       -9.6100    -3.5110    -1.6640 H     1 <1>   0.0800 
 44 H       -8.3970    -3.2890     1.0840 H     1 <1>   0.0800 
 45 H      -10.7780    -3.3140     0.9230 H     1 <1>   0.4500 
 46 H      -10.6610    -0.7590    -0.5620 H     1 <1>   0.0800 
 47 H      -12.1040    -1.5160     0.0730 H     1 <1>   0.0800 
 48 H      -11.2100    -2.2890    -1.2130 H     1 <1>   0.0800 
 49 H       -9.7220    -0.6990     1.8010 H     1 <1>   0.0800 
 50 H       -9.6790    -2.1840     2.7290 H     1 <1>   0.0800 
 51 H      -11.2140    -1.4360     2.3440 H     1 <1>   0.0800 
@<TRIPOS>BOND
  1   1   2  1   
  2   2   3  ar  
  3   2   4  ar  
  4   3   5  ar  
  5   3   6  1   
  6   4   7  ar  
  7   4  24  1   
  8   5   8  1   
  9   5   9  ar  
 10   6  25  1   
 11   6  26  1   
 12   6  27  1   
 13   7   9  ar  
 14   7  28  1   
 15   8  10  2   
 16   8  11  am  
 17   9  29  1   
 18  11  12  1   
 19  11  13  1   
 20  12  14  1   
 21  12  15  1   
 22  12  30  1   
 23  13  31  1   
 24  13  32  1   
 25  13  33  1   
 26  14  16  1   
 27  14  34  1   
 28  14  35  1   
 29  15  17  1   
 30  15  36  1   
 31  15  37  1   
 32  16  17  1   
 33  16  18  1   
 34  16  38  1   
 35  17  19  1   
 36  17  39  1   
 37  18  20  1   
 38  18  40  1   
 39  18  41  1   
 40  19  20  1   
 41  19  42  1   
 42  19  43  1   
 43  20  21  1   
 44  20  44  1   
 45  21  22  1   
 46  21  23  1   
 47  21  45  1   
 48  22  46  1   
 49  22  47  1   
 50  22  48  1   
 51  23  49  1   
 52  23  50  1   
 53  23  51  1   
@<TRIPOS>SUBSTRUCTURE
  1 ****  14 GROUP 4 **** **** 0

# MOE 2024.06 (io_trps.svl 2023.06)
