@<TRIPOS>MOLECULE
NONAME
47 49 1 0 0 
SMALL
USER_CHARGES


@<TRIPOS>ATOM
  1 O       -1.7380    -1.4390     1.1750 O.2   1 <1>  -0.5700 
  2 C       -0.7130    -2.0610     1.3100 C.2   1 <1>   0.5690 
  3 N        0.3580    -2.0090     0.4880 N.am  1 <1>  -0.6600 
  4 C       -0.4670    -3.0030     2.4550 C.3   1 <1>  -0.0990 
  5 C        1.4350    -2.9170     0.9290 C.3   1 <1>   0.1400 
  6 C        0.4360    -1.2650    -0.7930 C.3   1 <1>   0.1400 
  7 C        0.7530    -3.8030     1.9860 C.3   1 <1>   0.2200 
  8 C        0.9440     0.1550    -0.5530 C.3   1 <1>   0.1200 
  9 N        0.2770    -5.0460     1.3430 N.am  1 <1>  -0.7300 
 10 O        1.1500     0.7640    -1.7890 O.3   1 <1>  -0.5600 
 11 C        1.0070    -6.1910     1.1950 C.2   1 <1>   0.5440 
 12 C        1.5390     2.0960    -1.7000 C.3   1 <1>   0.0400 
 13 O        2.1210    -6.2010     1.6830 O.2   1 <1>  -0.5700 
 14 C        0.4940    -7.3630     0.4920 C.ar  1 <1>   0.0860 
 15 C       -0.5200    -7.3160    -0.4880 C.ar  1 <1>   0.0000 
 16 C        1.0320    -8.6150     0.8000 C.ar  1 <1>  -0.1500 
 17 C       -1.1430    -6.0840    -0.9060 C.ar  1 <1>   0.0000 
 18 C       -0.9480    -8.4930    -1.0930 C.ar  1 <1>  -0.1500 
 19 C        0.6000    -9.7760     0.1890 C.ar  1 <1>  -0.1500 
 20 C       -2.3320    -5.6540    -0.3250 C.ar  1 <1>  -0.1500 
 21 C       -0.5470    -5.2730    -1.8670 C.ar  1 <1>  -0.1500 
 22 C       -0.3990    -9.7150    -0.7630 C.ar  1 <1>  -0.1500 
 23 C       -2.8930    -4.4380    -0.6690 C.ar  1 <1>  -0.1500 
 24 C       -1.1090    -4.0600    -2.2210 C.ar  1 <1>  -0.1500 
 25 C       -2.2800    -3.6380    -1.6160 C.ar  1 <1>  -0.1500 
 26 H       -1.3230    -3.6210     2.6520 H     1 <1>   0.0800 
 27 H       -0.2250    -2.4220     3.3250 H     1 <1>   0.0800 
 28 H        2.2260    -2.3400     1.3740 H     1 <1>   0.0800 
 29 H        1.8210    -3.5030     0.1120 H     1 <1>   0.0800 
 30 H       -0.5450    -1.2160    -1.2320 H     1 <1>   0.0800 
 31 H        1.0960    -1.7810    -1.4680 H     1 <1>   0.0800 
 32 H        1.4220    -4.0440     2.7960 H     1 <1>   0.0800 
 33 H        1.8790     0.1350    -0.0230 H     1 <1>   0.0800 
 34 H        0.2090     0.7170    -0.0030 H     1 <1>   0.0800 
 35 H       -0.5490    -4.9230     0.7450 H     1 <1>   0.3700 
 36 H        1.6770     2.4710    -2.6990 H     1 <1>   0.0800 
 37 H        2.4650     2.1610    -1.1560 H     1 <1>   0.0800 
 38 H        0.7660     2.6590    -1.2050 H     1 <1>   0.0800 
 39 H        1.8120    -8.6790     1.5400 H     1 <1>   0.1500 
 40 H       -1.7240    -8.4470    -1.8380 H     1 <1>   0.1500 
 41 H        1.0380   -10.7230     0.4530 H     1 <1>   0.1500 
 42 H       -2.8140    -6.2750     0.4110 H     1 <1>   0.1500 
 43 H        0.3680    -5.5940    -2.3340 H     1 <1>   0.1500 
 44 H       -0.7430   -10.6150    -1.2440 H     1 <1>   0.1500 
 45 H       -3.8040    -4.1070    -0.2010 H     1 <1>   0.1500 
 46 H       -0.6370    -3.4410    -2.9640 H     1 <1>   0.1500 
 47 H       -2.7140    -2.6870    -1.8770 H     1 <1>   0.1500 
@<TRIPOS>BOND
  1   1   2  2   
  2   2   3  am  
  3   2   4  1   
  4   3   5  1   
  5   3   6  1   
  6   4   7  1   
  7   4  26  1   
  8   4  27  1   
  9   5   7  1   
 10   5  28  1   
 11   5  29  1   
 12   6   8  1   
 13   6  30  1   
 14   6  31  1   
 15   7   9  1   
 16   7  32  1   
 17   8  10  1   
 18   8  33  1   
 19   8  34  1   
 20   9  11  am  
 21   9  35  1   
 22  10  12  1   
 23  11  13  2   
 24  11  14  1   
 25  12  36  1   
 26  12  37  1   
 27  12  38  1   
 28  14  15  ar  
 29  14  16  ar  
 30  15  17  1   
 31  15  18  ar  
 32  16  19  ar  
 33  16  39  1   
 34  17  20  ar  
 35  17  21  ar  
 36  18  22  ar  
 37  18  40  1   
 38  19  22  ar  
 39  19  41  1   
 40  20  23  ar  
 41  20  42  1   
 42  21  24  ar  
 43  21  43  1   
 44  22  44  1   
 45  23  25  ar  
 46  23  45  1   
 47  24  25  ar  
 48  24  46  1   
 49  25  47  1   
@<TRIPOS>SUBSTRUCTURE
  1 ****   9 GROUP 4 **** **** 0

# MOE 2024.06 (io_trps.svl 2023.06)
