@<TRIPOS>MOLECULE
NONAME
46 49 1 0 0 
SMALL
USER_CHARGES


@<TRIPOS>ATOM
  1 O        2.3560     1.0090     1.7330 O.3   1 <1>  -0.6800 
  2 C        1.7210     0.0850     0.9100 C.3   1 <1>   0.2000 
  3 C        2.3520    -1.2930     1.1390 C.3   1 <1>  -0.0800 
  4 C        2.0690     0.4210    -0.5440 C.3   1 <1>   0.3430 
  5 C        3.3050    -1.5220    -0.0500 C.3   1 <1>   0.3430 
  6 C        1.2970    -2.4090     1.2670 C.3   1 <1>  -0.0170 
  7 N        3.3920    -0.2350    -0.8050 N.4   1 <1>  -0.9590 
  8 C        1.9710    -3.7780     1.2580 C.ar  1 <1>  -0.1440 
  9 C        4.5640     0.5610    -0.2890 C.3   1 <1>   0.3430 
 10 C        2.0720    -4.5960     0.1040 C.ar  1 <1>   0.0000 
 11 C        2.5350    -4.2410     2.4110 C.ar  1 <1>  -0.1500 
 12 C        4.7030     1.9450    -0.9350 C.3   1 <1>   0.0960 
 13 C        2.8060    -5.8040     0.2230 C.ar  1 <1>   0.3100 
 14 C        1.5000    -4.2990    -1.1570 C.ar  1 <1>  -0.1500 
 15 C        3.2160    -5.4630     2.4240 C.ar  1 <1>   0.1600 
 16 N        5.9060     2.5900    -0.3880 N.pl3 1 <1>   0.0480 
 17 N        3.3700    -6.2150     1.3830 N.ar  1 <1>  -0.6200 
 18 C        2.9670    -6.6200    -0.9080 C.ar  1 <1>  -0.1500 
 19 C        1.6710    -5.1200    -2.2390 C.ar  1 <1>  -0.1500 
 20 C        6.0460     3.2310     0.7740 C.2   1 <1>   0.0360 
 21 C        7.1390     2.6270    -0.8950 C.2   1 <1>   0.0360 
 22 C        2.4190    -6.2930    -2.1170 C.ar  1 <1>  -0.1500 
 23 N        7.2600     3.6140     0.9620 N.2   1 <1>  -0.3380 
 24 N        7.9590     3.2270    -0.1070 N.2   1 <1>  -0.3380 
 25 H        2.0270     0.9460     2.6570 H     1 <1>   0.4000 
 26 H        0.6600     0.1290     1.0970 H     1 <1>   0.0800 
 27 H        2.9370    -1.2930     2.0430 H     1 <1>   0.0800 
 28 H        2.0900     1.4860    -0.7030 H     1 <1>   0.0800 
 29 H        1.3230    -0.0150    -1.1880 H     1 <1>   0.0800 
 30 H        2.8990    -2.2830    -0.6940 H     1 <1>   0.0800 
 31 H        4.2750    -1.8510     0.2900 H     1 <1>   0.0800 
 32 H        0.5540    -2.3360     0.4950 H     1 <1>   0.0800 
 33 H        0.7730    -2.2890     2.2010 H     1 <1>   0.0800 
 34 H        3.5140    -0.4310    -1.8090 H     1 <1>   0.4500 
 35 H        4.4670     0.6900     0.7770 H     1 <1>   0.0800 
 36 H        5.4710     0.0060    -0.4700 H     1 <1>   0.0800 
 37 H        2.4830    -3.6910     3.3330 H     1 <1>   0.1500 
 38 H        3.8570     2.5650    -0.7020 H     1 <1>   0.0800 
 39 H        4.8110     1.8600    -2.0010 H     1 <1>   0.0800 
 40 H        0.9010    -3.4200    -1.2870 H     1 <1>   0.1500 
 41 H        3.6460    -5.7950     3.3550 H     1 <1>   0.1500 
 42 H        3.5380    -7.5230    -0.7880 H     1 <1>   0.1500 
 43 H        1.2300    -4.8860    -3.1930 H     1 <1>   0.1500 
 44 H        5.2420     3.4010     1.4670 H     1 <1>   0.1500 
 45 H        7.4130     2.2040    -1.8450 H     1 <1>   0.1500 
 46 H        2.5490    -6.9320    -2.9740 H     1 <1>   0.1500 
@<TRIPOS>BOND
  1   1   2  1   
  2   1  25  1   
  3   2   3  1   
  4   2   4  1   
  5   2  26  1   
  6   3   5  1   
  7   3   6  1   
  8   3  27  1   
  9   4   7  1   
 10   4  28  1   
 11   4  29  1   
 12   5   7  1   
 13   5  30  1   
 14   5  31  1   
 15   6   8  1   
 16   6  32  1   
 17   6  33  1   
 18   7   9  1   
 19   7  34  1   
 20   8  10  ar  
 21   8  11  ar  
 22   9  12  1   
 23   9  35  1   
 24   9  36  1   
 25  10  13  ar  
 26  10  14  ar  
 27  11  15  ar  
 28  11  37  1   
 29  12  16  1   
 30  12  38  1   
 31  12  39  1   
 32  13  17  ar  
 33  13  18  ar  
 34  14  19  ar  
 35  14  40  1   
 36  15  17  ar  
 37  15  41  1   
 38  16  20  1   
 39  16  21  1   
 40  18  22  ar  
 41  18  42  1   
 42  19  22  ar  
 43  19  43  1   
 44  20  23  2   
 45  20  44  1   
 46  21  24  2   
 47  21  45  1   
 48  22  46  1   
 49  23  24  1   
@<TRIPOS>SUBSTRUCTURE
  1 ****   5 GROUP 4 **** **** 0

# MOE 2024.06 (io_trps.svl 2023.06)
