@<TRIPOS>MOLECULE
NONAME
36 36 1 0 0 
SMALL
USER_CHARGES


@<TRIPOS>ATOM
  1 S        0.4950     0.2250     0.0350 S.3   1 <1>  -0.4600 
  2 C        0.4570     2.0300    -0.1310 C.3   1 <1>   0.0700 
  3 C       -0.7730    -0.3180    -1.1360 C.3   1 <1>   0.0700 
  4 C        1.4970     2.6110     0.8290 C.3   1 <1>  -0.0990 
  5 C       -0.8270    -1.8420    -1.0820 C.3   1 <1>  -0.2400 
  6 C        1.5540     4.1300     0.7860 C.2   1 <1>   0.5690 
  7 O        0.6930     4.7250     0.1800 O.2   1 <1>  -0.5700 
  8 N        2.5620     4.7960     1.4330 N.am  1 <1>  -0.6600 
  9 C        2.7070     6.2830     1.2790 C.3   1 <1>   0.3200 
 10 C        3.6150     4.1260     2.2520 C.3   1 <1>   0.0600 
 11 C        3.9680     6.7230     0.5350 C.2   1 <1>   0.2980 
 12 O        4.1330     7.9820     0.2800 O.3   1 <1>  -0.2800 
 13 N        4.9490     6.0170     0.1070 N.2   1 <1>  -0.3380 
 14 C        5.2700     8.0300    -0.3360 C.2   1 <1>   0.2980 
 15 N        5.8000     6.8730    -0.4610 N.2   1 <1>  -0.3380 
 16 C        5.8010     9.3760    -0.8070 C.3   1 <1>   0.0200 
 17 C        7.1620     9.2840    -1.5120 C.3   1 <1>  -0.2400 
 18 H       -0.5370     2.3600     0.1170 H     1 <1>   0.0800 
 19 H        0.6850     2.2720    -1.1540 H     1 <1>   0.0800 
 20 H       -0.4890     0.0360    -2.1110 H     1 <1>   0.0800 
 21 H       -1.7070     0.1250    -0.8330 H     1 <1>   0.0800 
 22 H        2.4620     2.2190     0.5650 H     1 <1>   0.0800 
 23 H        1.2570     2.3060     1.8290 H     1 <1>   0.0800 
 24 H        0.1280    -2.2550    -1.3540 H     1 <1>   0.0800 
 25 H       -1.5710    -2.2080    -1.7650 H     1 <1>   0.0800 
 26 H       -1.0790    -2.1670    -0.0880 H     1 <1>   0.0800 
 27 H        2.7160     6.7310     2.2550 H     1 <1>   0.0800 
 28 H        1.8610     6.6880     0.7530 H     1 <1>   0.0800 
 29 H        3.2070     3.2850     2.7830 H     1 <1>   0.0800 
 30 H        4.0230     4.8150     2.9710 H     1 <1>   0.0800 
 31 H        4.4100     3.7850     1.6100 H     1 <1>   0.0800 
 32 H        5.8880    10.0230     0.0470 H     1 <1>   0.0800 
 33 H        5.0820     9.8070    -1.4790 H     1 <1>   0.0800 
 34 H        7.8980     8.8670    -0.8470 H     1 <1>   0.0800 
 35 H        7.4890    10.2610    -1.8220 H     1 <1>   0.0800 
 36 H        7.0880     8.6520    -2.3800 H     1 <1>   0.0800 
@<TRIPOS>BOND
  1   1   2  1   
  2   1   3  1   
  3   2   4  1   
  4   2  18  1   
  5   2  19  1   
  6   3   5  1   
  7   3  20  1   
  8   3  21  1   
  9   4   6  1   
 10   4  22  1   
 11   4  23  1   
 12   5  24  1   
 13   5  25  1   
 14   5  26  1   
 15   6   7  2   
 16   6   8  am  
 17   8   9  1   
 18   8  10  1   
 19   9  11  1   
 20   9  27  1   
 21   9  28  1   
 22  10  29  1   
 23  10  30  1   
 24  10  31  1   
 25  11  12  1   
 26  11  13  2   
 27  12  14  1   
 28  13  15  1   
 29  14  15  2   
 30  14  16  1   
 31  16  17  1   
 32  16  32  1   
 33  16  33  1   
 34  17  34  1   
 35  17  35  1   
 36  17  36  1   
@<TRIPOS>SUBSTRUCTURE
  1 ****   8 GROUP 4 **** **** 0

# MOE 2024.06 (io_trps.svl 2023.06)
