@<TRIPOS>MOLECULE
NONAME
44 45 1 0 0 
SMALL
USER_CHARGES


@<TRIPOS>ATOM
  1 CL       1.3520     0.7460     0.7710 Cl    1 <1>  -0.1770 
  2 C        2.1850    -0.7030     0.2720 C.ar  1 <1>   0.1770 
  3 C        1.4560    -1.8260    -0.0560 C.ar  1 <1>  -0.1500 
  4 C        3.5640    -0.7030     0.2160 C.ar  1 <1>  -0.1500 
  5 C        2.0940    -3.0010    -0.4500 C.ar  1 <1>   0.0860 
  6 C        4.2160    -1.8550    -0.1870 C.ar  1 <1>  -0.1500 
  7 C        3.4980    -2.9930    -0.5250 C.ar  1 <1>  -0.1440 
  8 C        1.2810    -4.1640    -0.7560 C.2   1 <1>   0.5440 
  9 C        4.2760    -4.2180    -0.9940 C.3   1 <1>  -0.0960 
 10 O        0.3560    -4.0880    -1.5400 O.2   1 <1>  -0.5700 
 11 N        1.5020    -5.3540    -0.1280 N.am  1 <1>  -0.7300 
 12 C        0.7250    -6.5910    -0.3680 C.3   1 <1>   0.2200 
 13 C       -0.5260    -6.5790     0.5140 C.3   1 <1>  -0.0800 
 14 C        1.4960    -7.8050     0.1430 C.3   1 <1>   0.1200 
 15 C       -0.2830    -7.7160     1.5150 C.3   1 <1>   0.1200 
 16 C       -1.8460    -6.6200    -0.2910 C.3   1 <1>  -0.0550 
 17 O        1.0840    -7.9600     1.4620 O.3   1 <1>  -0.5600 
 18 S       -2.2260    -8.1190    -1.2120 S.o2  1 <1>   1.3330 
 19 O       -0.9990    -8.6860    -1.7260 O.2   1 <1>  -0.6500 
 20 O       -3.3170    -7.8470    -2.1200 O.2   1 <1>  -0.6500 
 21 N       -2.8310    -9.1740    -0.0240 N.am  1 <1>  -0.8490 
 22 C       -2.5930   -10.5820    -0.3570 C.3   1 <1>   0.1160 
 23 C       -4.2540    -8.9690     0.2700 C.3   1 <1>   0.1160 
 24 H        0.3830    -1.7940    -0.0080 H     1 <1>   0.1500 
 25 H        4.1120     0.1830     0.4790 H     1 <1>   0.1500 
 26 H        5.2920    -1.8530    -0.2390 H     1 <1>   0.1500 
 27 H        5.2750    -3.9500    -1.2880 H     1 <1>   0.0800 
 28 H        3.7920    -4.6670    -1.8450 H     1 <1>   0.0800 
 29 H        4.3370    -4.9440    -0.2040 H     1 <1>   0.0800 
 30 H        2.1250    -5.3930     0.6810 H     1 <1>   0.3700 
 31 H        0.5100    -6.6840    -1.4200 H     1 <1>   0.0800 
 32 H       -0.5440    -5.6650     1.0810 H     1 <1>   0.0800 
 33 H        2.5630    -7.6750     0.1050 H     1 <1>   0.0800 
 34 H        1.2150    -8.6920    -0.3990 H     1 <1>   0.0800 
 35 H       -0.7770    -8.6290     1.2440 H     1 <1>   0.0800 
 36 H       -0.5500    -7.4420     2.5210 H     1 <1>   0.0800 
 37 H       -1.8100    -5.8050    -0.9900 H     1 <1>   0.0800 
 38 H       -2.6580    -6.4130     0.3770 H     1 <1>   0.0800 
 39 H       -2.9810   -11.2210     0.4170 H     1 <1>   0.0800 
 40 H       -1.5360   -10.7670    -0.4470 H     1 <1>   0.0800 
 41 H       -3.0680   -10.8300    -1.2930 H     1 <1>   0.0800 
 42 H       -4.5560    -9.5930     1.0930 H     1 <1>   0.0800 
 43 H       -4.8560    -9.2120    -0.5920 H     1 <1>   0.0800 
 44 H       -4.4370    -7.9430     0.5370 H     1 <1>   0.0800 
@<TRIPOS>BOND
  1   1   2  1   
  2   2   3  ar  
  3   2   4  ar  
  4   3   5  ar  
  5   3  24  1   
  6   4   6  ar  
  7   4  25  1   
  8   5   7  ar  
  9   5   8  1   
 10   6   7  ar  
 11   6  26  1   
 12   7   9  1   
 13   8  10  2   
 14   8  11  am  
 15   9  27  1   
 16   9  28  1   
 17   9  29  1   
 18  11  12  1   
 19  11  30  1   
 20  12  13  1   
 21  12  14  1   
 22  12  31  1   
 23  13  15  1   
 24  13  16  1   
 25  13  32  1   
 26  14  17  1   
 27  14  33  1   
 28  14  34  1   
 29  15  17  1   
 30  15  35  1   
 31  15  36  1   
 32  16  18  1   
 33  16  37  1   
 34  16  38  1   
 35  18  19  2   
 36  18  20  2   
 37  18  21  am  
 38  21  22  1   
 39  21  23  1   
 40  22  39  1   
 41  22  40  1   
 42  22  41  1   
 43  23  42  1   
 44  23  43  1   
 45  23  44  1   
@<TRIPOS>SUBSTRUCTURE
  1 ****  11 GROUP 4 **** **** 0

# MOE 2024.06 (io_trps.svl 2023.06)
