@<TRIPOS>MOLECULE
NONAME
38 40 1 0 0 
SMALL
USER_CHARGES


@<TRIPOS>ATOM
  1 N        0.6210    -0.1510     0.7080 N.4   1 <1>  -0.9590 
  2 C        1.0760    -0.7460    -0.6100 C.3   1 <1>   0.4230 
  3 C       -0.8670    -0.0550     0.7790 C.3   1 <1>   0.3430 
  4 C        1.1890     1.2060     1.0090 C.3   1 <1>   0.2630 
  5 C        0.4640    -2.1500    -0.7500 C.3   1 <1>  -0.1600 
  6 C        2.6060    -0.8560    -0.8000 C.3   1 <1>   0.0960 
  7 C       -1.4910    -1.4450     0.6640 C.3   1 <1>  -0.1600 
  8 C       -1.0640    -2.1400    -0.6310 C.3   1 <1>  -0.1600 
  9 N        3.2240     0.4630    -1.0280 N.pl3 1 <1>   0.0480 
 10 C        4.1150     1.0990    -0.1950 C.ar  1 <1>  -0.1520 
 11 C        2.8440     1.3550    -1.9930 C.2   1 <1>  -0.3020 
 12 C        4.2690     2.4090    -0.6400 C.ar  1 <1>   0.0000 
 13 C        4.8080     0.6510     0.9360 C.ar  1 <1>  -0.1500 
 14 C        3.4600     2.5410    -1.7870 C.2   1 <1>  -0.1500 
 15 C        5.1050     3.2890     0.0520 C.ar  1 <1>  -0.1500 
 16 C        5.6270     1.5270     1.6090 C.ar  1 <1>  -0.1500 
 17 C        5.7740     2.8480     1.1690 C.ar  1 <1>  -0.1500 
 18 H        0.9140    -0.7930     1.4550 H     1 <1>   0.4500 
 19 H        0.6900    -0.1400    -1.4140 H     1 <1>   0.0800 
 20 H       -1.2310     0.5690    -0.0220 H     1 <1>   0.0800 
 21 H       -1.1640     0.3900     1.7150 H     1 <1>   0.0800 
 22 H        1.0790     1.8600     0.1590 H     1 <1>   0.0800 
 23 H        2.2360     1.1320     1.2510 H     1 <1>   0.0800 
 24 H        0.6860     1.6470     1.8530 H     1 <1>   0.0800 
 25 H        0.8790    -2.8030    -0.0010 H     1 <1>   0.0800 
 26 H        0.7250    -2.5590    -1.7110 H     1 <1>   0.0800 
 27 H        2.8170    -1.4550    -1.6670 H     1 <1>   0.0800 
 28 H        3.0560    -1.3320     0.0500 H     1 <1>   0.0800 
 29 H       -2.5630    -1.3510     0.6800 H     1 <1>   0.0800 
 30 H       -1.2080    -2.0390     1.5160 H     1 <1>   0.0800 
 31 H       -1.4400    -3.1510    -0.6450 H     1 <1>   0.0800 
 32 H       -1.4900    -1.6220    -1.4750 H     1 <1>   0.0800 
 33 H        2.1600     1.1020    -2.7850 H     1 <1>   0.1500 
 34 H        4.7140    -0.3650     1.2740 H     1 <1>   0.1500 
 35 H        3.3850     3.4460    -2.3660 H     1 <1>   0.1500 
 36 H        5.2140     4.2990    -0.3020 H     1 <1>   0.1500 
 37 H        6.1720     1.2060     2.4810 H     1 <1>   0.1500 
 38 H        6.4230     3.5130     1.7120 H     1 <1>   0.1500 
@<TRIPOS>BOND
  1   1   2  1   
  2   1   3  1   
  3   1   4  1   
  4   1  18  1   
  5   2   5  1   
  6   2   6  1   
  7   2  19  1   
  8   3   7  1   
  9   3  20  1   
 10   3  21  1   
 11   4  22  1   
 12   4  23  1   
 13   4  24  1   
 14   5   8  1   
 15   5  25  1   
 16   5  26  1   
 17   6   9  1   
 18   6  27  1   
 19   6  28  1   
 20   7   8  1   
 21   7  29  1   
 22   7  30  1   
 23   8  31  1   
 24   8  32  1   
 25   9  10  1   
 26   9  11  1   
 27  10  12  ar  
 28  10  13  ar  
 29  11  14  2   
 30  11  33  1   
 31  12  14  1   
 32  12  15  ar  
 33  13  16  ar  
 34  13  34  1   
 35  14  35  1   
 36  15  17  ar  
 37  15  36  1   
 38  16  17  ar  
 39  16  37  1   
 40  17  38  1   
@<TRIPOS>SUBSTRUCTURE
  1 ****   9 GROUP 4 **** **** 0

# MOE 2024.06 (io_trps.svl 2023.06)
