@<TRIPOS>MOLECULE
NONAME
47 49 1 0 0 
SMALL
USER_CHARGES


@<TRIPOS>ATOM
  1 S       -0.1580     0.3080    -0.7460 S.o2  1 <1>   1.3330 
  2 O        0.1260     1.1630    -1.8760 O.2   1 <1>  -0.6500 
  3 O       -0.9030    -0.9150    -0.9420 O.2   1 <1>  -0.6500 
  4 N        1.3230    -0.1210    -0.0300 N.am  1 <1>  -0.8490 
  5 C       -0.9630     1.2770     0.5380 C.3   1 <1>  -0.0550 
  6 C        1.2380    -1.3070     0.8310 C.3   1 <1>   0.1160 
  7 C        2.3900    -0.3050    -1.0200 C.3   1 <1>   0.1160 
  8 C       -0.4930     2.7380     0.7250 C.3   1 <1>  -0.0800 
  9 C       -0.9850     3.6920    -0.3660 C.3   1 <1>   0.2000 
 10 C        1.0150     2.9810     0.7900 C.3   1 <1>   0.1400 
 11 O       -2.2600     4.1310    -0.0400 O.3   1 <1>  -0.6800 
 12 C        0.0140     4.8530    -0.3900 C.3   1 <1>   0.1400 
 13 N        1.1690     4.4080     0.4340 N.am  1 <1>  -0.6600 
 14 C        2.3020     5.1400     0.7460 C.2   1 <1>   0.7160 
 15 O        3.1590     4.5800     1.4100 O.2   1 <1>  -0.5700 
 16 C        2.5360     6.5190     0.3390 C.2   1 <1>   0.1410 
 17 N        1.6930     7.2830    -0.3920 N.2   1 <1>  -0.2270 
 18 C        3.6190     7.2820     0.6120 C.2   1 <1>  -0.3020 
 19 N        2.2180     8.4400    -0.5610 N.2   1 <1>  -0.4180 
 20 N        3.4190     8.4730     0.0460 N.pl3 1 <1>   0.5930 
 21 C        4.2810     9.6090     0.0630 C.ar  1 <1>  -0.0230 
 22 C        3.7570    10.8990     0.0210 C.ar  1 <1>  -0.1500 
 23 C        5.6660     9.4590     0.1230 C.ar  1 <1>  -0.1500 
 24 C        4.5890    12.0050     0.0450 C.ar  1 <1>  -0.1500 
 25 C        6.4980    10.5640     0.1470 C.ar  1 <1>  -0.1500 
 26 C        5.9600    11.8380     0.1080 C.ar  1 <1>  -0.1500 
 27 H       -2.0150     1.3040     0.3280 H     1 <1>   0.0800 
 28 H       -0.8480     0.7630     1.4710 H     1 <1>   0.0800 
 29 H        2.1780    -1.4700     1.3300 H     1 <1>   0.0800 
 30 H        0.9950    -2.1800     0.2460 H     1 <1>   0.0800 
 31 H        0.4760    -1.1720     1.5780 H     1 <1>   0.0800 
 32 H        3.3140    -0.5610    -0.5300 H     1 <1>   0.0800 
 33 H        2.5450     0.6070    -1.5710 H     1 <1>   0.0800 
 34 H        2.1260    -1.0870    -1.7130 H     1 <1>   0.0800 
 35 H       -0.8850     3.0810     1.6670 H     1 <1>   0.0800 
 36 H       -1.0300     3.2290    -1.3350 H     1 <1>   0.0800 
 37 H        1.5520     2.4030     0.0610 H     1 <1>   0.0800 
 38 H        1.4100     2.7750     1.7710 H     1 <1>   0.0800 
 39 H       -2.2390     4.6570     0.7830 H     1 <1>   0.4000 
 40 H       -0.4170     5.7440     0.0320 H     1 <1>   0.0800 
 41 H        0.3370     5.0440    -1.4000 H     1 <1>   0.0800 
 42 H        4.4960     7.0290     1.1760 H     1 <1>   0.1500 
 43 H        2.6910    11.0430    -0.0300 H     1 <1>   0.1500 
 44 H        6.1060     8.4770     0.1470 H     1 <1>   0.1500 
 45 H        4.1680    12.9950     0.0120 H     1 <1>   0.1500 
 46 H        7.5660    10.4350     0.1940 H     1 <1>   0.1500 
 47 H        6.6080    12.6990     0.1260 H     1 <1>   0.1500 
@<TRIPOS>BOND
  1   1   2  2   
  2   1   3  2   
  3   1   4  am  
  4   1   5  1   
  5   4   6  1   
  6   4   7  1   
  7   5   8  1   
  8   5  27  1   
  9   5  28  1   
 10   6  29  1   
 11   6  30  1   
 12   6  31  1   
 13   7  32  1   
 14   7  33  1   
 15   7  34  1   
 16   8   9  1   
 17   8  10  1   
 18   8  35  1   
 19   9  11  1   
 20   9  12  1   
 21   9  36  1   
 22  10  13  1   
 23  10  37  1   
 24  10  38  1   
 25  11  39  1   
 26  12  13  1   
 27  12  40  1   
 28  12  41  1   
 29  13  14  am  
 30  14  15  2   
 31  14  16  1   
 32  16  17  1   
 33  16  18  2   
 34  17  19  2   
 35  18  20  1   
 36  18  42  1   
 37  19  20  1   
 38  20  21  1   
 39  21  22  ar  
 40  21  23  ar  
 41  22  24  ar  
 42  22  43  1   
 43  23  25  ar  
 44  23  44  1   
 45  24  26  ar  
 46  24  45  1   
 47  25  26  ar  
 48  25  46  1   
 49  26  47  1   
@<TRIPOS>SUBSTRUCTURE
  1 ****  14 GROUP 4 **** **** 0

# MOE 2024.06 (io_trps.svl 2023.06)
