@<TRIPOS>MOLECULE
NONAME
43 44 1 0 0 
SMALL
USER_CHARGES


@<TRIPOS>ATOM
  1 S        0.0490     0.1570    -0.9350 S.o2  1 <1>   1.3330 
  2 O       -1.1930     0.5140    -1.5830 O.2   1 <1>  -0.6500 
  3 O        1.1520    -0.3320    -1.7320 O.2   1 <1>  -0.6500 
  4 N       -0.3290    -1.0370     0.2150 N.am  1 <1>  -0.8490 
  5 C        0.6080     1.5420     0.0700 C.3   1 <1>  -0.0550 
  6 C       -0.1810    -2.3930    -0.3240 C.3   1 <1>   0.1160 
  7 C       -1.6650    -0.8830     0.8010 C.3   1 <1>   0.1160 
  8 C        2.0650     1.5110     0.5830 C.3   1 <1>  -0.0800 
  9 C        3.1050     1.6740    -0.5290 C.3   1 <1>   0.2200 
 10 C        2.5150     0.2470     1.3240 C.3   1 <1>   0.1200 
 11 N        3.8280     2.9510    -0.3410 N.am  1 <1>  -0.7300 
 12 C        4.0350     0.4810    -0.3190 C.3   1 <1>   0.1200 
 13 O        3.8600     0.1060     1.0100 O.3   1 <1>  -0.5600 
 14 C        3.4120     4.1780    -0.7800 C.2   1 <1>   0.5440 
 15 O        2.3430     4.2330    -1.3660 O.2   1 <1>  -0.5700 
 16 C        4.2200     5.3760    -0.5320 C.ar  1 <1>   0.3960 
 17 N        5.3550     5.2600     0.1830 N.ar  1 <1>  -0.6200 
 18 C        3.8040     6.6110    -1.0320 C.ar  1 <1>  -0.1500 
 19 C        6.0580     6.3560     0.3910 C.ar  1 <1>   0.1670 
 20 C        4.5430     7.7510    -0.8110 C.ar  1 <1>  -0.1500 
 21 C        5.6990     7.6090    -0.0780 C.ar  1 <1>  -0.1500 
 22 C        7.3270     6.1830     1.1980 C.3   1 <1>  -0.0970 
 23 H        0.4990     2.4380    -0.5130 H     1 <1>   0.0800 
 24 H       -0.0480     1.6430     0.9110 H     1 <1>   0.0800 
 25 H       -0.4200    -3.1240     0.4290 H     1 <1>   0.0800 
 26 H        0.8360    -2.5570    -0.6390 H     1 <1>   0.0800 
 27 H       -0.8310    -2.5310    -1.1730 H     1 <1>   0.0800 
 28 H       -1.8100    -1.6040     1.5870 H     1 <1>   0.0800 
 29 H       -2.4250    -1.0260     0.0500 H     1 <1>   0.0800 
 30 H       -1.7780     0.1020     1.2200 H     1 <1>   0.0800 
 31 H        2.1690     2.3270     1.2770 H     1 <1>   0.0800 
 32 H        2.6780     1.6490    -1.5180 H     1 <1>   0.0800 
 33 H        2.0170    -0.6410     0.9820 H     1 <1>   0.0800 
 34 H        2.4100     0.3350     2.3920 H     1 <1>   0.0800 
 35 H        4.6670     2.9190     0.2470 H     1 <1>   0.3700 
 36 H        5.0690     0.7160    -0.4980 H     1 <1>   0.0800 
 37 H        3.7300    -0.3460    -0.9370 H     1 <1>   0.0800 
 38 H        2.8920     6.6670    -1.5990 H     1 <1>   0.1500 
 39 H        4.2310     8.7090    -1.1920 H     1 <1>   0.1500 
 40 H        6.3150     8.4660     0.1250 H     1 <1>   0.1500 
 41 H        7.8410     7.1190     1.3220 H     1 <1>   0.0800 
 42 H        7.9800     5.4920     0.6980 H     1 <1>   0.0800 
 43 H        7.0850     5.7890     2.1680 H     1 <1>   0.0800 
@<TRIPOS>BOND
  1   1   2  2   
  2   1   3  2   
  3   1   4  am  
  4   1   5  1   
  5   4   6  1   
  6   4   7  1   
  7   5   8  1   
  8   5  23  1   
  9   5  24  1   
 10   6  25  1   
 11   6  26  1   
 12   6  27  1   
 13   7  28  1   
 14   7  29  1   
 15   7  30  1   
 16   8   9  1   
 17   8  10  1   
 18   8  31  1   
 19   9  11  1   
 20   9  12  1   
 21   9  32  1   
 22  10  13  1   
 23  10  33  1   
 24  10  34  1   
 25  11  14  am  
 26  11  35  1   
 27  12  13  1   
 28  12  36  1   
 29  12  37  1   
 30  14  15  2   
 31  14  16  1   
 32  16  17  ar  
 33  16  18  ar  
 34  17  19  ar  
 35  18  20  ar  
 36  18  38  1   
 37  19  21  ar  
 38  19  22  1   
 39  20  21  ar  
 40  20  39  1   
 41  21  40  1   
 42  22  41  1   
 43  22  42  1   
 44  22  43  1   
@<TRIPOS>SUBSTRUCTURE
  1 ****   9 GROUP 4 **** **** 0

# MOE 2024.06 (io_trps.svl 2023.06)
