@<TRIPOS>MOLECULE
NONAME
46 48 1 0 0 
SMALL
USER_CHARGES


@<TRIPOS>ATOM
  1 F       -0.5560    -1.7980     2.8320 F     1 <1>  -0.3400 
  2 C       -0.3470    -1.9120     1.5290 C.3   1 <1>   1.1640 
  3 F        0.6870    -1.1300     1.2420 F     1 <1>  -0.3400 
  4 F       -1.3990    -1.3830     0.9230 F     1 <1>  -0.3400 
  5 C       -0.1120    -3.3770     1.1080 C.ar  1 <1>  -0.1440 
  6 C        1.0480    -3.8040     0.4950 C.ar  1 <1>  -0.1500 
  7 C       -1.1140    -4.3250     1.3520 C.ar  1 <1>  -0.1500 
  8 C        1.2340    -5.1440     0.1210 C.ar  1 <1>   0.3610 
  9 C       -0.9500    -5.6380     0.9940 C.ar  1 <1>  -0.1500 
 10 N        2.4000    -5.5480    -0.4930 N.ar  1 <1>  -0.1790 
 11 C        0.2260    -6.0950     0.3690 C.ar  1 <1>   0.0000 
 12 C        2.6130    -6.8210    -0.8700 C.ar  1 <1>   0.2180 
 13 C        0.4370    -7.4540    -0.0230 C.ar  1 <1>   0.1000 
 14 C        1.6480    -7.7700    -0.6420 C.ar  1 <1>  -0.1500 
 15 C        3.9300    -7.1660    -1.5460 C.3   1 <1>  -0.0970 
 16 N       -0.5150    -8.3870     0.1950 N.pl3 1 <1>  -0.8690 
 17 C       -0.5830    -9.8090    -0.2080 C.3   1 <1>   0.4690 
 18 C       -2.0680   -10.1180    -0.2980 C.2   1 <1>  -0.3320 
 19 C        0.2520   -10.6860     0.7500 C.3   1 <1>   0.1200 
 20 N       -2.9060   -10.4580     0.7130 N.pl3 1 <1>   0.3140 
 21 C       -2.8180   -10.0960    -1.4240 C.2   1 <1>  -0.1500 
 22 O        0.0180   -12.0420     0.5140 O.3   1 <1>  -0.5600 
 23 N       -4.1620   -10.6310     0.2670 N.2   1 <1>  -0.7070 
 24 C       -2.6220   -10.6390     2.1430 C.3   1 <1>   0.0160 
 25 C       -4.1010   -10.4220    -1.0100 C.2   1 <1>   0.1390 
 26 C        0.7330   -12.9020     1.3400 C.3   1 <1>   0.0400 
 27 H        1.8360    -3.0980     0.2940 H     1 <1>   0.1500 
 28 H       -2.0320    -4.0140     1.8300 H     1 <1>   0.1500 
 29 H       -1.7460    -6.3330     1.1990 H     1 <1>   0.1500 
 30 H        3.1180    -4.8400    -0.6640 H     1 <1>   0.4570 
 31 H        1.8260    -8.7830    -0.9510 H     1 <1>   0.1500 
 32 H        4.0460    -6.6030    -2.4550 H     1 <1>   0.0800 
 33 H        3.9670    -8.2130    -1.7960 H     1 <1>   0.0800 
 34 H        4.7570    -6.9510    -0.8910 H     1 <1>   0.0800 
 35 H       -1.4350    -8.1120     0.5580 H     1 <1>   0.4000 
 36 H       -0.1640    -9.9060    -1.1950 H     1 <1>   0.0800 
 37 H        0.0020   -10.4690     1.7710 H     1 <1>   0.0800 
 38 H        1.2970   -10.4960     0.5940 H     1 <1>   0.0800 
 39 H       -2.5240    -9.8760    -2.4340 H     1 <1>   0.1500 
 40 H       -2.0590    -9.8020     2.5080 H     1 <1>   0.0800 
 41 H       -2.0720   -11.5510     2.2770 H     1 <1>   0.0800 
 42 H       -3.5520   -10.7040     2.6790 H     1 <1>   0.0800 
 43 H       -4.9540   -10.4940    -1.6630 H     1 <1>   0.1500 
 44 H        0.4740   -13.9120     1.0750 H     1 <1>   0.0800 
 45 H        0.4650   -12.7190     2.3660 H     1 <1>   0.0800 
 46 H        1.7880   -12.7490     1.1890 H     1 <1>   0.0800 
@<TRIPOS>BOND
  1   1   2  1   
  2   2   3  1   
  3   2   4  1   
  4   2   5  1   
  5   5   6  ar  
  6   5   7  ar  
  7   6   8  ar  
  8   6  27  1   
  9   7   9  ar  
 10   7  28  1   
 11   8  10  ar  
 12   8  11  ar  
 13   9  11  ar  
 14   9  29  1   
 15  10  12  ar  
 16  10  30  1   
 17  11  13  ar  
 18  12  14  ar  
 19  12  15  1   
 20  13  14  ar  
 21  13  16  1   
 22  14  31  1   
 23  15  32  1   
 24  15  33  1   
 25  15  34  1   
 26  16  17  1   
 27  16  35  1   
 28  17  18  1   
 29  17  19  1   
 30  17  36  1   
 31  18  20  1   
 32  18  21  2   
 33  19  22  1   
 34  19  37  1   
 35  19  38  1   
 36  20  23  1   
 37  20  24  1   
 38  21  25  1   
 39  21  39  1   
 40  22  26  1   
 41  23  25  2   
 42  24  40  1   
 43  24  41  1   
 44  24  42  1   
 45  25  43  1   
 46  26  44  1   
 47  26  45  1   
 48  26  46  1   
@<TRIPOS>SUBSTRUCTURE
  1 ****  13 GROUP 4 **** **** 0

# MOE 2024.06 (io_trps.svl 2023.06)
