@<TRIPOS>MOLECULE
NONAME
46 49 1 0 0 
SMALL
USER_CHARGES


@<TRIPOS>ATOM
  1 S       -0.2780     1.1270    -2.3930 S.3   1 <1>  -0.0800 
  2 C       -1.1370     1.3560    -0.8780 C.2   1 <1>  -0.1400 
  3 C       -1.4900    -0.0240    -2.9410 C.2   1 <1>  -0.1100 
  4 C       -2.2500     0.6110    -0.8460 C.2   1 <1>  -0.1810 
  5 C       -0.6410     2.2920     0.2190 C.3   1 <1>   0.4600 
  6 C       -2.4560    -0.1850    -2.0160 C.2   1 <1>  -0.1500 
  7 C       -3.1510     0.6700     0.3660 C.3   1 <1>   0.0210 
  8 O       -1.4720     2.1390     1.3540 O.3   1 <1>  -0.5600 
  9 C        0.7730     1.9060     0.6690 C.3   1 <1>  -0.1600 
 10 C       -0.6830     3.7590    -0.2320 C.3   1 <1>  -0.1600 
 11 C       -2.8550     1.9630     1.1500 C.3   1 <1>   0.1200 
 12 C        1.3130     2.8690     1.7280 C.3   1 <1>   0.1400 
 13 C       -0.1340     4.6890     0.8510 C.3   1 <1>   0.1400 
 14 N        1.2500     4.2600     1.1960 N.am  1 <1>  -0.6600 
 15 C        2.3860     5.0090     1.0220 C.2   1 <1>   0.5690 
 16 O        3.4720     4.6090     1.3720 O.2   1 <1>  -0.5700 
 17 C        2.3000     6.3790     0.3650 C.3   1 <1>  -0.0990 
 18 C        3.6650     7.0160     0.0650 C.3   1 <1>  -0.0170 
 19 C        3.4720     8.3460    -0.6450 C.ar  1 <1>  -0.1430 
 20 C        3.3350     8.3950    -2.0260 C.ar  1 <1>   0.1600 
 21 C        3.4190     9.5250     0.0700 C.ar  1 <1>  -0.1500 
 22 N        3.1460     9.4990    -2.7320 N.ar  1 <1>  -0.6200 
 23 C        3.2280    10.6850    -0.6500 C.ar  1 <1>  -0.1500 
 24 C        3.0990    10.6170    -2.0260 C.ar  1 <1>   0.1600 
 25 H       -1.3470    -0.4650    -3.9120 H     1 <1>   0.1500 
 26 H       -3.3090    -0.8340    -2.1080 H     1 <1>   0.1500 
 27 H       -2.9760    -0.1860     0.9920 H     1 <1>   0.0800 
 28 H       -4.1820     0.6660     0.0610 H     1 <1>   0.0800 
 29 H        1.4400     1.9220    -0.1730 H     1 <1>   0.0800 
 30 H        0.7610     0.9040     1.0560 H     1 <1>   0.0800 
 31 H       -1.6870     4.0390    -0.4880 H     1 <1>   0.0800 
 32 H       -0.0860     3.8740    -1.1170 H     1 <1>   0.0800 
 33 H       -3.3260     1.9270     2.1160 H     1 <1>   0.0800 
 34 H       -3.2320     2.8180     0.6160 H     1 <1>   0.0800 
 35 H        2.3250     2.5990     1.9800 H     1 <1>   0.0800 
 36 H        0.7190     2.8050     2.6240 H     1 <1>   0.0800 
 37 H       -0.7490     4.6240     1.7340 H     1 <1>   0.0800 
 38 H       -0.1620     5.7060     0.5070 H     1 <1>   0.0800 
 39 H        1.7450     7.0320     1.0110 H     1 <1>   0.0800 
 40 H        1.7650     6.2760    -0.5600 H     1 <1>   0.0800 
 41 H        4.2480     6.3540    -0.5530 H     1 <1>   0.0800 
 42 H        4.2080     7.1640     0.9830 H     1 <1>   0.0800 
 43 H        3.3800     7.4740    -2.5820 H     1 <1>   0.1500 
 44 H        3.5210     9.5430     1.1410 H     1 <1>   0.1500 
 45 H        3.1780    11.6350    -0.1500 H     1 <1>   0.1500 
 46 H        2.9490    11.5300    -2.5760 H     1 <1>   0.1500 
@<TRIPOS>BOND
  1   1   2  1   
  2   1   3  1   
  3   2   4  2   
  4   2   5  1   
  5   3   6  2   
  6   3  25  1   
  7   4   6  1   
  8   4   7  1   
  9   5   8  1   
 10   5   9  1   
 11   5  10  1   
 12   6  26  1   
 13   7  11  1   
 14   7  27  1   
 15   7  28  1   
 16   8  11  1   
 17   9  12  1   
 18   9  29  1   
 19   9  30  1   
 20  10  13  1   
 21  10  31  1   
 22  10  32  1   
 23  11  33  1   
 24  11  34  1   
 25  12  14  1   
 26  12  35  1   
 27  12  36  1   
 28  13  14  1   
 29  13  37  1   
 30  13  38  1   
 31  14  15  am  
 32  15  16  2   
 33  15  17  1   
 34  17  18  1   
 35  17  39  1   
 36  17  40  1   
 37  18  19  1   
 38  18  41  1   
 39  18  42  1   
 40  19  20  ar  
 41  19  21  ar  
 42  20  22  ar  
 43  20  43  1   
 44  21  23  ar  
 45  21  44  1   
 46  22  24  ar  
 47  23  24  ar  
 48  23  45  1   
 49  24  46  1   
@<TRIPOS>SUBSTRUCTURE
  1 ****  13 GROUP 4 **** **** 0

# MOE 2024.06 (io_trps.svl 2023.06)
