@<TRIPOS>MOLECULE
NONAME
67 70 1 0 0 
SMALL
USER_CHARGES


@<TRIPOS>ATOM
  1 O        0.7890    -0.3140     0.7070 O.3   1 <1>  -0.5600 
  2 C        0.9860    -1.6910     0.5380 C.3   1 <1>   0.1200 
  3 C        1.5760     0.4600    -0.1390 C.3   1 <1>   0.1200 
  4 C        2.4600    -2.0900     0.8000 C.3   1 <1>   0.2850 
  5 C        3.0620     0.1930     0.1590 C.3   1 <1>   0.1900 
  6 N        3.3840    -1.2470    -0.0150 N.3   1 <1>  -0.8100 
  7 C        2.7230    -3.5860     0.5140 C.3   1 <1>  -0.1950 
  8 C        3.9470     1.0650    -0.7560 C.3   1 <1>   0.3430 
  9 C        4.8140    -1.5070     0.2550 C.3   1 <1>   0.1100 
 10 C        2.4410    -4.2090    -0.8200 C.3   1 <1>  -0.2000 
 11 C        1.6470    -4.6260     0.3830 C.3   1 <1>  -0.2000 
 12 N        5.4190     0.8170    -0.5330 N.4   1 <1>  -0.9590 
 13 C        5.7220    -0.6520    -0.6520 C.3   1 <1>   0.3430 
 14 C        6.2690     1.6230    -1.4520 C.3   1 <1>   0.4860 
 15 C        6.0500     3.1050    -1.1810 C.ar  1 <1>  -0.1440 
 16 C        6.6960     3.7550    -0.1350 C.ar  1 <1>  -0.1500 
 17 C        5.1890     3.8260    -1.9940 C.ar  1 <1>  -0.1500 
 18 C        6.4770     5.1070     0.1070 C.ar  1 <1>  -0.1440 
 19 C        4.9510     5.1650    -1.7520 C.ar  1 <1>  -0.1500 
 20 C        5.5810     5.8090    -0.6930 C.ar  1 <1>   0.0820 
 21 C        7.1720     5.8310     1.2600 C.3   1 <1>   0.4860 
 22 O        5.3560     7.1120    -0.3870 O.3   1 <1>  -0.3620 
 23 N        8.4820     6.4530     0.8600 N.4   1 <1>  -0.9590 
 24 C        4.3440     7.8640    -1.0290 C.3   1 <1>   0.0400 
 25 C        8.2520     7.5580    -0.1110 C.3   1 <1>   0.3430 
 26 C        9.4760     5.4730     0.3470 C.3   1 <1>   0.3430 
 27 C        9.4630     8.4850    -0.1500 C.3   1 <1>  -0.2400 
 28 C       10.0010     4.6260     1.5010 C.3   1 <1>  -0.2400 
 29 H        0.3400    -2.1950     1.2340 H     1 <1>   0.0800 
 30 H        0.6900    -1.9580    -0.4610 H     1 <1>   0.0800 
 31 H        1.3300     0.2150    -1.1590 H     1 <1>   0.0800 
 32 H        1.3280     1.4900     0.0450 H     1 <1>   0.0800 
 33 H        2.6470    -1.9160     1.8470 H     1 <1>   0.0800 
 34 H        3.2400     0.4800     1.1820 H     1 <1>   0.0800 
 35 H        3.5900    -3.9300     1.0490 H     1 <1>   0.1000 
 36 H        3.7190     2.1020    -0.5740 H     1 <1>   0.0800 
 37 H        3.6920     0.8430    -1.7790 H     1 <1>   0.0800 
 38 H        5.0380    -1.3130     1.2910 H     1 <1>   0.0800 
 39 H        5.0400    -2.5400     0.0560 H     1 <1>   0.0800 
 40 H        1.9590    -3.6200    -1.5810 H     1 <1>   0.1000 
 41 H        3.1570    -4.8990    -1.2310 H     1 <1>   0.1000 
 42 H        1.8250    -5.6050     0.7950 H     1 <1>   0.1000 
 43 H        0.6010    -4.3730     0.3990 H     1 <1>   0.1000 
 44 H        5.6260     1.1070     0.4290 H     1 <1>   0.4500 
 45 H        5.5690    -0.9730    -1.6700 H     1 <1>   0.0800 
 46 H        6.7510    -0.8410    -0.3960 H     1 <1>   0.0800 
 47 H        7.3080     1.3820    -1.3000 H     1 <1>   0.0800 
 48 H        6.0180     1.3990    -2.4770 H     1 <1>   0.0800 
 49 H        7.3720     3.2030     0.4970 H     1 <1>   0.1500 
 50 H        4.6910     3.3570    -2.8280 H     1 <1>   0.1500 
 51 H        4.2710     5.6900    -2.3990 H     1 <1>   0.1500 
 52 H        7.3360     5.1340     2.0640 H     1 <1>   0.0800 
 53 H        6.5130     6.5990     1.6320 H     1 <1>   0.0800 
 54 H        8.8810     6.8880     1.7000 H     1 <1>   0.4500 
 55 H        4.3040     8.8370    -0.5730 H     1 <1>   0.0800 
 56 H        3.3980     7.3650    -0.9000 H     1 <1>   0.0800 
 57 H        4.5840     7.9630    -2.0740 H     1 <1>   0.0800 
 58 H        8.0490     7.1590    -1.0930 H     1 <1>   0.0800 
 59 H        7.3930     8.1340     0.1960 H     1 <1>   0.0800 
 60 H        9.0310     4.8500    -0.4110 H     1 <1>   0.0800 
 61 H       10.3080     5.9930    -0.0990 H     1 <1>   0.0800 
 62 H       10.3290     7.9930    -0.5540 H     1 <1>   0.0800 
 63 H        9.6840     8.8700     0.8290 H     1 <1>   0.0800 
 64 H        9.2390     9.3210    -0.7900 H     1 <1>   0.0800 
 65 H        9.2250     4.0350     1.9510 H     1 <1>   0.0800 
 66 H       10.4620     5.2470     2.2480 H     1 <1>   0.0800 
 67 H       10.7530     3.9530     1.1270 H     1 <1>   0.0800 
@<TRIPOS>BOND
  1   1   2  1   
  2   1   3  1   
  3   2   4  1   
  4   2  29  1   
  5   2  30  1   
  6   3   5  1   
  7   3  31  1   
  8   3  32  1   
  9   4   6  1   
 10   4   7  1   
 11   4  33  1   
 12   5   6  1   
 13   5   8  1   
 14   5  34  1   
 15   6   9  1   
 16   7  10  1   
 17   7  11  1   
 18   7  35  1   
 19   8  12  1   
 20   8  36  1   
 21   8  37  1   
 22   9  13  1   
 23   9  38  1   
 24   9  39  1   
 25  10  11  1   
 26  10  40  1   
 27  10  41  1   
 28  11  42  1   
 29  11  43  1   
 30  12  13  1   
 31  12  14  1   
 32  12  44  1   
 33  13  45  1   
 34  13  46  1   
 35  14  15  1   
 36  14  47  1   
 37  14  48  1   
 38  15  16  ar  
 39  15  17  ar  
 40  16  18  ar  
 41  16  49  1   
 42  17  19  ar  
 43  17  50  1   
 44  18  20  ar  
 45  18  21  1   
 46  19  20  ar  
 47  19  51  1   
 48  20  22  1   
 49  21  23  1   
 50  21  52  1   
 51  21  53  1   
 52  22  24  1   
 53  23  25  1   
 54  23  26  1   
 55  23  54  1   
 56  24  55  1   
 57  24  56  1   
 58  24  57  1   
 59  25  27  1   
 60  25  58  1   
 61  25  59  1   
 62  26  28  1   
 63  26  60  1   
 64  26  61  1   
 65  27  62  1   
 66  27  63  1   
 67  27  64  1   
 68  28  65  1   
 69  28  66  1   
 70  28  67  1   
@<TRIPOS>SUBSTRUCTURE
  1 ****  12 GROUP 4 **** **** 0

# MOE 2024.06 (io_trps.svl 2023.06)
