@<TRIPOS>MOLECULE
NONAME
41 43 1 0 0 
SMALL
USER_CHARGES


@<TRIPOS>ATOM
  1 O       -0.3190    -0.3520     1.1110 O.3   1 <1>  -0.5600 
  2 C        0.3510     0.8360     1.3820 C.3   1 <1>   0.1200 
  3 C       -1.6500    -0.1050     0.7690 C.3   1 <1>   0.1200 
  4 C       -0.3410     1.8820     0.5210 C.3   1 <1>   0.2890 
  5 C       -1.7830     1.4050     0.5410 C.3   1 <1>  -0.0800 
  6 N       -0.2180     3.2550     1.0740 N.pl3 1 <1>  -0.8690 
  7 C       -2.5590     1.7770    -0.7330 C.3   1 <1>  -0.0170 
  8 C        0.6200     4.2500     0.7490 C.ar  1 <1>   0.4100 
  9 C       -3.9800     1.2370    -0.6870 C.ar  1 <1>  -0.1430 
 10 N        0.4450     5.3560     1.4350 N.ar  1 <1>  -0.6200 
 11 C        1.6190     4.1280    -0.2370 C.ar  1 <1>  -0.1500 
 12 C       -4.3630     0.1180    -1.3980 C.ar  1 <1>  -0.1500 
 13 C       -4.9610     1.8410     0.0730 C.ar  1 <1>  -0.1500 
 14 C        1.2460     6.3660     1.1650 C.ar  1 <1>   0.7710 
 15 C        2.4260     5.1880    -0.4910 C.ar  1 <1>   0.2180 
 16 C       -5.6700    -0.3340    -1.3130 C.ar  1 <1>   0.1600 
 17 C       -6.2400     1.3080     0.0890 C.ar  1 <1>   0.1600 
 18 N        2.2150     6.3140     0.2340 N.ar  1 <1>  -0.1790 
 19 N        1.0550     7.4770     1.8720 N.pl3 1 <1>  -0.9000 
 20 C        3.5350     5.1740    -1.5300 C.3   1 <1>  -0.0970 
 21 N       -6.6170     0.2340    -0.5840 N.ar  1 <1>  -0.6200 
 22 H        0.2320     1.0510     2.4290 H     1 <1>   0.0800 
 23 H        1.3900     0.7170     1.1330 H     1 <1>   0.0800 
 24 H       -1.8680    -0.6720    -0.1190 H     1 <1>   0.0800 
 25 H       -2.2820    -0.4390     1.5740 H     1 <1>   0.0800 
 26 H        0.0540     1.8270    -0.4780 H     1 <1>   0.0800 
 27 H       -2.2890     1.8140     1.3980 H     1 <1>   0.0800 
 28 H       -0.8610     3.4520     1.8470 H     1 <1>   0.4000 
 29 H       -2.0530     1.3870    -1.5990 H     1 <1>   0.0800 
 30 H       -2.5930     2.8480    -0.8310 H     1 <1>   0.0800 
 31 H        1.7250     3.2000    -0.7640 H     1 <1>   0.1500 
 32 H       -3.6630    -0.4100    -2.0190 H     1 <1>   0.1500 
 33 H       -4.7470     2.7190     0.6520 H     1 <1>   0.1500 
 34 H       -5.9520    -1.2080    -1.8740 H     1 <1>   0.1500 
 35 H       -6.9920     1.7930     0.6880 H     1 <1>   0.1500 
 36 H        2.7770     7.1490     0.1040 H     1 <1>   0.4570 
 37 H        1.5560     8.3650     1.8270 H     1 <1>   0.4000 
 38 H        0.3030     7.4640     2.5700 H     1 <1>   0.4000 
 39 H        3.5800     4.2170    -2.0200 H     1 <1>   0.0800 
 40 H        4.4890     5.3570    -1.0650 H     1 <1>   0.0800 
 41 H        3.3600     5.9260    -2.2790 H     1 <1>   0.0800 
@<TRIPOS>BOND
  1   1   2  1   
  2   1   3  1   
  3   2   4  1   
  4   2  22  1   
  5   2  23  1   
  6   3   5  1   
  7   3  24  1   
  8   3  25  1   
  9   4   5  1   
 10   4   6  1   
 11   4  26  1   
 12   5   7  1   
 13   5  27  1   
 14   6   8  1   
 15   6  28  1   
 16   7   9  1   
 17   7  29  1   
 18   7  30  1   
 19   8  10  ar  
 20   8  11  ar  
 21   9  12  ar  
 22   9  13  ar  
 23  10  14  ar  
 24  11  15  ar  
 25  11  31  1   
 26  12  16  ar  
 27  12  32  1   
 28  13  17  ar  
 29  13  33  1   
 30  14  18  ar  
 31  14  19  1   
 32  15  18  ar  
 33  15  20  1   
 34  16  21  ar  
 35  16  34  1   
 36  17  21  ar  
 37  17  35  1   
 38  18  36  1   
 39  19  37  1   
 40  19  38  1   
 41  20  39  1   
 42  20  40  1   
 43  20  41  1   
@<TRIPOS>SUBSTRUCTURE
  1 ****   4 GROUP 4 **** **** 0

# MOE 2024.06 (io_trps.svl 2023.06)
