@<TRIPOS>MOLECULE
NONAME
52 55 1 0 0 
SMALL
USER_CHARGES


@<TRIPOS>ATOM
  1 F       -0.8030    -1.6530    -2.2820 F     1 <1>  -0.1900 
  2 C       -1.3350    -2.5200    -1.4580 C.ar  1 <1>   0.1900 
  3 C       -0.6280    -3.0380    -0.3670 C.ar  1 <1>   0.0830 
  4 C       -2.6390    -2.8940    -1.7190 C.ar  1 <1>  -0.1500 
  5 O        0.6550    -2.7470    -0.0070 O.3   1 <1>  -0.3630 
  6 C       -1.2830    -3.9470     0.4480 C.ar  1 <1>  -0.1500 
  7 C       -3.2630    -3.8020    -0.8840 C.ar  1 <1>  -0.1500 
  8 C        1.4900    -1.8940    -0.7590 C.3   1 <1>   0.0400 
  9 C       -2.5990    -4.3530     0.2160 C.ar  1 <1>   0.0530 
 10 C       -3.2450    -5.3050     1.0880 C.2   1 <1>   0.0870 
 11 O       -2.8540    -5.4490     2.3310 O.3   1 <1>  -0.0190 
 12 C       -4.2700    -6.1710     0.9050 C.2   1 <1>  -0.2330 
 13 N       -3.5570    -6.3390     2.9840 N.2   1 <1>  -0.4100 
 14 C       -4.4230    -6.7910     2.1480 C.2   1 <1>   0.3720 
 15 C       -5.0440    -6.4490    -0.2490 C.2   1 <1>   1.0330 
 16 N       -5.3630    -7.7640     2.5350 N.3   1 <1>  -0.5730 
 17 O       -6.1750    -5.9550    -0.3940 O.co2 1 <1>  -0.9000 
 18 O       -4.7280    -7.3460    -1.0390 O.co2 1 <1>  -0.9000 
 19 C       -6.8100    -7.3960     2.3590 C.3   1 <1>   0.2450 
 20 C       -5.5310    -8.9710     1.6520 C.3   1 <1>   0.2450 
 21 C       -7.0330    -8.6150     1.4130 C.3   1 <1>   0.4720 
 22 N       -7.4800    -8.3110    -0.0030 N.4   1 <1>  -0.9280 
 23 C       -8.9410    -8.0830    -0.1790 C.3   1 <1>   0.4230 
 24 C       -6.9280    -9.3040    -0.9750 C.3   1 <1>   0.3430 
 25 C       -9.2330    -7.6480    -1.6210 C.3   1 <1>  -0.1600 
 26 C       -9.4750    -7.0150     0.7760 C.3   1 <1>  -0.2400 
 27 C       -7.2350    -8.9000    -2.4180 C.3   1 <1>  -0.1600 
 28 C       -8.7280    -8.6680    -2.6430 C.3   1 <1>  -0.1600 
 29 H       -3.1590    -2.4800    -2.5630 H     1 <1>   0.1500 
 30 H       -0.7490    -4.3550     1.2880 H     1 <1>   0.1500 
 31 H       -4.2820    -4.0820    -1.0900 H     1 <1>   0.1500 
 32 H        2.4520    -1.8610    -0.2810 H     1 <1>   0.0800 
 33 H        1.0580    -0.9090    -0.7770 H     1 <1>   0.0800 
 34 H        1.5900    -2.2900    -1.7540 H     1 <1>   0.0800 
 35 H       -6.9330    -6.4310     1.9040 H     1 <1>   0.0000 
 36 H       -7.3360    -7.4920     3.2910 H     1 <1>   0.0000 
 37 H       -5.4100    -9.8700     2.2280 H     1 <1>   0.0000 
 38 H       -4.8900    -8.9430     0.7940 H     1 <1>   0.0000 
 39 H       -7.6790    -9.3530     1.8540 H     1 <1>   0.0000 
 40 H       -7.0150    -7.4060    -0.2760 H     1 <1>   0.4500 
 41 H       -9.4630    -9.0070     0.0090 H     1 <1>   0.0800 
 42 H       -7.3460   -10.2760    -0.7770 H     1 <1>   0.0800 
 43 H       -5.8570    -9.3620    -0.8710 H     1 <1>   0.0800 
 44 H       -8.7640    -6.6940    -1.8040 H     1 <1>   0.0800 
 45 H      -10.2930    -7.5190    -1.7510 H     1 <1>   0.0800 
 46 H       -8.9090    -6.1040     0.6780 H     1 <1>   0.0800 
 47 H       -9.4610    -7.3550     1.7930 H     1 <1>   0.0800 
 48 H      -10.5000    -6.7930     0.5340 H     1 <1>   0.0800 
 49 H       -6.8790    -9.6680    -3.0820 H     1 <1>   0.0800 
 50 H       -6.6860    -8.0010    -2.6470 H     1 <1>   0.0800 
 51 H       -8.8910    -8.2970    -3.6410 H     1 <1>   0.0800 
 52 H       -9.2660    -9.5950    -2.5370 H     1 <1>   0.0800 
@<TRIPOS>BOND
  1   1   2  1   
  2   2   3  ar  
  3   2   4  ar  
  4   3   5  1   
  5   3   6  ar  
  6   4   7  ar  
  7   4  29  1   
  8   5   8  1   
  9   6   9  ar  
 10   6  30  1   
 11   7   9  ar  
 12   7  31  1   
 13   8  32  1   
 14   8  33  1   
 15   8  34  1   
 16   9  10  1   
 17  10  11  1   
 18  10  12  2   
 19  11  13  1   
 20  12  14  1   
 21  12  15  1   
 22  13  14  2   
 23  14  16  1   
 24  15  17  ar  
 25  15  18  ar  
 26  16  19  1   
 27  16  20  1   
 28  19  21  1   
 29  19  35  1   
 30  19  36  1   
 31  20  21  1   
 32  20  37  1   
 33  20  38  1   
 34  21  22  1   
 35  21  39  1   
 36  22  23  1   
 37  22  24  1   
 38  22  40  1   
 39  23  25  1   
 40  23  26  1   
 41  23  41  1   
 42  24  27  1   
 43  24  42  1   
 44  24  43  1   
 45  25  28  1   
 46  25  44  1   
 47  25  45  1   
 48  26  46  1   
 49  26  47  1   
 50  26  48  1   
 51  27  28  1   
 52  27  49  1   
 53  27  50  1   
 54  28  51  1   
 55  28  52  1   
@<TRIPOS>SUBSTRUCTURE
  1 ****  15 GROUP 4 **** **** 0

# MOE 2024.06 (io_trps.svl 2023.06)
