@<TRIPOS>MOLECULE
NONAME
51 53 1 0 0 
SMALL
USER_CHARGES


@<TRIPOS>ATOM
  1 O       -1.3550     0.4130     1.6580 O.2   1 <1>  -0.5700 
  2 C       -1.6050     0.5340     0.4710 C.2   1 <1>   0.7160 
  3 N       -1.9270    -0.5890    -0.2640 N.am  1 <1>  -0.6600 
  4 C       -1.5790     1.8290    -0.1240 C.2   1 <1>  -0.0860 
  5 C       -1.9940    -1.9390     0.3690 C.3   1 <1>   0.1400 
  6 C       -2.4080    -0.5110    -1.6730 C.3   1 <1>   0.0600 
  7 C       -2.7040     2.6010    -0.4300 C.2   1 <1>   0.3720 
  8 C       -0.5390     2.5760    -0.5800 C.2   1 <1>   0.0870 
  9 C       -3.3480    -2.1430     1.0480 C.3   1 <1>   0.1200 
 10 N       -2.3620     3.6870    -1.0310 N.2   1 <1>  -0.4100 
 11 N       -4.0290     2.2330    -0.1440 N.pl3 1 <1>  -0.8210 
 12 O       -1.0570     3.6570    -1.1050 O.3   1 <1>  -0.0190 
 13 C        0.8860     2.3660    -0.5970 C.ar  1 <1>   0.0530 
 14 O       -3.4430    -3.4710     1.4590 O.3   1 <1>  -0.5600 
 15 C       -5.1160     3.0960    -0.6790 C.3   1 <1>   0.2090 
 16 C       -4.3240     1.9120     1.2790 C.3   1 <1>   0.2090 
 17 C        1.5410     1.6330     0.3950 C.ar  1 <1>  -0.1500 
 18 C        1.6720     2.8940    -1.6230 C.ar  1 <1>  -0.1500 
 19 C       -4.6140    -3.7640     2.1480 C.3   1 <1>   0.0400 
 20 C       -6.2810     2.8990     0.2770 C.3   1 <1>  -0.1600 
 21 C       -5.6110     2.6530     1.6210 C.3   1 <1>  -0.1600 
 22 C        2.9070     1.4240     0.3620 C.ar  1 <1>  -0.1500 
 23 C        3.0380     2.6920    -1.6620 C.ar  1 <1>  -0.1500 
 24 C        3.6690     1.9540    -0.6750 C.ar  1 <1>   0.0830 
 25 O        5.0090     1.7970    -0.7850 O.3   1 <1>  -0.3620 
 26 C        5.7490     1.0740     0.1730 C.3   1 <1>   0.0400 
 27 H       -1.2130    -2.0340     1.1030 H     1 <1>   0.0800 
 28 H       -1.8480    -2.6980    -0.3800 H     1 <1>   0.0800 
 29 H       -1.9570     0.3210    -2.1850 H     1 <1>   0.0800 
 30 H       -3.4770    -0.3840    -1.6820 H     1 <1>   0.0800 
 31 H       -2.1540    -1.4110    -2.2050 H     1 <1>   0.0800 
 32 H       -4.1480    -1.9430     0.3580 H     1 <1>   0.0800 
 33 H       -3.4250    -1.5050     1.9110 H     1 <1>   0.0800 
 34 H       -5.3710     2.8060    -1.6840 H     1 <1>   0.0800 
 35 H       -4.8130     4.1300    -0.6690 H     1 <1>   0.0800 
 36 H       -3.5200     2.2180     1.9300 H     1 <1>   0.0800 
 37 H       -4.4700     0.8500     1.3710 H     1 <1>   0.0800 
 38 H        0.9760     1.2240     1.2130 H     1 <1>   0.1500 
 39 H        1.2040     3.4710    -2.4020 H     1 <1>   0.1500 
 40 H       -4.5940    -4.8060     2.4140 H     1 <1>   0.0800 
 41 H       -5.4600    -3.5690     1.5120 H     1 <1>   0.0800 
 42 H       -4.6620    -3.1630     3.0400 H     1 <1>   0.0800 
 43 H       -6.8370     2.0290    -0.0250 H     1 <1>   0.0800 
 44 H       -6.9360     3.7520     0.2910 H     1 <1>   0.0800 
 45 H       -5.3580     3.5930     2.0810 H     1 <1>   0.0800 
 46 H       -6.2310     2.0880     2.2940 H     1 <1>   0.0800 
 47 H        3.3590     0.8520     1.1480 H     1 <1>   0.1500 
 48 H        3.6280     3.1050    -2.4610 H     1 <1>   0.1500 
 49 H        6.7820     1.0880    -0.1240 H     1 <1>   0.0800 
 50 H        5.3900     0.0600     0.1990 H     1 <1>   0.0800 
 51 H        5.6370     1.5480     1.1310 H     1 <1>   0.0800 
@<TRIPOS>BOND
  1   1   2  2   
  2   2   3  am  
  3   2   4  1   
  4   3   5  1   
  5   3   6  1   
  6   4   7  1   
  7   4   8  2   
  8   5   9  1   
  9   5  27  1   
 10   5  28  1   
 11   6  29  1   
 12   6  30  1   
 13   6  31  1   
 14   7  10  2   
 15   7  11  1   
 16   8  12  1   
 17   8  13  1   
 18   9  14  1   
 19   9  32  1   
 20   9  33  1   
 21  10  12  1   
 22  11  15  1   
 23  11  16  1   
 24  13  17  ar  
 25  13  18  ar  
 26  14  19  1   
 27  15  20  1   
 28  15  34  1   
 29  15  35  1   
 30  16  21  1   
 31  16  36  1   
 32  16  37  1   
 33  17  22  ar  
 34  17  38  1   
 35  18  23  ar  
 36  18  39  1   
 37  19  40  1   
 38  19  41  1   
 39  19  42  1   
 40  20  21  1   
 41  20  43  1   
 42  20  44  1   
 43  21  45  1   
 44  21  46  1   
 45  22  24  ar  
 46  22  47  1   
 47  23  24  ar  
 48  23  48  1   
 49  24  25  1   
 50  25  26  1   
 51  26  49  1   
 52  26  50  1   
 53  26  51  1   
@<TRIPOS>SUBSTRUCTURE
  1 ****   4 GROUP 4 **** **** 0

# MOE 2024.06 (io_trps.svl 2023.06)
