@<TRIPOS>MOLECULE
NONAME
42 44 1 0 0 
SMALL
USER_CHARGES


@<TRIPOS>ATOM
  1 O        0.1480    -2.3260    -1.2110 O.3   1 <1>  -0.0190 
  2 N       -0.6280    -1.3420    -0.8650 N.2   1 <1>  -0.4100 
  3 C       -0.1170    -3.4140    -0.5410 C.2   1 <1>  -0.0400 
  4 C       -1.4060    -1.7960     0.0470 C.2   1 <1>   0.1080 
  5 C       -1.1330    -3.1420     0.2940 C.2   1 <1>  -0.1810 
  6 C        0.7000    -4.6600    -0.8180 C.3   1 <1>  -0.0600 
  7 C       -2.4540    -0.9430     0.7340 C.3   1 <1>  -0.0590 
  8 C       -1.8580    -4.0370     1.2690 C.3   1 <1>   0.5240 
  9 N       -2.6260    -5.0380     0.4930 N.4   1 <1>  -0.9590 
 10 C       -3.5910    -4.4430    -0.4920 C.3   1 <1>   0.3430 
 11 C       -3.4100    -5.9800     1.3250 C.3   1 <1>   0.3430 
 12 C       -4.9120    -5.2130    -0.3160 C.3   1 <1>   0.2000 
 13 C       -4.4820    -6.5090     0.3700 C.3   1 <1>  -0.0800 
 14 O       -5.7070    -4.5040     0.5750 O.3   1 <1>  -0.6800 
 15 C       -3.9530    -7.5330    -0.6730 C.3   1 <1>  -0.0160 
 16 C       -2.7310    -8.3220    -0.2220 C.ar  1 <1>   0.1670 
 17 N       -1.5620    -7.6950    -0.3030 N.ar  1 <1>  -0.6200 
 18 C       -2.8770    -9.6310     0.2360 C.ar  1 <1>   0.1600 
 19 C       -0.5590    -8.4780     0.0770 C.ar  1 <1>   0.1600 
 20 N       -1.8780   -10.3930     0.6400 N.ar  1 <1>  -0.6200 
 21 C       -0.7130    -9.7810     0.5350 C.ar  1 <1>   0.1600 
 22 H        0.4110    -5.4620    -0.1660 H     1 <1>   0.0800 
 23 H        1.7440    -4.4470    -0.6630 H     1 <1>   0.0800 
 24 H        0.5620    -4.9680    -1.8390 H     1 <1>   0.0800 
 25 H       -3.4280    -1.3850     0.6370 H     1 <1>   0.0800 
 26 H       -2.4770     0.0340     0.2850 H     1 <1>   0.0800 
 27 H       -2.2130    -0.8300     1.7750 H     1 <1>   0.0800 
 28 H       -2.5240    -3.4500     1.8810 H     1 <1>   0.0800 
 29 H       -1.1440    -4.5300     1.9070 H     1 <1>   0.0800 
 30 H       -1.9550    -5.6270    -0.0350 H     1 <1>   0.4500 
 31 H       -3.7530    -3.3930    -0.3120 H     1 <1>   0.0800 
 32 H       -3.2110    -4.5740    -1.4910 H     1 <1>   0.0800 
 33 H       -2.7940    -6.7680     1.7300 H     1 <1>   0.0800 
 34 H       -3.8880    -5.4470     2.1320 H     1 <1>   0.0800 
 35 H       -5.4510    -5.3420    -1.2410 H     1 <1>   0.0800 
 36 H       -5.2870    -6.9570     0.9270 H     1 <1>   0.0800 
 37 H       -6.6370    -4.8180     0.5560 H     1 <1>   0.4000 
 38 H       -3.6830    -7.0380    -1.5900 H     1 <1>   0.0800 
 39 H       -4.7480    -8.2130    -0.9250 H     1 <1>   0.0800 
 40 H       -3.8590   -10.0710     0.2710 H     1 <1>   0.1500 
 41 H        0.4380    -8.0770     0.0240 H     1 <1>   0.1500 
 42 H        0.1610   -10.3380     0.8250 H     1 <1>   0.1500 
@<TRIPOS>BOND
  1   1   2  1   
  2   1   3  1   
  3   2   4  2   
  4   3   5  2   
  5   3   6  1   
  6   4   5  1   
  7   4   7  1   
  8   5   8  1   
  9   6  22  1   
 10   6  23  1   
 11   6  24  1   
 12   7  25  1   
 13   7  26  1   
 14   7  27  1   
 15   8   9  1   
 16   8  28  1   
 17   8  29  1   
 18   9  10  1   
 19   9  11  1   
 20   9  30  1   
 21  10  12  1   
 22  10  31  1   
 23  10  32  1   
 24  11  13  1   
 25  11  33  1   
 26  11  34  1   
 27  12  13  1   
 28  12  14  1   
 29  12  35  1   
 30  13  15  1   
 31  13  36  1   
 32  14  37  1   
 33  15  16  1   
 34  15  38  1   
 35  15  39  1   
 36  16  17  ar  
 37  16  18  ar  
 38  17  19  ar  
 39  18  20  ar  
 40  18  40  1   
 41  19  21  ar  
 42  19  41  1   
 43  20  21  ar  
 44  21  42  1   
@<TRIPOS>SUBSTRUCTURE
  1 ****   9 GROUP 4 **** **** 0

# MOE 2024.06 (io_trps.svl 2023.06)
