@<TRIPOS>MOLECULE
NONAME
59 62 1 0 0 
SMALL
USER_CHARGES


@<TRIPOS>ATOM
  1 O        4.7350     1.1100     1.1530 O.2   1 <1>  -0.5700 
  2 C        4.0020     0.2650     0.6670 C.2   1 <1>   0.5440 
  3 N        2.8980     0.7640    -0.0080 N.am  1 <1>  -0.6600 
  4 C        4.3700    -1.1560     0.7420 C.ar  1 <1>   0.3960 
  5 C        2.6150     0.3970    -1.4310 C.3   1 <1>   0.1400 
  6 C        2.2270     2.0170     0.4490 C.3   1 <1>   0.1400 
  7 N        3.6330    -2.0940     0.1430 N.ar  1 <1>  -0.6200 
  8 C        5.5080    -1.5390     1.4300 C.ar  1 <1>  -0.1500 
  9 C        3.6940     0.9770    -2.3670 C.3   1 <1>   0.3430 
 10 C        2.9400     3.2880    -0.0500 C.3   1 <1>  -0.1600 
 11 C        4.0420    -3.3410     0.2650 C.ar  1 <1>   0.4770 
 12 C        5.8490    -2.8650     1.4750 C.ar  1 <1>   0.1660 
 13 N        4.3030     2.2240    -1.8000 N.4   1 <1>  -0.9590 
 14 C        3.3270     3.3110    -1.5310 C.3   1 <1>   0.3430 
 15 N        5.1160    -3.7800     0.8910 N.ar  1 <1>  -0.6200 
 16 C        3.1930    -4.4010    -0.3950 C.3   1 <1>  -0.0970 
 17 C        7.0910    -3.3320     2.2050 C.3   1 <1>  -0.0970 
 18 C        5.5150     2.6800    -2.5210 C.3   1 <1>   0.4860 
 19 C        6.4050     3.3550    -1.5010 C.ar  1 <1>  -0.1440 
 20 C        6.9640     2.5870    -0.4940 C.ar  1 <1>  -0.1500 
 21 C        6.6620     4.7170    -1.5420 C.ar  1 <1>  -0.1500 
 22 C        7.7610     3.1600     0.4830 C.ar  1 <1>  -0.1440 
 23 C        7.4650     5.2960    -0.5750 C.ar  1 <1>  -0.1500 
 24 C        8.0100     4.5230     0.4360 C.ar  1 <1>  -0.1500 
 25 C        8.3330     2.2830     1.5930 C.3   1 <1>   0.2390 
 26 N        9.0530     1.1150     1.0330 N.pl3 1 <1>   0.3140 
 27 N        8.4990    -0.1160     0.9600 N.2   1 <1>  -0.7070 
 28 C       10.3000     1.1140     0.5190 C.2   1 <1>  -0.3020 
 29 C        9.4090    -0.8590     0.4070 C.2   1 <1>   0.1390 
 30 C       10.5610    -0.1440     0.1070 C.2   1 <1>  -0.1500 
 31 H        1.6530     0.7850    -1.7170 H     1 <1>   0.0800 
 32 H        2.5630    -0.6700    -1.5540 H     1 <1>   0.0800 
 33 H        2.2080     2.0270     1.5270 H     1 <1>   0.0800 
 34 H        1.2040     2.0120     0.1130 H     1 <1>   0.0800 
 35 H        6.1210    -0.8050     1.9190 H     1 <1>   0.1500 
 36 H        3.2690     1.1680    -3.3390 H     1 <1>   0.0800 
 37 H        4.4650     0.2330    -2.4860 H     1 <1>   0.0800 
 38 H        3.8210     3.4590     0.5440 H     1 <1>   0.0800 
 39 H        2.2890     4.1230     0.1390 H     1 <1>   0.0800 
 40 H        4.6290     1.9600    -0.8470 H     1 <1>   0.4500 
 41 H        3.7770     4.2660    -1.7510 H     1 <1>   0.0800 
 42 H        2.4520     3.1950    -2.1500 H     1 <1>   0.0800 
 43 H        2.2560    -3.9910    -0.7220 H     1 <1>   0.0800 
 44 H        3.0000    -5.1920     0.3060 H     1 <1>   0.0800 
 45 H        3.7180    -4.8040    -1.2400 H     1 <1>   0.0800 
 46 H        7.6460    -2.4980     2.5940 H     1 <1>   0.0800 
 47 H        7.7200    -3.8810     1.5290 H     1 <1>   0.0800 
 48 H        6.8100    -3.9760     3.0180 H     1 <1>   0.0800 
 49 H        5.2560     3.3570    -3.3170 H     1 <1>   0.0800 
 50 H        6.0420     1.8360    -2.9350 H     1 <1>   0.0800 
 51 H        6.7830     1.5250    -0.4540 H     1 <1>   0.1500 
 52 H        6.2490     5.3380    -2.3190 H     1 <1>   0.1500 
 53 H        7.6680     6.3540    -0.6060 H     1 <1>   0.1500 
 54 H        8.6280     4.9920     1.1830 H     1 <1>   0.1500 
 55 H        7.5320     1.9200     2.2110 H     1 <1>   0.0800 
 56 H        9.0140     2.8410     2.2060 H     1 <1>   0.0800 
 57 H       10.9190     1.9920     0.4720 H     1 <1>   0.1500 
 58 H        9.2780    -1.9090     0.2040 H     1 <1>   0.1500 
 59 H       11.4500    -0.5360    -0.3540 H     1 <1>   0.1500 
@<TRIPOS>BOND
  1   1   2  2   
  2   2   3  am  
  3   2   4  1   
  4   3   5  1   
  5   3   6  1   
  6   4   7  ar  
  7   4   8  ar  
  8   5   9  1   
  9   5  31  1   
 10   5  32  1   
 11   6  10  1   
 12   6  33  1   
 13   6  34  1   
 14   7  11  ar  
 15   8  12  ar  
 16   8  35  1   
 17   9  13  1   
 18   9  36  1   
 19   9  37  1   
 20  10  14  1   
 21  10  38  1   
 22  10  39  1   
 23  11  15  ar  
 24  11  16  1   
 25  12  15  ar  
 26  12  17  1   
 27  13  14  1   
 28  13  18  1   
 29  13  40  1   
 30  14  41  1   
 31  14  42  1   
 32  16  43  1   
 33  16  44  1   
 34  16  45  1   
 35  17  46  1   
 36  17  47  1   
 37  17  48  1   
 38  18  19  1   
 39  18  49  1   
 40  18  50  1   
 41  19  20  ar  
 42  19  21  ar  
 43  20  22  ar  
 44  20  51  1   
 45  21  23  ar  
 46  21  52  1   
 47  22  24  ar  
 48  22  25  1   
 49  23  24  ar  
 50  23  53  1   
 51  24  54  1   
 52  25  26  1   
 53  25  55  1   
 54  25  56  1   
 55  26  27  1   
 56  26  28  1   
 57  27  29  2   
 58  28  30  2   
 59  28  57  1   
 60  29  30  1   
 61  29  58  1   
 62  30  59  1   
@<TRIPOS>SUBSTRUCTURE
  1 ****   1 GROUP 4 **** **** 0

# MOE 2024.06 (io_trps.svl 2023.06)
