@<TRIPOS>MOLECULE
NONAME
32 33 1 0 0 
SMALL
USER_CHARGES


@<TRIPOS>ATOM
  1 F       -0.8400    -0.5970    -0.3870 F     1 <1>  -0.1900 
  2 C       -1.8530    -1.2950     0.0770 C.ar  1 <1>   0.1900 
  3 C       -3.1760    -1.0580    -0.2810 C.ar  1 <1>   0.3920 
  4 C       -1.5860    -2.3170     0.9510 C.ar  1 <1>   0.1600 
  5 O       -3.6050    -0.0960    -1.1310 O.3   1 <1>  -0.3630 
  6 N       -4.1440    -1.7980     0.2160 N.ar  1 <1>  -0.6200 
  7 N       -2.5460    -3.0650     1.4520 N.ar  1 <1>  -0.6200 
  8 C       -2.7910     0.9270    -1.6590 C.3   1 <1>   0.0400 
  9 C       -3.7770    -2.7490     1.0570 C.ar  1 <1>   0.7200 
 10 N       -4.7960    -3.4750     1.5490 N.pl3 1 <1>  -0.8690 
 11 C       -4.6950    -4.9320     1.6800 C.3   1 <1>   0.3900 
 12 C       -5.9550    -5.5280     1.0870 C.2   1 <1>  -0.1810 
 13 C       -6.4190    -5.4970    -0.1840 C.2   1 <1>  -0.3320 
 14 C       -6.9120    -6.2450     1.7940 C.2   1 <1>   0.1390 
 15 N       -7.5900    -6.1720    -0.1840 N.pl3 1 <1>   0.3140 
 16 C       -5.8040    -4.8470    -1.4160 C.3   1 <1>  -0.0600 
 17 N       -7.8910    -6.6370     1.0400 N.2   1 <1>  -0.7070 
 18 C       -8.4810    -6.4090    -1.3260 C.3   1 <1>   0.0160 
 19 H       -0.5700    -2.5220     1.2420 H     1 <1>   0.1500 
 20 H       -3.4180     1.5930    -2.2250 H     1 <1>   0.0800 
 21 H       -2.0510     0.4900    -2.3060 H     1 <1>   0.0800 
 22 H       -2.3300     1.4640    -0.8490 H     1 <1>   0.0800 
 23 H       -5.6790    -3.2130     1.1090 H     1 <1>   0.4000 
 24 H       -4.6040    -5.1920     2.7200 H     1 <1>   0.0800 
 25 H       -3.8350    -5.3060     1.1500 H     1 <1>   0.0800 
 26 H       -6.8620    -6.4580     2.8490 H     1 <1>   0.1500 
 27 H       -4.8460    -4.4200    -1.1820 H     1 <1>   0.0800 
 28 H       -6.4430    -4.0620    -1.7780 H     1 <1>   0.0800 
 29 H       -5.6670    -5.5770    -2.1930 H     1 <1>   0.0800 
 30 H       -8.7890    -5.4650    -1.7340 H     1 <1>   0.0800 
 31 H       -9.3430    -6.9560    -0.9920 H     1 <1>   0.0800 
 32 H       -7.9580    -6.9800    -2.0690 H     1 <1>   0.0800 
@<TRIPOS>BOND
  1   1   2  1   
  2   2   3  ar  
  3   2   4  ar  
  4   3   5  1   
  5   3   6  ar  
  6   4   7  ar  
  7   4  19  1   
  8   5   8  1   
  9   6   9  ar  
 10   7   9  ar  
 11   8  20  1   
 12   8  21  1   
 13   8  22  1   
 14   9  10  1   
 15  10  11  1   
 16  10  23  1   
 17  11  12  1   
 18  11  24  1   
 19  11  25  1   
 20  12  13  2   
 21  12  14  1   
 22  13  15  1   
 23  13  16  1   
 24  14  17  2   
 25  14  26  1   
 26  15  17  1   
 27  15  18  1   
 28  16  27  1   
 29  16  28  1   
 30  16  29  1   
 31  18  30  1   
 32  18  31  1   
 33  18  32  1   
@<TRIPOS>SUBSTRUCTURE
  1 ****  10 GROUP 4 **** **** 0

# MOE 2024.06 (io_trps.svl 2023.06)
