@<TRIPOS>MOLECULE
NONAME
36 37 1 0 0 
SMALL
USER_CHARGES


@<TRIPOS>ATOM
  1 CL       0.5480     0.0530    -0.3100 Cl    1 <1>  -0.1770 
  2 C        0.3650    -1.6740    -0.1530 C.ar  1 <1>   0.1770 
  3 C        1.4860    -2.4530     0.0640 C.ar  1 <1>  -0.1500 
  4 C       -0.8920    -2.2350    -0.2520 C.ar  1 <1>  -0.1500 
  5 C        1.3640    -3.8350     0.1860 C.ar  1 <1>  -0.1440 
  6 C       -1.0260    -3.6060    -0.1270 C.ar  1 <1>  -0.1500 
  7 C        0.0920    -4.3950     0.0900 C.ar  1 <1>  -0.1500 
  8 C        2.5950    -4.7220     0.4060 C.3   1 <1>   0.7040 
  9 O        2.2650    -5.8110     1.2230 O.3   1 <1>  -0.5600 
 10 O        3.5080    -4.0690     1.1940 O.3   1 <1>  -0.6800 
 11 C        3.3080    -5.1740    -0.9270 C.3   1 <1>   0.4230 
 12 C        2.5740    -7.1090     0.7640 C.3   1 <1>   0.1200 
 13 N        4.4370    -6.1090    -0.6200 N.4   1 <1>  -0.9060 
 14 C        3.8860    -4.0340    -1.7720 C.3   1 <1>  -0.2400 
 15 C        4.0340    -7.2490     0.2260 C.3   1 <1>   0.5030 
 16 C        4.1660    -8.5060    -0.6290 C.3   1 <1>  -0.2400 
 17 C        5.0310    -7.3010     1.3810 C.3   1 <1>  -0.2400 
 18 H        2.4410    -1.9600     0.1340 H     1 <1>   0.1500 
 19 H       -1.7490    -1.6060    -0.4200 H     1 <1>   0.1500 
 20 H       -2.0020    -4.0560    -0.1960 H     1 <1>   0.1500 
 21 H       -0.0490    -5.4580     0.1920 H     1 <1>   0.1500 
 22 H        3.0390    -3.8640     2.0260 H     1 <1>   0.4000 
 23 H        2.5720    -5.6850    -1.5240 H     1 <1>   0.0800 
 24 H        2.4160    -7.7890     1.5850 H     1 <1>   0.0800 
 25 H        1.8640    -7.3640    -0.0040 H     1 <1>   0.0800 
 26 H        5.0950    -5.5570    -0.0550 H     1 <1>   0.4500 
 27 H        4.9210    -6.4240    -1.4630 H     1 <1>   0.4500 
 28 H        4.6020    -3.4580    -1.2120 H     1 <1>   0.0800 
 29 H        3.0960    -3.3720    -2.0800 H     1 <1>   0.0800 
 30 H        4.3510    -4.4170    -2.6630 H     1 <1>   0.0800 
 31 H        3.9070    -9.3740    -0.0460 H     1 <1>   0.0800 
 32 H        5.1760    -8.6380    -0.9760 H     1 <1>   0.0800 
 33 H        3.5030    -8.4700    -1.4760 H     1 <1>   0.0800 
 34 H        4.8210    -8.1490     2.0090 H     1 <1>   0.0800 
 35 H        4.9520    -6.4190     1.9940 H     1 <1>   0.0800 
 36 H        6.0410    -7.3980     1.0260 H     1 <1>   0.0800 
@<TRIPOS>BOND
  1   1   2  1   
  2   2   3  ar  
  3   2   4  ar  
  4   3   5  ar  
  5   3  18  1   
  6   4   6  ar  
  7   4  19  1   
  8   5   7  ar  
  9   5   8  1   
 10   6   7  ar  
 11   6  20  1   
 12   7  21  1   
 13   8   9  1   
 14   8  10  1   
 15   8  11  1   
 16   9  12  1   
 17  10  22  1   
 18  11  13  1   
 19  11  14  1   
 20  11  23  1   
 21  12  15  1   
 22  12  24  1   
 23  12  25  1   
 24  13  15  1   
 25  13  26  1   
 26  13  27  1   
 27  14  28  1   
 28  14  29  1   
 29  14  30  1   
 30  15  16  1   
 31  15  17  1   
 32  16  31  1   
 33  16  32  1   
 34  16  33  1   
 35  17  34  1   
 36  17  35  1   
 37  17  36  1   
@<TRIPOS>SUBSTRUCTURE
  1 ****   8 GROUP 4 **** **** 0

# MOE 2024.06 (io_trps.svl 2023.06)
