@<TRIPOS>MOLECULE
NONAME
52 55 1 0 0 
SMALL
USER_CHARGES


@<TRIPOS>ATOM
  1 O        0.3430     0.6500     0.7770 O.3   1 <1>  -0.0190 
  2 N        1.1620    -0.3400     0.5650 N.2   1 <1>  -0.4100 
  3 C        0.7050     1.7300     0.1370 C.2   1 <1>  -0.0400 
  4 C        2.0660     0.1090    -0.2290 C.2   1 <1>   0.1080 
  5 C        1.8270     1.4440    -0.5450 C.2   1 <1>  -0.1500 
  6 C       -0.1450     2.9830     0.2750 C.3   1 <1>   0.0200 
  7 C        3.2270    -0.7110    -0.7460 C.3   1 <1>  -0.0590 
  8 C        0.5390     4.2350    -0.3020 C.3   1 <1>  -0.0800 
  9 C       -0.3320     5.4940    -0.3260 C.3   1 <1>   0.2000 
 10 C        1.7770     4.6650     0.4860 C.3   1 <1>   0.2090 
 11 O       -1.0530     5.5580     0.8750 O.3   1 <1>  -0.5600 
 12 C        0.6930     6.6360    -0.4090 C.3   1 <1>   0.2090 
 13 N        1.9570     6.0920     0.1480 N.pl3 1 <1>  -0.7880 
 14 C       -2.1220     6.4510     0.8820 C.3   1 <1>   0.0400 
 15 C        3.0930     6.8330     0.2850 C.2   1 <1>   0.4860 
 16 N        3.0900     8.0450    -0.2540 N.2   1 <1>  -0.6210 
 17 C        4.2180     6.3300     0.9680 C.2   1 <1>  -0.1360 
 18 C        4.1850     8.8020    -0.1520 C.2   1 <1>   0.2710 
 19 C        5.3300     7.0950     1.0710 C.2   1 <1>  -0.0380 
 20 N        5.2790     8.3140     0.5000 N.pl3 1 <1>  -0.6000 
 21 C        4.2090    10.1130    -0.7230 C.2   1 <1>   0.0140 
 22 C        6.6060     6.6850     1.7750 C.3   1 <1>  -0.1020 
 23 C        5.3390    10.9820    -0.6500 C.2   1 <1>   0.5410 
 24 C        3.0810    10.6180    -1.4050 C.2   1 <1>  -0.1500 
 25 O        6.4130    10.6790    -0.0820 O.2   1 <1>  -0.5700 
 26 C        5.2760    12.2620    -1.2410 C.2   1 <1>  -0.1360 
 27 C        3.0450    11.8680    -1.9720 C.2   1 <1>  -0.1500 
 28 C        4.1580    12.7040    -1.8900 C.2   1 <1>  -0.1500 
 29 H        2.4260     2.0560    -1.1910 H     1 <1>   0.1500 
 30 H       -1.0800     2.8180    -0.2290 H     1 <1>   0.0800 
 31 H       -0.3610     3.1360     1.3190 H     1 <1>   0.0800 
 32 H        4.1540    -0.2210    -0.5110 H     1 <1>   0.0800 
 33 H        3.1440    -0.8280    -1.8100 H     1 <1>   0.0800 
 34 H        3.2210    -1.6840    -0.2870 H     1 <1>   0.0800 
 35 H        0.8450     4.0320    -1.3130 H     1 <1>   0.0800 
 36 H       -1.0200     5.4940    -1.1530 H     1 <1>   0.0800 
 37 H        2.6420     4.0870     0.2110 H     1 <1>   0.0800 
 38 H        1.5980     4.5780     1.5450 H     1 <1>   0.0800 
 39 H        0.3810     7.5060     0.1420 H     1 <1>   0.0800 
 40 H        0.8610     6.9060    -1.4360 H     1 <1>   0.0800 
 41 H       -2.5970     6.3930     1.8460 H     1 <1>   0.0800 
 42 H       -2.8250     6.1730     0.1170 H     1 <1>   0.0800 
 43 H       -1.7610     7.4520     0.7220 H     1 <1>   0.0800 
 44 H        4.1750     5.3540     1.4020 H     1 <1>   0.1500 
 45 H        6.0910     8.9520     0.5430 H     1 <1>   0.4000 
 46 H        6.8170     7.3730     2.5740 H     1 <1>   0.0800 
 47 H        7.4250     6.6950     1.0790 H     1 <1>   0.0800 
 48 H        6.5110     5.6970     2.1850 H     1 <1>   0.0800 
 49 H        2.2060     9.9960    -1.4850 H     1 <1>   0.1500 
 50 H        6.1520    12.8780    -1.1580 H     1 <1>   0.1500 
 51 H        2.1620    12.2130    -2.4830 H     1 <1>   0.1500 
 52 H        4.1200    13.6830    -2.3380 H     1 <1>   0.1500 
@<TRIPOS>BOND
  1   1   2  1   
  2   1   3  1   
  3   2   4  2   
  4   3   5  2   
  5   3   6  1   
  6   4   5  1   
  7   4   7  1   
  8   5  29  1   
  9   6   8  1   
 10   6  30  1   
 11   6  31  1   
 12   7  32  1   
 13   7  33  1   
 14   7  34  1   
 15   8   9  1   
 16   8  10  1   
 17   8  35  1   
 18   9  11  1   
 19   9  12  1   
 20   9  36  1   
 21  10  13  1   
 22  10  37  1   
 23  10  38  1   
 24  11  14  1   
 25  12  13  1   
 26  12  39  1   
 27  12  40  1   
 28  13  15  1   
 29  14  41  1   
 30  14  42  1   
 31  14  43  1   
 32  15  16  2   
 33  15  17  1   
 34  16  18  1   
 35  17  19  2   
 36  17  44  1   
 37  18  20  1   
 38  18  21  2   
 39  19  20  1   
 40  19  22  1   
 41  20  45  1   
 42  21  23  1   
 43  21  24  1   
 44  22  46  1   
 45  22  47  1   
 46  22  48  1   
 47  23  25  2   
 48  23  26  1   
 49  24  27  2   
 50  24  49  1   
 51  26  28  2   
 52  26  50  1   
 53  27  28  1   
 54  27  51  1   
 55  28  52  1   
@<TRIPOS>SUBSTRUCTURE
  1 ****  13 GROUP 4 **** **** 0

# MOE 2024.06 (io_trps.svl 2023.06)
