@<TRIPOS>MOLECULE
NONAME
51 53 1 0 0 
SMALL
USER_CHARGES


@<TRIPOS>ATOM
  1 O       -0.7080    -0.0030     0.4130 O.2   1 <1>  -0.5700 
  2 C       -1.6760     0.7320     0.4560 C.2   1 <1>   0.6900 
  3 N       -2.8740     0.2950     0.9440 N.am  1 <1>  -0.6600 
  4 N       -1.5650     2.0080     0.0280 N.am  1 <1>  -0.7300 
  5 C       -4.1620     1.0130     0.8100 C.3   1 <1>   0.1400 
  6 C       -3.0950    -1.0990     1.3740 C.3   1 <1>   0.1400 
  7 C       -0.2740     2.6590    -0.3430 C.3   1 <1>   0.2010 
  8 C       -5.2470    -0.0750     0.8390 C.3   1 <1>  -0.0800 
  9 C       -4.5170    -1.4350     0.9270 C.3   1 <1>  -0.0800 
 10 C       -0.2900     4.1770    -0.1650 C.2   1 <1>   0.6590 
 11 C       -6.3070     0.0390    -0.2890 C.3   1 <1>   0.4240 
 12 C       -4.5290    -2.2120    -0.4010 C.3   1 <1>  -0.1600 
 13 O       -1.2810     4.7750     0.1810 O.2   1 <1>  -0.5700 
 14 O        0.8540     4.8000    -0.4190 O.3   1 <1>  -0.4300 
 15 O       -5.6790     0.3450    -1.4840 O.3   1 <1>  -0.6800 
 16 C       -7.3370     1.1390     0.0440 C.ar  1 <1>  -0.1440 
 17 C       -6.9610    -1.3340    -0.5210 C.3   1 <1>  -0.1600 
 18 C       -5.9590    -2.4380    -0.9330 C.3   1 <1>  -0.1600 
 19 C        0.9740     6.1980    -0.2930 C.3   1 <1>   0.1200 
 20 C       -7.3800     2.3490    -0.6450 C.ar  1 <1>  -0.1500 
 21 C       -8.2540     0.9470     1.0740 C.ar  1 <1>  -0.1500 
 22 C        2.4030     6.5850    -0.6600 C.3   1 <1>  -0.2400 
 23 C       -8.3050     3.3260    -0.3210 C.ar  1 <1>  -0.1500 
 24 C       -9.1820     1.9210     1.4010 C.ar  1 <1>  -0.1500 
 25 C       -9.2080     3.1130     0.7030 C.ar  1 <1>  -0.1500 
 26 H       -2.3190     2.6580     0.2550 H     1 <1>   0.3700 
 27 H       -4.2880     1.6870     1.6400 H     1 <1>   0.0800 
 28 H       -4.1740     1.5840    -0.1010 H     1 <1>   0.0800 
 29 H       -2.3680    -1.7650     0.9410 H     1 <1>   0.0800 
 30 H       -3.0180    -1.1430     2.4470 H     1 <1>   0.0800 
 31 H        0.5160     2.2520     0.2630 H     1 <1>   0.0800 
 32 H       -0.0570     2.4360    -1.3710 H     1 <1>   0.0800 
 33 H       -5.7640     0.0440     1.7730 H     1 <1>   0.0800 
 34 H       -4.9830    -2.0540     1.6750 H     1 <1>   0.0800 
 35 H       -3.9510    -1.6670    -1.1290 H     1 <1>   0.0800 
 36 H       -4.0440    -3.1640    -0.2710 H     1 <1>   0.0800 
 37 H       -5.0460    -0.3710    -1.6730 H     1 <1>   0.4000 
 38 H       -7.4350    -1.6450     0.3910 H     1 <1>   0.0800 
 39 H       -7.7370    -1.2410    -1.2620 H     1 <1>   0.0800 
 40 H       -6.3280    -3.3830    -0.5730 H     1 <1>   0.0800 
 41 H       -5.9200    -2.5040    -2.0080 H     1 <1>   0.0800 
 42 H        0.2640     6.6630    -0.9570 H     1 <1>   0.0800 
 43 H        0.7480     6.4700     0.7240 H     1 <1>   0.0800 
 44 H       -6.6920     2.5470    -1.4480 H     1 <1>   0.1500 
 45 H       -8.2570     0.0340     1.6410 H     1 <1>   0.1500 
 46 H        2.6170     6.2990    -1.6740 H     1 <1>   0.0800 
 47 H        3.0990     6.1060     0.0050 H     1 <1>   0.0800 
 48 H        2.5230     7.6500    -0.5720 H     1 <1>   0.0800 
 49 H       -8.3200     4.2520    -0.8690 H     1 <1>   0.1500 
 50 H       -9.8830     1.7520     2.1990 H     1 <1>   0.1500 
 51 H       -9.9270     3.8730     0.9550 H     1 <1>   0.1500 
@<TRIPOS>BOND
  1   1   2  2   
  2   2   3  am  
  3   2   4  am  
  4   3   5  1   
  5   3   6  1   
  6   4   7  1   
  7   4  26  1   
  8   5   8  1   
  9   5  27  1   
 10   5  28  1   
 11   6   9  1   
 12   6  29  1   
 13   6  30  1   
 14   7  10  1   
 15   7  31  1   
 16   7  32  1   
 17   8   9  1   
 18   8  11  1   
 19   8  33  1   
 20   9  12  1   
 21   9  34  1   
 22  10  13  2   
 23  10  14  1   
 24  11  15  1   
 25  11  16  1   
 26  11  17  1   
 27  12  18  1   
 28  12  35  1   
 29  12  36  1   
 30  14  19  1   
 31  15  37  1   
 32  16  20  ar  
 33  16  21  ar  
 34  17  18  1   
 35  17  38  1   
 36  17  39  1   
 37  18  40  1   
 38  18  41  1   
 39  19  22  1   
 40  19  42  1   
 41  19  43  1   
 42  20  23  ar  
 43  20  44  1   
 44  21  24  ar  
 45  21  45  1   
 46  22  46  1   
 47  22  47  1   
 48  22  48  1   
 49  23  25  ar  
 50  23  49  1   
 51  24  25  ar  
 52  24  50  1   
 53  25  51  1   
@<TRIPOS>SUBSTRUCTURE
  1 ****   5 GROUP 4 **** **** 0

# MOE 2024.06 (io_trps.svl 2023.06)
