@<TRIPOS>MOLECULE
NONAME
45 47 1 0 0 
SMALL
USER_CHARGES


@<TRIPOS>ATOM
  1 O       -1.1330    -0.5800     0.4990 O.2   1 <1>  -0.5700 
  2 C       -2.0590     0.2090     0.5020 C.2   1 <1>   0.5440 
  3 N       -1.7890     1.5480     0.6980 N.am  1 <1>  -0.6600 
  4 C       -3.3990    -0.2850     0.2870 C.ar  1 <1>   0.0860 
  5 C       -2.6320     2.6560     0.1550 C.3   1 <1>   0.1400 
  6 C       -0.4650     2.0200     1.2100 C.3   1 <1>   0.1400 
  7 C       -3.6410    -1.2600    -0.6760 C.ar  1 <1>   0.1600 
  8 C       -4.4970     0.1590     1.0180 C.ar  1 <1>  -0.1500 
  9 C       -1.8170     3.5400    -0.8060 C.3   1 <1>   0.1200 
 10 C        0.2210     2.9300     0.1790 C.3   1 <1>   0.1200 
 11 N       -4.8180    -1.7850    -0.9740 N.ar  1 <1>  -0.6200 
 12 C       -5.7270    -0.3780     0.7250 C.ar  1 <1>  -0.1500 
 13 O       -0.6320     3.9730    -0.2010 O.3   1 <1>  -0.5600 
 14 C       -5.8530    -1.3400    -0.2730 C.ar  1 <1>   0.4100 
 15 N       -7.0850    -1.8660    -0.5500 N.pl3 1 <1>  -0.8690 
 16 C       -7.3480    -3.0120    -1.4900 C.3   1 <1>   0.2700 
 17 C       -7.8790    -4.2780    -0.8000 C.2   1 <1>   0.5690 
 18 O       -9.0640    -4.5120    -0.8810 O.2   1 <1>  -0.5700 
 19 N       -7.0360    -5.1190    -0.1210 N.am  1 <1>  -0.6600 
 20 C       -5.5930    -4.8900     0.1120 C.3   1 <1>   0.1400 
 21 C       -7.4830    -6.3880     0.4870 C.3   1 <1>   0.1400 
 22 C       -5.1590    -6.0280     1.0310 C.3   1 <1>  -0.1600 
 23 C       -6.1920    -7.1300     0.8100 C.3   1 <1>  -0.1600 
 24 H       -2.9920     3.2610     0.9700 H     1 <1>   0.0800 
 25 H       -3.4830     2.2650    -0.3740 H     1 <1>   0.0800 
 26 H        0.1780     1.1870     1.4340 H     1 <1>   0.0800 
 27 H       -0.6150     2.5720     2.1210 H     1 <1>   0.0800 
 28 H       -2.7950    -1.6240    -1.2340 H     1 <1>   0.1500 
 29 H       -4.3750     0.8960     1.7920 H     1 <1>   0.1500 
 30 H       -2.3830     4.4120    -1.0800 H     1 <1>   0.0800 
 31 H       -1.5670     2.9960    -1.7000 H     1 <1>   0.0800 
 32 H        0.4940     2.3670    -0.6970 H     1 <1>   0.0800 
 33 H        1.1080     3.3660     0.6010 H     1 <1>   0.0800 
 34 H       -6.6030    -0.0640     1.2600 H     1 <1>   0.1500 
 35 H       -7.8460    -1.7000     0.1130 H     1 <1>   0.4000 
 36 H       -6.4610    -3.2700    -2.0380 H     1 <1>   0.0800 
 37 H       -8.0810    -2.6960    -2.2090 H     1 <1>   0.0800 
 38 H       -5.4240    -3.9350     0.5770 H     1 <1>   0.0800 
 39 H       -5.0660    -4.9370    -0.8260 H     1 <1>   0.0800 
 40 H       -8.1080    -6.9420    -0.1940 H     1 <1>   0.0800 
 41 H       -8.0330    -6.1690     1.3860 H     1 <1>   0.0800 
 42 H       -5.2040    -5.6850     2.0500 H     1 <1>   0.0800 
 43 H       -4.1570    -6.3530     0.8160 H     1 <1>   0.0800 
 44 H       -5.9130    -7.7280    -0.0400 H     1 <1>   0.0800 
 45 H       -6.3030    -7.7690     1.6680 H     1 <1>   0.0800 
@<TRIPOS>BOND
  1   1   2  2   
  2   2   3  am  
  3   2   4  1   
  4   3   5  1   
  5   3   6  1   
  6   4   7  ar  
  7   4   8  ar  
  8   5   9  1   
  9   5  24  1   
 10   5  25  1   
 11   6  10  1   
 12   6  26  1   
 13   6  27  1   
 14   7  11  ar  
 15   7  28  1   
 16   8  12  ar  
 17   8  29  1   
 18   9  13  1   
 19   9  30  1   
 20   9  31  1   
 21  10  13  1   
 22  10  32  1   
 23  10  33  1   
 24  11  14  ar  
 25  12  14  ar  
 26  12  34  1   
 27  14  15  1   
 28  15  16  1   
 29  15  35  1   
 30  16  17  1   
 31  16  36  1   
 32  16  37  1   
 33  17  18  2   
 34  17  19  am  
 35  19  20  1   
 36  19  21  1   
 37  20  22  1   
 38  20  38  1   
 39  20  39  1   
 40  21  23  1   
 41  21  40  1   
 42  21  41  1   
 43  22  23  1   
 44  22  42  1   
 45  22  43  1   
 46  23  44  1   
 47  23  45  1   
@<TRIPOS>SUBSTRUCTURE
  1 ****   7 GROUP 4 **** **** 0

# MOE 2024.06 (io_trps.svl 2023.06)
