@<TRIPOS>MOLECULE
NONAME
45 47 1 0 0 
SMALL
USER_CHARGES


@<TRIPOS>ATOM
  1 F        0.4360     1.0600    -0.0160 F     1 <1>  -0.1900 
  2 C       -0.8490     1.2690     0.1630 C.ar  1 <1>   0.1900 
  3 C       -1.2580     2.4030     0.8560 C.ar  1 <1>   0.1000 
  4 C       -1.7580     0.3680    -0.3520 C.ar  1 <1>   0.1600 
  5 N       -0.3660     3.3360     1.3820 N.pl3 1 <1>  -0.8690 
  6 C       -2.6310     2.5230     0.9930 C.ar  1 <1>  -0.1500 
  7 N       -3.0750     0.5000    -0.2330 N.ar  1 <1>  -0.6200 
  8 C       -0.5170     4.7990     1.1000 C.3   1 <1>   0.2090 
  9 C       -3.4730     1.5700     0.4440 C.ar  1 <1>   0.1600 
 10 C        0.6340     5.4470     0.2540 C.3   1 <1>   0.5030 
 11 N        0.4000     6.9400     0.0900 N.4   1 <1>  -0.9590 
 12 C        0.7970     4.7610    -1.1180 C.3   1 <1>  -0.1600 
 13 C        2.0030     5.2280     0.9370 C.3   1 <1>  -0.1600 
 14 C       -0.9270     7.2830    -0.5210 C.3   1 <1>   0.3430 
 15 C        1.4900     7.6750    -0.6320 C.3   1 <1>   0.3430 
 16 C        2.2880     4.7630    -1.4710 C.3   1 <1>  -0.1600 
 17 C        3.0430     4.9130    -0.1490 C.3   1 <1>  -0.1600 
 18 C       -1.1940     8.7830    -0.3860 C.3   1 <1>  -0.1600 
 19 C        1.2860     9.1850    -0.4960 C.3   1 <1>  -0.1600 
 20 C       -0.0830     9.6190    -1.0290 C.3   1 <1>  -0.1600 
 21 H       -1.3920    -0.4920    -0.8840 H     1 <1>   0.1500 
 22 H        0.6090     3.0000     1.4060 H     1 <1>   0.4000 
 23 H       -3.0460     3.3490     1.5390 H     1 <1>   0.1500 
 24 H       -0.5820     5.3070     2.0460 H     1 <1>   0.0800 
 25 H       -1.4510     4.9330     0.5850 H     1 <1>   0.0800 
 26 H       -4.5370     1.6890     0.5680 H     1 <1>   0.1500 
 27 H        0.3930     7.3330     1.0380 H     1 <1>   0.4500 
 28 H        0.2000     5.2020    -1.8940 H     1 <1>   0.0800 
 29 H        0.5000     3.7300    -1.0400 H     1 <1>   0.0800 
 30 H        1.9660     4.3770     1.5920 H     1 <1>   0.0800 
 31 H        2.3000     6.0670     1.5420 H     1 <1>   0.0800 
 32 H       -1.7230     6.7510    -0.0310 H     1 <1>   0.0800 
 33 H       -0.9300     7.0120    -1.5650 H     1 <1>   0.0800 
 34 H        1.4830     7.4050    -1.6750 H     1 <1>   0.0800 
 35 H        2.4530     7.4180    -0.2230 H     1 <1>   0.0800 
 36 H        2.5220     5.5820    -2.1280 H     1 <1>   0.0800 
 37 H        2.5640     3.8500    -1.9730 H     1 <1>   0.0800 
 38 H        3.5530     3.9930     0.0880 H     1 <1>   0.0800 
 39 H        3.7840     5.6910    -0.2220 H     1 <1>   0.0800 
 40 H       -1.2920     9.0390     0.6550 H     1 <1>   0.0800 
 41 H       -2.1320     9.0170    -0.8620 H     1 <1>   0.0800 
 42 H        2.0580     9.6940    -1.0480 H     1 <1>   0.0800 
 43 H        1.3890     9.4710     0.5360 H     1 <1>   0.0800 
 44 H       -0.2430    10.6650    -0.8230 H     1 <1>   0.0800 
 45 H       -0.1090     9.4900    -2.0990 H     1 <1>   0.0800 
@<TRIPOS>BOND
  1   1   2  1   
  2   2   3  ar  
  3   2   4  ar  
  4   3   5  1   
  5   3   6  ar  
  6   4   7  ar  
  7   4  21  1   
  8   5   8  1   
  9   5  22  1   
 10   6   9  ar  
 11   6  23  1   
 12   7   9  ar  
 13   8  10  1   
 14   8  24  1   
 15   8  25  1   
 16   9  26  1   
 17  10  11  1   
 18  10  12  1   
 19  10  13  1   
 20  11  14  1   
 21  11  15  1   
 22  11  27  1   
 23  12  16  1   
 24  12  28  1   
 25  12  29  1   
 26  13  17  1   
 27  13  30  1   
 28  13  31  1   
 29  14  18  1   
 30  14  32  1   
 31  14  33  1   
 32  15  19  1   
 33  15  34  1   
 34  15  35  1   
 35  16  17  1   
 36  16  36  1   
 37  16  37  1   
 38  17  38  1   
 39  17  39  1   
 40  18  20  1   
 41  18  40  1   
 42  18  41  1   
 43  19  20  1   
 44  19  42  1   
 45  19  43  1   
 46  20  44  1   
 47  20  45  1   
@<TRIPOS>SUBSTRUCTURE
  1 ****   8 GROUP 4 **** **** 0

# MOE 2024.06 (io_trps.svl 2023.06)
