@<TRIPOS>MOLECULE
NONAME
44 47 1 0 0 
SMALL
USER_CHARGES


@<TRIPOS>ATOM
  1 O       -0.0310     1.4430    -1.4420 O.2   1 <1>  -0.5700 
  2 C       -0.3610     2.5920    -1.2570 C.2   1 <1>   0.5690 
  3 N       -1.1180     3.0020    -0.1920 N.am  1 <1>  -0.5090 
  4 C        0.0960     3.6440    -2.2590 C.3   1 <1>   0.1810 
  5 C       -1.5140     4.4410    -0.0410 C.3   1 <1>   0.3640 
  6 C       -1.3680     2.1240     0.9790 C.3   1 <1>   0.0490 
  7 O        0.3930     4.8520    -1.6090 O.3   1 <1>  -0.5600 
  8 C       -3.0030     4.6070    -0.3470 C.ar  1 <1>  -0.1440 
  9 C       -0.7060     5.4390    -0.9240 C.3   1 <1>   0.2610 
 10 C       -2.0770     0.8240     0.7630 C.3   1 <1>  -0.2000 
 11 C       -2.7560     1.9250     1.5090 C.3   1 <1>  -0.2000 
 12 C       -3.7650     5.4800     0.4190 C.ar  1 <1>   0.1600 
 13 C       -3.6270     3.9170    -1.3730 C.ar  1 <1>  -0.1500 
 14 C       -0.2360     6.6150    -0.0620 C.2   1 <1>   0.5690 
 15 N       -5.0580     5.7070     0.2510 N.ar  1 <1>  -0.6200 
 16 C       -4.9730     4.1450    -1.5610 C.ar  1 <1>  -0.1500 
 17 O       -1.0380     7.1870     0.6390 O.2   1 <1>  -0.5700 
 18 N        1.0690     6.9870    -0.0930 N.am  1 <1>  -0.7300 
 19 C       -5.6310     5.0360    -0.7320 C.ar  1 <1>   0.1600 
 20 C        1.6830     8.0660     0.6950 C.3   1 <1>   0.2350 
 21 C        3.0340     7.5700     1.2050 C.3   1 <1>  -0.1950 
 22 C        4.1620     8.5230     1.4420 C.3   1 <1>  -0.2000 
 23 C        4.2370     7.5320     0.3150 C.3   1 <1>  -0.2000 
 24 H       -0.6670     3.8170    -2.9950 H     1 <1>   0.0800 
 25 H        0.9910     3.3060    -2.7500 H     1 <1>   0.0800 
 26 H       -1.3560     4.7010     0.9920 H     1 <1>   0.0800 
 27 H       -0.5480     2.1330     1.6780 H     1 <1>   0.1000 
 28 H       -1.3570     5.8450    -1.6780 H     1 <1>   0.0800 
 29 H       -2.4070     0.5810    -0.2320 H     1 <1>   0.1000 
 30 H       -1.7410    -0.0400     1.3090 H     1 <1>   0.1000 
 31 H       -2.8940     1.8040     2.5680 H     1 <1>   0.1000 
 32 H       -3.6060     2.3830     1.0370 H     1 <1>   0.1000 
 33 H       -3.2890     6.0290     1.2160 H     1 <1>   0.1500 
 34 H       -3.1010     3.2200    -2.0010 H     1 <1>   0.1500 
 35 H       -5.5110     3.6350    -2.3390 H     1 <1>   0.1500 
 36 H        1.7070     6.4500    -0.6890 H     1 <1>   0.3700 
 37 H       -6.6840     5.2050    -0.8860 H     1 <1>   0.1500 
 38 H        1.8150     8.9300     0.0660 H     1 <1>   0.0800 
 39 H        1.0470     8.3360     1.5230 H     1 <1>   0.0800 
 40 H        2.9210     6.7770     1.9260 H     1 <1>   0.1000 
 41 H        4.0370     9.5650     1.2000 H     1 <1>   0.1000 
 42 H        4.7940     8.3750     2.3020 H     1 <1>   0.1000 
 43 H        4.9170     6.7020     0.4010 H     1 <1>   0.1000 
 44 H        4.1600     7.8980    -0.6940 H     1 <1>   0.1000 
@<TRIPOS>BOND
  1   1   2  2   
  2   2   3  am  
  3   2   4  1   
  4   3   5  1   
  5   3   6  1   
  6   4   7  1   
  7   4  24  1   
  8   4  25  1   
  9   5   8  1   
 10   5   9  1   
 11   5  26  1   
 12   6  10  1   
 13   6  11  1   
 14   6  27  1   
 15   7   9  1   
 16   8  12  ar  
 17   8  13  ar  
 18   9  14  1   
 19   9  28  1   
 20  10  11  1   
 21  10  29  1   
 22  10  30  1   
 23  11  31  1   
 24  11  32  1   
 25  12  15  ar  
 26  12  33  1   
 27  13  16  ar  
 28  13  34  1   
 29  14  17  2   
 30  14  18  am  
 31  15  19  ar  
 32  16  19  ar  
 33  16  35  1   
 34  18  20  1   
 35  18  36  1   
 36  19  37  1   
 37  20  21  1   
 38  20  38  1   
 39  20  39  1   
 40  21  22  1   
 41  21  23  1   
 42  21  40  1   
 43  22  23  1   
 44  22  41  1   
 45  22  42  1   
 46  23  43  1   
 47  23  44  1   
@<TRIPOS>SUBSTRUCTURE
  1 ****   5 GROUP 4 **** **** 0

# MOE 2024.06 (io_trps.svl 2023.06)
