@<TRIPOS>MOLECULE
NONAME
47 48 1 0 0 
SMALL
USER_CHARGES


@<TRIPOS>ATOM
  1 CL      -0.9720    -2.4510     3.4860 Cl    1 <1>  -0.1770 
  2 C       -1.5710    -2.2480     1.8590 C.ar  1 <1>   0.1770 
  3 C       -1.9670    -3.3600     1.1400 C.ar  1 <1>  -0.1500 
  4 C       -1.6420    -0.9790     1.3170 C.ar  1 <1>  -0.1500 
  5 C       -2.4450    -3.2050    -0.1520 C.ar  1 <1>  -0.1440 
  6 C       -2.1190    -0.8230     0.0270 C.ar  1 <1>  -0.1500 
  7 C       -2.5190    -1.9330    -0.7020 C.ar  1 <1>  -0.1500 
  8 C       -2.8910    -4.4180    -0.9530 C.3   1 <1>  -0.0160 
  9 C       -4.3470    -4.7710    -0.6170 C.3   1 <1>  -0.0990 
 10 C       -4.8540    -6.0160    -1.3320 C.2   1 <1>   0.5690 
 11 O       -4.2530    -6.4020    -2.3080 O.2   1 <1>  -0.5700 
 12 N       -5.9660    -6.6640    -0.8670 N.am  1 <1>  -0.6600 
 13 C       -6.3620    -7.9980    -1.4420 C.3   1 <1>   0.1400 
 14 C       -6.8130    -6.1670     0.2690 C.3   1 <1>   0.1400 
 15 C       -7.0630    -8.8410    -0.3710 C.3   1 <1>   0.2000 
 16 C       -8.2540    -6.6480     0.0940 C.3   1 <1>  -0.1600 
 17 O       -7.2860   -10.1320    -0.8190 O.3   1 <1>  -0.6800 
 18 C       -8.3800    -8.2030     0.1480 C.3   1 <1>  -0.1060 
 19 C       -8.4860    -8.7430     1.5820 C.2   1 <1>   0.9060 
 20 C       -9.6330    -8.6170    -0.6890 C.3   1 <1>  -0.1600 
 21 O       -8.3940    -7.9720     2.5460 O.co2 1 <1>  -0.9000 
 22 O       -8.5910    -9.9690     1.7330 O.co2 1 <1>  -0.9000 
 23 C      -10.9550    -8.0000    -0.1960 C.3   1 <1>  -0.1600 
 24 C      -12.1400    -8.5130    -1.0200 C.3   1 <1>  -0.2400 
 25 H       -1.8990    -4.3330     1.5930 H     1 <1>   0.1500 
 26 H       -1.3280    -0.1300     1.8970 H     1 <1>   0.1500 
 27 H       -2.1810     0.1590    -0.4110 H     1 <1>   0.1500 
 28 H       -2.8890    -1.8000    -1.7040 H     1 <1>   0.1500 
 29 H       -2.7990    -4.2170    -2.0060 H     1 <1>   0.0800 
 30 H       -2.2560    -5.2570    -0.7260 H     1 <1>   0.0800 
 31 H       -4.9820    -3.9460    -0.8810 H     1 <1>   0.0800 
 32 H       -4.4180    -4.9290     0.4430 H     1 <1>   0.0800 
 33 H       -7.0250    -7.8430    -2.2730 H     1 <1>   0.0800 
 34 H       -5.4850    -8.5200    -1.7830 H     1 <1>   0.0800 
 35 H       -6.4220    -6.5370     1.2030 H     1 <1>   0.0800 
 36 H       -6.8070    -5.0920     0.2970 H     1 <1>   0.0800 
 37 H       -6.3700    -8.9340     0.4500 H     1 <1>   0.0800 
 38 H       -8.8680    -6.2050     0.8590 H     1 <1>   0.0800 
 39 H       -8.6070    -6.2750    -0.8500 H     1 <1>   0.0800 
 40 H       -7.7730   -10.5800    -0.0800 H     1 <1>   0.4000 
 41 H       -9.4760    -8.3520    -1.7200 H     1 <1>   0.0800 
 42 H       -9.7450    -9.6870    -0.6490 H     1 <1>   0.0800 
 43 H      -11.1060    -8.2610     0.8380 H     1 <1>   0.0800 
 44 H      -10.9210    -6.9280    -0.2660 H     1 <1>   0.0800 
 45 H      -12.2150    -9.5830    -0.9350 H     1 <1>   0.0800 
 46 H      -12.0170    -8.2530    -2.0560 H     1 <1>   0.0800 
 47 H      -13.0540    -8.0760    -0.6580 H     1 <1>   0.0800 
@<TRIPOS>BOND
  1   1   2  1   
  2   2   3  ar  
  3   2   4  ar  
  4   3   5  ar  
  5   3  25  1   
  6   4   6  ar  
  7   4  26  1   
  8   5   7  ar  
  9   5   8  1   
 10   6   7  ar  
 11   6  27  1   
 12   7  28  1   
 13   8   9  1   
 14   8  29  1   
 15   8  30  1   
 16   9  10  1   
 17   9  31  1   
 18   9  32  1   
 19  10  11  2   
 20  10  12  am  
 21  12  13  1   
 22  12  14  1   
 23  13  15  1   
 24  13  33  1   
 25  13  34  1   
 26  14  16  1   
 27  14  35  1   
 28  14  36  1   
 29  15  17  1   
 30  15  18  1   
 31  15  37  1   
 32  16  18  1   
 33  16  38  1   
 34  16  39  1   
 35  17  40  1   
 36  18  19  1   
 37  18  20  1   
 38  19  21  ar  
 39  19  22  ar  
 40  20  23  1   
 41  20  41  1   
 42  20  42  1   
 43  23  24  1   
 44  23  43  1   
 45  23  44  1   
 46  24  45  1   
 47  24  46  1   
 48  24  47  1   
@<TRIPOS>SUBSTRUCTURE
  1 ****  14 GROUP 4 **** **** 0

# MOE 2024.06 (io_trps.svl 2023.06)
