@<TRIPOS>MOLECULE
NONAME
57 60 1 0 0 
SMALL
USER_CHARGES


@<TRIPOS>ATOM
  1 O       -2.4690     0.6020    -1.5990 O.2   1 <1>  -0.5700 
  2 C       -1.9660     0.3490    -0.5300 C.2   1 <1>   0.5690 
  3 N       -2.0060    -0.9100    -0.0270 N.am  1 <1>  -0.7300 
  4 C       -1.2760     1.4950     0.2480 C.3   1 <1>   0.0610 
  5 C       -2.6280    -2.0740    -0.6960 C.3   1 <1>   0.2200 
  6 C       -2.2930     2.6420     0.4600 C.3   1 <1>  -0.1600 
  7 C       -0.0940     2.0220    -0.5990 C.3   1 <1>  -0.1600 
  8 C       -0.7470     1.0260     1.6290 C.3   1 <1>  -0.2400 
  9 C       -3.9920    -2.3280    -0.0780 C.3   1 <1>  -0.0800 
 10 C       -1.8760    -3.3400    -0.3060 C.3   1 <1>   0.1200 
 11 C       -1.6550     3.9340     0.9670 C.3   1 <1>   0.3430 
 12 C        0.4990     3.3260    -0.0690 C.3   1 <1>   0.3430 
 13 C       -3.6480    -3.1820     1.1500 C.3   1 <1>   0.1200 
 14 C       -4.9270    -3.0660    -1.0580 C.3   1 <1>  -0.0170 
 15 O       -2.3530    -3.6770     0.9600 O.3   1 <1>  -0.5600 
 16 N       -0.5740     4.3550     0.0320 N.4   1 <1>  -0.9590 
 17 C       -6.3260    -3.2380    -0.4720 C.ar  1 <1>  -0.1440 
 18 C       -0.0120     5.6830     0.4200 C.3   1 <1>   0.2630 
 19 C       -7.2560    -2.1730    -0.4060 C.ar  1 <1>   0.0000 
 20 C       -6.7200    -4.4500     0.0130 C.ar  1 <1>  -0.1500 
 21 C       -8.5170    -2.4380     0.1810 C.ar  1 <1>   0.3100 
 22 C       -7.0130    -0.8660    -0.8900 C.ar  1 <1>  -0.1500 
 23 C       -7.9960    -4.6070     0.5680 C.ar  1 <1>   0.1600 
 24 N       -8.8700    -3.6560     0.6630 N.ar  1 <1>  -0.6200 
 25 C       -9.4570    -1.3990     0.2710 C.ar  1 <1>  -0.1500 
 26 C       -7.9530     0.1240    -0.7900 C.ar  1 <1>  -0.1500 
 27 C       -9.1910    -0.1420    -0.2000 C.ar  1 <1>  -0.1500 
 28 H       -1.6260    -1.1270     0.8970 H     1 <1>   0.3700 
 29 H       -2.6600    -1.9250    -1.7630 H     1 <1>   0.0800 
 30 H       -3.0520     2.3260     1.1550 H     1 <1>   0.0800 
 31 H       -2.7970     2.8610    -0.4660 H     1 <1>   0.0800 
 32 H       -0.4160     2.1880    -1.6120 H     1 <1>   0.0800 
 33 H        0.6800     1.2750    -0.6400 H     1 <1>   0.0800 
 34 H       -0.2730     1.8200     2.1750 H     1 <1>   0.0800 
 35 H       -0.0240     0.2370     1.5070 H     1 <1>   0.0800 
 36 H       -1.5550     0.6490     2.2320 H     1 <1>   0.0800 
 37 H       -4.4570    -1.4060     0.2210 H     1 <1>   0.0800 
 38 H       -0.8110    -3.2000    -0.2690 H     1 <1>   0.0800 
 39 H       -2.1150    -4.1490    -0.9740 H     1 <1>   0.0800 
 40 H       -1.2480     3.7770     1.9530 H     1 <1>   0.0800 
 41 H       -2.4090     4.7020     1.0310 H     1 <1>   0.0800 
 42 H        1.2730     3.6640    -0.7400 H     1 <1>   0.0800 
 43 H        0.9410     3.1600     0.9000 H     1 <1>   0.0800 
 44 H       -4.3180    -4.0120     1.2860 H     1 <1>   0.0800 
 45 H       -3.6390    -2.5820     2.0440 H     1 <1>   0.0800 
 46 H       -4.5160    -4.0310    -1.2960 H     1 <1>   0.0800 
 47 H       -4.9970    -2.5210    -1.9830 H     1 <1>   0.0800 
 48 H       -1.0000     4.4380    -0.9040 H     1 <1>   0.4500 
 49 H        0.4420     5.6280     1.3970 H     1 <1>   0.0800 
 50 H       -0.7920     6.4280     0.4440 H     1 <1>   0.0800 
 51 H        0.7360     5.9960    -0.2910 H     1 <1>   0.0800 
 52 H       -6.0720    -5.3070    -0.0110 H     1 <1>   0.1500 
 53 H       -6.0710    -0.6370    -1.3520 H     1 <1>   0.1500 
 54 H       -8.2660    -5.5800     0.9410 H     1 <1>   0.1500 
 55 H      -10.4030    -1.6280     0.7270 H     1 <1>   0.1500 
 56 H       -7.7550     1.1140    -1.1650 H     1 <1>   0.1500 
 57 H       -9.9220     0.6440    -0.1260 H     1 <1>   0.1500 
@<TRIPOS>BOND
  1   1   2  2   
  2   2   3  am  
  3   2   4  1   
  4   3   5  1   
  5   3  28  1   
  6   4   6  1   
  7   4   7  1   
  8   4   8  1   
  9   5   9  1   
 10   5  10  1   
 11   5  29  1   
 12   6  11  1   
 13   6  30  1   
 14   6  31  1   
 15   7  12  1   
 16   7  32  1   
 17   7  33  1   
 18   8  34  1   
 19   8  35  1   
 20   8  36  1   
 21   9  13  1   
 22   9  14  1   
 23   9  37  1   
 24  10  15  1   
 25  10  38  1   
 26  10  39  1   
 27  11  16  1   
 28  11  40  1   
 29  11  41  1   
 30  12  16  1   
 31  12  42  1   
 32  12  43  1   
 33  13  15  1   
 34  13  44  1   
 35  13  45  1   
 36  14  17  1   
 37  14  46  1   
 38  14  47  1   
 39  16  18  1   
 40  16  48  1   
 41  17  19  ar  
 42  17  20  ar  
 43  18  49  1   
 44  18  50  1   
 45  18  51  1   
 46  19  21  ar  
 47  19  22  ar  
 48  20  23  ar  
 49  20  52  1   
 50  21  24  ar  
 51  21  25  ar  
 52  22  26  ar  
 53  22  53  1   
 54  23  24  ar  
 55  23  54  1   
 56  25  27  ar  
 57  25  55  1   
 58  26  27  ar  
 59  26  56  1   
 60  27  57  1   
@<TRIPOS>SUBSTRUCTURE
  1 ****   9 GROUP 4 **** **** 0

# MOE 2024.06 (io_trps.svl 2023.06)
