@<TRIPOS>MOLECULE
NONAME
51 55 1 0 0 
SMALL
USER_CHARGES


@<TRIPOS>ATOM
  1 O       -0.4410     1.6490    -1.8230 O.2   1 <1>  -0.5700 
  2 C       -0.3510     2.7230    -1.2750 C.2   1 <1>   0.5690 
  3 N       -1.2180     3.1470    -0.3030 N.am  1 <1>  -0.5090 
  4 C        0.7650     3.6630    -1.7210 C.3   1 <1>   0.1810 
  5 C       -1.2240     4.5690     0.1670 C.3   1 <1>   0.3640 
  6 C       -2.2860     2.2830     0.2540 C.3   1 <1>   0.0490 
  7 O        1.0890     4.6000    -0.7260 O.3   1 <1>  -0.5600 
  8 C       -2.5240     5.2380    -0.2850 C.ar  1 <1>  -0.1440 
  9 C       -0.0020     5.4050    -0.3040 C.3   1 <1>   0.2610 
 10 C       -2.3050     2.0340     1.7300 C.3   1 <1>  -0.2000 
 11 C       -1.9380     0.9310     0.7900 C.3   1 <1>  -0.2000 
 12 C       -3.2470     6.0190     0.6080 C.ar  1 <1>   0.1600 
 13 C       -3.0130     5.0880    -1.5710 C.ar  1 <1>  -0.1500 
 14 C        0.4380     6.3520     0.8200 C.2   1 <1>   0.5690 
 15 N       -4.3870     6.6320     0.3310 N.ar  1 <1>  -0.6200 
 16 C       -4.1960     5.7240    -1.8760 C.ar  1 <1>  -0.1500 
 17 O       -0.3930     7.0180     1.3910 O.2   1 <1>  -0.5700 
 18 N        1.7490     6.4270     1.1550 N.am  1 <1>  -0.7300 
 19 C       -4.8340     6.4710    -0.9030 C.ar  1 <1>   0.1600 
 20 C        2.3480     7.4050     2.0890 C.3   1 <1>   0.3210 
 21 C        3.2030     8.3900     1.3110 C.2   1 <1>   0.1080 
 22 N        4.4910     8.2710     1.1330 N.2   1 <1>  -0.7070 
 23 C        2.7090     9.5290     0.6880 C.2   1 <1>  -0.1810 
 24 N        4.8400     9.3480     0.3900 N.pl3 1 <1>   0.3000 
 25 C        3.7620    10.1060     0.1200 C.2   1 <1>  -0.3320 
 26 C        1.4370    10.2930     0.4520 C.3   1 <1>   0.0210 
 27 C        3.4410    11.3740    -0.6180 C.3   1 <1>   0.0200 
 28 C        1.8950    11.4180    -0.5120 C.3   1 <1>  -0.1600 
 29 H        0.4710     4.1880    -2.6110 H     1 <1>   0.0800 
 30 H        1.6500     3.0890    -1.9290 H     1 <1>   0.0800 
 31 H       -1.2100     4.5450     1.2430 H     1 <1>   0.0800 
 32 H       -3.2250     2.3960    -0.2640 H     1 <1>   0.1000 
 33 H       -0.2880     6.0140    -1.1420 H     1 <1>   0.0800 
 34 H       -1.5270     2.4330     2.3560 H     1 <1>   0.1000 
 35 H       -3.2540     1.9730     2.2340 H     1 <1>   0.1000 
 36 H       -2.6360     0.1270     0.6400 H     1 <1>   0.1000 
 37 H       -0.9150     0.6050     0.7290 H     1 <1>   0.1000 
 38 H       -2.8710     6.1520     1.6090 H     1 <1>   0.1500 
 39 H       -2.5040     4.4940    -2.3110 H     1 <1>   0.1500 
 40 H       -4.6260     5.6400    -2.8580 H     1 <1>   0.1500 
 41 H        2.4290     5.9120     0.5860 H     1 <1>   0.3700 
 42 H       -5.7600     6.9620    -1.1510 H     1 <1>   0.1500 
 43 H        1.5780     7.9390     2.6180 H     1 <1>   0.0800 
 44 H        2.9620     6.8880     2.8050 H     1 <1>   0.0800 
 45 H        5.8060     9.5280     0.0920 H     1 <1>   0.2700 
 46 H        0.6870     9.6640     0.0060 H     1 <1>   0.0800 
 47 H        1.0750    10.6990     1.3800 H     1 <1>   0.0800 
 48 H        3.8880    12.2180    -0.1230 H     1 <1>   0.0800 
 49 H        3.7640    11.3260    -1.6430 H     1 <1>   0.0800 
 50 H        1.5620    12.3790    -0.1630 H     1 <1>   0.0800 
 51 H        1.4710    11.2390    -1.4850 H     1 <1>   0.0800 
@<TRIPOS>BOND
  1   1   2  2   
  2   2   3  am  
  3   2   4  1   
  4   3   5  1   
  5   3   6  1   
  6   4   7  1   
  7   4  29  1   
  8   4  30  1   
  9   5   8  1   
 10   5   9  1   
 11   5  31  1   
 12   6  10  1   
 13   6  11  1   
 14   6  32  1   
 15   7   9  1   
 16   8  12  ar  
 17   8  13  ar  
 18   9  14  1   
 19   9  33  1   
 20  10  11  1   
 21  10  34  1   
 22  10  35  1   
 23  11  36  1   
 24  11  37  1   
 25  12  15  ar  
 26  12  38  1   
 27  13  16  ar  
 28  13  39  1   
 29  14  17  2   
 30  14  18  am  
 31  15  19  ar  
 32  16  19  ar  
 33  16  40  1   
 34  18  20  1   
 35  18  41  1   
 36  19  42  1   
 37  20  21  1   
 38  20  43  1   
 39  20  44  1   
 40  21  22  2   
 41  21  23  1   
 42  22  24  1   
 43  23  25  2   
 44  23  26  1   
 45  24  25  1   
 46  24  45  1   
 47  25  27  1   
 48  26  28  1   
 49  26  46  1   
 50  26  47  1   
 51  27  28  1   
 52  27  48  1   
 53  27  49  1   
 54  28  50  1   
 55  28  51  1   
@<TRIPOS>SUBSTRUCTURE
  1 ****   9 GROUP 4 **** **** 0

# MOE 2024.06 (io_trps.svl 2023.06)
