@<TRIPOS>MOLECULE
NONAME
45 47 1 0 0 
SMALL
USER_CHARGES


@<TRIPOS>ATOM
  1 O        0.0030    -0.2000    -1.1200 O.2   1 <1>  -0.5700 
  2 C        1.0460    -0.7920    -0.9170 C.2   1 <1>   0.5440 
  3 N        2.1740    -0.0820    -0.5620 N.am  1 <1>  -0.6600 
  4 C        1.0650    -2.2330    -1.0510 C.ar  1 <1>   0.0860 
  5 C        3.4120    -0.7070    -0.0140 C.3   1 <1>   0.1400 
  6 C        2.1880     1.4090    -0.5440 C.3   1 <1>   0.1400 
  7 C        0.3050    -3.0560    -0.2450 C.ar  1 <1>  -0.1500 
  8 C        1.8460    -2.8860    -1.9940 C.ar  1 <1>  -0.1500 
  9 C        3.6380    -0.2270     1.4230 C.3   1 <1>  -0.1600 
 10 C        2.4030     1.9060     0.8890 C.3   1 <1>  -0.1600 
 11 C        0.3580    -4.4360    -0.3820 C.ar  1 <1>   0.4100 
 12 C        1.8360    -4.2630    -2.0630 C.ar  1 <1>   0.1600 
 13 C        3.6710     1.3050     1.5130 C.3   1 <1>  -0.1600 
 14 N        1.1180    -5.0490    -1.2790 N.ar  1 <1>  -0.6200 
 15 N       -0.4060    -5.2140     0.4530 N.pl3 1 <1>  -0.8690 
 16 C       -0.6930    -6.6270     0.1650 C.3   1 <1>   0.4330 
 17 C       -2.1070    -6.9240     0.6390 C.ar  1 <1>  -0.1430 
 18 C        0.3380    -7.4950     0.8800 C.3   1 <1>  -0.2400 
 19 C       -2.4600    -6.7670     1.9730 C.ar  1 <1>   0.1600 
 20 C       -3.0740    -7.3480    -0.2530 C.ar  1 <1>  -0.1500 
 21 N       -3.6640    -6.9930     2.4740 N.ar  1 <1>  -0.6200 
 22 C       -4.3330    -7.5910     0.2510 C.ar  1 <1>  -0.1500 
 23 C       -4.5710    -7.4000     1.6020 C.ar  1 <1>   0.1600 
 24 H        4.2480    -0.4220    -0.6290 H     1 <1>   0.0800 
 25 H        3.3420    -1.7800    -0.0190 H     1 <1>   0.0800 
 26 H        1.2650     1.8070    -0.9300 H     1 <1>   0.0800 
 27 H        2.9870     1.7580    -1.1760 H     1 <1>   0.0800 
 28 H       -0.3320    -2.6210     0.5010 H     1 <1>   0.1500 
 29 H        2.4550    -2.3110    -2.6690 H     1 <1>   0.1500 
 30 H        4.5660    -0.6300     1.7910 H     1 <1>   0.0800 
 31 H        2.8470    -0.6090     2.0450 H     1 <1>   0.0800 
 32 H        1.5430     1.6380     1.4780 H     1 <1>   0.0800 
 33 H        2.4750     2.9790     0.8860 H     1 <1>   0.0800 
 34 H        2.4500    -4.7500    -2.8010 H     1 <1>   0.1500 
 35 H        4.5360     1.6760     0.9900 H     1 <1>   0.0800 
 36 H        3.7480     1.6080     2.5430 H     1 <1>   0.0800 
 37 H       -1.2360    -4.7470     0.8220 H     1 <1>   0.4000 
 38 H       -0.6320    -6.8050    -0.8960 H     1 <1>   0.0800 
 39 H        0.3500    -7.2910     1.9340 H     1 <1>   0.0800 
 40 H        1.3140    -7.3010     0.4740 H     1 <1>   0.0800 
 41 H        0.1060    -8.5330     0.7280 H     1 <1>   0.0800 
 42 H       -1.7090    -6.4330     2.6690 H     1 <1>   0.1500 
 43 H       -2.8600    -7.4840    -1.3000 H     1 <1>   0.1500 
 44 H       -5.1260    -7.9240    -0.3930 H     1 <1>   0.1500 
 45 H       -5.5590    -7.5930     1.9840 H     1 <1>   0.1500 
@<TRIPOS>BOND
  1   1   2  2   
  2   2   3  am  
  3   2   4  1   
  4   3   5  1   
  5   3   6  1   
  6   4   7  ar  
  7   4   8  ar  
  8   5   9  1   
  9   5  24  1   
 10   5  25  1   
 11   6  10  1   
 12   6  26  1   
 13   6  27  1   
 14   7  11  ar  
 15   7  28  1   
 16   8  12  ar  
 17   8  29  1   
 18   9  13  1   
 19   9  30  1   
 20   9  31  1   
 21  10  13  1   
 22  10  32  1   
 23  10  33  1   
 24  11  14  ar  
 25  11  15  1   
 26  12  14  ar  
 27  12  34  1   
 28  13  35  1   
 29  13  36  1   
 30  15  16  1   
 31  15  37  1   
 32  16  17  1   
 33  16  18  1   
 34  16  38  1   
 35  17  19  ar  
 36  17  20  ar  
 37  18  39  1   
 38  18  40  1   
 39  18  41  1   
 40  19  21  ar  
 41  19  42  1   
 42  20  22  ar  
 43  20  43  1   
 44  21  23  ar  
 45  22  23  ar  
 46  22  44  1   
 47  23  45  1   
@<TRIPOS>SUBSTRUCTURE
  1 ****   7 GROUP 4 **** **** 0

# MOE 2024.06 (io_trps.svl 2023.06)
