@<TRIPOS>MOLECULE
NONAME
58 62 1 0 0 
SMALL
USER_CHARGES


@<TRIPOS>ATOM
  1 O       -0.8560     0.2130    -2.5360 O.2   1 <1>  -0.5700 
  2 C       -1.5660     0.6240    -1.6340 C.2   1 <1>   0.5440 
  3 N       -2.2800    -0.2930    -0.8970 N.am  1 <1>  -0.6600 
  4 C       -1.6410     2.0390    -1.3670 C.ar  1 <1>   0.0860 
  5 C       -3.1520     0.0480     0.2530 C.3   1 <1>   0.1400 
  6 C       -1.8070    -1.6930    -0.7690 C.3   1 <1>   0.1400 
  7 C       -0.9920     2.6280    -0.2610 C.ar  1 <1>   0.1000 
  8 C       -2.3900     2.8440    -2.2240 C.ar  1 <1>  -0.1500 
  9 C       -2.7150    -0.9250     1.3430 C.3   1 <1>   0.2000 
 10 C       -2.3260    -2.1990     0.5870 C.3   1 <1>  -0.0800 
 11 N       -0.1960     1.8740     0.6190 N.pl3 1 <1>  -0.8380 
 12 C       -1.1480     4.0020    -0.0650 C.ar  1 <1>  -0.1500 
 13 C       -2.5280     4.1990    -2.0080 C.ar  1 <1>  -0.1500 
 14 O       -1.5800    -0.4120     1.9470 O.3   1 <1>  -0.6800 
 15 C       -3.5440    -3.1310     0.4150 C.3   1 <1>  -0.0170 
 16 C        1.0350     1.2200     0.0570 C.3   1 <1>   0.2090 
 17 C        0.0020     2.2770     2.0560 C.3   1 <1>   0.2090 
 18 C       -1.9040     4.7790    -0.9190 C.ar  1 <1>  -0.1500 
 19 C       -3.2790    -4.4800    -0.2660 C.ar  1 <1>  -0.1430 
 20 C        2.3050     2.0270     0.3840 C.3   1 <1>   0.1200 
 21 C        1.3360     3.0180     2.2690 C.3   1 <1>   0.1200 
 22 C       -4.3670    -5.3160    -0.6220 C.ar  1 <1>   0.0000 
 23 C       -2.0250    -4.9450    -0.5520 C.ar  1 <1>  -0.1500 
 24 O        2.4070     2.2780     1.7570 O.3   1 <1>  -0.5600 
 25 C       -4.0800    -6.5470    -1.2620 C.ar  1 <1>   0.3100 
 26 C       -5.7260    -5.0060    -0.3750 C.ar  1 <1>  -0.1500 
 27 C       -1.8510    -6.1820    -1.1840 C.ar  1 <1>   0.1600 
 28 N       -2.8200    -6.9640    -1.5350 N.ar  1 <1>  -0.6200 
 29 C       -5.1420    -7.3880    -1.6330 C.ar  1 <1>  -0.1500 
 30 C       -6.7380    -5.8490    -0.7470 C.ar  1 <1>  -0.1500 
 31 C       -6.4460    -7.0550    -1.3860 C.ar  1 <1>  -0.1500 
 32 H       -3.0500     1.0700     0.5750 H     1 <1>   0.0800 
 33 H       -4.1750    -0.1360    -0.0210 H     1 <1>   0.0800 
 34 H       -2.1720    -2.2800    -1.5940 H     1 <1>   0.0800 
 35 H       -0.7300    -1.7050    -0.7810 H     1 <1>   0.0800 
 36 H       -2.8690     2.3870    -3.0730 H     1 <1>   0.1500 
 37 H       -3.4610    -1.0790     2.1040 H     1 <1>   0.0800 
 38 H       -1.5610    -2.7240     1.1310 H     1 <1>   0.0800 
 39 H       -0.6640     4.4850     0.7600 H     1 <1>   0.1500 
 40 H       -3.1130     4.8020    -2.6810 H     1 <1>   0.1500 
 41 H       -1.1180     0.1910     1.3070 H     1 <1>   0.4000 
 42 H       -4.2870    -2.6040    -0.1570 H     1 <1>   0.0800 
 43 H       -3.9590    -3.3330     1.3870 H     1 <1>   0.0800 
 44 H        1.1300     0.2280     0.4620 H     1 <1>   0.0800 
 45 H        0.9600     1.1320    -1.0120 H     1 <1>   0.0800 
 46 H       -0.8180     2.8910     2.3850 H     1 <1>   0.0800 
 47 H        0.0110     1.3980     2.6760 H     1 <1>   0.0800 
 48 H       -2.0060     5.8360    -0.7440 H     1 <1>   0.1500 
 49 H        2.2930     2.9660    -0.1400 H     1 <1>   0.0800 
 50 H        3.1780     1.4760     0.0840 H     1 <1>   0.0800 
 51 H        1.5120     3.1650     3.3190 H     1 <1>   0.0800 
 52 H        1.3220     3.9780     1.7850 H     1 <1>   0.0800 
 53 H       -1.1330    -4.3990    -0.3140 H     1 <1>   0.1500 
 54 H       -5.9800    -4.0870     0.1180 H     1 <1>   0.1500 
 55 H       -0.8440    -6.5020    -1.3910 H     1 <1>   0.1500 
 56 H       -4.8920    -8.3120    -2.1210 H     1 <1>   0.1500 
 57 H       -7.7670    -5.5970    -0.5540 H     1 <1>   0.1500 
 58 H       -7.2490    -7.7100    -1.6760 H     1 <1>   0.1500 
@<TRIPOS>BOND
  1   1   2  2   
  2   2   3  am  
  3   2   4  1   
  4   3   5  1   
  5   3   6  1   
  6   4   7  ar  
  7   4   8  ar  
  8   5   9  1   
  9   5  32  1   
 10   5  33  1   
 11   6  10  1   
 12   6  34  1   
 13   6  35  1   
 14   7  11  1   
 15   7  12  ar  
 16   8  13  ar  
 17   8  36  1   
 18   9  10  1   
 19   9  14  1   
 20   9  37  1   
 21  10  15  1   
 22  10  38  1   
 23  11  16  1   
 24  11  17  1   
 25  12  18  ar  
 26  12  39  1   
 27  13  18  ar  
 28  13  40  1   
 29  14  41  1   
 30  15  19  1   
 31  15  42  1   
 32  15  43  1   
 33  16  20  1   
 34  16  44  1   
 35  16  45  1   
 36  17  21  1   
 37  17  46  1   
 38  17  47  1   
 39  18  48  1   
 40  19  22  ar  
 41  19  23  ar  
 42  20  24  1   
 43  20  49  1   
 44  20  50  1   
 45  21  24  1   
 46  21  51  1   
 47  21  52  1   
 48  22  25  ar  
 49  22  26  ar  
 50  23  27  ar  
 51  23  53  1   
 52  25  28  ar  
 53  25  29  ar  
 54  26  30  ar  
 55  26  54  1   
 56  27  28  ar  
 57  27  55  1   
 58  29  31  ar  
 59  29  56  1   
 60  30  31  ar  
 61  30  57  1   
 62  31  58  1   
@<TRIPOS>SUBSTRUCTURE
  1 ****   6 GROUP 4 **** **** 0

# MOE 2024.06 (io_trps.svl 2023.06)
