@<TRIPOS>MOLECULE
NONAME
51 54 1 0 0 
SMALL
USER_CHARGES


@<TRIPOS>ATOM
  1 O       -1.2930    -0.9550    -2.7100 O.2   1 <1>  -0.5700 
  2 C       -1.7550    -1.1500    -1.6100 C.2   1 <1>   0.5690 
  3 N       -1.8490    -0.1600    -0.6770 N.am  1 <1>  -0.6600 
  4 C       -2.2310    -2.5470    -1.2870 C.3   1 <1>  -0.0190 
  5 C       -2.4760    -0.3920     0.6560 C.3   1 <1>   0.2200 
  6 C       -1.3830     1.2300    -0.9490 C.3   1 <1>   0.0600 
  7 C       -1.4100    -3.1540    -0.1350 C.3   1 <1>   0.1200 
  8 C       -3.7660    -2.5990    -1.1790 C.3   1 <1>   0.1400 
  9 C       -1.6700    -1.4150     1.4960 C.3   1 <1>   0.1200 
 10 C       -3.9880    -0.6830     0.5180 C.3   1 <1>   0.1400 
 11 O       -1.8380    -2.7580     1.1320 O.3   1 <1>  -0.5600 
 12 N       -4.3500    -2.0800     0.1010 N.am  1 <1>  -0.6600 
 13 C       -5.2170    -2.8310     0.8730 C.2   1 <1>   0.5440 
 14 O       -5.9000    -2.2720     1.7120 O.2   1 <1>  -0.5700 
 15 C       -5.3560    -4.2610     0.6950 C.ar  1 <1>   0.0860 
 16 C       -4.3240    -5.1380     1.0240 C.ar  1 <1>  -0.1500 
 17 C       -6.5260    -4.8130     0.1780 C.ar  1 <1>  -0.1500 
 18 C       -4.4470    -6.4990     0.8220 C.ar  1 <1>  -0.1500 
 19 C       -6.6490    -6.1740    -0.0250 C.ar  1 <1>  -0.1500 
 20 C       -5.6100    -7.0450     0.2880 C.ar  1 <1>   0.0000 
 21 C       -5.7360    -8.4670     0.0700 C.ar  1 <1>   0.0000 
 22 C       -6.7560    -9.1980     0.6720 C.ar  1 <1>  -0.1500 
 23 C       -4.8420    -9.1500    -0.7480 C.ar  1 <1>  -0.1500 
 24 C       -6.8800   -10.5590     0.4640 C.ar  1 <1>  -0.1500 
 25 C       -4.9620   -10.5120    -0.9600 C.ar  1 <1>  -0.1500 
 26 C       -5.9840   -11.2250    -0.3560 C.ar  1 <1>  -0.1440 
 27 C       -6.1170   -12.7200    -0.5850 C.3   1 <1>  -0.0970 
 28 H       -1.9830    -3.1330    -2.1530 H     1 <1>   0.0800 
 29 H       -2.4080     0.5380     1.1920 H     1 <1>   0.0800 
 30 H       -0.6430     1.5160    -0.2220 H     1 <1>   0.0800 
 31 H       -2.2150     1.9100    -0.9000 H     1 <1>   0.0800 
 32 H       -0.9410     1.3010    -1.9290 H     1 <1>   0.0800 
 33 H       -0.3670    -2.9060    -0.2360 H     1 <1>   0.0800 
 34 H       -1.5040    -4.2250    -0.1660 H     1 <1>   0.0800 
 35 H       -4.0720    -3.6180    -1.3310 H     1 <1>   0.0800 
 36 H       -4.1850    -2.0290    -1.9910 H     1 <1>   0.0800 
 37 H       -1.9940    -1.3420     2.5190 H     1 <1>   0.0800 
 38 H       -0.6210    -1.1800     1.4620 H     1 <1>   0.0800 
 39 H       -4.4180     0.0110    -0.1820 H     1 <1>   0.0800 
 40 H       -4.4320    -0.4750     1.4750 H     1 <1>   0.0800 
 41 H       -3.4210    -4.7360     1.4480 H     1 <1>   0.1500 
 42 H       -7.3430    -4.1550    -0.0650 H     1 <1>   0.1500 
 43 H       -3.6350    -7.1550     1.0870 H     1 <1>   0.1500 
 44 H       -7.5610    -6.5740    -0.4320 H     1 <1>   0.1500 
 45 H       -7.4540    -8.6910     1.3140 H     1 <1>   0.1500 
 46 H       -4.0470    -8.6060    -1.2260 H     1 <1>   0.1500 
 47 H       -7.6770   -11.1000     0.9440 H     1 <1>   0.1500 
 48 H       -4.2570   -11.0160    -1.5970 H     1 <1>   0.1500 
 49 H       -7.1470   -13.0210    -0.5160 H     1 <1>   0.0800 
 50 H       -5.5490   -13.2530     0.1560 H     1 <1>   0.0800 
 51 H       -5.7510   -12.9840    -1.5610 H     1 <1>   0.0800 
@<TRIPOS>BOND
  1   1   2  2   
  2   2   3  am  
  3   2   4  1   
  4   3   5  1   
  5   3   6  1   
  6   4   7  1   
  7   4   8  1   
  8   4  28  1   
  9   5   9  1   
 10   5  10  1   
 11   5  29  1   
 12   6  30  1   
 13   6  31  1   
 14   6  32  1   
 15   7  11  1   
 16   7  33  1   
 17   7  34  1   
 18   8  12  1   
 19   8  35  1   
 20   8  36  1   
 21   9  11  1   
 22   9  37  1   
 23   9  38  1   
 24  10  12  1   
 25  10  39  1   
 26  10  40  1   
 27  12  13  am  
 28  13  14  2   
 29  13  15  1   
 30  15  16  ar  
 31  15  17  ar  
 32  16  18  ar  
 33  16  41  1   
 34  17  19  ar  
 35  17  42  1   
 36  18  20  ar  
 37  18  43  1   
 38  19  20  ar  
 39  19  44  1   
 40  20  21  1   
 41  21  22  ar  
 42  21  23  ar  
 43  22  24  ar  
 44  22  45  1   
 45  23  25  ar  
 46  23  46  1   
 47  24  26  ar  
 48  24  47  1   
 49  25  26  ar  
 50  25  48  1   
 51  26  27  1   
 52  27  49  1   
 53  27  50  1   
 54  27  51  1   
@<TRIPOS>SUBSTRUCTURE
  1 ****  16 GROUP 4 **** **** 0

# MOE 2024.06 (io_trps.svl 2023.06)
