@<TRIPOS>MOLECULE
NONAME
59 62 1 0 0 
SMALL
USER_CHARGES


@<TRIPOS>ATOM
  1 O       -1.0010    -0.4850     1.1240 O.2   1 <1>  -0.5700 
  2 C       -2.0540    -1.0000     0.7660 C.2   1 <1>   0.4690 
  3 C       -2.6060    -0.7910    -0.5430 C.ar  1 <1>   0.0860 
  4 C       -2.7590    -1.8440     1.6520 C.2   1 <1>  -0.1360 
  5 C       -3.8460    -1.3770    -0.8700 C.ar  1 <1>   0.1000 
  6 C       -1.9280    -0.0310    -1.5040 C.ar  1 <1>  -0.1500 
  7 C       -3.9640    -2.3770     1.3370 C.2   1 <1>  -0.0380 
  8 N       -4.5610    -2.0980     0.1160 N.pl3 1 <1>  -0.5690 
  9 C       -4.3130    -1.2180    -2.1830 C.ar  1 <1>  -0.1500 
 10 C       -2.4280     0.1320    -2.7740 C.ar  1 <1>  -0.1500 
 11 C       -4.6550    -3.2970     2.3310 C.3   1 <1>  -0.1020 
 12 C       -6.0210    -2.4310    -0.1160 C.3   1 <1>   0.2700 
 13 C       -3.6260    -0.4750    -3.1160 C.ar  1 <1>  -0.1500 
 14 C       -6.2890    -3.8250    -0.7200 C.2   1 <1>   0.5690 
 15 O       -5.8870    -4.0090    -1.8460 O.2   1 <1>  -0.5700 
 16 N       -6.9990    -4.8190    -0.0650 N.am  1 <1>  -0.6600 
 17 C       -7.1900    -6.1570    -0.7330 C.3   1 <1>   0.1400 
 18 C       -7.8590    -4.6270     1.1400 C.3   1 <1>   0.1400 
 19 C       -6.9310    -7.3420     0.2270 C.3   1 <1>   0.0000 
 20 C       -7.6450    -5.7640     2.1410 C.3   1 <1>  -0.1600 
 21 C       -7.8440    -7.1190     1.4600 C.3   1 <1>   0.2000 
 22 C       -7.3930    -8.6610    -0.4430 C.3   1 <1>   0.1200 
 23 C       -5.4250    -7.4130     0.6340 C.3   1 <1>  -0.0170 
 24 O       -7.6630    -8.1080     2.4120 O.3   1 <1>  -0.6800 
 25 O       -6.9140    -8.7780    -1.7410 O.3   1 <1>  -0.6800 
 26 C       -4.4610    -7.8130    -0.4770 C.ar  1 <1>  -0.1430 
 27 C       -3.9350    -6.8580    -1.3320 C.ar  1 <1>  -0.1500 
 28 C       -4.0910    -9.1410    -0.6390 C.ar  1 <1>  -0.1500 
 29 C       -3.0700    -7.2240    -2.3480 C.ar  1 <1>  -0.1500 
 30 C       -3.2250    -9.5090    -1.6540 C.ar  1 <1>  -0.1500 
 31 C       -2.7160    -8.5510    -2.5110 C.ar  1 <1>  -0.1500 
 32 H       -2.2760    -2.0340     2.5900 H     1 <1>   0.1500 
 33 H       -0.9910     0.4280    -1.2360 H     1 <1>   0.1500 
 34 H       -5.2220    -1.6880    -2.5040 H     1 <1>   0.1500 
 35 H       -1.8940     0.7180    -3.5030 H     1 <1>   0.1500 
 36 H       -4.8820    -4.2330     1.8570 H     1 <1>   0.0800 
 37 H       -5.5550    -2.8470     2.7060 H     1 <1>   0.0800 
 38 H       -4.0130    -3.5000     3.1690 H     1 <1>   0.0800 
 39 H       -6.5480    -2.3000     0.8020 H     1 <1>   0.0800 
 40 H       -6.4460    -1.7040    -0.7800 H     1 <1>   0.0800 
 41 H       -4.0130    -0.3670    -4.1150 H     1 <1>   0.1500 
 42 H       -8.2010    -6.2110    -1.1000 H     1 <1>   0.0800 
 43 H       -6.5470    -6.2480    -1.5920 H     1 <1>   0.0800 
 44 H       -7.6640    -3.6960     1.6330 H     1 <1>   0.0800 
 45 H       -8.8900    -4.6210     0.8250 H     1 <1>   0.0800 
 46 H       -8.3620    -5.6610     2.9350 H     1 <1>   0.0800 
 47 H       -6.6620    -5.6880     2.5650 H     1 <1>   0.0800 
 48 H       -8.8720    -7.1880     1.1440 H     1 <1>   0.0800 
 49 H       -8.4670    -8.7010    -0.5040 H     1 <1>   0.0800 
 50 H       -7.0550    -9.5150     0.1190 H     1 <1>   0.0800 
 51 H       -5.1060    -6.4620     1.0170 H     1 <1>   0.0800 
 52 H       -5.3010    -8.1220     1.4320 H     1 <1>   0.0800 
 53 H       -6.7970    -8.0140     2.8510 H     1 <1>   0.4000 
 54 H       -5.9330    -8.6790    -1.7480 H     1 <1>   0.4000 
 55 H       -4.1940    -5.8190    -1.2180 H     1 <1>   0.1500 
 56 H       -4.4770    -9.8990     0.0200 H     1 <1>   0.1500 
 57 H       -2.6750    -6.4710    -3.0090 H     1 <1>   0.1500 
 58 H       -2.9480   -10.5410    -1.7770 H     1 <1>   0.1500 
 59 H       -2.0440    -8.8350    -3.3020 H     1 <1>   0.1500 
@<TRIPOS>BOND
  1   1   2  2   
  2   2   3  1   
  3   2   4  1   
  4   3   5  ar  
  5   3   6  ar  
  6   4   7  2   
  7   4  32  1   
  8   5   8  1   
  9   5   9  ar  
 10   6  10  ar  
 11   6  33  1   
 12   7   8  1   
 13   7  11  1   
 14   8  12  1   
 15   9  13  ar  
 16   9  34  1   
 17  10  13  ar  
 18  10  35  1   
 19  11  36  1   
 20  11  37  1   
 21  11  38  1   
 22  12  14  1   
 23  12  39  1   
 24  12  40  1   
 25  13  41  1   
 26  14  15  2   
 27  14  16  am  
 28  16  17  1   
 29  16  18  1   
 30  17  19  1   
 31  17  42  1   
 32  17  43  1   
 33  18  20  1   
 34  18  44  1   
 35  18  45  1   
 36  19  21  1   
 37  19  22  1   
 38  19  23  1   
 39  20  21  1   
 40  20  46  1   
 41  20  47  1   
 42  21  24  1   
 43  21  48  1   
 44  22  25  1   
 45  22  49  1   
 46  22  50  1   
 47  23  26  1   
 48  23  51  1   
 49  23  52  1   
 50  24  53  1   
 51  25  54  1   
 52  26  27  ar  
 53  26  28  ar  
 54  27  29  ar  
 55  27  55  1   
 56  28  30  ar  
 57  28  56  1   
 58  29  31  ar  
 59  29  57  1   
 60  30  31  ar  
 61  30  58  1   
 62  31  59  1   
@<TRIPOS>SUBSTRUCTURE
  1 ****  14 GROUP 4 **** **** 0

# MOE 2024.06 (io_trps.svl 2023.06)
