@<TRIPOS>MOLECULE
NONAME
46 49 1 0 0 
SMALL
USER_CHARGES


@<TRIPOS>ATOM
  1 F       -0.1620    -0.6460     0.5940 F     1 <1>  -0.1900 
  2 C        0.3840    -1.7710     0.2160 C.ar  1 <1>   0.1900 
  3 C        1.6130    -1.7370    -0.4120 C.ar  1 <1>  -0.1500 
  4 C       -0.2870    -2.9530     0.4560 C.ar  1 <1>  -0.1500 
  5 C        2.1880    -2.9330    -0.8100 C.ar  1 <1>  -0.1500 
  6 C        0.3010    -4.1410     0.0550 C.ar  1 <1>  -0.1500 
  7 C        1.5420    -4.1440    -0.5770 C.ar  1 <1>  -0.1080 
  8 C        2.2170    -5.4390    -1.0400 C.3   1 <1>   0.3330 
  9 N        1.6550    -6.6900    -0.4220 N.am  1 <1>  -0.5100 
 10 C        3.5420    -5.7580    -0.3060 C.3   1 <1>   0.0000 
 11 C        1.2330    -7.7960    -1.1110 C.2   1 <1>   0.5440 
 12 C        2.7110    -6.6480     0.6410 C.3   1 <1>   0.2250 
 13 O        0.8770    -7.6640    -2.2690 O.2   1 <1>  -0.5700 
 14 C        1.2420    -9.0970    -0.4900 C.ar  1 <1>   0.0860 
 15 C        0.1820    -9.5500     0.3160 C.ar  1 <1>   0.1000 
 16 C        2.3430    -9.9350    -0.6760 C.ar  1 <1>  -0.1500 
 17 N       -0.9850    -8.8250     0.5330 N.pl3 1 <1>  -0.8380 
 18 C        0.2810   -10.7950     0.9260 C.ar  1 <1>  -0.1500 
 19 C        2.4220   -11.1710    -0.0680 C.ar  1 <1>  -0.1500 
 20 C       -1.8830    -8.5210    -0.6280 C.3   1 <1>   0.2090 
 21 C       -1.0090    -7.8140     1.6300 C.3   1 <1>   0.2090 
 22 C        1.3850   -11.6020     0.7430 C.ar  1 <1>  -0.1500 
 23 C       -2.1360    -7.0080    -0.7930 C.3   1 <1>   0.1200 
 24 C       -2.3200    -7.0080     1.6110 C.3   1 <1>   0.1200 
 25 O       -2.5300    -6.3450     0.3900 O.3   1 <1>  -0.5600 
 26 H        2.1040    -0.7960    -0.5840 H     1 <1>   0.1500 
 27 H       -1.2470    -2.9460     0.9400 H     1 <1>   0.1500 
 28 H        3.1430    -2.9180    -1.3050 H     1 <1>   0.1500 
 29 H       -0.2240    -5.0610     0.2370 H     1 <1>   0.1500 
 30 H        2.3070    -5.5180    -2.1090 H     1 <1>   0.0000 
 31 H        4.0050    -4.9190     0.1840 H     1 <1>   0.0000 
 32 H        4.2300    -6.3230    -0.9110 H     1 <1>   0.0000 
 33 H        3.1530    -7.6090     0.8320 H     1 <1>   0.0000 
 34 H        2.3570    -6.1390     1.5200 H     1 <1>   0.0000 
 35 H        3.1460    -9.6020    -1.3100 H     1 <1>   0.1500 
 36 H       -0.5330   -11.1260     1.5450 H     1 <1>   0.1500 
 37 H        3.2810   -11.8020    -0.2210 H     1 <1>   0.1500 
 38 H       -2.8250    -9.0190    -0.4780 H     1 <1>   0.0800 
 39 H       -1.4530    -8.9100    -1.5350 H     1 <1>   0.0800 
 40 H       -0.1760    -7.1430     1.5290 H     1 <1>   0.0800 
 41 H       -0.9170    -8.3230     2.5730 H     1 <1>   0.0800 
 42 H        1.4390   -12.5640     1.2230 H     1 <1>   0.1500 
 43 H       -2.9030    -6.8440    -1.5280 H     1 <1>   0.0800 
 44 H       -1.2390    -6.5360    -1.1480 H     1 <1>   0.0800 
 45 H       -2.3110    -6.2650     2.3870 H     1 <1>   0.0800 
 46 H       -3.1530    -7.6680     1.7790 H     1 <1>   0.0800 
@<TRIPOS>BOND
  1   1   2  1   
  2   2   3  ar  
  3   2   4  ar  
  4   3   5  ar  
  5   3  26  1   
  6   4   6  ar  
  7   4  27  1   
  8   5   7  ar  
  9   5  28  1   
 10   6   7  ar  
 11   6  29  1   
 12   7   8  1   
 13   8   9  1   
 14   8  10  1   
 15   8  30  1   
 16   9  11  am  
 17   9  12  1   
 18  10  12  1   
 19  10  31  1   
 20  10  32  1   
 21  11  13  2   
 22  11  14  1   
 23  12  33  1   
 24  12  34  1   
 25  14  15  ar  
 26  14  16  ar  
 27  15  17  1   
 28  15  18  ar  
 29  16  19  ar  
 30  16  35  1   
 31  17  20  1   
 32  17  21  1   
 33  18  22  ar  
 34  18  36  1   
 35  19  22  ar  
 36  19  37  1   
 37  20  23  1   
 38  20  38  1   
 39  20  39  1   
 40  21  24  1   
 41  21  40  1   
 42  21  41  1   
 43  22  42  1   
 44  23  25  1   
 45  23  43  1   
 46  23  44  1   
 47  24  25  1   
 48  24  45  1   
 49  24  46  1   
@<TRIPOS>SUBSTRUCTURE
  1 ****   9 GROUP 4 **** **** 0

# MOE 2024.06 (io_trps.svl 2023.06)
