@<TRIPOS>MOLECULE
NONAME
49 51 1 0 0 
SMALL
USER_CHARGES


@<TRIPOS>ATOM
  1 O       -1.7740    -0.0250    -2.0410 O.2   1 <1>  -0.5700 
  2 C       -2.0500     0.6150    -1.0430 C.2   1 <1>   0.5440 
  3 N       -2.9200     0.0630    -0.1340 N.am  1 <1>  -0.6600 
  4 C       -1.5130     1.9540    -0.8790 C.ar  1 <1>   0.0860 
  5 C       -3.3080    -1.3840    -0.1670 C.3   1 <1>   0.1400 
  6 C       -3.8700     0.8900     0.6600 C.3   1 <1>   0.1400 
  7 C       -0.7460     2.3460     0.2300 C.ar  1 <1>  -0.1440 
  8 C       -1.7710     2.9030    -1.8660 C.ar  1 <1>  -0.1500 
  9 C       -4.6860    -1.5320    -0.8350 C.3   1 <1>   0.2000 
 10 C       -5.2800     0.7660     0.0600 C.3   1 <1>  -0.1600 
 11 C       -0.2870     3.6510     0.3390 C.ar  1 <1>  -0.1500 
 12 C       -0.3950     1.3540     1.3330 C.3   1 <1>  -0.0960 
 13 C       -1.3040     4.1980    -1.7500 C.ar  1 <1>   0.0830 
 14 O       -4.5480    -1.0790    -2.1490 O.3   1 <1>  -0.6800 
 15 C       -5.7590    -0.7130    -0.0710 C.3   1 <1>  -0.1060 
 16 C       -0.5650     4.5790    -0.6470 C.ar  1 <1>  -0.1500 
 17 O       -1.5630     5.0990    -2.7080 O.3   1 <1>  -0.5330 
 18 C       -5.9030    -1.3970     1.3000 C.2   1 <1>   0.9060 
 19 C       -7.1230    -0.7920    -0.8100 C.3   1 <1>  -0.0160 
 20 O       -5.8250    -0.7440     2.3490 O.co2 1 <1>  -0.9000 
 21 O       -6.0560    -2.6240     1.3330 O.co2 1 <1>  -0.9000 
 22 C       -8.1940     0.1680    -0.2940 C.ar  1 <1>  -0.1430 
 23 C       -8.8140    -0.0540     0.9260 C.ar  1 <1>  -0.1500 
 24 C       -8.5610     1.2740    -1.0460 C.ar  1 <1>  -0.1500 
 25 C       -9.7860     0.8160     1.3880 C.ar  1 <1>  -0.1500 
 26 C       -9.5340     2.1460    -0.5870 C.ar  1 <1>  -0.1500 
 27 C      -10.1480     1.9170     0.6320 C.ar  1 <1>  -0.1500 
 28 H       -2.5790    -1.9630    -0.7060 H     1 <1>   0.0800 
 29 H       -3.3470    -1.7650     0.8390 H     1 <1>   0.0800 
 30 H       -3.8690     0.5480     1.6810 H     1 <1>   0.0800 
 31 H       -3.5740     1.9240     0.6620 H     1 <1>   0.0800 
 32 H       -2.3450     2.6050    -2.7250 H     1 <1>   0.1500 
 33 H       -4.9680    -2.5710    -0.8800 H     1 <1>   0.0800 
 34 H       -5.9610     1.3070     0.6940 H     1 <1>   0.0800 
 35 H       -5.2920     1.2390    -0.9050 H     1 <1>   0.0800 
 36 H        0.2950     3.9540     1.1920 H     1 <1>   0.1500 
 37 H        0.4110     1.7230     1.9410 H     1 <1>   0.0800 
 38 H       -0.0890     0.4140     0.9080 H     1 <1>   0.0800 
 39 H       -1.2490     1.1850     1.9640 H     1 <1>   0.0800 
 40 H       -3.7030    -0.5720    -2.1880 H     1 <1>   0.4000 
 41 H       -0.2120     5.5910    -0.5690 H     1 <1>   0.1500 
 42 H       -2.0490     4.7270    -3.4650 H     1 <1>   0.4500 
 43 H       -6.9770    -0.5930    -1.8560 H     1 <1>   0.0800 
 44 H       -7.5000    -1.7990    -0.7430 H     1 <1>   0.0800 
 45 H       -8.5320    -0.9050     1.5260 H     1 <1>   0.1500 
 46 H       -8.0840     1.4600    -1.9910 H     1 <1>   0.1500 
 47 H      -10.2510     0.6310     2.3400 H     1 <1>   0.1500 
 48 H       -9.8100     3.0000    -1.1770 H     1 <1>   0.1500 
 49 H      -10.9030     2.5920     0.9930 H     1 <1>   0.1500 
@<TRIPOS>BOND
  1   1   2  2   
  2   2   3  am  
  3   2   4  1   
  4   3   5  1   
  5   3   6  1   
  6   4   7  ar  
  7   4   8  ar  
  8   5   9  1   
  9   5  28  1   
 10   5  29  1   
 11   6  10  1   
 12   6  30  1   
 13   6  31  1   
 14   7  11  ar  
 15   7  12  1   
 16   8  13  ar  
 17   8  32  1   
 18   9  14  1   
 19   9  15  1   
 20   9  33  1   
 21  10  15  1   
 22  10  34  1   
 23  10  35  1   
 24  11  16  ar  
 25  11  36  1   
 26  12  37  1   
 27  12  38  1   
 28  12  39  1   
 29  13  16  ar  
 30  13  17  1   
 31  14  40  1   
 32  15  18  1   
 33  15  19  1   
 34  16  41  1   
 35  17  42  1   
 36  18  20  ar  
 37  18  21  ar  
 38  19  22  1   
 39  19  43  1   
 40  19  44  1   
 41  22  23  ar  
 42  22  24  ar  
 43  23  25  ar  
 44  23  45  1   
 45  24  26  ar  
 46  24  46  1   
 47  25  27  ar  
 48  25  47  1   
 49  26  27  ar  
 50  26  48  1   
 51  27  49  1   
@<TRIPOS>SUBSTRUCTURE
  1 ****  10 GROUP 4 **** **** 0

# MOE 2024.06 (io_trps.svl 2023.06)
