@<TRIPOS>MOLECULE
NONAME
54 57 1 0 0 
SMALL
USER_CHARGES


@<TRIPOS>ATOM
  1 O       -0.2320    -0.3950    -0.2780 O.2   1 <1>  -0.5700 
  2 C       -0.6710     0.5910     0.2830 C.2   1 <1>   0.6900 
  3 N       -2.0280     0.7840     0.3960 N.am  1 <1>  -0.6600 
  4 N        0.1630     1.5470     0.7830 N.am  1 <1>  -0.5470 
  5 C       -2.6630     2.0930     0.7540 C.3   1 <1>   0.1400 
  6 C       -2.9990    -0.2020    -0.1570 C.3   1 <1>   0.1400 
  7 C        1.4990     1.8950     0.5340 C.ar  1 <1>   0.1170 
  8 C       -3.3050     2.7410    -0.4860 C.3   1 <1>   0.1430 
  9 C       -3.6890     0.3890    -1.3950 C.3   1 <1>  -0.1600 
 10 C        1.8920     3.2080     0.8150 C.ar  1 <1>   0.0820 
 11 C        2.4390     1.0040     0.0320 C.ar  1 <1>  -0.1500 
 12 C       -3.9250     4.0580    -0.0570 C.ar  1 <1>   0.1660 
 13 C       -4.3270     1.7610    -1.1040 C.3   1 <1>  -0.1600 
 14 C       -2.2420     3.2030    -1.5210 C.3   1 <1>  -0.1600 
 15 O        0.9340     4.0560     1.3080 O.3   1 <1>  -0.3630 
 16 C        3.2060     3.6050     0.5880 C.ar  1 <1>  -0.1500 
 17 C        3.7470     1.3960    -0.1950 C.ar  1 <1>   0.0820 
 18 N       -5.0280     4.1920     0.6450 N.ar  1 <1>  -0.6200 
 19 C       -3.1750     5.1210    -0.4660 C.ar  1 <1>  -0.1440 
 20 C       -1.9510     4.6850    -1.2320 C.3   1 <1>  -0.0170 
 21 C        1.2730     5.3470     1.7660 C.3   1 <1>   0.0400 
 22 C        4.1300     2.7040     0.0860 C.ar  1 <1>  -0.1500 
 23 O        4.5920     0.4530    -0.6880 O.3   1 <1>  -0.3620 
 24 C       -5.3610     5.4480     0.9090 C.ar  1 <1>   0.4770 
 25 C       -3.6130     6.3790    -0.1360 C.ar  1 <1>   0.1600 
 26 C        5.9390     0.7540    -0.9710 C.3   1 <1>   0.0400 
 27 N       -4.7180     6.5540     0.5600 N.ar  1 <1>  -0.6200 
 28 C       -6.6290     5.6500     1.7020 C.3   1 <1>  -0.0970 
 29 H       -0.3220     2.2650     1.3090 H     1 <1>   0.3700 
 30 H       -1.9570     2.7760     1.1870 H     1 <1>   0.0800 
 31 H       -3.4270     1.9150     1.4920 H     1 <1>   0.0800 
 32 H       -3.7320    -0.4280     0.5980 H     1 <1>   0.0800 
 33 H       -2.5030    -1.1210    -0.4200 H     1 <1>   0.0800 
 34 H       -4.4460    -0.2950    -1.7350 H     1 <1>   0.0800 
 35 H       -2.9600     0.4800    -2.1820 H     1 <1>   0.0800 
 36 H        2.1630    -0.0110    -0.1860 H     1 <1>   0.1500 
 37 H       -4.7430     2.1770    -2.0050 H     1 <1>   0.0800 
 38 H       -5.1380     1.6240    -0.4100 H     1 <1>   0.0800 
 39 H       -2.6580     3.1360    -2.5100 H     1 <1>   0.0800 
 40 H       -1.3440     2.6120    -1.5000 H     1 <1>   0.0800 
 41 H        3.5320     4.6060     0.7920 H     1 <1>   0.1500 
 42 H       -1.8220     5.2470    -2.1400 H     1 <1>   0.0800 
 43 H       -1.0770     4.7850    -0.6110 H     1 <1>   0.0800 
 44 H        0.3850     5.8050     2.1640 H     1 <1>   0.0800 
 45 H        1.6420     5.9270     0.9390 H     1 <1>   0.0800 
 46 H        2.0160     5.2600     2.5390 H     1 <1>   0.0800 
 47 H        5.1370     3.0370    -0.0800 H     1 <1>   0.1500 
 48 H       -3.0570     7.2490    -0.4400 H     1 <1>   0.1500 
 49 H        6.4050    -0.1360    -1.3540 H     1 <1>   0.0800 
 50 H        6.4270     1.0600    -0.0630 H     1 <1>   0.0800 
 51 H        5.9740     1.5330    -1.7120 H     1 <1>   0.0800 
 52 H       -6.9350     4.7290     2.1630 H     1 <1>   0.0800 
 53 H       -7.4070     5.9900     1.0440 H     1 <1>   0.0800 
 54 H       -6.4660     6.3870     2.4650 H     1 <1>   0.0800 
@<TRIPOS>BOND
  1   1   2  2   
  2   2   3  am  
  3   2   4  am  
  4   3   5  1   
  5   3   6  1   
  6   4   7  1   
  7   4  29  1   
  8   5   8  1   
  9   5  30  1   
 10   5  31  1   
 11   6   9  1   
 12   6  32  1   
 13   6  33  1   
 14   7  10  ar  
 15   7  11  ar  
 16   8  12  1   
 17   8  13  1   
 18   8  14  1   
 19   9  13  1   
 20   9  34  1   
 21   9  35  1   
 22  10  15  1   
 23  10  16  ar  
 24  11  17  ar  
 25  11  36  1   
 26  12  18  ar  
 27  12  19  ar  
 28  13  37  1   
 29  13  38  1   
 30  14  20  1   
 31  14  39  1   
 32  14  40  1   
 33  15  21  1   
 34  16  22  ar  
 35  16  41  1   
 36  17  22  ar  
 37  17  23  1   
 38  18  24  ar  
 39  19  20  1   
 40  19  25  ar  
 41  20  42  1   
 42  20  43  1   
 43  21  44  1   
 44  21  45  1   
 45  21  46  1   
 46  22  47  1   
 47  23  26  1   
 48  24  27  ar  
 49  24  28  1   
 50  25  27  ar  
 51  25  48  1   
 52  26  49  1   
 53  26  50  1   
 54  26  51  1   
 55  28  52  1   
 56  28  53  1   
 57  28  54  1   
@<TRIPOS>SUBSTRUCTURE
  1 ****   4 GROUP 4 **** **** 0

# MOE 2024.06 (io_trps.svl 2023.06)
