@<TRIPOS>MOLECULE
NONAME
49 51 1 0 0 
SMALL
USER_CHARGES


@<TRIPOS>ATOM
  1 O       -0.2690     0.3480     0.9540 O.2   1 <1>  -0.5700 
  2 C       -1.2950     0.9030     0.6410 C.2   1 <1>   0.5690 
  3 N       -2.4460     0.1940     0.4440 N.am  1 <1>  -0.6600 
  4 C       -1.3090     2.4140     0.4670 C.3   1 <1>  -0.0990 
  5 C       -3.7870     0.7360     0.1080 C.3   1 <1>   0.1400 
  6 C       -2.5040    -1.2820     0.5800 C.3   1 <1>   0.1400 
  7 C        0.0870     3.0540     0.4930 C.3   1 <1>  -0.0160 
  8 C       -4.7510    -0.3910     0.4730 C.3   1 <1>   0.2000 
  9 C       -3.9410    -1.6640     0.2010 C.3   1 <1>  -0.0800 
 10 C       -0.0180     4.5550     0.2770 C.ar  1 <1>  -0.1440 
 11 O       -5.0270    -0.2980     1.8290 O.3   1 <1>  -0.6800 
 12 C       -4.4600    -2.9290     0.9110 C.3   1 <1>   0.0200 
 13 C       -0.1580     5.4120     1.3580 C.ar  1 <1>  -0.1500 
 14 C        0.0200     5.0810    -1.0050 C.ar  1 <1>  -0.1500 
 15 C       -3.7220    -4.1920     0.5010 C.2   1 <1>  -0.0400 
 16 C       -0.2590     6.7790     1.1640 C.ar  1 <1>  -0.1500 
 17 C       -0.0820     6.4470    -1.2020 C.ar  1 <1>  -0.1500 
 18 O       -3.9910    -5.3050     1.1290 O.3   1 <1>  -0.0190 
 19 C       -2.7890    -4.4640    -0.4270 C.2   1 <1>  -0.1500 
 20 C       -0.2220     7.3050    -0.1240 C.ar  1 <1>   0.0830 
 21 N       -3.2890    -6.3040     0.6770 N.2   1 <1>  -0.4100 
 22 C       -2.5540    -5.8260    -0.2620 C.2   1 <1>   0.1080 
 23 O       -0.3150     8.6300    -0.4040 O.3   1 <1>  -0.3630 
 24 C       -1.5710    -6.6420    -1.0710 C.3   1 <1>  -0.0590 
 25 C       -0.4320     9.5890     0.6230 C.3   1 <1>   0.0400 
 26 H       -1.7740     2.6480    -0.4720 H     1 <1>   0.0800 
 27 H       -1.9020     2.8410     1.2540 H     1 <1>   0.0800 
 28 H       -4.0100     1.6400     0.6500 H     1 <1>   0.0800 
 29 H       -3.8320     0.9270    -0.9510 H     1 <1>   0.0800 
 30 H       -1.7800    -1.7480    -0.0660 H     1 <1>   0.0800 
 31 H       -2.2880    -1.5480     1.6010 H     1 <1>   0.0800 
 32 H        0.7010     2.6180    -0.2760 H     1 <1>   0.0800 
 33 H        0.5630     2.8540     1.4380 H     1 <1>   0.0800 
 34 H       -5.6800    -0.3480    -0.0690 H     1 <1>   0.0800 
 35 H       -3.9630    -1.8380    -0.8610 H     1 <1>   0.0800 
 36 H       -4.1840    -0.2020     2.3180 H     1 <1>   0.4000 
 37 H       -5.5050    -3.0600     0.6880 H     1 <1>   0.0800 
 38 H       -4.3690    -2.8160     1.9770 H     1 <1>   0.0800 
 39 H       -0.1870     5.0150     2.3580 H     1 <1>   0.1500 
 40 H        0.1300     4.4310    -1.8550 H     1 <1>   0.1500 
 41 H       -0.3660     7.4140     2.0220 H     1 <1>   0.1500 
 42 H       -0.0520     6.8580    -2.1950 H     1 <1>   0.1500 
 43 H       -2.3100    -3.8270    -1.1460 H     1 <1>   0.1500 
 44 H       -0.5800    -6.2440    -0.9490 H     1 <1>   0.0800 
 45 H       -1.8410    -6.6130    -2.1100 H     1 <1>   0.0800 
 46 H       -1.5800    -7.6640    -0.7370 H     1 <1>   0.0800 
 47 H       -0.4800    10.5610     0.1670 H     1 <1>   0.0800 
 48 H        0.4320     9.5250     1.2610 H     1 <1>   0.0800 
 49 H       -1.3360     9.4000     1.1750 H     1 <1>   0.0800 
@<TRIPOS>BOND
  1   1   2  2   
  2   2   3  am  
  3   2   4  1   
  4   3   5  1   
  5   3   6  1   
  6   4   7  1   
  7   4  26  1   
  8   4  27  1   
  9   5   8  1   
 10   5  28  1   
 11   5  29  1   
 12   6   9  1   
 13   6  30  1   
 14   6  31  1   
 15   7  10  1   
 16   7  32  1   
 17   7  33  1   
 18   8   9  1   
 19   8  11  1   
 20   8  34  1   
 21   9  12  1   
 22   9  35  1   
 23  10  13  ar  
 24  10  14  ar  
 25  11  36  1   
 26  12  15  1   
 27  12  37  1   
 28  12  38  1   
 29  13  16  ar  
 30  13  39  1   
 31  14  17  ar  
 32  14  40  1   
 33  15  18  1   
 34  15  19  2   
 35  16  20  ar  
 36  16  41  1   
 37  17  20  ar  
 38  17  42  1   
 39  18  21  1   
 40  19  22  1   
 41  19  43  1   
 42  20  23  1   
 43  21  22  2   
 44  22  24  1   
 45  23  25  1   
 46  24  44  1   
 47  24  45  1   
 48  24  46  1   
 49  25  47  1   
 50  25  48  1   
 51  25  49  1   
@<TRIPOS>SUBSTRUCTURE
  1 ****   2 GROUP 4 **** **** 0

# MOE 2024.06 (io_trps.svl 2023.06)
