@<TRIPOS>MOLECULE
NONAME
58 61 1 0 0 
SMALL
USER_CHARGES


@<TRIPOS>ATOM
  1 O       -1.1850     2.0300    -2.3410 O.2   1 <1>  -0.5700 
  2 C       -1.6310     2.1040    -1.2070 C.2   1 <1>   0.5440 
  3 N       -2.7300     1.3410    -0.8720 N.am  1 <1>  -0.6600 
  4 C       -1.0310     3.0080    -0.2550 C.ar  1 <1>   0.0860 
  5 C       -3.1110     0.1490    -1.7040 C.3   1 <1>   0.1400 
  6 C       -3.4370     1.4780     0.4390 C.3   1 <1>   0.1400 
  7 C        0.0510     2.6330     0.5650 C.ar  1 <1>   0.1000 
  8 C       -1.5410     4.3020    -0.1350 C.ar  1 <1>  -0.1500 
  9 C       -3.7810    -0.9680    -0.8740 C.3   1 <1>   0.2000 
 10 C       -4.8930     1.0450     0.2740 C.3   1 <1>  -0.1600 
 11 N        0.6860     1.3950     0.5100 N.pl3 1 <1>  -0.8380 
 12 C        0.5520     3.5540     1.4790 C.ar  1 <1>  -0.1500 
 13 C       -1.0260     5.2040     0.7740 C.ar  1 <1>  -0.1500 
 14 O       -2.8260    -1.4630     0.0160 O.3   1 <1>  -0.6800 
 15 C       -5.0560    -0.4560    -0.1330 C.3   1 <1>  -0.1060 
 16 C        1.6820     1.1890    -0.5760 C.3   1 <1>   0.2090 
 17 C       -0.0850     0.1360     0.7540 C.3   1 <1>   0.2090 
 18 C        0.0260     4.8240     1.5900 C.ar  1 <1>  -0.1500 
 19 C       -5.2400    -1.3390     1.1140 C.2   1 <1>   0.9060 
 20 C       -6.2720    -0.5890    -1.1040 C.3   1 <1>  -0.0160 
 21 C        2.5850    -0.0120    -0.2370 C.3   1 <1>   0.1200 
 22 C        0.8740    -1.0360     1.0250 C.3   1 <1>   0.1200 
 23 O       -6.0660    -2.2570     1.1360 O.co2 1 <1>  -0.9000 
 24 O       -4.4460    -1.1770     2.0540 O.co2 1 <1>  -0.9000 
 25 C       -7.5140     0.2340    -0.7480 C.ar  1 <1>  -0.1440 
 26 O        1.8300    -1.1710     0.0010 O.3   1 <1>  -0.5600 
 27 C       -7.8290     1.3730    -1.4770 C.ar  1 <1>  -0.1500 
 28 C       -8.3470    -0.1450     0.2930 C.ar  1 <1>  -0.1500 
 29 C       -8.9510     2.1230    -1.1670 C.ar  1 <1>  -0.1500 
 30 C       -9.4690     0.6020     0.6070 C.ar  1 <1>  -0.1500 
 31 C       -9.7720     1.7380    -0.1220 C.ar  1 <1>  -0.1500 
 32 H       -3.7850     0.4770    -2.4730 H     1 <1>   0.0800 
 33 H       -2.2360    -0.2530    -2.1850 H     1 <1>   0.0800 
 34 H       -2.9550     0.8660     1.1820 H     1 <1>   0.0800 
 35 H       -3.4080     2.4990     0.7740 H     1 <1>   0.0800 
 36 H       -2.3580     4.5920    -0.7730 H     1 <1>   0.1500 
 37 H       -4.0430    -1.7920    -1.5140 H     1 <1>   0.0800 
 38 H       -5.4240     1.2220     1.1940 H     1 <1>   0.0800 
 39 H       -5.3200     1.6950    -0.4660 H     1 <1>   0.0800 
 40 H        1.3720     3.2520     2.1050 H     1 <1>   0.1500 
 41 H       -1.4360     6.1960     0.8510 H     1 <1>   0.1500 
 42 H       -3.2440    -1.4680     0.9310 H     1 <1>   0.4000 
 43 H        1.1710     1.0030    -1.5050 H     1 <1>   0.0800 
 44 H        2.2800     2.0750    -0.6900 H     1 <1>   0.0800 
 45 H       -0.7520     0.2670     1.5880 H     1 <1>   0.0800 
 46 H       -0.6690    -0.1090    -0.1130 H     1 <1>   0.0800 
 47 H        0.4320     5.5180     2.3050 H     1 <1>   0.1500 
 48 H       -5.9620    -0.2900    -2.0880 H     1 <1>   0.0800 
 49 H       -6.5590    -1.6240    -1.1890 H     1 <1>   0.0800 
 50 H        3.1690     0.2010     0.6410 H     1 <1>   0.0800 
 51 H        3.2490    -0.2170    -1.0570 H     1 <1>   0.0800 
 52 H        0.3160    -1.9540     1.0780 H     1 <1>   0.0800 
 53 H        1.3880    -0.8850     1.9570 H     1 <1>   0.0800 
 54 H       -7.1970     1.6840    -2.2900 H     1 <1>   0.1500 
 55 H       -8.1250    -1.0290     0.8670 H     1 <1>   0.1500 
 56 H       -9.1830     3.0040    -1.7370 H     1 <1>   0.1500 
 57 H      -10.0990     0.2930     1.4210 H     1 <1>   0.1500 
 58 H      -10.6440     2.3170     0.1230 H     1 <1>   0.1500 
@<TRIPOS>BOND
  1   1   2  2   
  2   2   3  am  
  3   2   4  1   
  4   3   5  1   
  5   3   6  1   
  6   4   7  ar  
  7   4   8  ar  
  8   5   9  1   
  9   5  32  1   
 10   5  33  1   
 11   6  10  1   
 12   6  34  1   
 13   6  35  1   
 14   7  11  1   
 15   7  12  ar  
 16   8  13  ar  
 17   8  36  1   
 18   9  14  1   
 19   9  15  1   
 20   9  37  1   
 21  10  15  1   
 22  10  38  1   
 23  10  39  1   
 24  11  16  1   
 25  11  17  1   
 26  12  18  ar  
 27  12  40  1   
 28  13  18  ar  
 29  13  41  1   
 30  14  42  1   
 31  15  19  1   
 32  15  20  1   
 33  16  21  1   
 34  16  43  1   
 35  16  44  1   
 36  17  22  1   
 37  17  45  1   
 38  17  46  1   
 39  18  47  1   
 40  19  23  ar  
 41  19  24  ar  
 42  20  25  1   
 43  20  48  1   
 44  20  49  1   
 45  21  26  1   
 46  21  50  1   
 47  21  51  1   
 48  22  26  1   
 49  22  52  1   
 50  22  53  1   
 51  25  27  ar  
 52  25  28  ar  
 53  27  29  ar  
 54  27  54  1   
 55  28  30  ar  
 56  28  55  1   
 57  29  31  ar  
 58  29  56  1   
 59  30  31  ar  
 60  30  57  1   
 61  31  58  1   
@<TRIPOS>SUBSTRUCTURE
  1 ****   6 GROUP 4 **** **** 0

# MOE 2024.06 (io_trps.svl 2023.06)
