@<TRIPOS>MOLECULE
NONAME
51 53 1 0 0 
SMALL
USER_CHARGES


@<TRIPOS>ATOM
  1 O       -0.4450     0.2500     0.7450 O.2   1 <1>  -0.5700 
  2 C       -1.4740     0.8940     0.8180 C.2   1 <1>   0.7160 
  3 N       -2.6690     0.2310     0.9880 N.am  1 <1>  -0.6600 
  4 C       -1.4350     2.3260     0.6900 C.2   1 <1>  -0.0860 
  5 C       -2.7330    -1.2440     1.2370 C.3   1 <1>   0.1400 
  6 C       -3.9840     0.8020     0.5630 C.3   1 <1>   0.1400 
  7 C       -0.9000     3.0590    -0.3570 C.2   1 <1>   0.1080 
  8 C       -1.9010     3.3090     1.4880 C.2   1 <1>  -0.0400 
  9 C       -3.4070    -1.9690     0.0600 C.3   1 <1>   0.3440 
 10 C       -4.5940    -0.0290    -0.5890 C.3   1 <1>   0.2000 
 11 N       -1.0740     4.3120    -0.1610 N.2   1 <1>  -0.4100 
 12 C       -0.2110     2.4850    -1.5840 C.3   1 <1>   0.0210 
 13 O       -1.6930     4.5000     0.9830 O.3   1 <1>  -0.0190 
 14 C       -2.5950     3.2140     2.8330 C.3   1 <1>  -0.0600 
 15 O       -4.6510    -1.3780    -0.2130 O.3   1 <1>  -0.5600 
 16 C       -3.5990    -3.4490     0.3800 C.ar  1 <1>  -0.1440 
 17 C       -6.0200     0.4260    -0.9800 C.3   1 <1>  -0.0800 
 18 C       -1.2130     1.8220    -2.5360 C.3   1 <1>  -0.2400 
 19 C       -2.6020    -4.3550     0.0460 C.ar  1 <1>  -0.1500 
 20 C       -4.7450    -3.9130     1.0120 C.ar  1 <1>  -0.1500 
 21 C       -6.6050    -0.4540    -2.0970 C.3   1 <1>  -0.2400 
 22 C       -6.0550     1.8940    -1.4420 C.3   1 <1>  -0.2400 
 23 C       -2.7470    -5.7000     0.3400 C.ar  1 <1>  -0.1500 
 24 C       -4.8920    -5.2570     1.3060 C.ar  1 <1>  -0.1500 
 25 C       -3.8920    -6.1520     0.9700 C.ar  1 <1>  -0.1500 
 26 H       -1.7490    -1.6530     1.3870 H     1 <1>   0.0800 
 27 H       -3.3000    -1.4290     2.1320 H     1 <1>   0.0800 
 28 H       -4.6600     0.8000     1.4000 H     1 <1>   0.0800 
 29 H       -3.8640     1.8190     0.2370 H     1 <1>   0.0800 
 30 H       -2.7960    -1.8750    -0.8210 H     1 <1>   0.0800 
 31 H       -3.9610     0.0460    -1.4560 H     1 <1>   0.0800 
 32 H        0.2980     3.2800    -2.1000 H     1 <1>   0.0800 
 33 H        0.5300     1.7690    -1.2740 H     1 <1>   0.0800 
 34 H       -2.6770     2.1900     3.1480 H     1 <1>   0.0800 
 35 H       -3.5790     3.6420     2.7670 H     1 <1>   0.0800 
 36 H       -2.0290     3.7570     3.5690 H     1 <1>   0.0800 
 37 H       -6.6520     0.3340    -0.1120 H     1 <1>   0.0800 
 38 H       -1.9680     2.5320    -2.8280 H     1 <1>   0.0800 
 39 H       -1.6860     0.9830    -2.0600 H     1 <1>   0.0800 
 40 H       -0.7060     1.4750    -3.4180 H     1 <1>   0.0800 
 41 H       -1.7040    -4.0190    -0.4440 H     1 <1>   0.1500 
 42 H       -5.5310    -3.2250     1.2740 H     1 <1>   0.1500 
 43 H       -5.9910    -0.4080    -2.9790 H     1 <1>   0.0800 
 44 H       -7.5990    -0.1310    -2.3510 H     1 <1>   0.0800 
 45 H       -6.6630    -1.4800    -1.7770 H     1 <1>   0.0800 
 46 H       -5.3810     2.0480    -2.2670 H     1 <1>   0.0800 
 47 H       -5.7870     2.5620    -0.6450 H     1 <1>   0.0800 
 48 H       -7.0480     2.1570    -1.7630 H     1 <1>   0.0800 
 49 H       -1.9680    -6.3950     0.0770 H     1 <1>   0.1500 
 50 H       -5.7850    -5.6060     1.7940 H     1 <1>   0.1500 
 51 H       -4.0050    -7.1970     1.1990 H     1 <1>   0.1500 
@<TRIPOS>BOND
  1   1   2  2   
  2   2   3  am  
  3   2   4  1   
  4   3   5  1   
  5   3   6  1   
  6   4   7  1   
  7   4   8  2   
  8   5   9  1   
  9   5  26  1   
 10   5  27  1   
 11   6  10  1   
 12   6  28  1   
 13   6  29  1   
 14   7  11  2   
 15   7  12  1   
 16   8  13  1   
 17   8  14  1   
 18   9  15  1   
 19   9  16  1   
 20   9  30  1   
 21  10  15  1   
 22  10  17  1   
 23  10  31  1   
 24  11  13  1   
 25  12  18  1   
 26  12  32  1   
 27  12  33  1   
 28  14  34  1   
 29  14  35  1   
 30  14  36  1   
 31  16  19  ar  
 32  16  20  ar  
 33  17  21  1   
 34  17  22  1   
 35  17  37  1   
 36  18  38  1   
 37  18  39  1   
 38  18  40  1   
 39  19  23  ar  
 40  19  41  1   
 41  20  24  ar  
 42  20  42  1   
 43  21  43  1   
 44  21  44  1   
 45  21  45  1   
 46  22  46  1   
 47  22  47  1   
 48  22  48  1   
 49  23  25  ar  
 50  23  49  1   
 51  24  25  ar  
 52  24  50  1   
 53  25  51  1   
@<TRIPOS>SUBSTRUCTURE
  1 ****   3 GROUP 4 **** **** 0

# MOE 2024.06 (io_trps.svl 2023.06)
