@<TRIPOS>MOLECULE
NONAME
51 53 1 0 0 
SMALL
USER_CHARGES


@<TRIPOS>ATOM
  1 F        0.2600    -0.6560     0.2070 F     1 <1>  -0.1900 
  2 C       -0.4790    -1.7090     0.4480 C.ar  1 <1>   0.1900 
  3 C       -0.0370    -2.7530     1.2690 C.ar  1 <1>   0.0830 
  4 C       -1.7240    -1.7360    -0.1490 C.ar  1 <1>  -0.1500 
  5 O        1.1640    -2.8410     1.9110 O.3   1 <1>  -0.3630 
  6 C       -0.8960    -3.8230     1.4640 C.ar  1 <1>  -0.1500 
  7 C       -2.5560    -2.8180     0.0690 C.ar  1 <1>  -0.1500 
  8 C        2.1790    -1.8720     1.7780 C.3   1 <1>   0.0400 
  9 C       -2.1620    -3.8880     0.8770 C.ar  1 <1>   0.0530 
 10 C       -3.0280    -5.0200     1.1030 C.2   1 <1>   0.0870 
 11 O       -2.8590    -5.8020     2.1460 O.3   1 <1>  -0.0190 
 12 C       -4.0910    -5.5150     0.4210 C.2   1 <1>  -0.2330 
 13 N       -3.7410    -6.7700     2.2080 N.2   1 <1>  -0.4100 
 14 C       -4.4950    -6.6070     1.1820 C.2   1 <1>   0.3720 
 15 C       -4.7290    -5.1200    -0.7860 C.2   1 <1>   1.0330 
 16 N       -5.5840    -7.4360     0.8960 N.pl3 1 <1>  -0.8210 
 17 O       -4.4250    -5.6590    -1.8640 O.co2 1 <1>  -0.9000 
 18 O       -5.6760    -4.3170    -0.7600 O.co2 1 <1>  -0.9000 
 19 C       -5.4000    -8.1590    -0.4030 C.3   1 <1>   0.2090 
 20 C       -6.8700    -6.6880     0.9400 C.3   1 <1>   0.2090 
 21 C       -6.1540    -9.4990    -0.4340 C.3   1 <1>   0.3430 
 22 C       -7.9400    -7.5580     1.6000 C.3   1 <1>  -0.1600 
 23 N       -7.6140    -9.3750    -0.0760 N.4   1 <1>  -0.9590 
 24 C       -7.7510    -9.0590     1.3790 C.3   1 <1>   0.3430 
 25 C       -8.3600   -10.5960    -0.4700 C.3   1 <1>   0.3430 
 26 C       -9.8640   -10.3100    -0.4990 C.3   1 <1>  -0.1600 
 27 C      -10.6480   -11.5420    -0.9660 C.3   1 <1>  -0.2400 
 28 H       -2.0410    -0.9220    -0.7750 H     1 <1>   0.1500 
 29 H       -0.5670    -4.6320     2.0910 H     1 <1>   0.1500 
 30 H       -3.5290    -2.8270    -0.3940 H     1 <1>   0.1500 
 31 H        3.0260    -2.1930     2.3570 H     1 <1>   0.0800 
 32 H        1.8170    -0.9310     2.1540 H     1 <1>   0.0800 
 33 H        2.4550    -1.7930     0.7420 H     1 <1>   0.0800 
 34 H       -4.3500    -8.3420    -0.5680 H     1 <1>   0.0800 
 35 H       -5.7480    -7.5570    -1.2230 H     1 <1>   0.0800 
 36 H       -7.1740    -6.4090    -0.0560 H     1 <1>   0.0800 
 37 H       -6.7530    -5.7710     1.4990 H     1 <1>   0.0800 
 38 H       -5.6690   -10.1760     0.2490 H     1 <1>   0.0800 
 39 H       -6.0570    -9.9060    -1.4260 H     1 <1>   0.0800 
 40 H       -8.9120    -7.2460     1.2670 H     1 <1>   0.0800 
 41 H       -7.8980    -7.3760     2.6590 H     1 <1>   0.0800 
 42 H       -7.9810    -8.5700    -0.6000 H     1 <1>   0.4500 
 43 H       -8.5920    -9.5830     1.8010 H     1 <1>   0.0800 
 44 H       -6.8640    -9.3780     1.9030 H     1 <1>   0.0800 
 45 H       -8.1480   -11.3990     0.2180 H     1 <1>   0.0800 
 46 H       -8.0510   -10.9050    -1.4550 H     1 <1>   0.0800 
 47 H      -10.0650    -9.4980    -1.1760 H     1 <1>   0.0800 
 48 H      -10.2140   -10.0370     0.4810 H     1 <1>   0.0800 
 49 H      -10.3500   -11.8320    -1.9600 H     1 <1>   0.0800 
 50 H      -11.7020   -11.3220    -0.9840 H     1 <1>   0.0800 
 51 H      -10.4900   -12.3730    -0.3010 H     1 <1>   0.0800 
@<TRIPOS>BOND
  1   1   2  1   
  2   2   3  ar  
  3   2   4  ar  
  4   3   5  1   
  5   3   6  ar  
  6   4   7  ar  
  7   4  28  1   
  8   5   8  1   
  9   6   9  ar  
 10   6  29  1   
 11   7   9  ar  
 12   7  30  1   
 13   8  31  1   
 14   8  32  1   
 15   8  33  1   
 16   9  10  1   
 17  10  11  1   
 18  10  12  2   
 19  11  13  1   
 20  12  14  1   
 21  12  15  1   
 22  13  14  2   
 23  14  16  1   
 24  15  17  ar  
 25  15  18  ar  
 26  16  19  1   
 27  16  20  1   
 28  19  21  1   
 29  19  34  1   
 30  19  35  1   
 31  20  22  1   
 32  20  36  1   
 33  20  37  1   
 34  21  23  1   
 35  21  38  1   
 36  21  39  1   
 37  22  24  1   
 38  22  40  1   
 39  22  41  1   
 40  23  24  1   
 41  23  25  1   
 42  23  42  1   
 43  24  43  1   
 44  24  44  1   
 45  25  26  1   
 46  25  45  1   
 47  25  46  1   
 48  26  27  1   
 49  26  47  1   
 50  26  48  1   
 51  27  49  1   
 52  27  50  1   
 53  27  51  1   
@<TRIPOS>SUBSTRUCTURE
  1 ****  12 GROUP 4 **** **** 0

# MOE 2024.06 (io_trps.svl 2023.06)
