@<TRIPOS>MOLECULE
NONAME
49 52 1 0 0 
SMALL
USER_CHARGES


@<TRIPOS>ATOM
  1 O       -2.4030     0.6390     2.7270 O.2   1 <1>  -0.5700 
  2 C       -2.5270     0.9810     1.5670 C.2   1 <1>   0.5440 
  3 N       -3.1770     0.1430     0.6950 N.am  1 <1>  -0.6600 
  4 C       -2.0190     2.2520     1.1190 C.ar  1 <1>   0.0860 
  5 C       -3.7520     0.5440    -0.6120 C.3   1 <1>   0.1400 
  6 C       -3.5510    -1.2520     1.0270 C.3   1 <1>   0.1400 
  7 C       -0.9670     2.3450     0.1960 C.ar  1 <1>   0.0000 
  8 C       -2.5440     3.4570     1.5350 C.ar  1 <1>  -0.1500 
  9 C       -4.8290    -0.5060    -0.8840 C.3   1 <1>   0.2000 
 10 C       -4.3030    -1.7770    -0.2080 C.3   1 <1>  -0.0800 
 11 C       -0.5990     3.5910    -0.2670 C.ar  1 <1>   0.1050 
 12 C       -0.0870     1.4630    -0.4630 C.2   1 <1>   0.1080 
 13 C       -2.0770     4.6690     1.0150 C.ar  1 <1>   0.1660 
 14 O       -5.9870    -0.1250    -0.2280 O.3   1 <1>  -0.6800 
 15 C       -3.3900    -2.5590    -1.1760 C.3   1 <1>  -0.0160 
 16 N       -1.1310     4.7660     0.1160 N.ar  1 <1>  -0.5670 
 17 N        0.4030     3.3780    -1.1650 N.pl3 1 <1>   0.3140 
 18 N        0.7090     2.0660    -1.2800 N.2   1 <1>  -0.7070 
 19 C       -0.0180    -0.0360    -0.2520 C.3   1 <1>  -0.0590 
 20 C       -2.6860     5.9700     1.4940 C.3   1 <1>  -0.0970 
 21 C       -2.7870    -3.8010    -0.5380 C.ar  1 <1>   0.1670 
 22 C        1.1180     4.4160    -1.9150 C.3   1 <1>   0.0160 
 23 N       -1.5320    -3.7050    -0.1290 N.ar  1 <1>  -0.6200 
 24 C       -3.5510    -4.9590    -0.4120 C.ar  1 <1>   0.1600 
 25 C       -1.0990    -4.8320     0.4130 C.ar  1 <1>   0.1600 
 26 N       -3.1210    -6.0860     0.1300 N.ar  1 <1>  -0.6200 
 27 C       -1.8680    -5.9830     0.5390 C.ar  1 <1>   0.1600 
 28 H       -4.1630     1.5390    -0.5850 H     1 <1>   0.0800 
 29 H       -2.9850     0.4940    -1.3650 H     1 <1>   0.0800 
 30 H       -2.6740    -1.8270     1.2660 H     1 <1>   0.0800 
 31 H       -4.2010    -1.2430     1.8860 H     1 <1>   0.0800 
 32 H       -3.3310     3.4580     2.2670 H     1 <1>   0.1500 
 33 H       -5.0560    -0.6240    -1.9290 H     1 <1>   0.0800 
 34 H       -5.1140    -2.4190     0.0890 H     1 <1>   0.0800 
 35 H       -5.7640     0.1050     0.6970 H     1 <1>   0.4000 
 36 H       -2.5930    -1.9290    -1.5280 H     1 <1>   0.0800 
 37 H       -3.9610    -2.8600    -2.0360 H     1 <1>   0.0800 
 38 H       -0.1230    -0.2730     0.7910 H     1 <1>   0.0800 
 39 H        0.9300    -0.4080    -0.5920 H     1 <1>   0.0800 
 40 H       -0.7960    -0.5240    -0.8050 H     1 <1>   0.0800 
 41 H       -3.4430     5.7990     2.2370 H     1 <1>   0.0800 
 42 H       -3.1250     6.4900     0.6620 H     1 <1>   0.0800 
 43 H       -1.9170     6.5890     1.9210 H     1 <1>   0.0800 
 44 H        0.4070     5.0050    -2.4630 H     1 <1>   0.0800 
 45 H        1.8080     3.9510    -2.5940 H     1 <1>   0.0800 
 46 H        1.6520     5.0410    -1.2240 H     1 <1>   0.0800 
 47 H       -4.5640    -4.9530    -0.7730 H     1 <1>   0.1500 
 48 H       -0.0860    -4.8460     0.7760 H     1 <1>   0.1500 
 49 H       -1.4270    -6.8510     0.9950 H     1 <1>   0.1500 
@<TRIPOS>BOND
  1   1   2  2   
  2   2   3  am  
  3   2   4  1   
  4   3   5  1   
  5   3   6  1   
  6   4   7  ar  
  7   4   8  ar  
  8   5   9  1   
  9   5  28  1   
 10   5  29  1   
 11   6  10  1   
 12   6  30  1   
 13   6  31  1   
 14   7  11  ar  
 15   7  12  1   
 16   8  13  ar  
 17   8  32  1   
 18   9  10  1   
 19   9  14  1   
 20   9  33  1   
 21  10  15  1   
 22  10  34  1   
 23  11  16  ar  
 24  11  17  1   
 25  12  18  2   
 26  12  19  1   
 27  13  16  ar  
 28  13  20  1   
 29  14  35  1   
 30  15  21  1   
 31  15  36  1   
 32  15  37  1   
 33  17  18  1   
 34  17  22  1   
 35  19  38  1   
 36  19  39  1   
 37  19  40  1   
 38  20  41  1   
 39  20  42  1   
 40  20  43  1   
 41  21  23  ar  
 42  21  24  ar  
 43  22  44  1   
 44  22  45  1   
 45  22  46  1   
 46  23  25  ar  
 47  24  26  ar  
 48  24  47  1   
 49  25  27  ar  
 50  25  48  1   
 51  26  27  ar  
 52  27  49  1   
@<TRIPOS>SUBSTRUCTURE
  1 ****   3 GROUP 4 **** **** 0

# MOE 2024.06 (io_trps.svl 2023.06)
