@<TRIPOS>MOLECULE
NONAME
50 52 1 0 0 
SMALL
USER_CHARGES


@<TRIPOS>ATOM
  1 O       -3.2760     1.0710    -1.9910 O.2   1 <1>  -0.5700 
  2 C       -2.6100     1.0680    -0.9840 C.2   1 <1>   0.5690 
  3 N       -2.2130    -0.0930    -0.4050 N.am  1 <1>  -0.7300 
  4 C       -2.2270     2.3970    -0.3310 C.3   1 <1>  -0.0190 
  5 C       -2.5760    -1.4370    -0.9000 C.3   1 <1>   0.2200 
  6 C       -0.6900     2.5070    -0.1710 C.3   1 <1>  -0.1600 
  7 C       -3.0060     2.5500     0.9980 C.3   1 <1>  -0.1600 
  8 C       -3.8520    -1.8860    -0.2120 C.3   1 <1>  -0.0800 
  9 C       -1.5700    -2.4690    -0.4040 C.3   1 <1>   0.1200 
 10 C       -0.1490     3.9280    -0.3920 C.3   1 <1>  -0.2400 
 11 C       -2.8320     3.9040     1.6960 C.3   1 <1>  -0.2400 
 12 C       -3.3240    -2.4890     1.0930 C.3   1 <1>   0.1200 
 13 C       -4.6220    -2.9120    -1.0660 C.3   1 <1>  -0.0170 
 14 O       -1.9850    -2.8330     0.8790 O.3   1 <1>  -0.5600 
 15 C       -5.9650    -3.2660    -0.4360 C.ar  1 <1>  -0.1440 
 16 C       -7.0740    -2.3870    -0.4770 C.ar  1 <1>   0.0000 
 17 C       -6.1320    -4.4640     0.1960 C.ar  1 <1>  -0.1500 
 18 C       -8.2690    -2.8070     0.1570 C.ar  1 <1>   0.3100 
 19 C       -7.0700    -1.1210    -1.1090 C.ar  1 <1>  -0.1500 
 20 C       -7.3610    -4.7840     0.7850 C.ar  1 <1>   0.1600 
 21 N       -8.3950    -4.0050     0.7820 N.ar  1 <1>  -0.6200 
 22 C       -9.3820    -1.9520     0.1430 C.ar  1 <1>  -0.1500 
 23 C       -8.1730    -0.3130    -1.1060 C.ar  1 <1>  -0.1500 
 24 C       -9.3460    -0.7300    -0.4710 C.ar  1 <1>  -0.1500 
 25 H       -1.7140    -0.0800     0.4860 H     1 <1>   0.3700 
 26 H       -2.5560     3.1690    -1.0050 H     1 <1>   0.0800 
 27 H       -2.6530    -1.4230    -1.9750 H     1 <1>   0.0800 
 28 H       -0.3910     2.1470     0.7980 H     1 <1>   0.0800 
 29 H       -0.2170     1.8760    -0.9050 H     1 <1>   0.0800 
 30 H       -4.0540     2.4180     0.7850 H     1 <1>   0.0800 
 31 H       -2.7200     1.7690     1.6810 H     1 <1>   0.0800 
 32 H       -4.4940    -1.0480    -0.0060 H     1 <1>   0.0800 
 33 H       -0.5660    -2.0870    -0.3670 H     1 <1>   0.0800 
 34 H       -1.6010    -3.3520    -1.0180 H     1 <1>   0.0800 
 35 H       -0.5500     4.6230     0.3210 H     1 <1>   0.0800 
 36 H       -0.3970     4.2720    -1.3810 H     1 <1>   0.0800 
 37 H        0.9220     3.9290    -0.2940 H     1 <1>   0.0800 
 38 H       -3.0300     4.7110     1.0110 H     1 <1>   0.0800 
 39 H       -1.8360     4.0060     2.0870 H     1 <1>   0.0800 
 40 H       -3.5200     3.9810     2.5190 H     1 <1>   0.0800 
 41 H       -3.8660    -3.3650     1.4030 H     1 <1>   0.0800 
 42 H       -3.3470    -1.7580     1.8840 H     1 <1>   0.0800 
 43 H       -4.0300    -3.8040    -1.1830 H     1 <1>   0.0800 
 44 H       -4.7910    -2.5180    -2.0520 H     1 <1>   0.0800 
 45 H       -5.3370    -5.1840     0.2610 H     1 <1>   0.1500 
 46 H       -6.1820    -0.7770    -1.6080 H     1 <1>   0.1500 
 47 H       -7.4500    -5.7400     1.2740 H     1 <1>   0.1500 
 48 H      -10.2730    -2.2960     0.6350 H     1 <1>   0.1500 
 49 H       -8.1530     0.6490    -1.5890 H     1 <1>   0.1500 
 50 H      -10.2070    -0.0850    -0.4740 H     1 <1>   0.1500 
@<TRIPOS>BOND
  1   1   2  2   
  2   2   3  am  
  3   2   4  1   
  4   3   5  1   
  5   3  25  1   
  6   4   6  1   
  7   4   7  1   
  8   4  26  1   
  9   5   8  1   
 10   5   9  1   
 11   5  27  1   
 12   6  10  1   
 13   6  28  1   
 14   6  29  1   
 15   7  11  1   
 16   7  30  1   
 17   7  31  1   
 18   8  12  1   
 19   8  13  1   
 20   8  32  1   
 21   9  14  1   
 22   9  33  1   
 23   9  34  1   
 24  10  35  1   
 25  10  36  1   
 26  10  37  1   
 27  11  38  1   
 28  11  39  1   
 29  11  40  1   
 30  12  14  1   
 31  12  41  1   
 32  12  42  1   
 33  13  15  1   
 34  13  43  1   
 35  13  44  1   
 36  15  16  ar  
 37  15  17  ar  
 38  16  18  ar  
 39  16  19  ar  
 40  17  20  ar  
 41  17  45  1   
 42  18  21  ar  
 43  18  22  ar  
 44  19  23  ar  
 45  19  46  1   
 46  20  21  ar  
 47  20  47  1   
 48  22  24  ar  
 49  22  48  1   
 50  23  24  ar  
 51  23  49  1   
 52  24  50  1   
@<TRIPOS>SUBSTRUCTURE
  1 ****   8 GROUP 4 **** **** 0

# MOE 2024.06 (io_trps.svl 2023.06)
