@<TRIPOS>MOLECULE
NONAME
41 42 1 0 0 
SMALL
USER_CHARGES


@<TRIPOS>ATOM
  1 S        0.7720     0.1950    -1.5120 S.o2  1 <1>   1.3330 
  2 O       -0.0040     1.1100    -2.3180 O.2   1 <1>  -0.6500 
  3 O        1.1500    -1.0940    -2.0460 O.2   1 <1>  -0.6500 
  4 N       -0.0990    -0.0730    -0.0760 N.am  1 <1>  -0.8490 
  5 C        2.2660     1.0230    -0.9590 C.3   1 <1>  -0.0550 
  6 C       -0.9840    -1.2380    -0.1780 C.3   1 <1>   0.1160 
  7 C       -0.8720     1.0960     0.3590 C.3   1 <1>   0.1160 
  8 C        3.2050     0.1350    -0.1120 C.3   1 <1>  -0.0800 
  9 C        4.5760     0.7320     0.1780 C.3   1 <1>   0.2200 
 10 C        2.6840    -0.2200     1.2880 C.3   1 <1>   0.1200 
 11 N        4.4670     2.1600     0.5610 N.am  1 <1>  -0.7300 
 12 C        4.9570    -0.0590     1.4190 C.3   1 <1>   0.1200 
 13 O        3.7770    -0.1190     2.1570 O.3   1 <1>  -0.5600 
 14 C        4.7190     3.2160    -0.2580 C.2   1 <1>   0.7150 
 15 O        4.9180     3.0050    -1.4360 O.2   1 <1>  -0.5700 
 16 C        4.7240     4.5490     0.2590 C.2   1 <1>  -0.2370 
 17 N        4.9680     4.8620     1.5500 N.pl3 1 <1>   0.3000 
 18 C        4.5270     5.7420    -0.3650 C.2   1 <1>  -0.1500 
 19 N        4.9180     6.1830     1.7790 N.2   1 <1>  -0.7070 
 20 C        4.6510     6.7250     0.6100 C.2   1 <1>   0.1080 
 21 C        4.4940     8.2460     0.3170 C.3   1 <1>   1.2010 
 22 F        3.5460     8.8210     1.0520 F     1 <1>  -0.3400 
 23 F        4.1640     8.4870    -0.9500 F     1 <1>  -0.3400 
 24 F        5.6100     8.9350     0.5380 F     1 <1>  -0.3400 
 25 H        2.8080     1.3400    -1.8290 H     1 <1>   0.0800 
 26 H        2.0020     1.9040    -0.4100 H     1 <1>   0.0800 
 27 H       -1.5140    -1.3870     0.7470 H     1 <1>   0.0800 
 28 H       -0.4060    -2.1240    -0.3790 H     1 <1>   0.0800 
 29 H       -1.6940    -1.1000    -0.9760 H     1 <1>   0.0800 
 30 H       -1.3280     0.9030     1.3150 H     1 <1>   0.0800 
 31 H       -1.6440     1.3260    -0.3570 H     1 <1>   0.0800 
 32 H       -0.2280     1.9530     0.4580 H     1 <1>   0.0800 
 33 H        3.3600    -0.7890    -0.6420 H     1 <1>   0.0800 
 34 H        5.2750     0.5990    -0.6320 H     1 <1>   0.0800 
 35 H        2.2970    -1.2240     1.3250 H     1 <1>   0.0800 
 36 H        1.9320     0.4700     1.6300 H     1 <1>   0.0800 
 37 H        4.0450     2.2930     1.4810 H     1 <1>   0.3700 
 38 H        5.7290     0.4130     2.0010 H     1 <1>   0.0800 
 39 H        5.2470    -1.0640     1.1660 H     1 <1>   0.0800 
 40 H        5.1970     4.1900     2.2930 H     1 <1>   0.2700 
 41 H        4.3170     5.8920    -1.4120 H     1 <1>   0.1500 
@<TRIPOS>BOND
  1   1   2  2   
  2   1   3  2   
  3   1   4  am  
  4   1   5  1   
  5   4   6  1   
  6   4   7  1   
  7   5   8  1   
  8   5  25  1   
  9   5  26  1   
 10   6  27  1   
 11   6  28  1   
 12   6  29  1   
 13   7  30  1   
 14   7  31  1   
 15   7  32  1   
 16   8   9  1   
 17   8  10  1   
 18   8  33  1   
 19   9  11  1   
 20   9  12  1   
 21   9  34  1   
 22  10  13  1   
 23  10  35  1   
 24  10  36  1   
 25  11  14  am  
 26  11  37  1   
 27  12  13  1   
 28  12  38  1   
 29  12  39  1   
 30  14  15  2   
 31  14  16  1   
 32  16  17  1   
 33  16  18  2   
 34  17  19  1   
 35  17  40  1   
 36  18  20  1   
 37  18  41  1   
 38  19  20  2   
 39  20  21  1   
 40  21  22  1   
 41  21  23  1   
 42  21  24  1   
@<TRIPOS>SUBSTRUCTURE
  1 ****  14 GROUP 4 **** **** 0

# MOE 2024.06 (io_trps.svl 2023.06)
