@<TRIPOS>MOLECULE
NONAME
50 51 1 0 0 
SMALL
USER_CHARGES


@<TRIPOS>ATOM
  1 O        2.7090    -1.6780    -0.0590 O.co2 1 <1>  -0.9000 
  2 C        2.2500    -0.7710     0.6540 C.2   1 <1>   0.9060 
  3 O        1.9250    -0.9890     1.8270 O.co2 1 <1>  -0.9000 
  4 C        2.0800     0.6470     0.0590 C.3   1 <1>  -0.1060 
  5 C        3.2460     0.9410    -0.9250 C.3   1 <1>   0.2000 
  6 C        2.1590     1.7170     1.1890 C.3   1 <1>  -0.1600 
  7 C        0.6900     0.7010    -0.6400 C.3   1 <1>  -0.1600 
  8 O        3.2890    -0.0070    -1.9310 O.3   1 <1>  -0.6800 
  9 C        4.5990     0.9510    -0.1970 C.3   1 <1>   0.1400 
 10 C        3.5310     1.7370     1.8820 C.3   1 <1>   0.1400 
 11 C        0.3400     2.0030    -1.3840 C.3   1 <1>  -0.1600 
 12 N        4.5850     2.0070     0.8610 N.am  1 <1>  -0.6600 
 13 C       -1.0550     1.9100    -2.0100 C.3   1 <1>  -0.2400 
 14 C        5.4590     3.0650     1.0090 C.2   1 <1>   0.5690 
 15 O        5.6650     3.4980     2.1220 O.2   1 <1>  -0.5700 
 16 C        6.2060     3.7560    -0.1810 C.3   1 <1>   0.2040 
 17 C        6.4460     5.2580     0.1340 C.ar  1 <1>  -0.1430 
 18 C        7.5340     3.0060    -0.4270 C.3   1 <1>  -0.2400 
 19 C        5.4060     3.7710    -1.5070 C.3   1 <1>  -0.2400 
 20 C        5.3590     6.0390     0.5180 C.ar  1 <1>  -0.1500 
 21 C        7.6870     5.8840     0.0340 C.ar  1 <1>  -0.1500 
 22 C        5.4990     7.3880     0.7900 C.ar  1 <1>  -0.1500 
 23 C        7.8320     7.2340     0.3070 C.ar  1 <1>  -0.1500 
 24 C        6.7380     7.9900     0.6840 C.ar  1 <1>  -0.1500 
 25 H        3.1100     1.8950    -1.3990 H     1 <1>   0.0800 
 26 H        1.4040     1.5150     1.9290 H     1 <1>   0.0800 
 27 H        1.9770     2.7010     0.8000 H     1 <1>   0.0800 
 28 H        0.6400    -0.1140    -1.3430 H     1 <1>   0.0800 
 29 H       -0.0640     0.5090     0.1060 H     1 <1>   0.0800 
 30 H        3.1170    -0.8820    -1.4630 H     1 <1>   0.4000 
 31 H        5.3960     1.0970    -0.8940 H     1 <1>   0.0800 
 32 H        4.7590    -0.0040     0.2750 H     1 <1>   0.0800 
 33 H        3.7250     0.7900     2.3590 H     1 <1>   0.0800 
 34 H        3.5350     2.4970     2.6430 H     1 <1>   0.0800 
 35 H        0.3580     2.8390    -0.7090 H     1 <1>   0.0800 
 36 H        1.0550     2.1810    -2.1670 H     1 <1>   0.0800 
 37 H       -1.7970     1.7490    -1.2480 H     1 <1>   0.0800 
 38 H       -1.0950     1.0950    -2.7100 H     1 <1>   0.0800 
 39 H       -1.2870     2.8220    -2.5300 H     1 <1>   0.0800 
 40 H        8.0490     3.4050    -1.2820 H     1 <1>   0.0800 
 41 H        7.3580     1.9620    -0.6010 H     1 <1>   0.0800 
 42 H        8.1640     3.0920     0.4400 H     1 <1>   0.0800 
 43 H        5.8350     4.4880    -2.1840 H     1 <1>   0.0800 
 44 H        4.3860     4.0550    -1.3210 H     1 <1>   0.0800 
 45 H        5.4140     2.8250    -2.0080 H     1 <1>   0.0800 
 46 H        4.3850     5.5920     0.6160 H     1 <1>   0.1500 
 47 H        8.5690     5.3440    -0.2550 H     1 <1>   0.1500 
 48 H        4.6430     7.9670     1.0890 H     1 <1>   0.1500 
 49 H        8.8000     7.6970     0.2260 H     1 <1>   0.1500 
 50 H        6.8510     9.0380     0.8970 H     1 <1>   0.1500 
@<TRIPOS>BOND
  1   1   2  ar  
  2   2   3  ar  
  3   2   4  1   
  4   4   5  1   
  5   4   6  1   
  6   4   7  1   
  7   5   8  1   
  8   5   9  1   
  9   5  25  1   
 10   6  10  1   
 11   6  26  1   
 12   6  27  1   
 13   7  11  1   
 14   7  28  1   
 15   7  29  1   
 16   8  30  1   
 17   9  12  1   
 18   9  31  1   
 19   9  32  1   
 20  10  12  1   
 21  10  33  1   
 22  10  34  1   
 23  11  13  1   
 24  11  35  1   
 25  11  36  1   
 26  12  14  am  
 27  13  37  1   
 28  13  38  1   
 29  13  39  1   
 30  14  15  2   
 31  14  16  1   
 32  16  17  1   
 33  16  18  1   
 34  16  19  1   
 35  17  20  ar  
 36  17  21  ar  
 37  18  40  1   
 38  18  41  1   
 39  18  42  1   
 40  19  43  1   
 41  19  44  1   
 42  19  45  1   
 43  20  22  ar  
 44  20  46  1   
 45  21  23  ar  
 46  21  47  1   
 47  22  24  ar  
 48  22  48  1   
 49  23  24  ar  
 50  23  49  1   
 51  24  50  1   
@<TRIPOS>SUBSTRUCTURE
  1 ****  12 GROUP 4 **** **** 0

# MOE 2024.06 (io_trps.svl 2023.06)
