@<TRIPOS>MOLECULE
NONAME
57 60 1 0 0 
SMALL
USER_CHARGES


@<TRIPOS>ATOM
  1 O        2.0000     1.2710    -1.4970 O.3   1 <1>  -0.0190 
  2 N        2.7310     0.2690    -1.1070 N.2   1 <1>  -0.4100 
  3 C        1.0680     1.5590    -0.6280 C.2   1 <1>  -0.0400 
  4 C        2.2490    -0.1080     0.0230 C.2   1 <1>   0.1080 
  5 C        1.1700     0.6920     0.3900 C.2   1 <1>  -0.1500 
  6 C        0.1330     2.7260    -0.8820 C.3   1 <1>   0.0200 
  7 C        2.7890    -1.2650     0.8340 C.3   1 <1>  -0.0590 
  8 C        0.9360     3.9760    -1.2890 C.3   1 <1>  -0.0800 
  9 C        0.1430     5.2760    -1.3670 C.3   1 <1>   0.2000 
 10 C        2.0630     4.3100    -0.3150 C.3   1 <1>   0.3430 
 11 O       -0.6230     5.3940    -0.2010 O.3   1 <1>  -0.5600 
 12 C        1.2460     6.3380    -1.3360 C.3   1 <1>   0.3430 
 13 N        2.3520     5.7590    -0.5060 N.4   1 <1>  -0.9590 
 14 C       -1.8070     6.1190    -0.3480 C.3   1 <1>   0.0400 
 15 C        2.5440     6.4470     0.7960 C.3   1 <1>   0.4860 
 16 C        2.6710     7.9610     0.6060 C.ar  1 <1>  -0.1430 
 17 C        3.7130     8.5420    -0.1440 C.ar  1 <1>  -0.0230 
 18 C        1.7190     8.7740     1.2210 C.ar  1 <1>  -0.1440 
 19 N        4.7210     7.7950    -0.8480 N.pl3 1 <1>   0.5930 
 20 C        3.7690     9.9340    -0.2210 C.ar  1 <1>  -0.1500 
 21 C        1.8010    10.1500     1.1000 C.ar  1 <1>  -0.1500 
 22 C        0.5700     8.2140     2.0570 C.3   1 <1>  -0.0970 
 23 N        5.0960     6.5200    -0.5390 N.2   1 <1>  -0.7070 
 24 C        5.3850     8.1850    -1.9670 C.2   1 <1>  -0.3020 
 25 C        2.8230    10.7360     0.3840 C.ar  1 <1>  -0.1430 
 26 C        5.9920     6.1840    -1.4150 C.2   1 <1>   0.1390 
 27 C        6.2100     7.1880    -2.3450 C.2   1 <1>  -0.1500 
 28 C        2.9060    12.2490     0.2780 C.3   1 <1>  -0.0970 
 29 H        0.5860     0.6010     1.2870 H     1 <1>   0.1500 
 30 H       -0.5510     2.4640    -1.6710 H     1 <1>   0.0800 
 31 H       -0.4410     2.9050     0.0100 H     1 <1>   0.0800 
 32 H        3.0070    -0.9430     1.8350 H     1 <1>   0.0800 
 33 H        3.6910    -1.6390     0.3840 H     1 <1>   0.0800 
 34 H        2.0630    -2.0570     0.8650 H     1 <1>   0.0800 
 35 H        1.3830     3.7910    -2.2500 H     1 <1>   0.0800 
 36 H       -0.4860     5.3310    -2.2400 H     1 <1>   0.0800 
 37 H        2.9350     3.7010    -0.4990 H     1 <1>   0.0800 
 38 H        1.7160     4.1350     0.6910 H     1 <1>   0.0800 
 39 H        0.8740     7.2660    -0.9360 H     1 <1>   0.0800 
 40 H        1.6050     6.5040    -2.3380 H     1 <1>   0.0800 
 41 H        3.2690     5.8590    -0.9800 H     1 <1>   0.4500 
 42 H       -2.2980     6.1600     0.6090 H     1 <1>   0.0800 
 43 H       -2.4480     5.6180    -1.0550 H     1 <1>   0.0800 
 44 H       -1.5840     7.1170    -0.6830 H     1 <1>   0.0800 
 45 H        1.7140     6.2200     1.4410 H     1 <1>   0.0800 
 46 H        3.4400     6.0780     1.2700 H     1 <1>   0.0800 
 47 H        4.5680    10.4150    -0.7560 H     1 <1>   0.1500 
 48 H        1.0700    10.7820     1.5750 H     1 <1>   0.1500 
 49 H       -0.0900     8.9990     2.3820 H     1 <1>   0.0800 
 50 H        0.9540     7.7260     2.9350 H     1 <1>   0.0800 
 51 H       -0.0120     7.5140     1.4870 H     1 <1>   0.0800 
 52 H        5.2400     9.1420    -2.4320 H     1 <1>   0.1500 
 53 H        6.5040     5.2340    -1.4210 H     1 <1>   0.1500 
 54 H        6.8950     7.1470    -3.1760 H     1 <1>   0.1500 
 55 H        1.9220    12.6730     0.1860 H     1 <1>   0.0800 
 56 H        3.4820    12.5430    -0.5810 H     1 <1>   0.0800 
 57 H        3.3740    12.6500     1.1600 H     1 <1>   0.0800 
@<TRIPOS>BOND
  1   1   2  1   
  2   1   3  1   
  3   2   4  2   
  4   3   5  2   
  5   3   6  1   
  6   4   5  1   
  7   4   7  1   
  8   5  29  1   
  9   6   8  1   
 10   6  30  1   
 11   6  31  1   
 12   7  32  1   
 13   7  33  1   
 14   7  34  1   
 15   8   9  1   
 16   8  10  1   
 17   8  35  1   
 18   9  11  1   
 19   9  12  1   
 20   9  36  1   
 21  10  13  1   
 22  10  37  1   
 23  10  38  1   
 24  11  14  1   
 25  12  13  1   
 26  12  39  1   
 27  12  40  1   
 28  13  15  1   
 29  13  41  1   
 30  14  42  1   
 31  14  43  1   
 32  14  44  1   
 33  15  16  1   
 34  15  45  1   
 35  15  46  1   
 36  16  17  ar  
 37  16  18  ar  
 38  17  19  1   
 39  17  20  ar  
 40  18  21  ar  
 41  18  22  1   
 42  19  23  1   
 43  19  24  1   
 44  20  25  ar  
 45  20  47  1   
 46  21  25  ar  
 47  21  48  1   
 48  22  49  1   
 49  22  50  1   
 50  22  51  1   
 51  23  26  2   
 52  24  27  2   
 53  24  52  1   
 54  25  28  1   
 55  26  27  1   
 56  26  53  1   
 57  27  54  1   
 58  28  55  1   
 59  28  56  1   
 60  28  57  1   
@<TRIPOS>SUBSTRUCTURE
  1 ****  13 GROUP 4 **** **** 0

# MOE 2024.06 (io_trps.svl 2023.06)
