@<TRIPOS>MOLECULE
NONAME
43 46 1 0 0 
SMALL
USER_CHARGES


@<TRIPOS>ATOM
  1 O        0.2890    -0.0960     1.1510 O.3   1 <1>  -0.0190 
  2 N       -0.4640     0.9280     0.9060 N.2   1 <1>  -0.4100 
  3 C        1.4730     0.2570     0.7180 C.2   1 <1>   0.2980 
  4 C        0.2670     1.8330     0.3600 C.2   1 <1>   0.4620 
  5 N        1.5340     1.4300     0.2260 N.2   1 <1>  -0.5650 
  6 C        2.6230    -0.7530     0.8650 C.3   1 <1>   0.3700 
  7 C       -0.1850     3.1420    -0.0700 C.ar  1 <1>   0.0540 
  8 N        2.3030    -2.0880     0.3140 N.3   1 <1>  -0.8100 
  9 C        3.8970    -0.3430     0.1320 C.3   1 <1>  -0.1600 
 10 C       -1.4910     3.5800     0.1150 C.ar  1 <1>  -0.1500 
 11 C        0.6460     4.0620    -0.6960 C.ar  1 <1>  -0.1500 
 12 C        3.5260    -2.6800    -0.2560 C.3   1 <1>   0.1100 
 13 C        1.6620    -2.9830     1.2980 C.3   1 <1>   0.2900 
 14 C        4.6370    -1.6560    -0.0640 C.3   1 <1>  -0.1600 
 15 C       -1.8770     4.8370    -0.3090 C.ar  1 <1>   0.1600 
 16 C        0.1630     5.2970    -1.0830 C.ar  1 <1>   0.1600 
 17 C        1.1090    -4.2260     0.6210 C.2   1 <1>   0.0070 
 18 N       -1.0810     5.7090    -0.9050 N.ar  1 <1>  -0.6200 
 19 N        1.4820    -5.4290     0.9020 N.2   1 <1>  -0.3380 
 20 N        0.1730    -4.2110    -0.3350 N.pl3 1 <1>   0.0480 
 21 N        0.7840    -6.2490     0.1170 N.2   1 <1>  -0.3380 
 22 C        0.0170    -5.5080    -0.6060 C.2   1 <1>   0.0360 
 23 C       -0.5310    -3.0700    -0.9620 C.3   1 <1>   0.0960 
 24 C       -1.7580    -2.6690    -0.1370 C.3   1 <1>  -0.2400 
 25 H        2.8590    -0.8530     1.9110 H     1 <1>   0.0800 
 26 H        3.6430     0.0740    -0.8270 H     1 <1>   0.0800 
 27 H        4.4670     0.3780     0.6900 H     1 <1>   0.0800 
 28 H       -2.2090     2.9380     0.5910 H     1 <1>   0.1500 
 29 H        1.6750     3.8150    -0.8830 H     1 <1>   0.1500 
 30 H        3.7840    -3.6180     0.2110 H     1 <1>   0.0800 
 31 H        3.3630    -2.8560    -1.3060 H     1 <1>   0.0800 
 32 H        2.3750    -3.2740     2.0510 H     1 <1>   0.0800 
 33 H        0.8500    -2.4780     1.7880 H     1 <1>   0.0800 
 34 H        5.1980    -1.9040     0.8210 H     1 <1>   0.0800 
 35 H        5.3050    -1.6300    -0.9060 H     1 <1>   0.0800 
 36 H       -2.8970     5.1450    -0.1500 H     1 <1>   0.1500 
 37 H        0.8360     5.9860    -1.5670 H     1 <1>   0.1500 
 38 H       -0.6720    -5.8750    -1.3430 H     1 <1>   0.1500 
 39 H        0.1450    -2.2380    -1.0470 H     1 <1>   0.0800 
 40 H       -0.8330    -3.3550    -1.9540 H     1 <1>   0.0800 
 41 H       -1.4650    -2.3690     0.8530 H     1 <1>   0.0800 
 42 H       -2.4520    -3.4880    -0.0710 H     1 <1>   0.0800 
 43 H       -2.2530    -1.8380    -0.6070 H     1 <1>   0.0800 
@<TRIPOS>BOND
  1   1   2  1   
  2   1   3  1   
  3   2   4  2   
  4   3   5  2   
  5   3   6  1   
  6   4   5  1   
  7   4   7  1   
  8   6   8  1   
  9   6   9  1   
 10   6  25  1   
 11   7  10  ar  
 12   7  11  ar  
 13   8  12  1   
 14   8  13  1   
 15   9  14  1   
 16   9  26  1   
 17   9  27  1   
 18  10  15  ar  
 19  10  28  1   
 20  11  16  ar  
 21  11  29  1   
 22  12  14  1   
 23  12  30  1   
 24  12  31  1   
 25  13  17  1   
 26  13  32  1   
 27  13  33  1   
 28  14  34  1   
 29  14  35  1   
 30  15  18  ar  
 31  15  36  1   
 32  16  18  ar  
 33  16  37  1   
 34  17  19  2   
 35  17  20  1   
 36  19  21  1   
 37  20  22  1   
 38  20  23  1   
 39  21  22  2   
 40  22  38  1   
 41  23  24  1   
 42  23  39  1   
 43  23  40  1   
 44  24  41  1   
 45  24  42  1   
 46  24  43  1   
@<TRIPOS>SUBSTRUCTURE
  1 ****   3 GROUP 4 **** **** 0

# MOE 2024.06 (io_trps.svl 2023.06)
