@<TRIPOS>MOLECULE
NONAME
26 28 1 0 0 
SMALL
USER_CHARGES


@<TRIPOS>ATOM
  1 O        0.4270     0.1260    -0.1270 O.2   1 <1>  -0.5700 
  2 C        1.4220     0.8230    -0.0710 C.2   1 <1>   0.6900 
  3 N        1.3730     2.1920    -0.1640 N.am  1 <1>  -0.5090 
  4 N        2.6160     0.2000     0.0800 N.am  1 <1>  -0.5470 
  5 C        0.1070     2.9210    -0.3940 C.3   1 <1>   0.0490 
  6 C        2.6110     3.0120    -0.2670 C.3   1 <1>   0.2840 
  7 C        3.8490     0.8390     0.1150 C.ar  1 <1>   0.1170 
  8 C       -0.2460     4.0650     0.5070 C.3   1 <1>  -0.2000 
  9 C       -1.0020     2.7790     0.6010 C.3   1 <1>  -0.2000 
 10 C        3.8960     2.2190    -0.0480 C.ar  1 <1>  -0.1440 
 11 C        5.0240     0.1260     0.3090 C.ar  1 <1>  -0.1500 
 12 C        5.1190     2.8710    -0.0140 C.ar  1 <1>  -0.1500 
 13 C        6.2410     0.7810     0.3420 C.ar  1 <1>  -0.1500 
 14 C        6.2880     2.1550     0.1810 C.ar  1 <1>  -0.1500 
 15 H        2.5530    -0.8110     0.1560 H     1 <1>   0.3700 
 16 H       -0.1600     2.9700    -1.4370 H     1 <1>   0.1000 
 17 H        2.5650     3.7970     0.4660 H     1 <1>   0.0800 
 18 H        2.6420     3.4630    -1.2430 H     1 <1>   0.0800 
 19 H       -0.7560     4.9170     0.0940 H     1 <1>   0.1000 
 20 H        0.3950     4.3230     1.3310 H     1 <1>   0.1000 
 21 H       -0.8430     2.1280     1.4430 H     1 <1>   0.1000 
 22 H       -2.0120     2.7430     0.2360 H     1 <1>   0.1000 
 23 H        4.9860    -0.9410     0.4350 H     1 <1>   0.1500 
 24 H        5.1700     3.9390    -0.1390 H     1 <1>   0.1500 
 25 H        7.1500     0.2260     0.4930 H     1 <1>   0.1500 
 26 H        7.2350     2.6670     0.2060 H     1 <1>   0.1500 
@<TRIPOS>BOND
  1   1   2  2   
  2   2   3  am  
  3   2   4  am  
  4   3   5  1   
  5   3   6  1   
  6   4   7  1   
  7   4  15  1   
  8   5   8  1   
  9   5   9  1   
 10   5  16  1   
 11   6  10  1   
 12   6  17  1   
 13   6  18  1   
 14   7  10  ar  
 15   7  11  ar  
 16   8   9  1   
 17   8  19  1   
 18   8  20  1   
 19   9  21  1   
 20   9  22  1   
 21  10  12  ar  
 22  11  13  ar  
 23  11  23  1   
 24  12  14  ar  
 25  12  24  1   
 26  13  14  ar  
 27  13  25  1   
 28  14  26  1   
@<TRIPOS>SUBSTRUCTURE
  1 ****   6 GROUP 4 **** **** 0

# MOE 2024.06 (io_trps.svl 2023.06)
