@<TRIPOS>MOLECULE
NONAME
58 61 1 0 0 
SMALL
USER_CHARGES


@<TRIPOS>ATOM
  1 O        1.6510    -3.2470    -0.4180 O.3   1 <1>  -0.6800 
  2 C        0.6540    -4.0330     0.1400 C.3   1 <1>   0.1200 
  3 C       -0.5790    -3.9530    -0.7580 C.3   1 <1>   0.0960 
  4 N       -1.7170    -4.6470    -0.1250 N.pl3 1 <1>   0.3140 
  5 N       -1.6330    -5.9190     0.3010 N.2   1 <1>  -0.7070 
  6 C       -2.9440    -4.1430     0.1150 C.2   1 <1>  -0.3020 
  7 C       -2.7870    -6.1950     0.8120 C.2   1 <1>   0.1080 
  8 C       -3.6630    -5.1170     0.7160 C.2   1 <1>  -0.1810 
  9 C       -3.0580    -7.5540     1.4230 C.3   1 <1>  -0.0590 
 10 C       -5.1010    -5.0780     1.1770 C.3   1 <1>   0.5240 
 11 N       -5.9580    -5.0620    -0.0360 N.4   1 <1>  -0.9590 
 12 C       -7.3930    -4.7960     0.3160 C.3   1 <1>   0.3430 
 13 C       -5.8050    -6.3170    -0.8320 C.3   1 <1>   0.3430 
 14 C       -8.2870    -4.6830    -0.9320 C.3   1 <1>   0.1430 
 15 C       -6.6310    -6.2250    -2.1170 C.3   1 <1>  -0.1600 
 16 C       -9.7180    -4.5680    -0.4690 C.ar  1 <1>   0.1670 
 17 C       -8.1140    -5.9240    -1.8320 C.3   1 <1>  -0.1600 
 18 C       -8.0810    -3.3580    -1.7170 C.3   1 <1>  -0.1600 
 19 N      -10.2610    -5.3330     0.4410 N.ar  1 <1>  -0.6200 
 20 C      -10.3750    -3.5540    -1.0950 C.ar  1 <1>  -0.1430 
 21 C       -9.4870    -2.8400    -2.0820 C.3   1 <1>  -0.0170 
 22 C      -11.5380    -5.0530     0.7190 C.ar  1 <1>   0.7200 
 23 C      -11.6840    -3.3390    -0.7440 C.ar  1 <1>   0.1600 
 24 N      -12.2710    -4.0820     0.1640 N.ar  1 <1>  -0.6200 
 25 N      -12.1500    -5.8340     1.6760 N.pl3 1 <1>  -0.8380 
 26 C      -13.4240    -5.4130     2.3240 C.3   1 <1>   0.1290 
 27 C      -11.7470    -7.2440     1.9300 C.3   1 <1>   0.1290 
 28 H        2.4760    -3.3140     0.1040 H     1 <1>   0.4000 
 29 H        0.4380    -3.6550     1.1250 H     1 <1>   0.0800 
 30 H        1.0120    -5.0470     0.2030 H     1 <1>   0.0800 
 31 H       -0.3740    -4.4260    -1.6990 H     1 <1>   0.0800 
 32 H       -0.8450    -2.9260    -0.9190 H     1 <1>   0.0800 
 33 H       -3.2110    -3.1360    -0.1530 H     1 <1>   0.1500 
 34 H       -2.5930    -8.3140     0.8200 H     1 <1>   0.0800 
 35 H       -4.1080    -7.7600     1.4880 H     1 <1>   0.0800 
 36 H       -2.6260    -7.5940     2.4060 H     1 <1>   0.0800 
 37 H       -5.2620    -4.1840     1.7580 H     1 <1>   0.0800 
 38 H       -5.3260    -5.9340     1.7910 H     1 <1>   0.0800 
 39 H       -5.6030    -4.2950    -0.6180 H     1 <1>   0.4500 
 40 H       -7.4790    -3.8870     0.8890 H     1 <1>   0.0800 
 41 H       -7.7700    -5.6030     0.9240 H     1 <1>   0.0800 
 42 H       -6.1400    -7.1610    -0.2510 H     1 <1>   0.0800 
 43 H       -4.7670    -6.4730    -1.0850 H     1 <1>   0.0800 
 44 H       -6.5590    -7.1620    -2.6420 H     1 <1>   0.0800 
 45 H       -6.2090    -5.4720    -2.7590 H     1 <1>   0.0800 
 46 H       -8.6500    -5.7890    -2.7570 H     1 <1>   0.0800 
 47 H       -8.5500    -6.7760    -1.3360 H     1 <1>   0.0800 
 48 H       -7.4750    -3.4780    -2.5970 H     1 <1>   0.0800 
 49 H       -7.6160    -2.6270    -1.0790 H     1 <1>   0.0800 
 50 H       -9.7560    -3.1310    -3.0840 H     1 <1>   0.0800 
 51 H       -9.5580    -1.7700    -1.9830 H     1 <1>   0.0800 
 52 H      -12.2550    -2.5530    -1.2080 H     1 <1>   0.1500 
 53 H      -13.4650    -4.3400     2.4100 H     1 <1>   0.0800 
 54 H      -13.4940    -5.8350     3.3110 H     1 <1>   0.0800 
 55 H      -14.2580    -5.7470     1.7320 H     1 <1>   0.0800 
 56 H      -11.0920    -7.6020     1.1550 H     1 <1>   0.0800 
 57 H      -12.6180    -7.8750     1.9530 H     1 <1>   0.0800 
 58 H      -11.2390    -7.3070     2.8770 H     1 <1>   0.0800 
@<TRIPOS>BOND
  1   1   2  1   
  2   1  28  1   
  3   2   3  1   
  4   2  29  1   
  5   2  30  1   
  6   3   4  1   
  7   3  31  1   
  8   3  32  1   
  9   4   5  1   
 10   4   6  1   
 11   5   7  2   
 12   6   8  2   
 13   6  33  1   
 14   7   8  1   
 15   7   9  1   
 16   8  10  1   
 17   9  34  1   
 18   9  35  1   
 19   9  36  1   
 20  10  11  1   
 21  10  37  1   
 22  10  38  1   
 23  11  12  1   
 24  11  13  1   
 25  11  39  1   
 26  12  14  1   
 27  12  40  1   
 28  12  41  1   
 29  13  15  1   
 30  13  42  1   
 31  13  43  1   
 32  14  16  1   
 33  14  17  1   
 34  14  18  1   
 35  15  17  1   
 36  15  44  1   
 37  15  45  1   
 38  16  19  ar  
 39  16  20  ar  
 40  17  46  1   
 41  17  47  1   
 42  18  21  1   
 43  18  48  1   
 44  18  49  1   
 45  19  22  ar  
 46  20  21  1   
 47  20  23  ar  
 48  21  50  1   
 49  21  51  1   
 50  22  24  ar  
 51  22  25  1   
 52  23  24  ar  
 53  23  52  1   
 54  25  26  1   
 55  25  27  1   
 56  26  53  1   
 57  26  54  1   
 58  26  55  1   
 59  27  56  1   
 60  27  57  1   
 61  27  58  1   
@<TRIPOS>SUBSTRUCTURE
  1 ****  12 GROUP 4 **** **** 0

# MOE 2024.06 (io_trps.svl 2023.06)
