@<TRIPOS>MOLECULE
NONAME
44 46 1 0 0 
SMALL
USER_CHARGES


@<TRIPOS>ATOM
  1 S       -0.4070    -0.0730     1.4640 S.o2  1 <1>   1.3330 
  2 O       -0.1400     1.1130     2.2490 O.2   1 <1>  -0.6500 
  3 O       -0.9070    -1.2620     2.1190 O.2   1 <1>  -0.6500 
  4 N       -1.5300     0.3460     0.2640 N.am  1 <1>  -0.8490 
  5 C        1.0980    -0.4880     0.5260 C.3   1 <1>   0.0250 
  6 C       -2.5920     1.2240     0.7990 C.3   1 <1>   0.1960 
  7 C       -2.1260    -0.8270    -0.3860 C.3   1 <1>   0.1960 
  8 C        2.2630    -0.9280     1.4330 C.3   1 <1>  -0.2400 
  9 C        1.5870     0.6560    -0.3850 C.3   1 <1>  -0.2400 
 10 C       -3.5090     1.7560    -0.3200 C.3   1 <1>   0.1430 
 11 C       -3.0030    -0.3920    -1.5660 C.3   1 <1>  -0.1600 
 12 C       -4.5760     2.6350     0.3050 C.ar  1 <1>   0.1670 
 13 C       -4.1070     0.5740    -1.1110 C.3   1 <1>  -0.1600 
 14 C       -2.7540     2.7530    -1.2410 C.3   1 <1>  -0.1600 
 15 N       -5.6070     2.2080     1.0010 N.ar  1 <1>  -0.6200 
 16 C       -4.3370     3.9570     0.0740 C.ar  1 <1>  -0.1440 
 17 C       -3.0810     4.1690    -0.7340 C.3   1 <1>  -0.0170 
 18 C       -6.3990     3.1690     1.4520 C.ar  1 <1>   0.4770 
 19 C       -5.2230     4.8680     0.5900 C.ar  1 <1>   0.1600 
 20 N       -6.2710     4.4800     1.2880 N.ar  1 <1>  -0.6200 
 21 C       -7.5920     2.7100     2.2550 C.3   1 <1>  -0.0970 
 22 H        0.8640    -1.3210    -0.1080 H     1 <1>   0.0800 
 23 H       -2.1530     2.0680     1.3030 H     1 <1>   0.0800 
 24 H       -3.1810     0.6820     1.5220 H     1 <1>   0.0800 
 25 H       -2.7210    -1.3790     0.3250 H     1 <1>   0.0800 
 26 H       -1.3500    -1.4790    -0.7480 H     1 <1>   0.0800 
 27 H        2.5510    -0.1220     2.0860 H     1 <1>   0.0800 
 28 H        3.1140    -1.2240     0.8460 H     1 <1>   0.0800 
 29 H        1.9580    -1.7630     2.0400 H     1 <1>   0.0800 
 30 H        1.8400     1.5190     0.2070 H     1 <1>   0.0800 
 31 H        0.8130     0.9350    -1.0780 H     1 <1>   0.0800 
 32 H        2.4530     0.3520    -0.9450 H     1 <1>   0.0800 
 33 H       -3.4510    -1.2620    -2.0130 H     1 <1>   0.0800 
 34 H       -2.3820     0.0750    -2.3100 H     1 <1>   0.0800 
 35 H       -4.6700     0.9320    -1.9550 H     1 <1>   0.0800 
 36 H       -4.7900     0.0400    -0.4720 H     1 <1>   0.0800 
 37 H       -3.1250     2.6660    -2.2470 H     1 <1>   0.0800 
 38 H       -1.6930     2.5750    -1.2570 H     1 <1>   0.0800 
 39 H       -3.2390     4.8550    -1.5470 H     1 <1>   0.0800 
 40 H       -2.2960     4.5320    -0.0930 H     1 <1>   0.0800 
 41 H       -5.0760     5.9230     0.4340 H     1 <1>   0.1500 
 42 H       -8.0950     1.9190     1.7330 H     1 <1>   0.0800 
 43 H       -8.2790     3.5220     2.4070 H     1 <1>   0.0800 
 44 H       -7.2580     2.3490     3.2090 H     1 <1>   0.0800 
@<TRIPOS>BOND
  1   1   2  2   
  2   1   3  2   
  3   1   4  am  
  4   1   5  1   
  5   4   6  1   
  6   4   7  1   
  7   5   8  1   
  8   5   9  1   
  9   5  22  1   
 10   6  10  1   
 11   6  23  1   
 12   6  24  1   
 13   7  11  1   
 14   7  25  1   
 15   7  26  1   
 16   8  27  1   
 17   8  28  1   
 18   8  29  1   
 19   9  30  1   
 20   9  31  1   
 21   9  32  1   
 22  10  12  1   
 23  10  13  1   
 24  10  14  1   
 25  11  13  1   
 26  11  33  1   
 27  11  34  1   
 28  12  15  ar  
 29  12  16  ar  
 30  13  35  1   
 31  13  36  1   
 32  14  17  1   
 33  14  37  1   
 34  14  38  1   
 35  15  18  ar  
 36  16  17  1   
 37  16  19  ar  
 38  17  39  1   
 39  17  40  1   
 40  18  20  ar  
 41  18  21  1   
 42  19  20  ar  
 43  19  41  1   
 44  21  42  1   
 45  21  43  1   
 46  21  44  1   
@<TRIPOS>SUBSTRUCTURE
  1 ****   6 GROUP 4 **** **** 0

# MOE 2024.06 (io_trps.svl 2023.06)
