@<TRIPOS>MOLECULE
NONAME
58 60 1 0 0 
SMALL
USER_CHARGES


@<TRIPOS>ATOM
  1 O       -1.8770     5.3930     3.8090 O.2   1 <1>  -0.5700 
  2 C       -2.1290     5.1850     2.6440 C.2   1 <1>   0.5690 
  3 N       -3.1700     4.3570     2.2720 N.am  1 <1>  -0.6600 
  4 C       -1.2430     5.9000     1.6260 C.3   1 <1>   0.0440 
  5 C       -3.5160     4.0720     0.8450 C.3   1 <1>   0.2200 
  6 C       -3.9780     3.6810     3.3360 C.3   1 <1>   0.0600 
  7 C       -0.4320     4.9530     0.7460 C.ar  1 <1>  -0.1440 
  8 C       -5.0080     4.1000     0.5240 C.3   1 <1>  -0.1600 
  9 C       -3.0790     2.6830     0.3960 C.3   1 <1>  -0.1600 
 10 C       -0.4370     5.0940    -0.6350 C.ar  1 <1>  -0.1500 
 11 C        0.3140     3.9350     1.3210 C.ar  1 <1>  -0.1500 
 12 C       -5.1200     3.3400    -0.8080 C.3   1 <1>  -0.0800 
 13 C       -3.8810     2.4300    -0.8880 C.3   1 <1>  -0.0800 
 14 C        0.2820     4.2170    -1.4270 C.ar  1 <1>  -0.1500 
 15 C        1.0360     3.0580     0.5300 C.ar  1 <1>  -0.1500 
 16 C       -6.3440     2.4210    -0.9010 C.3   1 <1>  -0.1600 
 17 C       -4.3970     0.9930    -1.0220 C.3   1 <1>  -0.1600 
 18 C        1.0190     3.1940    -0.8550 C.ar  1 <1>   0.0830 
 19 C       -5.8230     1.0450    -0.4830 C.3   1 <1>   0.4230 
 20 O        1.6910     2.3770    -1.7030 O.3   1 <1>  -0.3630 
 21 N       -6.6620    -0.1080    -0.9370 N.4   1 <1>  -0.9590 
 22 C        2.5540     1.3740    -1.2220 C.3   1 <1>   0.1200 
 23 C       -6.8960    -0.1900    -2.4170 C.3   1 <1>   0.2630 
 24 C       -7.9700    -0.1280    -0.2110 C.3   1 <1>   0.2630 
 25 C        3.1960     0.6870    -2.4240 C.3   1 <1>  -0.2400 
 26 H       -1.8600     6.5420     1.0280 H     1 <1>   0.0800 
 27 H       -0.5550     6.5330     2.1590 H     1 <1>   0.0800 
 28 H       -3.0470     4.7910     0.1990 H     1 <1>   0.0800 
 29 H       -4.2170     2.6740     3.0520 H     1 <1>   0.0800 
 30 H       -4.8870     4.2320     3.5010 H     1 <1>   0.0800 
 31 H       -3.4330     3.6420     4.2640 H     1 <1>   0.0800 
 32 H       -5.5710     3.5890     1.2830 H     1 <1>   0.0800 
 33 H       -5.3660     5.1100     0.4330 H     1 <1>   0.0800 
 34 H       -2.0210     2.6460     0.2050 H     1 <1>   0.0800 
 35 H       -3.3250     1.9580     1.1490 H     1 <1>   0.0800 
 36 H       -0.9970     5.8850    -1.1020 H     1 <1>   0.1500 
 37 H        0.3320     3.8200     2.3920 H     1 <1>   0.1500 
 38 H       -5.1110     4.0470    -1.6230 H     1 <1>   0.0800 
 39 H       -3.2770     2.7000    -1.7400 H     1 <1>   0.0800 
 40 H        0.2800     4.3220    -2.4970 H     1 <1>   0.1500 
 41 H        1.5990     2.2800     1.0100 H     1 <1>   0.1500 
 42 H       -6.6730     2.4160    -1.9230 H     1 <1>   0.0800 
 43 H       -7.1470     2.7590    -0.2710 H     1 <1>   0.0800 
 44 H       -3.7850     0.2950    -0.4790 H     1 <1>   0.0800 
 45 H       -4.3840     0.7360    -2.0650 H     1 <1>   0.0800 
 46 H       -5.7580     1.0340     0.5940 H     1 <1>   0.0800 
 47 H       -6.1440    -0.9560    -0.6640 H     1 <1>   0.4500 
 48 H        3.3040     1.8380    -0.6040 H     1 <1>   0.0800 
 49 H        1.9750     0.6730    -0.6470 H     1 <1>   0.0800 
 50 H       -7.4560     0.6650    -2.7600 H     1 <1>   0.0800 
 51 H       -7.4540    -1.0800    -2.6570 H     1 <1>   0.0800 
 52 H       -5.9600    -0.2250    -2.9500 H     1 <1>   0.0800 
 53 H       -8.5550     0.7400    -0.4700 H     1 <1>   0.0800 
 54 H       -7.8080    -0.1290     0.8550 H     1 <1>   0.0800 
 55 H       -8.5310    -1.0110    -0.4730 H     1 <1>   0.0800 
 56 H        3.7590     1.4000    -2.9990 H     1 <1>   0.0800 
 57 H        2.4380     0.2430    -3.0440 H     1 <1>   0.0800 
 58 H        3.8620    -0.0870    -2.0880 H     1 <1>   0.0800 
@<TRIPOS>BOND
  1   1   2  2   
  2   2   3  am  
  3   2   4  1   
  4   3   5  1   
  5   3   6  1   
  6   4   7  1   
  7   4  26  1   
  8   4  27  1   
  9   5   8  1   
 10   5   9  1   
 11   5  28  1   
 12   6  29  1   
 13   6  30  1   
 14   6  31  1   
 15   7  10  ar  
 16   7  11  ar  
 17   8  12  1   
 18   8  32  1   
 19   8  33  1   
 20   9  13  1   
 21   9  34  1   
 22   9  35  1   
 23  10  14  ar  
 24  10  36  1   
 25  11  15  ar  
 26  11  37  1   
 27  12  13  1   
 28  12  16  1   
 29  12  38  1   
 30  13  17  1   
 31  13  39  1   
 32  14  18  ar  
 33  14  40  1   
 34  15  18  ar  
 35  15  41  1   
 36  16  19  1   
 37  16  42  1   
 38  16  43  1   
 39  17  19  1   
 40  17  44  1   
 41  17  45  1   
 42  18  20  1   
 43  19  21  1   
 44  19  46  1   
 45  20  22  1   
 46  21  23  1   
 47  21  24  1   
 48  21  47  1   
 49  22  25  1   
 50  22  48  1   
 51  22  49  1   
 52  23  50  1   
 53  23  51  1   
 54  23  52  1   
 55  24  53  1   
 56  24  54  1   
 57  24  55  1   
 58  25  56  1   
 59  25  57  1   
 60  25  58  1   
@<TRIPOS>SUBSTRUCTURE
  1 ****   9 GROUP 4 **** **** 0

# MOE 2024.06 (io_trps.svl 2023.06)
