@<TRIPOS>MOLECULE
NONAME
55 59 1 0 0 
SMALL
USER_CHARGES


@<TRIPOS>ATOM
  1 N       -0.0820     0.4590     0.0770 N.ar  1 <1>  -0.6200 
  2 C       -1.3350     0.9130     0.2430 C.ar  1 <1>   0.6200 
  3 C        0.7170     1.2480    -0.5980 C.ar  1 <1>   0.1660 
  4 N       -1.7910     2.0910    -0.2050 N.ar  1 <1>  -0.6200 
  5 C       -2.2700     0.0600     0.9630 C.ar  1 <1>   0.0000 
  6 C        0.3410     2.4590    -1.0860 C.ar  1 <1>  -0.1430 
  7 C        2.1600     0.9360    -0.9180 C.3   1 <1>   0.1440 
  8 C       -0.9520     2.8570    -0.8650 C.ar  1 <1>   0.1600 
  9 C       -1.8470    -0.8010     1.9800 C.ar  1 <1>  -0.1500 
 10 C       -3.6360     0.0650     0.6700 C.ar  1 <1>  -0.1500 
 11 C        1.4740     3.1510    -1.8020 C.3   1 <1>  -0.0160 
 12 C        2.8500     0.4310     0.3610 C.3   1 <1>   0.3430 
 13 C        2.2380    -0.1350    -2.0270 C.3   1 <1>  -0.1600 
 14 C        2.7010     2.3110    -1.3960 C.3   1 <1>  -0.1600 
 15 C       -2.7350    -1.6130     2.6630 C.ar  1 <1>  -0.1500 
 16 C       -4.5300    -0.7430     1.3480 C.ar  1 <1>  -0.1500 
 17 N        4.2480    -0.0300     0.0880 N.4   1 <1>  -0.9590 
 18 C        3.6750    -0.6530    -2.2310 C.3   1 <1>  -0.1600 
 19 C       -4.0810    -1.5860     2.3470 C.ar  1 <1>  -0.1500 
 20 C        4.3140    -1.1230    -0.9210 C.3   1 <1>   0.3430 
 21 C        5.0100    -0.3630     1.3270 C.3   1 <1>   0.4860 
 22 C        6.4950    -0.1390     1.0560 C.ar  1 <1>   0.1670 
 23 N        6.7970     0.8860     0.2650 N.ar  1 <1>  -0.6200 
 24 C        7.4350    -0.9900     1.6180 C.ar  1 <1>  -0.1500 
 25 C        8.0910     1.0700     0.0370 C.ar  1 <1>   0.1600 
 26 C        8.7730    -0.7850     1.3630 C.ar  1 <1>  -0.1500 
 27 C        9.1060     0.2760     0.5490 C.ar  1 <1>  -0.1430 
 28 C       10.5650     0.5620     0.2330 C.3   1 <1>  -0.0970 
 29 H       -1.3040     3.8080    -1.2290 H     1 <1>   0.1500 
 30 H       -0.8060    -0.8350     2.2420 H     1 <1>   0.1500 
 31 H       -4.0050     0.7150    -0.1050 H     1 <1>   0.1500 
 32 H        1.5740     4.1780    -1.4950 H     1 <1>   0.0800 
 33 H        1.3110     3.1030    -2.8650 H     1 <1>   0.0800 
 34 H        2.2710    -0.3870     0.7590 H     1 <1>   0.0800 
 35 H        2.8530     1.2220     1.0930 H     1 <1>   0.0800 
 36 H        1.8550     0.2620    -2.9520 H     1 <1>   0.0800 
 37 H        1.6080    -0.9650    -1.7540 H     1 <1>   0.0800 
 38 H        3.4000     2.2320    -2.2090 H     1 <1>   0.0800 
 39 H        3.1890     2.8130    -0.5780 H     1 <1>   0.0800 
 40 H       -2.3820    -2.2670     3.4410 H     1 <1>   0.1500 
 41 H       -5.5770    -0.7160     1.0980 H     1 <1>   0.1500 
 42 H        4.8050     0.7560    -0.2980 H     1 <1>   0.4500 
 43 H        4.2920     0.1110    -2.6700 H     1 <1>   0.0800 
 44 H        3.6570    -1.4780    -2.9220 H     1 <1>   0.0800 
 45 H       -4.7750    -2.2160     2.8770 H     1 <1>   0.1500 
 46 H        3.7860    -1.9900    -0.5560 H     1 <1>   0.0800 
 47 H        5.3420    -1.3970    -1.1020 H     1 <1>   0.0800 
 48 H        4.8250    -1.3790     1.6300 H     1 <1>   0.0800 
 49 H        4.7130     0.2980     2.1240 H     1 <1>   0.0800 
 50 H        7.1390    -1.8080     2.2520 H     1 <1>   0.1500 
 51 H        8.3590     1.9010    -0.5940 H     1 <1>   0.1500 
 52 H        9.5290    -1.4260     1.7860 H     1 <1>   0.1500 
 53 H       10.6550     1.2470    -0.5900 H     1 <1>   0.0800 
 54 H       11.0740    -0.3490    -0.0280 H     1 <1>   0.0800 
 55 H       11.0480     0.9920     1.0930 H     1 <1>   0.0800 
@<TRIPOS>BOND
  1   1   2  ar  
  2   1   3  ar  
  3   2   4  ar  
  4   2   5  1   
  5   3   6  ar  
  6   3   7  1   
  7   4   8  ar  
  8   5   9  ar  
  9   5  10  ar  
 10   6   8  ar  
 11   6  11  1   
 12   7  12  1   
 13   7  13  1   
 14   7  14  1   
 15   8  29  1   
 16   9  15  ar  
 17   9  30  1   
 18  10  16  ar  
 19  10  31  1   
 20  11  14  1   
 21  11  32  1   
 22  11  33  1   
 23  12  17  1   
 24  12  34  1   
 25  12  35  1   
 26  13  18  1   
 27  13  36  1   
 28  13  37  1   
 29  14  38  1   
 30  14  39  1   
 31  15  19  ar  
 32  15  40  1   
 33  16  19  ar  
 34  16  41  1   
 35  17  20  1   
 36  17  21  1   
 37  17  42  1   
 38  18  20  1   
 39  18  43  1   
 40  18  44  1   
 41  19  45  1   
 42  20  46  1   
 43  20  47  1   
 44  21  22  1   
 45  21  48  1   
 46  21  49  1   
 47  22  23  ar  
 48  22  24  ar  
 49  23  25  ar  
 50  24  26  ar  
 51  24  50  1   
 52  25  27  ar  
 53  25  51  1   
 54  26  27  ar  
 55  26  52  1   
 56  27  28  1   
 57  28  53  1   
 58  28  54  1   
 59  28  55  1   
@<TRIPOS>SUBSTRUCTURE
  1 ****  12 GROUP 4 **** **** 0

# MOE 2024.06 (io_trps.svl 2023.06)
