@<TRIPOS>MOLECULE
NONAME
49 51 1 0 0 
SMALL
USER_CHARGES


@<TRIPOS>ATOM
  1 O       -0.2140    -1.8040    -1.0990 O.3   1 <1>  -0.6800 
  2 C        0.5370    -1.2230    -0.0870 C.3   1 <1>   0.1200 
  3 C        1.4030    -2.2610     0.6870 C.3   1 <1>   0.0000 
  4 C        2.5460    -2.8990    -0.1620 C.3   1 <1>   0.4230 
  5 C        2.0930    -1.4930     1.8470 C.3   1 <1>  -0.1600 
  6 C        0.5050    -3.3710     1.3120 C.3   1 <1>  -0.1600 
  7 N        2.1130    -3.9160    -1.2110 N.4   1 <1>  -0.9590 
  8 C        3.5330    -1.8310    -0.6700 C.3   1 <1>   0.2090 
  9 C        3.1140    -0.4420     1.3830 C.3   1 <1>   0.2090 
 10 C        0.6780    -4.7500     0.6510 C.3   1 <1>  -0.1600 
 11 C        0.8410    -4.6240    -0.8630 C.3   1 <1>   0.3430 
 12 C        2.0030    -3.3610    -2.5980 C.3   1 <1>   0.2630 
 13 N        4.1070    -1.0650     0.4720 N.pl3 1 <1>  -0.8380 
 14 C        5.2200    -0.2910     0.1930 C.ar  1 <1>   0.4100 
 15 N        5.2880     0.2420    -1.0200 N.ar  1 <1>  -0.6200 
 16 C        6.1920    -0.1000     1.1710 C.ar  1 <1>  -0.1500 
 17 C        6.3480     0.9930    -1.2650 C.ar  1 <1>   0.1670 
 18 C        7.2940     0.6810     0.9100 C.ar  1 <1>  -0.1430 
 19 C        7.3590     1.2390    -0.3510 C.ar  1 <1>  -0.1500 
 20 C        6.4160     1.6030    -2.6490 C.3   1 <1>  -0.0970 
 21 C        8.3830     0.9230     1.9380 C.3   1 <1>  -0.0970 
 22 H       -0.8800    -1.1650    -1.4340 H     1 <1>   0.4000 
 23 H        1.1380    -0.4500    -0.5330 H     1 <1>   0.0800 
 24 H       -0.1560    -0.7560     0.5930 H     1 <1>   0.0800 
 25 H        3.1200    -3.4630     0.5540 H     1 <1>   0.0800 
 26 H        2.6170    -2.1860     2.4830 H     1 <1>   0.0800 
 27 H        1.3530    -1.0060     2.4590 H     1 <1>   0.0800 
 28 H        0.7050    -3.4870     2.3640 H     1 <1>   0.0800 
 29 H       -0.5290    -3.0810     1.2370 H     1 <1>   0.0800 
 30 H        2.8540    -4.6280    -1.2220 H     1 <1>   0.4500 
 31 H        3.0470    -1.1470    -1.3430 H     1 <1>   0.0800 
 32 H        4.3420    -2.3110    -1.1930 H     1 <1>   0.0800 
 33 H        3.6200    -0.0330     2.2420 H     1 <1>   0.0800 
 34 H        2.6280     0.3730     0.8740 H     1 <1>   0.0800 
 35 H       -0.1910    -5.3490     0.8620 H     1 <1>   0.0800 
 36 H        1.5290    -5.2640     1.0630 H     1 <1>   0.0800 
 37 H       -0.0010    -4.0750    -1.2510 H     1 <1>   0.0800 
 38 H        0.8320    -5.6030    -1.3150 H     1 <1>   0.0800 
 39 H        1.2740    -2.5690    -2.6320 H     1 <1>   0.0800 
 40 H        1.6990    -4.1330    -3.2860 H     1 <1>   0.0800 
 41 H        2.9510    -2.9680    -2.9260 H     1 <1>   0.0800 
 42 H        6.0650    -0.5760     2.1230 H     1 <1>   0.1500 
 43 H        8.1940     1.8600    -0.6190 H     1 <1>   0.1500 
 44 H        7.3000     2.2010    -2.7670 H     1 <1>   0.0800 
 45 H        5.5530     2.2220    -2.8100 H     1 <1>   0.0800 
 46 H        6.4240     0.8210    -3.3860 H     1 <1>   0.0800 
 47 H        9.3270     0.5740     1.5590 H     1 <1>   0.0800 
 48 H        8.1680     0.4030     2.8530 H     1 <1>   0.0800 
 49 H        8.4600     1.9740     2.1500 H     1 <1>   0.0800 
@<TRIPOS>BOND
  1   1   2  1   
  2   1  22  1   
  3   2   3  1   
  4   2  23  1   
  5   2  24  1   
  6   3   4  1   
  7   3   5  1   
  8   3   6  1   
  9   4   7  1   
 10   4   8  1   
 11   4  25  1   
 12   5   9  1   
 13   5  26  1   
 14   5  27  1   
 15   6  10  1   
 16   6  28  1   
 17   6  29  1   
 18   7  11  1   
 19   7  12  1   
 20   7  30  1   
 21   8  13  1   
 22   8  31  1   
 23   8  32  1   
 24   9  13  1   
 25   9  33  1   
 26   9  34  1   
 27  10  11  1   
 28  10  35  1   
 29  10  36  1   
 30  11  37  1   
 31  11  38  1   
 32  12  39  1   
 33  12  40  1   
 34  12  41  1   
 35  13  14  1   
 36  14  15  ar  
 37  14  16  ar  
 38  15  17  ar  
 39  16  18  ar  
 40  16  42  1   
 41  17  19  ar  
 42  17  20  1   
 43  18  19  ar  
 44  18  21  1   
 45  19  43  1   
 46  20  44  1   
 47  20  45  1   
 48  20  46  1   
 49  21  47  1   
 50  21  48  1   
 51  21  49  1   
@<TRIPOS>SUBSTRUCTURE
  1 ****  13 GROUP 4 **** **** 0

# MOE 2024.06 (io_trps.svl 2023.06)
