@<TRIPOS>MOLECULE
NONAME
52 54 1 0 0 
SMALL
USER_CHARGES


@<TRIPOS>ATOM
  1 O       -1.2330     1.2350    -2.0210 O.2   1 <1>  -0.5700 
  2 C       -1.4690     1.2920    -0.8260 C.2   1 <1>   0.6900 
  3 N       -0.6870     2.0770    -0.0130 N.am  1 <1>  -0.6600 
  4 N       -2.5140     0.5680    -0.3090 N.am  1 <1>  -0.6600 
  5 C        0.6740     2.4960    -0.4410 C.3   1 <1>   0.1400 
  6 C       -1.2680     2.8650     1.1060 C.3   1 <1>   0.1400 
  7 C       -2.3730    -0.2200     0.9420 C.3   1 <1>   0.1400 
  8 C       -3.6340     0.1400    -1.1850 C.3   1 <1>   0.1400 
  9 C        0.6670     3.9790    -0.8140 C.3   1 <1>  -0.1600 
 10 C       -1.2730     4.3510     0.7450 C.3   1 <1>  -0.1600 
 11 C       -3.6770    -0.1560     1.7450 C.3   1 <1>  -0.1600 
 12 C       -4.9510     0.2050    -0.4030 C.3   1 <1>  -0.1600 
 13 C        0.1250     4.8190     0.3400 C.3   1 <1>   0.2890 
 14 C       -4.8790    -0.6030     0.9010 C.3   1 <1>  -0.1600 
 15 N        0.0590     6.2210    -0.0950 N.pl3 1 <1>  -0.8690 
 16 C       -0.0940     7.2430     0.8310 C.ar  1 <1>   0.4100 
 17 N        0.5820     7.1340     1.9610 N.ar  1 <1>  -0.6200 
 18 C       -0.9670     8.3410     0.5320 C.ar  1 <1>   0.4100 
 19 C        0.3630     8.1590     2.7740 C.ar  1 <1>   0.1600 
 20 N       -1.1740     9.3460     1.3660 N.ar  1 <1>  -0.6200 
 21 N       -1.6480     8.4000    -0.6950 N.pl3 1 <1>  -0.8380 
 22 C       -0.4790     9.2190     2.4900 C.ar  1 <1>   0.1600 
 23 C       -0.8360     8.8780    -1.8430 C.3   1 <1>   0.1290 
 24 C       -3.0340     8.9450    -0.6860 C.3   1 <1>   0.1290 
 25 H        0.9980     1.9100    -1.2850 H     1 <1>   0.0800 
 26 H        1.3640     2.3230     0.3670 H     1 <1>   0.0800 
 27 H       -0.6810     2.7020     1.9940 H     1 <1>   0.0800 
 28 H       -2.2780     2.5510     1.3040 H     1 <1>   0.0800 
 29 H       -1.5530     0.1510     1.5320 H     1 <1>   0.0800 
 30 H       -2.1570    -1.2430     0.6820 H     1 <1>   0.0800 
 31 H       -3.4500    -0.8650    -1.5230 H     1 <1>   0.0800 
 32 H       -3.6920     0.7820    -2.0480 H     1 <1>   0.0800 
 33 H        0.0550     4.1100    -1.6890 H     1 <1>   0.0800 
 34 H        1.6680     4.2930    -1.0440 H     1 <1>   0.0800 
 35 H       -1.6090     4.9170     1.5950 H     1 <1>   0.0800 
 36 H       -1.9630     4.5080    -0.0650 H     1 <1>   0.0800 
 37 H       -3.8280     0.8530     2.0850 H     1 <1>   0.0800 
 38 H       -3.5900    -0.7850     2.6130 H     1 <1>   0.0800 
 39 H       -5.7480    -0.1720    -1.0200 H     1 <1>   0.0800 
 40 H       -5.1680     1.2350    -0.1810 H     1 <1>   0.0800 
 41 H        0.7940     4.7310     1.1810 H     1 <1>   0.0800 
 42 H       -5.7880    -0.4710     1.4620 H     1 <1>   0.0800 
 43 H       -4.7810    -1.6490     0.6670 H     1 <1>   0.0800 
 44 H       -0.6280     6.3560    -0.8450 H     1 <1>   0.4000 
 45 H        0.8850     8.1490     3.7140 H     1 <1>   0.1500 
 46 H       -0.5910    10.0030     3.2170 H     1 <1>   0.1500 
 47 H        0.1730     8.5090    -1.7640 H     1 <1>   0.0800 
 48 H       -0.8090     9.9540    -1.8500 H     1 <1>   0.0800 
 49 H       -1.2620     8.5250    -2.7660 H     1 <1>   0.0800 
 50 H       -3.5600     8.5870     0.1830 H     1 <1>   0.0800 
 51 H       -3.5600     8.6240    -1.5670 H     1 <1>   0.0800 
 52 H       -3.0060    10.0200    -0.6550 H     1 <1>   0.0800 
@<TRIPOS>BOND
  1   1   2  2   
  2   2   3  am  
  3   2   4  am  
  4   3   5  1   
  5   3   6  1   
  6   4   7  1   
  7   4   8  1   
  8   5   9  1   
  9   5  25  1   
 10   5  26  1   
 11   6  10  1   
 12   6  27  1   
 13   6  28  1   
 14   7  11  1   
 15   7  29  1   
 16   7  30  1   
 17   8  12  1   
 18   8  31  1   
 19   8  32  1   
 20   9  13  1   
 21   9  33  1   
 22   9  34  1   
 23  10  13  1   
 24  10  35  1   
 25  10  36  1   
 26  11  14  1   
 27  11  37  1   
 28  11  38  1   
 29  12  14  1   
 30  12  39  1   
 31  12  40  1   
 32  13  15  1   
 33  13  41  1   
 34  14  42  1   
 35  14  43  1   
 36  15  16  1   
 37  15  44  1   
 38  16  17  ar  
 39  16  18  ar  
 40  17  19  ar  
 41  18  20  ar  
 42  18  21  1   
 43  19  22  ar  
 44  19  45  1   
 45  20  22  ar  
 46  21  23  1   
 47  21  24  1   
 48  22  46  1   
 49  23  47  1   
 50  23  48  1   
 51  23  49  1   
 52  24  50  1   
 53  24  51  1   
 54  24  52  1   
@<TRIPOS>SUBSTRUCTURE
  1 ****  10 GROUP 4 **** **** 0

# MOE 2024.06 (io_trps.svl 2023.06)
