@<TRIPOS>MOLECULE
NONAME
43 44 1 0 0 
SMALL
USER_CHARGES


@<TRIPOS>ATOM
  1 O       -0.5060     0.9690     1.1880 O.2   1 <1>  -0.5700 
  2 C       -0.3160     2.0790     0.7470 C.2   1 <1>   0.5690 
  3 N       -1.3270     3.0030     0.6570 N.am  1 <1>  -0.6600 
  4 C        1.0840     2.4370     0.2760 C.3   1 <1>  -0.0990 
  5 C       -2.7220     2.6730     1.0870 C.3   1 <1>   0.1400 
  6 C       -1.2050     4.3710     0.0830 C.3   1 <1>   0.1400 
  7 C        2.0790     1.2920     0.4560 C.3   1 <1>   0.1200 
  8 C       -3.7010     2.7580    -0.1110 C.3   1 <1>   0.0000 
  9 C       -2.1330     4.5010    -1.1300 C.3   1 <1>  -0.1600 
 10 O        3.3180     1.7250    -0.0070 O.3   1 <1>  -0.5600 
 11 C       -5.1450     2.4560     0.3250 C.3   1 <1>   0.2000 
 12 C       -3.5880     4.1500    -0.7720 C.3   1 <1>  -0.1600 
 13 C       -3.4330     1.6130    -1.1050 C.3   1 <1>  -0.1600 
 14 C        4.3190     0.7660     0.1010 C.3   1 <1>   0.0400 
 15 O       -5.4430     3.0460     1.5550 O.3   1 <1>  -0.5600 
 16 C       -5.2480     0.9290     0.3950 C.3   1 <1>  -0.1600 
 17 C       -4.1400     0.3870    -0.5190 C.3   1 <1>  -0.1600 
 18 C       -6.7960     3.0780     1.8810 C.3   1 <1>   0.0400 
 19 H        1.0390     2.6920    -0.7650 H     1 <1>   0.0800 
 20 H        1.4290     3.2830     0.8400 H     1 <1>   0.0800 
 21 H       -2.7620     1.6940     1.5300 H     1 <1>   0.0800 
 22 H       -3.0160     3.3770     1.8460 H     1 <1>   0.0800 
 23 H       -1.4900     5.0880     0.8350 H     1 <1>   0.0800 
 24 H       -0.1950     4.5880    -0.2130 H     1 <1>   0.0800 
 25 H        1.7720     0.4320    -0.1150 H     1 <1>   0.0800 
 26 H        2.1660     1.0280     1.4960 H     1 <1>   0.0800 
 27 H       -2.0900     5.5090    -1.5010 H     1 <1>   0.0800 
 28 H       -1.7800     3.8510    -1.9110 H     1 <1>   0.0800 
 29 H       -5.8250     2.8350    -0.4210 H     1 <1>   0.0800 
 30 H       -4.1980     4.1930    -1.6570 H     1 <1>   0.0800 
 31 H       -3.9620     4.8870    -0.0820 H     1 <1>   0.0800 
 32 H       -3.8770     1.8470    -2.0560 H     1 <1>   0.0800 
 33 H       -2.3830     1.4270    -1.2560 H     1 <1>   0.0800 
 34 H        5.2320     1.1900    -0.2780 H     1 <1>   0.0800 
 35 H        4.0490    -0.0970    -0.4840 H     1 <1>   0.0800 
 36 H        4.4450     0.4990     1.1360 H     1 <1>   0.0800 
 37 H       -5.0770     0.5900     1.4030 H     1 <1>   0.0800 
 38 H       -6.2150     0.6000     0.0610 H     1 <1>   0.0800 
 39 H       -3.4400    -0.1870     0.0660 H     1 <1>   0.0800 
 40 H       -4.5360    -0.2400    -1.2980 H     1 <1>   0.0800 
 41 H       -6.8990     3.5710     2.8310 H     1 <1>   0.0800 
 42 H       -7.1720     2.0720     1.9550 H     1 <1>   0.0800 
 43 H       -7.3310     3.6290     1.1270 H     1 <1>   0.0800 
@<TRIPOS>BOND
  1   1   2  2   
  2   2   3  am  
  3   2   4  1   
  4   3   5  1   
  5   3   6  1   
  6   4   7  1   
  7   4  19  1   
  8   4  20  1   
  9   5   8  1   
 10   5  21  1   
 11   5  22  1   
 12   6   9  1   
 13   6  23  1   
 14   6  24  1   
 15   7  10  1   
 16   7  25  1   
 17   7  26  1   
 18   8  11  1   
 19   8  12  1   
 20   8  13  1   
 21   9  12  1   
 22   9  27  1   
 23   9  28  1   
 24  10  14  1   
 25  11  15  1   
 26  11  16  1   
 27  11  29  1   
 28  12  30  1   
 29  12  31  1   
 30  13  17  1   
 31  13  32  1   
 32  13  33  1   
 33  14  34  1   
 34  14  35  1   
 35  14  36  1   
 36  15  18  1   
 37  16  17  1   
 38  16  37  1   
 39  16  38  1   
 40  17  39  1   
 41  17  40  1   
 42  18  41  1   
 43  18  42  1   
 44  18  43  1   
@<TRIPOS>SUBSTRUCTURE
  1 ****   3 GROUP 4 **** **** 0

# MOE 2024.06 (io_trps.svl 2023.06)
