@<TRIPOS>MOLECULE
NONAME
50 52 1 0 0 
SMALL
USER_CHARGES


@<TRIPOS>ATOM
  1 S        0.5140    -1.3620     0.5090 S.o2  1 <1>   1.5000 
  2 O       -0.3150    -1.2250     1.6870 O.2   1 <1>  -0.6500 
  3 O        1.3300    -2.5500     0.4070 O.2   1 <1>  -0.6500 
  4 N       -0.5670    -1.4670    -0.8020 N.am  1 <1>  -0.8490 
  5 C        1.5090     0.1110     0.1740 C.2   1 <1>  -0.0220 
  6 C       -1.3220    -2.7250    -0.8120 C.3   1 <1>   0.1960 
  7 C       -1.4260    -0.2960    -1.0520 C.3   1 <1>   0.1960 
  8 S        1.1040     1.5970     1.0300 S.3   1 <1>  -0.0800 
  9 C        2.5410     0.3480    -0.6620 C.2   1 <1>  -0.1500 
 10 C       -2.4960    -2.7180     0.2070 C.3   1 <1>   0.4230 
 11 C       -2.6290    -0.2270    -0.0960 C.3   1 <1>  -0.1600 
 12 C        2.3720     2.4960     0.2170 C.2   1 <1>  -0.1400 
 13 C        3.0320     1.6920    -0.6380 C.2   1 <1>  -0.1500 
 14 N       -3.1870    -4.0670     0.3740 N.4   1 <1>  -0.9590 
 15 C       -3.4710    -1.5340    -0.0510 C.3   1 <1>   0.0000 
 16 C        2.5120     3.9610     0.5940 C.3   1 <1>   0.0200 
 17 C       -4.5440    -3.9830     1.0070 C.3   1 <1>   0.3430 
 18 C       -3.2450    -4.9280    -0.8530 C.3   1 <1>   0.2630 
 19 C       -4.4840    -1.4390     1.1290 C.3   1 <1>  -0.1600 
 20 C       -4.2230    -1.7380    -1.3980 C.3   1 <1>   0.1200 
 21 C        3.6400     4.6520    -0.1780 C.3   1 <1>  -0.2400 
 22 C       -4.6510    -2.7570     1.9120 C.3   1 <1>  -0.1600 
 23 O       -4.9540    -0.6170    -1.7540 O.3   1 <1>  -0.6800 
 24 H       -1.6930    -2.8800    -1.8090 H     1 <1>   0.0800 
 25 H       -0.6570    -3.5420    -0.5880 H     1 <1>   0.0800 
 26 H       -0.8490     0.6110    -0.9770 H     1 <1>   0.0800 
 27 H       -1.7890    -0.3460    -2.0650 H     1 <1>   0.0800 
 28 H        2.9880    -0.3860    -1.3100 H     1 <1>   0.1500 
 29 H       -2.0470    -2.5060     1.1620 H     1 <1>   0.0800 
 30 H       -2.2660     0.0190     0.8850 H     1 <1>   0.0800 
 31 H       -3.2430     0.6060    -0.3890 H     1 <1>   0.0800 
 32 H        3.8570     1.9850    -1.2640 H     1 <1>   0.1500 
 33 H       -2.5950    -4.5660     1.0570 H     1 <1>   0.4500 
 34 H        1.5830     4.4650     0.3920 H     1 <1>   0.0800 
 35 H        2.7070     4.0330     1.6500 H     1 <1>   0.0800 
 36 H       -5.3000    -3.9090     0.2420 H     1 <1>   0.0800 
 37 H       -4.7380    -4.8770     1.5790 H     1 <1>   0.0800 
 38 H       -3.8180    -4.4460    -1.6280 H     1 <1>   0.0800 
 39 H       -3.7090    -5.8740    -0.6230 H     1 <1>   0.0800 
 40 H       -2.2530    -5.1240    -1.2270 H     1 <1>   0.0800 
 41 H       -4.1740    -0.6880     1.8370 H     1 <1>   0.0800 
 42 H       -5.4470    -1.1240     0.7670 H     1 <1>   0.0800 
 43 H       -4.9100    -2.5630    -1.3470 H     1 <1>   0.0800 
 44 H       -3.5380    -1.9160    -2.2080 H     1 <1>   0.0800 
 45 H        3.4500     4.6070    -1.2350 H     1 <1>   0.0800 
 46 H        4.5810     4.1730     0.0310 H     1 <1>   0.0800 
 47 H        3.7070     5.6840     0.1160 H     1 <1>   0.0800 
 48 H       -5.6110    -2.7570     2.3990 H     1 <1>   0.0800 
 49 H       -3.9060    -2.8230     2.6860 H     1 <1>   0.0800 
 50 H       -5.6500    -0.4040    -1.1010 H     1 <1>   0.4000 
@<TRIPOS>BOND
  1   1   2  2   
  2   1   3  2   
  3   1   4  am  
  4   1   5  1   
  5   4   6  1   
  6   4   7  1   
  7   5   8  1   
  8   5   9  2   
  9   6  10  1   
 10   6  24  1   
 11   6  25  1   
 12   7  11  1   
 13   7  26  1   
 14   7  27  1   
 15   8  12  1   
 16   9  13  1   
 17   9  28  1   
 18  10  14  1   
 19  10  15  1   
 20  10  29  1   
 21  11  15  1   
 22  11  30  1   
 23  11  31  1   
 24  12  13  2   
 25  12  16  1   
 26  13  32  1   
 27  14  17  1   
 28  14  18  1   
 29  14  33  1   
 30  15  19  1   
 31  15  20  1   
 32  16  21  1   
 33  16  34  1   
 34  16  35  1   
 35  17  22  1   
 36  17  36  1   
 37  17  37  1   
 38  18  38  1   
 39  18  39  1   
 40  18  40  1   
 41  19  22  1   
 42  19  41  1   
 43  19  42  1   
 44  20  23  1   
 45  20  43  1   
 46  20  44  1   
 47  21  45  1   
 48  21  46  1   
 49  21  47  1   
 50  22  48  1   
 51  22  49  1   
 52  23  50  1   
@<TRIPOS>SUBSTRUCTURE
  1 ****   4 GROUP 4 **** **** 0

# MOE 2024.06 (io_trps.svl 2023.06)
