@<TRIPOS>MOLECULE
NONAME
51 54 1 0 0 
SMALL
USER_CHARGES


@<TRIPOS>ATOM
  1 O       -0.6050     0.2290    -0.0660 O.2   1 <1>  -0.5700 
  2 C       -1.6360     0.7790     0.2450 C.2   1 <1>   0.5690 
  3 N       -2.7840     0.0540     0.4550 N.am  1 <1>  -0.6600 
  4 C       -1.6260     2.3090     0.3800 C.3   1 <1>  -0.0190 
  5 C       -2.7720    -1.4450     0.4410 C.3   1 <1>   0.1400 
  6 C       -4.1720     0.6020     0.5770 C.3   1 <1>   0.1400 
  7 C       -1.9700     2.9810    -0.9660 C.3   1 <1>  -0.1600 
  8 C       -0.2800     2.8480     0.9140 C.3   1 <1>  -0.1600 
  9 C       -3.7880    -2.0010    -0.5730 C.3   1 <1>   0.3440 
 10 C       -5.1140    -0.0530    -0.4580 C.3   1 <1>   0.2950 
 11 C       -1.9840     4.5140    -0.8480 C.3   1 <1>  -0.1600 
 12 C       -0.2910     4.3800     1.0400 C.3   1 <1>  -0.1600 
 13 O       -5.0570    -1.4450    -0.3420 O.3   1 <1>  -0.5600 
 14 C       -3.8690    -3.5210    -0.4740 C.ar  1 <1>  -0.1440 
 15 C       -6.5950     0.3440    -0.3230 C.3   1 <1>  -0.1950 
 16 C       -0.6520     5.0310    -0.2980 C.3   1 <1>   0.2000 
 17 C       -4.7590    -4.1460     0.3900 C.ar  1 <1>  -0.1500 
 18 C       -3.0250    -4.3030    -1.2510 C.ar  1 <1>  -0.1500 
 19 C       -7.0560     1.6880     0.1560 C.3   1 <1>  -0.2000 
 20 C       -7.3120     0.4610     0.9870 C.3   1 <1>  -0.2000 
 21 O       -0.7630     6.3890    -0.1030 O.3   1 <1>  -0.6800 
 22 C       -4.8050    -5.5270     0.4750 C.ar  1 <1>  -0.1500 
 23 C       -3.0700    -5.6840    -1.1670 C.ar  1 <1>  -0.1500 
 24 C       -3.9600    -6.2970    -0.3030 C.ar  1 <1>  -0.1500 
 25 H       -2.3690     2.5840     1.1050 H     1 <1>   0.0800 
 26 H       -1.7940    -1.8190     0.1940 H     1 <1>   0.0800 
 27 H       -3.0200    -1.8110     1.4210 H     1 <1>   0.0800 
 28 H       -4.5360     0.4050     1.5690 H     1 <1>   0.0800 
 29 H       -4.1820     1.6630     0.4220 H     1 <1>   0.0800 
 30 H       -1.2370     2.6880    -1.6990 H     1 <1>   0.0800 
 31 H       -2.9290     2.6420    -1.3150 H     1 <1>   0.0800 
 32 H       -0.0720     2.4080     1.8740 H     1 <1>   0.0800 
 33 H        0.5140     2.5570     0.2460 H     1 <1>   0.0800 
 34 H       -3.4850    -1.7290    -1.5700 H     1 <1>   0.0800 
 35 H       -4.7830     0.2110    -1.4480 H     1 <1>   0.0800 
 36 H       -2.7860     4.8080    -0.1950 H     1 <1>   0.0800 
 37 H       -2.1550     4.9440    -1.8200 H     1 <1>   0.0800 
 38 H        0.6830     4.7180     1.3480 H     1 <1>   0.0800 
 39 H       -1.0070     4.6650     1.7910 H     1 <1>   0.0800 
 40 H       -7.1620    -0.0820    -1.1330 H     1 <1>   0.1000 
 41 H        0.1350     4.8660    -1.0150 H     1 <1>   0.0800 
 42 H       -5.4240    -3.5560     0.9970 H     1 <1>   0.1500 
 43 H       -2.3260    -3.8420    -1.9260 H     1 <1>   0.1500 
 44 H       -6.3610     2.4150     0.5380 H     1 <1>   0.1000 
 45 H       -7.8920     2.1510    -0.3420 H     1 <1>   0.1000 
 46 H       -8.3140     0.0720     1.0500 H     1 <1>   0.1000 
 47 H       -6.7690     0.3250     1.9050 H     1 <1>   0.1000 
 48 H       -1.4490     6.5750     0.5640 H     1 <1>   0.4000 
 49 H       -5.5010    -6.0000     1.1460 H     1 <1>   0.1500 
 50 H       -2.4120    -6.2820    -1.7730 H     1 <1>   0.1500 
 51 H       -3.9960    -7.3710    -0.2380 H     1 <1>   0.1500 
@<TRIPOS>BOND
  1   1   2  2   
  2   2   3  am  
  3   2   4  1   
  4   3   5  1   
  5   3   6  1   
  6   4   7  1   
  7   4   8  1   
  8   4  25  1   
  9   5   9  1   
 10   5  26  1   
 11   5  27  1   
 12   6  10  1   
 13   6  28  1   
 14   6  29  1   
 15   7  11  1   
 16   7  30  1   
 17   7  31  1   
 18   8  12  1   
 19   8  32  1   
 20   8  33  1   
 21   9  13  1   
 22   9  14  1   
 23   9  34  1   
 24  10  13  1   
 25  10  15  1   
 26  10  35  1   
 27  11  16  1   
 28  11  36  1   
 29  11  37  1   
 30  12  16  1   
 31  12  38  1   
 32  12  39  1   
 33  14  17  ar  
 34  14  18  ar  
 35  15  19  1   
 36  15  20  1   
 37  15  40  1   
 38  16  21  1   
 39  16  41  1   
 40  17  22  ar  
 41  17  42  1   
 42  18  23  ar  
 43  18  43  1   
 44  19  20  1   
 45  19  44  1   
 46  19  45  1   
 47  20  46  1   
 48  20  47  1   
 49  21  48  1   
 50  22  24  ar  
 51  22  49  1   
 52  23  24  ar  
 53  23  50  1   
 54  24  51  1   
@<TRIPOS>SUBSTRUCTURE
  1 ****   3 GROUP 4 **** **** 0

# MOE 2024.06 (io_trps.svl 2023.06)
