@<TRIPOS>MOLECULE
NONAME
48 51 1 0 0 
SMALL
USER_CHARGES


@<TRIPOS>ATOM
  1 S        0.3300    -0.1640     1.6380 S.3   1 <1>  -0.0800 
  2 C        0.9300    -0.9670     0.2040 C.2   1 <1>   0.4340 
  3 C        0.8990     1.3400     0.9670 C.2   1 <1>  -0.1100 
  4 S        0.7190    -2.7390     0.0830 S.3   1 <1>  -0.2860 
  5 N        1.4790    -0.2150    -0.6610 N.2   1 <1>  -0.5650 
  6 C        1.4640     1.1000    -0.2290 C.2   1 <1>   0.0460 
  7 C       -0.2370    -3.2320     1.5970 C.3   1 <1>   0.1310 
  8 C        2.0870     2.1260    -1.1500 C.3   1 <1>  -0.0590 
  9 C       -0.5250    -4.7260     1.5850 C.2   1 <1>   0.5690 
 10 O       -0.0140    -5.4060     2.4430 O.2   1 <1>  -0.5700 
 11 N       -1.3600    -5.2800     0.6500 N.am  1 <1>  -0.6600 
 12 C       -2.0320    -4.5810    -0.4760 C.3   1 <1>   0.1400 
 13 C       -1.5990    -6.7420     0.5630 C.3   1 <1>   0.1400 
 14 C       -3.0460    -5.5960    -0.9980 C.3   1 <1>   0.2000 
 15 C       -2.3600    -6.9470    -0.7550 C.3   1 <1>  -0.0800 
 16 O       -4.1880    -5.5050    -0.2150 O.3   1 <1>  -0.6800 
 17 C       -3.3120    -8.1620    -0.7530 C.3   1 <1>  -0.0170 
 18 C       -2.6610    -9.5480    -0.6630 C.ar  1 <1>  -0.1440 
 19 C       -3.4730   -10.6920    -0.4580 C.ar  1 <1>   0.0000 
 20 C       -1.3150    -9.7610    -0.7810 C.ar  1 <1>  -0.1500 
 21 C       -2.8360   -11.9540    -0.3650 C.ar  1 <1>   0.3100 
 22 C       -4.8840   -10.6600    -0.3480 C.ar  1 <1>  -0.1500 
 23 C       -0.7870   -11.0530    -0.6780 C.ar  1 <1>   0.1600 
 24 N       -1.4940   -12.1170    -0.4760 N.ar  1 <1>  -0.6200 
 25 C       -3.6180   -13.1010    -0.1530 C.ar  1 <1>  -0.1500 
 26 C       -5.6180   -11.7970    -0.1440 C.ar  1 <1>  -0.1500 
 27 C       -4.9800   -13.0340    -0.0420 C.ar  1 <1>  -0.1500 
 28 H        0.7500     2.2380     1.5380 H     1 <1>   0.1500 
 29 H        0.3650    -2.9790     2.4500 H     1 <1>   0.0800 
 30 H       -1.1520    -2.6720     1.6060 H     1 <1>   0.0800 
 31 H        2.0240     3.1090    -0.7200 H     1 <1>   0.0800 
 32 H        1.5740     2.1220    -2.0940 H     1 <1>   0.0800 
 33 H        3.1200     1.8810    -1.3160 H     1 <1>   0.0800 
 34 H       -2.5070    -3.6660    -0.1650 H     1 <1>   0.0800 
 35 H       -1.3060    -4.3700    -1.2420 H     1 <1>   0.0800 
 36 H       -0.6640    -7.2770     0.5780 H     1 <1>   0.0800 
 37 H       -2.1940    -7.0510     1.4050 H     1 <1>   0.0800 
 38 H       -3.3200    -5.4320    -2.0260 H     1 <1>   0.0800 
 39 H       -1.6390    -7.0720    -1.5430 H     1 <1>   0.0800 
 40 H       -3.9260    -5.5230     0.7280 H     1 <1>   0.4000 
 41 H       -3.9040    -8.1300    -1.6520 H     1 <1>   0.0800 
 42 H       -3.9850    -8.0550     0.0790 H     1 <1>   0.0800 
 43 H       -0.6110    -8.9710    -0.9560 H     1 <1>   0.1500 
 44 H       -5.4030    -9.7230    -0.4280 H     1 <1>   0.1500 
 45 H        0.2800   -11.1680    -0.7730 H     1 <1>   0.1500 
 46 H       -3.1040   -14.0410    -0.0820 H     1 <1>   0.1500 
 47 H       -6.6900   -11.7540    -0.0600 H     1 <1>   0.1500 
 48 H       -5.5670   -13.9220     0.1190 H     1 <1>   0.1500 
@<TRIPOS>BOND
  1   1   2  1   
  2   1   3  1   
  3   2   4  1   
  4   2   5  2   
  5   3   6  2   
  6   3  28  1   
  7   4   7  1   
  8   5   6  1   
  9   6   8  1   
 10   7   9  1   
 11   7  29  1   
 12   7  30  1   
 13   8  31  1   
 14   8  32  1   
 15   8  33  1   
 16   9  10  2   
 17   9  11  am  
 18  11  12  1   
 19  11  13  1   
 20  12  14  1   
 21  12  34  1   
 22  12  35  1   
 23  13  15  1   
 24  13  36  1   
 25  13  37  1   
 26  14  15  1   
 27  14  16  1   
 28  14  38  1   
 29  15  17  1   
 30  15  39  1   
 31  16  40  1   
 32  17  18  1   
 33  17  41  1   
 34  17  42  1   
 35  18  19  ar  
 36  18  20  ar  
 37  19  21  ar  
 38  19  22  ar  
 39  20  23  ar  
 40  20  43  1   
 41  21  24  ar  
 42  21  25  ar  
 43  22  26  ar  
 44  22  44  1   
 45  23  24  ar  
 46  23  45  1   
 47  25  27  ar  
 48  25  46  1   
 49  26  27  ar  
 50  26  47  1   
 51  27  48  1   
@<TRIPOS>SUBSTRUCTURE
  1 ****  13 GROUP 4 **** **** 0

# MOE 2024.06 (io_trps.svl 2023.06)
