@<TRIPOS>MOLECULE
NONAME
53 57 1 0 0 
SMALL
USER_CHARGES


@<TRIPOS>ATOM
  1 N        0.2940     0.1730     0.3460 N.ar  1 <1>  -0.6200 
  2 C       -0.5070     1.1450     0.7880 C.ar  1 <1>   0.7200 
  3 C        1.2630     0.5640    -0.4440 C.ar  1 <1>   0.1660 
  4 N       -0.3980     2.4480     0.5050 N.ar  1 <1>  -0.6200 
  5 N       -1.5430     0.7700     1.6210 N.pl3 1 <1>  -0.8380 
  6 C        1.4620     1.8670    -0.7880 C.ar  1 <1>  -0.1440 
  7 C        2.3110    -0.3430    -1.0600 C.3   1 <1>   0.1430 
  8 C        0.5900     2.7980    -0.2840 C.ar  1 <1>   0.1600 
  9 C       -2.3190     1.7620     2.4140 C.3   1 <1>   0.1290 
 10 C       -1.9760    -0.6480     1.7570 C.3   1 <1>   0.1290 
 11 C        2.6610     2.0350    -1.6870 C.3   1 <1>  -0.0160 
 12 C        3.2710    -0.7730     0.0730 C.3   1 <1>   0.2090 
 13 C        1.7060    -1.5940    -1.7200 C.3   1 <1>  -0.1600 
 14 C        2.9580     0.5890    -2.1200 C.3   1 <1>  -0.1600 
 15 N        4.3530    -1.7370    -0.3680 N.pl3 1 <1>  -0.8380 
 16 C        2.8270    -2.5120    -2.2270 C.3   1 <1>  -0.1600 
 17 C        5.5910    -1.7590     0.2090 C.ar  1 <1>   0.1000 
 18 C        3.7810    -2.9210    -1.1000 C.3   1 <1>   0.2090 
 19 C        6.3610    -0.5890     0.5410 C.ar  1 <1>   0.0000 
 20 C        6.1530    -2.9900     0.5740 C.ar  1 <1>  -0.1500 
 21 C        7.5070    -0.7200     1.3570 C.ar  1 <1>   0.3610 
 22 C        6.0880     0.7090     0.0660 C.ar  1 <1>  -0.1500 
 23 C        7.3000    -3.0840     1.3140 C.ar  1 <1>   0.2110 
 24 N        7.9380    -1.9740     1.7160 N.ar  1 <1>  -0.1790 
 25 C        8.2310     0.4100     1.7660 C.ar  1 <1>  -0.1500 
 26 C        6.8140     1.8060     0.4530 C.ar  1 <1>  -0.1500 
 27 C        7.8870     1.6610     1.3260 C.ar  1 <1>  -0.1500 
 28 H        0.7040     3.8400    -0.5280 H     1 <1>   0.1500 
 29 H       -1.7050     2.6120     2.6590 H     1 <1>   0.0800 
 30 H       -2.6620     1.3180     3.3310 H     1 <1>   0.0800 
 31 H       -3.1660     2.0970     1.8410 H     1 <1>   0.0800 
 32 H       -1.7540    -1.2000     0.8600 H     1 <1>   0.0800 
 33 H       -3.0370    -0.6960     1.9280 H     1 <1>   0.0800 
 34 H       -1.4610    -1.1030     2.5840 H     1 <1>   0.0800 
 35 H        3.4810     2.4470    -1.1250 H     1 <1>   0.0800 
 36 H        2.4410     2.6640    -2.5320 H     1 <1>   0.0800 
 37 H        2.6790    -1.2710     0.8230 H     1 <1>   0.0800 
 38 H        3.6820     0.0940     0.5520 H     1 <1>   0.0800 
 39 H        1.0530    -1.3140    -2.5280 H     1 <1>   0.0800 
 40 H        1.1130    -2.1250    -0.9950 H     1 <1>   0.0800 
 41 H        2.4670     0.4360    -3.0660 H     1 <1>   0.0800 
 42 H        4.0020     0.3930    -2.2700 H     1 <1>   0.0800 
 43 H        3.3900    -2.0260    -3.0030 H     1 <1>   0.0800 
 44 H        2.3920    -3.3990    -2.6530 H     1 <1>   0.0800 
 45 H        3.2510    -3.5410    -0.3970 H     1 <1>   0.0800 
 46 H        4.5760    -3.5010    -1.5350 H     1 <1>   0.0800 
 47 H        5.6570    -3.9040     0.3060 H     1 <1>   0.1500 
 48 H        5.2900     0.8460    -0.6300 H     1 <1>   0.1500 
 49 H        7.6960    -4.0470     1.5930 H     1 <1>   0.1500 
 50 H        8.7860    -2.0370     2.2840 H     1 <1>   0.4570 
 51 H        9.0740     0.3040     2.4250 H     1 <1>   0.1500 
 52 H        6.5640     2.7880     0.0830 H     1 <1>   0.1500 
 53 H        8.4390     2.5360     1.6330 H     1 <1>   0.1500 
@<TRIPOS>BOND
  1   1   2  ar  
  2   1   3  ar  
  3   2   4  ar  
  4   2   5  1   
  5   3   6  ar  
  6   3   7  1   
  7   4   8  ar  
  8   5   9  1   
  9   5  10  1   
 10   6   8  ar  
 11   6  11  1   
 12   7  12  1   
 13   7  13  1   
 14   7  14  1   
 15   8  28  1   
 16   9  29  1   
 17   9  30  1   
 18   9  31  1   
 19  10  32  1   
 20  10  33  1   
 21  10  34  1   
 22  11  14  1   
 23  11  35  1   
 24  11  36  1   
 25  12  15  1   
 26  12  37  1   
 27  12  38  1   
 28  13  16  1   
 29  13  39  1   
 30  13  40  1   
 31  14  41  1   
 32  14  42  1   
 33  15  17  1   
 34  15  18  1   
 35  16  18  1   
 36  16  43  1   
 37  16  44  1   
 38  17  19  ar  
 39  17  20  ar  
 40  18  45  1   
 41  18  46  1   
 42  19  21  ar  
 43  19  22  ar  
 44  20  23  ar  
 45  20  47  1   
 46  21  24  ar  
 47  21  25  ar  
 48  22  26  ar  
 49  22  48  1   
 50  23  24  ar  
 51  23  49  1   
 52  24  50  1   
 53  25  27  ar  
 54  25  51  1   
 55  26  27  ar  
 56  26  52  1   
 57  27  53  1   
@<TRIPOS>SUBSTRUCTURE
  1 ****  12 GROUP 4 **** **** 0

# MOE 2024.06 (io_trps.svl 2023.06)
