@<TRIPOS>MOLECULE
NONAME
51 53 1 0 0 
SMALL
USER_CHARGES


@<TRIPOS>ATOM
  1 O       -4.1560     0.0810    -1.5420 O.2   1 <1>  -0.5700 
  2 C       -3.4810     0.6830    -0.7210 C.2   1 <1>   0.7670 
  3 N       -3.4490     2.0530    -0.8290 N.2   1 <1>  -0.6610 
  4 C       -2.7720     0.0120     0.3200 C.2   1 <1>   0.0290 
  5 C       -2.7330     2.7130    -0.0010 C.2   1 <1>   0.4390 
  6 C       -2.8470    -1.4130     0.4300 C.2   1 <1>   0.6160 
  7 C       -2.0180     0.7730     1.1620 C.2   1 <1>  -0.0500 
  8 N       -2.0080     2.1250     0.9940 N.pl3 1 <1>  -0.5500 
  9 C       -2.6630     4.2170    -0.0950 C.3   1 <1>  -0.1790 
 10 O       -1.8080    -2.0460     0.3760 O.2   1 <1>  -0.5700 
 11 N       -4.0220    -2.1010     0.6630 N.am  1 <1>  -0.6600 
 12 C       -4.1110    -3.5890     0.5130 C.3   1 <1>   0.1400 
 13 C       -5.3630    -1.4740     0.8780 C.3   1 <1>   0.1400 
 14 C       -5.1930    -3.9760    -0.5140 C.3   1 <1>   0.3430 
 15 C       -6.3620    -1.9490    -0.2030 C.3   1 <1>   0.2000 
 16 O       -6.4090    -3.3540    -0.1920 O.3   1 <1>  -0.5600 
 17 C       -5.3870    -5.4900    -0.5430 C.ar  1 <1>  -0.1430 
 18 C       -7.8050    -1.3790    -0.0530 C.3   1 <1>   0.0000 
 19 C       -6.2630    -6.1230     0.3280 C.ar  1 <1>  -0.1500 
 20 C       -4.6660    -6.2570    -1.4480 C.ar  1 <1>  -0.1500 
 21 C       -8.4670    -1.8080     1.2700 C.3   1 <1>  -0.2400 
 22 C       -8.6780    -1.8860    -1.2160 C.3   1 <1>  -0.2400 
 23 C       -7.7910     0.1590    -0.1190 C.3   1 <1>  -0.2400 
 24 C       -6.4140    -7.4980     0.2980 C.ar  1 <1>  -0.1500 
 25 C       -4.8160    -7.6320    -1.4800 C.ar  1 <1>  -0.1500 
 26 C       -5.6900    -8.2550    -0.6070 C.ar  1 <1>  -0.1500 
 27 H       -1.4290     0.3360     1.9550 H     1 <1>   0.1500 
 28 H       -1.4470     2.7300     1.6010 H     1 <1>   0.4000 
 29 H       -3.0230     4.6590     0.8140 H     1 <1>   0.0800 
 30 H       -3.2730     4.5630    -0.9110 H     1 <1>   0.0800 
 31 H       -1.6490     4.5270    -0.2700 H     1 <1>   0.0800 
 32 H       -3.1700    -4.0000     0.1940 H     1 <1>   0.0800 
 33 H       -4.3540    -4.0280     1.4630 H     1 <1>   0.0800 
 34 H       -5.7260    -1.7630     1.8480 H     1 <1>   0.0800 
 35 H       -5.2890    -0.4050     0.8640 H     1 <1>   0.0800 
 36 H       -4.8990    -3.6370    -1.4920 H     1 <1>   0.0800 
 37 H       -5.9910    -1.6460    -1.1670 H     1 <1>   0.0800 
 38 H       -6.8330    -5.5410     1.0320 H     1 <1>   0.1500 
 39 H       -3.9820    -5.7860    -2.1320 H     1 <1>   0.1500 
 40 H       -9.4810    -1.4540     1.3150 H     1 <1>   0.0800 
 41 H       -7.9390    -1.4120     2.1180 H     1 <1>   0.0800 
 42 H       -8.4830    -2.8810     1.3490 H     1 <1>   0.0800 
 43 H       -9.6710    -1.4780    -1.1570 H     1 <1>   0.0800 
 44 H       -8.7540    -2.9590    -1.1930 H     1 <1>   0.0800 
 45 H       -8.2490    -1.6010    -2.1600 H     1 <1>   0.0800 
 46 H       -8.7950     0.5450    -0.1380 H     1 <1>   0.0800 
 47 H       -7.2850     0.4930    -1.0090 H     1 <1>   0.0800 
 48 H       -7.2940     0.5850     0.7340 H     1 <1>   0.0800 
 49 H       -7.0970    -7.9770     0.9770 H     1 <1>   0.1500 
 50 H       -4.2530    -8.2180    -2.1850 H     1 <1>   0.1500 
 51 H       -5.8080    -9.3240    -0.6310 H     1 <1>   0.1500 
@<TRIPOS>BOND
  1   1   2  2   
  2   2   3  1   
  3   2   4  1   
  4   3   5  2   
  5   4   6  1   
  6   4   7  2   
  7   5   8  1   
  8   5   9  1   
  9   6  10  2   
 10   6  11  am  
 11   7   8  1   
 12   7  27  1   
 13   8  28  1   
 14   9  29  1   
 15   9  30  1   
 16   9  31  1   
 17  11  12  1   
 18  11  13  1   
 19  12  14  1   
 20  12  32  1   
 21  12  33  1   
 22  13  15  1   
 23  13  34  1   
 24  13  35  1   
 25  14  16  1   
 26  14  17  1   
 27  14  36  1   
 28  15  16  1   
 29  15  18  1   
 30  15  37  1   
 31  17  19  ar  
 32  17  20  ar  
 33  18  21  1   
 34  18  22  1   
 35  18  23  1   
 36  19  24  ar  
 37  19  38  1   
 38  20  25  ar  
 39  20  39  1   
 40  21  40  1   
 41  21  41  1   
 42  21  42  1   
 43  22  43  1   
 44  22  44  1   
 45  22  45  1   
 46  23  46  1   
 47  23  47  1   
 48  23  48  1   
 49  24  26  ar  
 50  24  49  1   
 51  25  26  ar  
 52  25  50  1   
 53  26  51  1   
@<TRIPOS>SUBSTRUCTURE
  1 ****  11 GROUP 4 **** **** 0

# MOE 2024.06 (io_trps.svl 2023.06)
