@<TRIPOS>MOLECULE
NONAME
52 56 1 0 0 
SMALL
USER_CHARGES


@<TRIPOS>ATOM
  1 O       -0.2950     0.5860     0.9150 O.2   1 <1>  -0.5700 
  2 C       -1.3470     1.1330     0.6130 C.2   1 <1>   0.7160 
  3 N       -2.5200     0.4450     0.8980 N.am  1 <1>  -0.6600 
  4 C       -1.3080     2.4480    -0.0310 C.2   1 <1>   0.2030 
  5 C       -2.5710    -0.6340     1.9240 C.3   1 <1>   0.1400 
  6 C       -3.8250     0.7130     0.2360 C.3   1 <1>   0.1400 
  7 N       -2.2620     3.3750    -0.0760 N.2   1 <1>  -0.7070 
  8 C       -0.1800     2.9360    -0.7060 C.2   1 <1>  -0.1810 
  9 C       -3.0670    -1.9290     1.2800 C.3   1 <1>  -0.1600 
 10 C       -4.3390    -0.5750    -0.4130 C.3   1 <1>  -0.1600 
 11 N       -1.7410     4.4130    -0.7590 N.pl3 1 <1>   0.3000 
 12 C       -0.4830     4.1490    -1.1430 C.2   1 <1>  -0.3320 
 13 C        1.2220     2.5320    -1.0670 C.3   1 <1>   0.0210 
 14 C       -4.4250    -1.7390     0.5900 C.3   1 <1>   0.4240 
 15 C        0.6250     4.8330    -1.8910 C.3   1 <1>   0.0200 
 16 C        1.7170     3.7340    -1.9130 C.3   1 <1>  -0.1600 
 17 O       -5.3160    -1.3700     1.6170 O.3   1 <1>  -0.5600 
 18 C       -4.8670    -3.0450    -0.1070 C.ar  1 <1>  -0.1430 
 19 C       -6.6780    -1.5510     1.3840 C.3   1 <1>   0.1200 
 20 C       -6.0690    -3.6660     0.2200 C.ar  1 <1>  -0.1430 
 21 C       -4.0680    -3.6260    -1.0870 C.ar  1 <1>  -0.1500 
 22 C       -6.9630    -3.0460     1.2760 C.3   1 <1>  -0.0170 
 23 C       -6.4540    -4.8400    -0.4070 C.ar  1 <1>  -0.1500 
 24 C       -4.4530    -4.7960    -1.7160 C.ar  1 <1>  -0.1500 
 25 C       -5.6450    -5.4130    -1.3820 C.ar  1 <1>   0.0820 
 26 O       -5.9480    -6.5580    -2.0430 O.3   1 <1>  -0.3620 
 27 C       -7.1290    -7.2760    -1.7620 C.3   1 <1>   0.0400 
 28 H       -3.2420    -0.3350     2.7110 H     1 <1>   0.0800 
 29 H       -1.6010    -0.7950     2.3620 H     1 <1>   0.0800 
 30 H       -3.7270     1.4610    -0.5280 H     1 <1>   0.0800 
 31 H       -4.5270     1.0690     0.9710 H     1 <1>   0.0800 
 32 H       -3.1570    -2.6970     2.0270 H     1 <1>   0.0800 
 33 H       -2.3280    -2.2510     0.5720 H     1 <1>   0.0800 
 34 H       -3.6640    -0.8370    -1.2060 H     1 <1>   0.0800 
 35 H       -5.2970    -0.4020    -0.8630 H     1 <1>   0.0800 
 36 H       -2.2610     5.2800    -0.9390 H     1 <1>   0.2700 
 37 H        1.2220     1.6170    -1.6330 H     1 <1>   0.0800 
 38 H        1.8090     2.4090    -0.1730 H     1 <1>   0.0800 
 39 H        0.9610     5.7040    -1.3550 H     1 <1>   0.0800 
 40 H        0.3180     5.1010    -2.8870 H     1 <1>   0.0800 
 41 H        1.8810     3.4120    -2.9260 H     1 <1>   0.0800 
 42 H        2.6430     4.1130    -1.5180 H     1 <1>   0.0800 
 43 H       -6.9560    -1.0360     0.4820 H     1 <1>   0.0800 
 44 H       -7.2130    -1.1240     2.2130 H     1 <1>   0.0800 
 45 H       -3.1360    -3.1720    -1.3720 H     1 <1>   0.1500 
 46 H       -7.9970    -3.1900     1.0200 H     1 <1>   0.0800 
 47 H       -6.7800    -3.5130     2.2260 H     1 <1>   0.0800 
 48 H       -7.3840    -5.2960    -0.1290 H     1 <1>   0.1500 
 49 H       -3.8300    -5.2390    -2.4710 H     1 <1>   0.1500 
 50 H       -7.1490    -8.1440    -2.3960 H     1 <1>   0.0800 
 51 H       -7.9770    -6.6490    -1.9730 H     1 <1>   0.0800 
 52 H       -7.1160    -7.5770    -0.7300 H     1 <1>   0.0800 
@<TRIPOS>BOND
  1   1   2  2   
  2   2   3  am  
  3   2   4  1   
  4   3   5  1   
  5   3   6  1   
  6   4   7  2   
  7   4   8  1   
  8   5   9  1   
  9   5  28  1   
 10   5  29  1   
 11   6  10  1   
 12   6  30  1   
 13   6  31  1   
 14   7  11  1   
 15   8  12  2   
 16   8  13  1   
 17   9  14  1   
 18   9  32  1   
 19   9  33  1   
 20  10  14  1   
 21  10  34  1   
 22  10  35  1   
 23  11  12  1   
 24  11  36  1   
 25  12  15  1   
 26  13  16  1   
 27  13  37  1   
 28  13  38  1   
 29  14  17  1   
 30  14  18  1   
 31  15  16  1   
 32  15  39  1   
 33  15  40  1   
 34  16  41  1   
 35  16  42  1   
 36  17  19  1   
 37  18  20  ar  
 38  18  21  ar  
 39  19  22  1   
 40  19  43  1   
 41  19  44  1   
 42  20  22  1   
 43  20  23  ar  
 44  21  24  ar  
 45  21  45  1   
 46  22  46  1   
 47  22  47  1   
 48  23  25  ar  
 49  23  48  1   
 50  24  25  ar  
 51  24  49  1   
 52  25  26  1   
 53  26  27  1   
 54  27  50  1   
 55  27  51  1   
 56  27  52  1   
@<TRIPOS>SUBSTRUCTURE
  1 ****  10 GROUP 4 **** **** 0

# MOE 2024.06 (io_trps.svl 2023.06)
