@<TRIPOS>MOLECULE
NONAME
55 58 1 0 0 
SMALL
USER_CHARGES


@<TRIPOS>ATOM
  1 O       -2.2910    -5.5560    -1.0630 O.3   1 <1>  -0.5600 
  2 C       -1.1210    -5.1610    -0.4080 C.3   1 <1>   0.2000 
  3 C       -3.4230    -5.6440    -0.2410 C.3   1 <1>   0.1200 
  4 C       -1.2560    -3.6690    -0.0390 C.3   1 <1>  -0.1600 
  5 C        0.0700    -5.4690    -1.3350 C.3   1 <1>   0.2090 
  6 C       -3.5040    -4.4740     0.7590 C.3   1 <1>  -0.1600 
  7 C       -2.7080    -3.2600     0.2690 C.3   1 <1>  -0.1600 
  8 N        1.4250    -5.1550    -0.7500 N.pl3 1 <1>  -0.8220 
  9 C        1.6420    -5.4370     0.6110 C.2   1 <1>   0.2700 
 10 C        2.0400    -3.9050    -1.2790 C.3   1 <1>   0.2090 
 11 N        1.8260    -4.5530     1.5290 N.2   1 <1>  -0.3380 
 12 N        1.7100    -6.6470     1.1670 N.pl3 1 <1>   0.3140 
 13 C        3.5230    -4.1580    -1.5250 C.3   1 <1>  -0.2400 
 14 N        2.0050    -5.2270     2.6620 N.2   1 <1>   0.0000 
 15 N        1.9440    -6.4900     2.4620 N.2   1 <1>  -0.4180 
 16 C        1.6290    -7.9700     0.5230 C.3   1 <1>   0.2390 
 17 C        0.1870    -8.4570     0.4140 C.ar  1 <1>  -0.1440 
 18 C       -0.2840    -8.9660    -0.7870 C.ar  1 <1>  -0.1500 
 19 C       -0.6760    -8.3920     1.4980 C.ar  1 <1>  -0.1500 
 20 C       -1.6010    -9.3670    -0.9080 C.ar  1 <1>  -0.1500 
 21 C       -1.9910    -8.7960     1.3710 C.ar  1 <1>  -0.1500 
 22 C       -2.4830    -9.2790     0.1630 C.ar  1 <1>   0.0000 
 23 C       -3.8690    -9.6600     0.0200 C.ar  1 <1>   0.0000 
 24 C       -4.4490   -10.6040     0.8620 C.ar  1 <1>  -0.1500 
 25 C       -4.6660    -9.0840    -0.9650 C.ar  1 <1>  -0.1500 
 26 C       -5.7790   -10.9600     0.7280 C.ar  1 <1>  -0.1500 
 27 C       -5.9960    -9.4360    -1.1050 C.ar  1 <1>  -0.1500 
 28 C       -6.5550   -10.3760    -0.2570 C.ar  1 <1>  -0.1500 
 29 H       -1.0380    -5.7600     0.4820 H     1 <1>   0.0800 
 30 H       -3.3930    -6.5860     0.2800 H     1 <1>   0.0800 
 31 H       -4.2810    -5.6380    -0.8900 H     1 <1>   0.0800 
 32 H       -0.8790    -3.0550    -0.8370 H     1 <1>   0.0800 
 33 H       -0.6400    -3.4820     0.8230 H     1 <1>   0.0800 
 34 H       -0.0700    -4.9220    -2.2500 H     1 <1>   0.0800 
 35 H        0.0430    -6.5110    -1.5880 H     1 <1>   0.0800 
 36 H       -3.1080    -4.8000     1.7050 H     1 <1>   0.0800 
 37 H       -4.5340    -4.2100     0.9190 H     1 <1>   0.0800 
 38 H       -3.1660    -2.8960    -0.6350 H     1 <1>   0.0800 
 39 H       -2.7280    -2.4690     0.9980 H     1 <1>   0.0800 
 40 H        1.9120    -3.0980    -0.5760 H     1 <1>   0.0800 
 41 H        1.5750    -3.6160    -2.2060 H     1 <1>   0.0800 
 42 H        4.0160    -4.3980    -0.6000 H     1 <1>   0.0800 
 43 H        3.9770    -3.2750    -1.9340 H     1 <1>   0.0800 
 44 H        3.6500    -4.9670    -2.2210 H     1 <1>   0.0800 
 45 H        2.2020    -8.6670     1.1060 H     1 <1>   0.0800 
 46 H        2.0740    -7.8930    -0.4520 H     1 <1>   0.0800 
 47 H        0.3660    -9.0450    -1.6410 H     1 <1>   0.1500 
 48 H       -0.3350    -8.0180     2.4500 H     1 <1>   0.1500 
 49 H       -1.9580    -9.7520    -1.8470 H     1 <1>   0.1500 
 50 H       -2.6520    -8.7290     2.2170 H     1 <1>   0.1500 
 51 H       -3.8480   -11.0640     1.6260 H     1 <1>   0.1500 
 52 H       -4.2360    -8.3510    -1.6260 H     1 <1>   0.1500 
 53 H       -6.2100   -11.6930     1.3870 H     1 <1>   0.1500 
 54 H       -6.5960    -8.9800    -1.8730 H     1 <1>   0.1500 
 55 H       -7.5900   -10.6520    -0.3640 H     1 <1>   0.1500 
@<TRIPOS>BOND
  1   1   2  1   
  2   1   3  1   
  3   2   4  1   
  4   2   5  1   
  5   2  29  1   
  6   3   6  1   
  7   3  30  1   
  8   3  31  1   
  9   4   7  1   
 10   4  32  1   
 11   4  33  1   
 12   5   8  1   
 13   5  34  1   
 14   5  35  1   
 15   6   7  1   
 16   6  36  1   
 17   6  37  1   
 18   7  38  1   
 19   7  39  1   
 20   8   9  1   
 21   8  10  1   
 22   9  11  2   
 23   9  12  1   
 24  10  13  1   
 25  10  40  1   
 26  10  41  1   
 27  11  14  1   
 28  12  15  1   
 29  12  16  1   
 30  13  42  1   
 31  13  43  1   
 32  13  44  1   
 33  14  15  2   
 34  16  17  1   
 35  16  45  1   
 36  16  46  1   
 37  17  18  ar  
 38  17  19  ar  
 39  18  20  ar  
 40  18  47  1   
 41  19  21  ar  
 42  19  48  1   
 43  20  22  ar  
 44  20  49  1   
 45  21  22  ar  
 46  21  50  1   
 47  22  23  1   
 48  23  24  ar  
 49  23  25  ar  
 50  24  26  ar  
 51  24  51  1   
 52  25  27  ar  
 53  25  52  1   
 54  26  28  ar  
 55  26  53  1   
 56  27  28  ar  
 57  27  54  1   
 58  28  55  1   
@<TRIPOS>SUBSTRUCTURE
  1 ****   2 GROUP 4 **** **** 0

# MOE 2024.06 (io_trps.svl 2023.06)
