@<TRIPOS>MOLECULE
NONAME
69 71 1 0 0 
SMALL
USER_CHARGES


@<TRIPOS>ATOM
  1 O        1.3890    -0.6280    -1.1490 O.3   1 <1>  -0.3630 
  2 C        0.8620    -1.8520    -1.3930 C.ar  1 <1>   0.0830 
  3 C        1.6520    -0.2800     0.1940 C.3   1 <1>   0.2580 
  4 C        1.4650    -3.0490    -0.9930 C.ar  1 <1>   0.0820 
  5 C       -0.3390    -1.8950    -2.0810 C.ar  1 <1>  -0.1500 
  6 C        1.8070     1.2290     0.2600 C.2   1 <1>  -0.2880 
  7 O        2.6610    -3.0960    -0.3620 O.3   1 <1>  -0.3630 
  8 C        0.8350    -4.2560    -1.2430 C.ar  1 <1>  -0.1500 
  9 C       -0.9600    -3.1050    -2.3390 C.ar  1 <1>  -0.1500 
 10 C        1.1680     2.1060     1.0450 C.2   1 <1>  -0.2760 
 11 C        3.7880    -2.7220    -1.1250 C.3   1 <1>   0.1200 
 12 C       -0.3830    -4.2930    -1.9100 C.ar  1 <1>  -0.1430 
 13 C        1.4510     3.5970     0.9650 C.3   1 <1>  -0.1020 
 14 C        0.1100     1.7750     2.0890 C.3   1 <1>  -0.1020 
 15 C        5.0210    -2.8440    -0.2370 C.3   1 <1>  -0.2400 
 16 C       -1.0730    -5.6180    -2.1650 C.3   1 <1>   0.4860 
 17 N       -1.6440    -6.1010    -0.8730 N.4   1 <1>  -0.9590 
 18 C       -2.0820    -7.5430    -0.9690 C.3   1 <1>   0.3430 
 19 C       -2.7590    -5.2030    -0.4400 C.3   1 <1>   0.3430 
 20 C       -2.7550    -8.0880     0.3340 C.3   1 <1>   0.4230 
 21 C       -3.3270    -5.6870     0.8970 C.3   1 <1>  -0.1600 
 22 N       -3.1720    -9.5590     0.2970 N.4   1 <1>  -0.9590 
 23 C       -3.8710    -7.1420     0.8670 C.3   1 <1>   0.0000 
 24 C       -4.1100    -9.9510     1.4060 C.3   1 <1>   0.3430 
 25 C       -3.7510   -10.0250    -1.0100 C.3   1 <1>   0.2630 
 26 C       -4.2140    -7.5620     2.3250 C.3   1 <1>  -0.1600 
 27 C       -5.1840    -7.1840     0.0300 C.3   1 <1>   0.1200 
 28 C       -3.9320    -9.0480     2.6280 C.3   1 <1>  -0.1600 
 29 O       -4.9310    -7.0680    -1.3300 O.3   1 <1>  -0.6800 
 30 H        0.8400    -0.6320     0.8010 H     1 <1>   0.0800 
 31 H        2.5640    -0.7570     0.5020 H     1 <1>   0.0800 
 32 H       -0.7820    -0.9690    -2.4070 H     1 <1>   0.1500 
 33 H        2.5460     1.5530    -0.4520 H     1 <1>   0.1500 
 34 H        1.3280    -5.1540    -0.9150 H     1 <1>   0.1500 
 35 H       -1.8920    -3.0980    -2.8790 H     1 <1>   0.1500 
 36 H        3.8580    -3.3810    -1.9740 H     1 <1>   0.0800 
 37 H        3.6630    -1.7090    -1.4670 H     1 <1>   0.0800 
 38 H        1.8070     3.9600     1.9120 H     1 <1>   0.0800 
 39 H        0.5550     4.1310     0.7020 H     1 <1>   0.0800 
 40 H        2.1980     3.8050     0.2200 H     1 <1>   0.0800 
 41 H       -0.8170     2.2600     1.8370 H     1 <1>   0.0800 
 42 H        0.4270     2.1240     3.0560 H     1 <1>   0.0800 
 43 H       -0.0740     0.7210     2.1610 H     1 <1>   0.0800 
 44 H        5.1360    -3.8570     0.1040 H     1 <1>   0.0800 
 45 H        4.9350    -2.1860     0.6090 H     1 <1>   0.0800 
 46 H        5.8980    -2.5690    -0.7950 H     1 <1>   0.0800 
 47 H       -0.3490    -6.3210    -2.5430 H     1 <1>   0.0800 
 48 H       -1.8510    -5.4970    -2.9010 H     1 <1>   0.0800 
 49 H       -0.8840    -5.9860    -0.1870 H     1 <1>   0.4500 
 50 H       -2.7820    -7.6340    -1.7810 H     1 <1>   0.0800 
 51 H       -1.2250    -8.1550    -1.1960 H     1 <1>   0.0800 
 52 H       -2.3950    -4.1920    -0.3270 H     1 <1>   0.0800 
 53 H       -3.5370    -5.1920    -1.1870 H     1 <1>   0.0800 
 54 H       -1.9790    -8.0300     1.0800 H     1 <1>   0.0800 
 55 H       -2.5510    -5.5890     1.6370 H     1 <1>   0.0800 
 56 H       -4.1160    -5.0150     1.1910 H     1 <1>   0.0800 
 57 H       -2.3190   -10.1150     0.4620 H     1 <1>   0.4500 
 58 H       -5.1310    -9.8690     1.0680 H     1 <1>   0.0800 
 59 H       -3.9410   -10.9790     1.6850 H     1 <1>   0.0800 
 60 H       -4.6510    -9.4800    -1.2430 H     1 <1>   0.0800 
 61 H       -3.9960   -11.0750    -0.9560 H     1 <1>   0.0800 
 62 H       -3.0470    -9.8870    -1.8130 H     1 <1>   0.0800 
 63 H       -3.6500    -6.9820     3.0380 H     1 <1>   0.0800 
 64 H       -5.2510    -7.3500     2.5310 H     1 <1>   0.0800 
 65 H       -5.8360    -6.3740     0.3160 H     1 <1>   0.0800 
 66 H       -5.7190    -8.1040     0.1820 H     1 <1>   0.0800 
 67 H       -4.5980    -9.3790     3.4090 H     1 <1>   0.0800 
 68 H       -2.9310    -9.1670     3.0070 H     1 <1>   0.0800 
 69 H       -5.7770    -6.9380    -1.8210 H     1 <1>   0.4000 
@<TRIPOS>BOND
  1   1   2  1   
  2   1   3  1   
  3   2   4  ar  
  4   2   5  ar  
  5   3   6  1   
  6   3  30  1   
  7   3  31  1   
  8   4   7  1   
  9   4   8  ar  
 10   5   9  ar  
 11   5  32  1   
 12   6  10  2   
 13   6  33  1   
 14   7  11  1   
 15   8  12  ar  
 16   8  34  1   
 17   9  12  ar  
 18   9  35  1   
 19  10  13  1   
 20  10  14  1   
 21  11  15  1   
 22  11  36  1   
 23  11  37  1   
 24  12  16  1   
 25  13  38  1   
 26  13  39  1   
 27  13  40  1   
 28  14  41  1   
 29  14  42  1   
 30  14  43  1   
 31  15  44  1   
 32  15  45  1   
 33  15  46  1   
 34  16  17  1   
 35  16  47  1   
 36  16  48  1   
 37  17  18  1   
 38  17  19  1   
 39  17  49  1   
 40  18  20  1   
 41  18  50  1   
 42  18  51  1   
 43  19  21  1   
 44  19  52  1   
 45  19  53  1   
 46  20  22  1   
 47  20  23  1   
 48  20  54  1   
 49  21  23  1   
 50  21  55  1   
 51  21  56  1   
 52  22  24  1   
 53  22  25  1   
 54  22  57  1   
 55  23  26  1   
 56  23  27  1   
 57  24  28  1   
 58  24  58  1   
 59  24  59  1   
 60  25  60  1   
 61  25  61  1   
 62  25  62  1   
 63  26  28  1   
 64  26  63  1   
 65  26  64  1   
 66  27  29  1   
 67  27  65  1   
 68  27  66  1   
 69  28  67  1   
 70  28  68  1   
 71  29  69  1   
@<TRIPOS>SUBSTRUCTURE
  1 ****  12 GROUP 4 **** **** 0

# MOE 2024.06 (io_trps.svl 2023.06)
