@<TRIPOS>MOLECULE
NONAME
44 45 1 0 0 
SMALL
USER_CHARGES


@<TRIPOS>ATOM
  1 S        0.4200    -0.0580    -0.1580 S.o2  1 <1>   1.3330 
  2 O        0.1070    -0.8680    -1.3140 O.2   1 <1>  -0.6500 
  3 O        0.6560    -0.6970     1.1170 O.2   1 <1>  -0.6500 
  4 N       -0.8300     1.0730     0.0410 N.am  1 <1>  -0.8490 
  5 C        1.8390     0.9700    -0.5250 C.3   1 <1>  -0.0550 
  6 C       -1.9110     0.5540     0.8830 C.3   1 <1>   0.1160 
  7 C       -1.3790     1.5620    -1.2290 C.3   1 <1>   0.1160 
  8 C        3.1270     0.1650    -0.7880 C.3   1 <1>  -0.0800 
  9 C        4.3090     0.9930    -1.2700 C.3   1 <1>   0.2200 
 10 C        3.6910    -0.5570     0.4440 C.3   1 <1>   0.1200 
 11 N        4.3990     2.2690    -0.5220 N.am  1 <1>  -0.7300 
 12 C        5.4650     0.0980    -0.8500 C.3   1 <1>   0.1200 
 13 O        5.0830    -0.4190     0.3870 O.3   1 <1>  -0.5600 
 14 C        3.9430     3.4790    -0.9530 C.2   1 <1>   0.5440 
 15 O        3.3620     3.5290    -2.0190 O.2   1 <1>  -0.5700 
 16 C        4.0910     4.6620    -0.1260 C.ar  1 <1>   0.0860 
 17 C        5.3210     5.0980     0.3890 C.ar  1 <1>  -0.1440 
 18 C        2.9450     5.4000     0.1870 C.ar  1 <1>  -0.1500 
 19 C        5.3310     6.2160     1.2120 C.ar  1 <1>   0.1900 
 20 C        6.6290     4.3780     0.0520 C.3   1 <1>  -0.0970 
 21 C        2.9850     6.5180     1.0010 C.ar  1 <1>  -0.1500 
 22 F        6.4590     6.6310     1.7260 F     1 <1>  -0.1900 
 23 C        4.1930     6.9320     1.5280 C.ar  1 <1>  -0.1500 
 24 H        1.6260     1.5570    -1.3970 H     1 <1>   0.0800 
 25 H        1.9950     1.6460     0.2920 H     1 <1>   0.0800 
 26 H       -2.6790     1.2980     1.0060 H     1 <1>   0.0800 
 27 H       -1.5300     0.3010     1.8580 H     1 <1>   0.0800 
 28 H       -2.3400    -0.3300     0.4400 H     1 <1>   0.0800 
 29 H       -2.1120     2.3280    -1.0440 H     1 <1>   0.0800 
 30 H       -1.8440     0.7560    -1.7740 H     1 <1>   0.0800 
 31 H       -0.5960     1.9830    -1.8360 H     1 <1>   0.0800 
 32 H        2.9160    -0.5800    -1.5360 H     1 <1>   0.0800 
 33 H        4.2910     1.1740    -2.3320 H     1 <1>   0.0800 
 34 H        3.4420    -1.6050     0.4420 H     1 <1>   0.0800 
 35 H        3.3550    -0.1090     1.3630 H     1 <1>   0.0800 
 36 H        4.7840     2.1720     0.4220 H     1 <1>   0.3700 
 37 H        6.3940     0.6300    -0.7520 H     1 <1>   0.0800 
 38 H        5.5810    -0.7260    -1.5330 H     1 <1>   0.0800 
 39 H        2.0010     5.0820    -0.2240 H     1 <1>   0.1500 
 40 H        6.6090     4.0000    -0.9550 H     1 <1>   0.0800 
 41 H        6.7850     3.5590     0.7310 H     1 <1>   0.0800 
 42 H        7.4700     5.0450     0.1250 H     1 <1>   0.0800 
 43 H        2.0820     7.0610     1.2230 H     1 <1>   0.1500 
 44 H        4.2570     7.7930     2.1680 H     1 <1>   0.1500 
@<TRIPOS>BOND
  1   1   2  2   
  2   1   3  2   
  3   1   4  am  
  4   1   5  1   
  5   4   6  1   
  6   4   7  1   
  7   5   8  1   
  8   5  24  1   
  9   5  25  1   
 10   6  26  1   
 11   6  27  1   
 12   6  28  1   
 13   7  29  1   
 14   7  30  1   
 15   7  31  1   
 16   8   9  1   
 17   8  10  1   
 18   8  32  1   
 19   9  11  1   
 20   9  12  1   
 21   9  33  1   
 22  10  13  1   
 23  10  34  1   
 24  10  35  1   
 25  11  14  am  
 26  11  36  1   
 27  12  13  1   
 28  12  37  1   
 29  12  38  1   
 30  14  15  2   
 31  14  16  1   
 32  16  17  ar  
 33  16  18  ar  
 34  17  19  ar  
 35  17  20  1   
 36  18  21  ar  
 37  18  39  1   
 38  19  22  1   
 39  19  23  ar  
 40  20  40  1   
 41  20  41  1   
 42  20  42  1   
 43  21  23  ar  
 44  21  43  1   
 45  23  44  1   
@<TRIPOS>SUBSTRUCTURE
  1 ****  11 GROUP 4 **** **** 0

# MOE 2024.06 (io_trps.svl 2023.06)
