@<TRIPOS>MOLECULE
NONAME
50 52 1 0 0 
SMALL
USER_CHARGES


@<TRIPOS>ATOM
  1 O        2.5220    -0.3410    -0.7920 O.2   1 <1>  -0.5700 
  2 C        2.9390    -0.8350     0.2520 C.2   1 <1>   0.6160 
  3 N        2.2950    -1.9520     0.7740 N.am  1 <1>  -0.4690 
  4 C        4.0840    -0.3170     0.9370 C.2   1 <1>   0.0290 
  5 C        2.7800    -2.5800     1.8970 C.2   1 <1>  -0.0410 
  6 C        1.0900    -2.4900     0.0880 C.3   1 <1>   0.0600 
  7 C        4.7100     0.8650     0.4220 C.2   1 <1>   0.6160 
  8 C        4.5520    -0.9720     2.0490 C.2   1 <1>  -0.1500 
  9 C        3.8890    -2.1150     2.5330 C.2   1 <1>  -0.1500 
 10 O        5.9140     0.9170     0.2340 O.2   1 <1>  -0.5700 
 11 N        4.0150     2.0220     0.1820 N.am  1 <1>  -0.6600 
 12 C        3.8480     2.5290    -1.2160 C.3   1 <1>   0.1400 
 13 C        3.7660     2.9960     1.2700 C.3   1 <1>   0.1400 
 14 C        5.1520     3.1220    -1.7880 C.3   1 <1>   0.3430 
 15 C        4.9870     3.9050     1.4760 C.3   1 <1>  -0.1600 
 16 N        6.0920     3.5740    -0.7140 N.4   1 <1>  -0.9590 
 17 C        5.5090     4.5910     0.2090 C.3   1 <1>   0.3430 
 18 C        7.4450     3.9030    -1.2350 C.3   1 <1>   0.5240 
 19 C        8.3640     4.2060    -0.0760 C.2   1 <1>  -0.1810 
 20 C        8.9300     3.3750     0.8140 C.2   1 <1>  -0.0400 
 21 C        8.8150     5.4650     0.3250 C.2   1 <1>   0.1080 
 22 O        9.6090     4.1000     1.6600 O.3   1 <1>  -0.0190 
 23 C        8.9180     1.8690     0.9870 C.3   1 <1>  -0.0600 
 24 N        9.5450     5.3670     1.3740 N.2   1 <1>  -0.4100 
 25 C        8.5300     6.7910    -0.3520 C.3   1 <1>  -0.0590 
 26 H        2.2570    -3.4520     2.2540 H     1 <1>   0.1500 
 27 H        0.3490    -1.7150     0.0000 H     1 <1>   0.0800 
 28 H        0.6720    -3.3120     0.6420 H     1 <1>   0.0800 
 29 H        1.3590    -2.8290    -0.8970 H     1 <1>   0.0800 
 30 H        5.4280    -0.6240     2.5710 H     1 <1>   0.1500 
 31 H        4.2750    -2.6090     3.4090 H     1 <1>   0.1500 
 32 H        3.0730     3.2750    -1.2360 H     1 <1>   0.0800 
 33 H        3.5220     1.7240    -1.8540 H     1 <1>   0.0800 
 34 H        3.5570     2.4640     2.1840 H     1 <1>   0.0800 
 35 H        2.8960     3.5850     1.0310 H     1 <1>   0.0800 
 36 H        4.9170     3.9340    -2.4560 H     1 <1>   0.0800 
 37 H        5.6320     2.3500    -2.3680 H     1 <1>   0.0800 
 38 H        5.7830     3.3460     1.9350 H     1 <1>   0.0800 
 39 H        4.7090     4.6710     2.1780 H     1 <1>   0.0800 
 40 H        6.2120     2.7180    -0.1310 H     1 <1>   0.4500 
 41 H        6.2640     5.3010     0.5020 H     1 <1>   0.0800 
 42 H        4.7130     5.1310    -0.2780 H     1 <1>   0.0800 
 43 H        7.3970     4.7520    -1.8960 H     1 <1>   0.0800 
 44 H        7.8370     3.0620    -1.7840 H     1 <1>   0.0800 
 45 H        8.4600     1.3880     0.1440 H     1 <1>   0.0800 
 46 H        8.3780     1.6060     1.8790 H     1 <1>   0.0800 
 47 H        9.9270     1.5080     1.0780 H     1 <1>   0.0800 
 48 H        7.4740     6.9730    -0.4060 H     1 <1>   0.0800 
 49 H        8.9490     6.7970    -1.3410 H     1 <1>   0.0800 
 50 H        8.9850     7.5890     0.2100 H     1 <1>   0.0800 
@<TRIPOS>BOND
  1   1   2  2   
  2   2   3  am  
  3   2   4  1   
  4   3   5  1   
  5   3   6  1   
  6   4   7  1   
  7   4   8  2   
  8   5   9  2   
  9   5  26  1   
 10   6  27  1   
 11   6  28  1   
 12   6  29  1   
 13   7  10  2   
 14   7  11  am  
 15   8   9  1   
 16   8  30  1   
 17   9  31  1   
 18  11  12  1   
 19  11  13  1   
 20  12  14  1   
 21  12  32  1   
 22  12  33  1   
 23  13  15  1   
 24  13  34  1   
 25  13  35  1   
 26  14  16  1   
 27  14  36  1   
 28  14  37  1   
 29  15  17  1   
 30  15  38  1   
 31  15  39  1   
 32  16  17  1   
 33  16  18  1   
 34  16  40  1   
 35  17  41  1   
 36  17  42  1   
 37  18  19  1   
 38  18  43  1   
 39  18  44  1   
 40  19  20  2   
 41  19  21  1   
 42  20  22  1   
 43  20  23  1   
 44  21  24  2   
 45  21  25  1   
 46  22  24  1   
 47  23  45  1   
 48  23  46  1   
 49  23  47  1   
 50  25  48  1   
 51  25  49  1   
 52  25  50  1   
@<TRIPOS>SUBSTRUCTURE
  1 ****  10 GROUP 4 **** **** 0

# MOE 2024.06 (io_trps.svl 2023.06)
