@<TRIPOS>MOLECULE
NONAME
43 44 1 0 0 
SMALL
USER_CHARGES


@<TRIPOS>ATOM
  1 S       -0.2670     0.3050     0.0110 S.o2  1 <1>   1.3330 
  2 O       -0.8000     1.6440     0.1180 O.2   1 <1>  -0.6500 
  3 O       -0.4910    -0.6370     1.0850 O.2   1 <1>  -0.6500 
  4 N       -0.8670    -0.3910    -1.4160 N.am  1 <1>  -0.8490 
  5 C        1.4870     0.4440    -0.3330 C.3   1 <1>  -0.0550 
  6 C       -2.2600    -0.0140    -1.6750 C.3   1 <1>   0.1160 
  7 C       -0.7310    -1.8510    -1.4520 C.3   1 <1>   0.1160 
  8 C        2.2930     1.1020     0.8060 C.3   1 <1>  -0.0800 
  9 C        3.7100     1.4150     0.3580 C.3   1 <1>   0.2890 
 10 C        2.5470     0.1250     1.9540 C.3   1 <1>   0.1200 
 11 N        4.2550     2.5100     1.1980 N.pl3 1 <1>  -0.8690 
 12 C        4.4480     0.1090     0.6530 C.3   1 <1>   0.1200 
 13 O        3.6880    -0.5920     1.5980 O.3   1 <1>  -0.5600 
 14 C        5.2280     3.3790     0.7900 C.ar  1 <1>   0.4100 
 15 N        5.6530     3.2870    -0.4640 N.ar  1 <1>  -0.6200 
 16 C        5.7410     4.3090     1.6880 C.ar  1 <1>  -0.1500 
 17 C        6.5970     4.1360    -0.8260 C.ar  1 <1>   0.1600 
 18 C        6.7240     5.1810     1.2930 C.ar  1 <1>  -0.1500 
 19 C        7.1910     5.1110    -0.0190 C.ar  1 <1>   0.0860 
 20 C        8.2230     6.0040    -0.4860 C.2   1 <1>   0.4230 
 21 O        8.7470     6.8260     0.2220 O.2   1 <1>  -0.5700 
 22 C        8.7070     5.9480    -1.9230 C.3   1 <1>  -0.1790 
 23 H        1.8910    -0.5270    -0.5420 H     1 <1>   0.0800 
 24 H        1.5980     1.0410    -1.2180 H     1 <1>   0.0800 
 25 H       -2.6040    -0.4590    -2.5920 H     1 <1>   0.0800 
 26 H       -2.3400     1.0570    -1.7710 H     1 <1>   0.0800 
 27 H       -2.8910    -0.3360    -0.8630 H     1 <1>   0.0800 
 28 H       -1.0400    -2.2280    -2.4120 H     1 <1>   0.0800 
 29 H       -1.3390    -2.3050    -0.6860 H     1 <1>   0.0800 
 30 H        0.2940    -2.1350    -1.2900 H     1 <1>   0.0800 
 31 H        1.7820     1.9900     1.1380 H     1 <1>   0.0800 
 32 H        3.7630     1.6800    -0.6840 H     1 <1>   0.0800 
 33 H        1.7410    -0.5640     2.1320 H     1 <1>   0.0800 
 34 H        2.7670     0.6560     2.8650 H     1 <1>   0.0800 
 35 H        4.1660     2.3460     2.2020 H     1 <1>   0.4000 
 36 H        5.4360     0.2820     1.0410 H     1 <1>   0.0800 
 37 H        4.5070    -0.5000    -0.2310 H     1 <1>   0.0800 
 38 H        5.3550     4.3370     2.6890 H     1 <1>   0.1500 
 39 H        6.9260     4.0470    -1.8450 H     1 <1>   0.1500 
 40 H        7.1330     5.9080     1.9750 H     1 <1>   0.1500 
 41 H        7.8910     6.1350    -2.5960 H     1 <1>   0.0800 
 42 H        9.1390     4.9870    -2.1300 H     1 <1>   0.0800 
 43 H        9.4590     6.7000    -2.0830 H     1 <1>   0.0800 
@<TRIPOS>BOND
  1   1   2  2   
  2   1   3  2   
  3   1   4  am  
  4   1   5  1   
  5   4   6  1   
  6   4   7  1   
  7   5   8  1   
  8   5  23  1   
  9   5  24  1   
 10   6  25  1   
 11   6  26  1   
 12   6  27  1   
 13   7  28  1   
 14   7  29  1   
 15   7  30  1   
 16   8   9  1   
 17   8  10  1   
 18   8  31  1   
 19   9  11  1   
 20   9  12  1   
 21   9  32  1   
 22  10  13  1   
 23  10  33  1   
 24  10  34  1   
 25  11  14  1   
 26  11  35  1   
 27  12  13  1   
 28  12  36  1   
 29  12  37  1   
 30  14  15  ar  
 31  14  16  ar  
 32  15  17  ar  
 33  16  18  ar  
 34  16  38  1   
 35  17  19  ar  
 36  17  39  1   
 37  18  19  ar  
 38  18  40  1   
 39  19  20  1   
 40  20  21  2   
 41  20  22  1   
 42  22  41  1   
 43  22  42  1   
 44  22  43  1   
@<TRIPOS>SUBSTRUCTURE
  1 ****   9 GROUP 4 **** **** 0

# MOE 2024.06 (io_trps.svl 2023.06)
