@<TRIPOS>MOLECULE
NONAME
33 34 1 0 0 
SMALL
USER_CHARGES


@<TRIPOS>ATOM
  1 O       -1.2640    -0.9300    -0.3670 O.2   1 <1>  -0.5700 
  2 C       -1.9890     0.0250    -0.2010 C.2   1 <1>   0.5690 
  3 N       -3.1670    -0.1060     0.4920 N.am  1 <1>  -0.6600 
  4 C       -1.5460     1.3510    -0.8150 C.3   1 <1>  -0.0040 
  5 C       -3.4560    -1.3760     1.2230 C.3   1 <1>   0.3200 
  6 C       -4.3320     0.8230     0.4110 C.3   1 <1>   0.1400 
  7 C       -0.2430     1.8730    -0.1900 C.3   1 <1>  -0.1950 
  8 C       -4.0600    -2.4010     0.2800 C.2   1 <1>   0.0060 
  9 C       -4.3090     1.8160     1.5770 C.3   1 <1>   0.1200 
 10 C       -0.2490     2.7290     1.0360 C.3   1 <1>  -0.2000 
 11 C        0.1330     3.3160    -0.2950 C.3   1 <1>  -0.2000 
 12 N       -5.2550    -2.8920     0.3720 N.2   1 <1>  -0.5650 
 13 N       -3.3540    -2.8870    -0.7620 N.pl3 1 <1>   0.0330 
 14 O       -5.3640     2.7080     1.4490 O.3   1 <1>  -0.6800 
 15 C       -5.3310    -3.7450    -0.6690 C.2   1 <1>   0.0770 
 16 C       -4.1780    -3.7550    -1.3740 C.2   1 <1>  -0.3020 
 17 H       -2.3040     2.1010    -0.7190 H     1 <1>   0.0800 
 18 H       -1.3820     1.1870    -1.8640 H     1 <1>   0.0800 
 19 H       -4.1390    -1.1880     2.0330 H     1 <1>   0.0800 
 20 H       -2.5470    -1.7710     1.6430 H     1 <1>   0.0800 
 21 H       -5.2450     0.2510     0.4490 H     1 <1>   0.0800 
 22 H       -4.3170     1.3480    -0.5270 H     1 <1>   0.0800 
 23 H        0.5580     1.1560    -0.2770 H     1 <1>   0.1000 
 24 H       -3.3940     2.3790     1.5920 H     1 <1>   0.0800 
 25 H       -4.4320     1.2980     2.5120 H     1 <1>   0.0800 
 26 H        0.5210     2.5740     1.7720 H     1 <1>   0.1000 
 27 H       -1.1800     3.0360     1.4760 H     1 <1>   0.1000 
 28 H       -0.5450     4.0080    -0.7640 H     1 <1>   0.1000 
 29 H        1.1650     3.5690    -0.4710 H     1 <1>   0.1000 
 30 H       -2.3950    -2.5980    -1.0050 H     1 <1>   0.2700 
 31 H       -5.2370     3.3070     0.6880 H     1 <1>   0.4000 
 32 H       -6.2250    -4.3160    -0.8580 H     1 <1>   0.1500 
 33 H       -3.9070    -4.3140    -2.2510 H     1 <1>   0.1500 
@<TRIPOS>BOND
  1   1   2  2   
  2   2   3  am  
  3   2   4  1   
  4   3   5  1   
  5   3   6  1   
  6   4   7  1   
  7   4  17  1   
  8   4  18  1   
  9   5   8  1   
 10   5  19  1   
 11   5  20  1   
 12   6   9  1   
 13   6  21  1   
 14   6  22  1   
 15   7  10  1   
 16   7  11  1   
 17   7  23  1   
 18   8  12  2   
 19   8  13  1   
 20   9  14  1   
 21   9  24  1   
 22   9  25  1   
 23  10  11  1   
 24  10  26  1   
 25  10  27  1   
 26  11  28  1   
 27  11  29  1   
 28  12  15  1   
 29  13  16  1   
 30  13  30  1   
 31  14  31  1   
 32  15  16  2   
 33  15  32  1   
 34  16  33  1   
@<TRIPOS>SUBSTRUCTURE
  1 ****   3 GROUP 4 **** **** 0

# MOE 2024.06 (io_trps.svl 2023.06)
