@<TRIPOS>MOLECULE
NONAME
44 46 1 0 0 
SMALL
USER_CHARGES


@<TRIPOS>ATOM
  1 O       -0.7150    -0.6440    -0.6510 O.3   1 <1>  -0.6800 
  2 C        0.4970    -1.2200    -0.9980 C.3   1 <1>   0.1200 
  3 C        1.1900    -1.8350     0.2540 C.3   1 <1>   0.0000 
  4 C        2.5950    -2.3890    -0.1160 C.3   1 <1>   0.4230 
  5 C        1.3860    -0.7430     1.3420 C.3   1 <1>  -0.1600 
  6 C        0.3290    -2.9820     0.8630 C.3   1 <1>  -0.1600 
  7 N        2.5610    -3.5680    -1.0880 N.4   1 <1>  -0.9590 
  8 C        3.5760    -1.2640    -0.5200 C.3   1 <1>   0.2090 
  9 C        2.3360     0.3810     0.9180 C.3   1 <1>   0.2090 
 10 C        0.7780    -4.3940     0.4420 C.3   1 <1>  -0.1600 
 11 C        1.3260    -4.4140    -0.9810 C.3   1 <1>   0.3430 
 12 C        2.8190    -3.2260    -2.5250 C.3   1 <1>   0.2630 
 13 N        3.6480    -0.2030     0.5250 N.pl3 1 <1>  -0.8380 
 14 C        4.7310     0.6570     0.4950 C.ar  1 <1>   0.4100 
 15 N        5.3010     0.8530    -0.6850 N.ar  1 <1>  -0.6200 
 16 C        5.1690     1.2690     1.6660 C.ar  1 <1>  -0.1500 
 17 C        6.3360     1.6950    -0.7240 C.ar  1 <1>   0.3830 
 18 C        6.2330     2.1360     1.6340 C.ar  1 <1>  -0.1500 
 19 C        6.9760     1.9330    -1.9920 C.1   1 <1>   0.4840 
 20 C        6.8200     2.3460     0.4040 C.ar  1 <1>  -0.1500 
 21 N        7.5050     2.1360    -2.9840 N.1   1 <1>  -0.5570 
 22 H       -1.1450    -0.2060    -1.4140 H     1 <1>   0.4000 
 23 H        0.2910    -1.9710    -1.7380 H     1 <1>   0.0800 
 24 H        1.0990    -0.4490    -1.4460 H     1 <1>   0.0800 
 25 H        2.9900    -2.7750     0.8090 H     1 <1>   0.0800 
 26 H        1.7900    -1.1820     2.2380 H     1 <1>   0.0800 
 27 H        0.4380    -0.3100     1.6100 H     1 <1>   0.0800 
 28 H        0.3530    -2.9450     1.9390 H     1 <1>   0.0800 
 29 H       -0.7050    -2.8480     0.5900 H     1 <1>   0.0800 
 30 H        3.3380    -4.1730    -0.7850 H     1 <1>   0.4500 
 31 H        3.2770    -0.8060    -1.4460 H     1 <1>   0.0800 
 32 H        4.5580    -1.6850    -0.6460 H     1 <1>   0.0800 
 33 H        2.4660     1.0650     1.7400 H     1 <1>   0.0800 
 34 H        1.9250     0.9380     0.0930 H     1 <1>   0.0800 
 35 H       -0.0630    -5.0630     0.5090 H     1 <1>   0.0800 
 36 H        1.5300    -4.7630     1.1190 H     1 <1>   0.0800 
 37 H        0.5640    -4.0370    -1.6440 H     1 <1>   0.0800 
 38 H        1.5490    -5.4280    -1.2730 H     1 <1>   0.0800 
 39 H        2.0580    -2.5600    -2.8980 H     1 <1>   0.0800 
 40 H        2.8170    -4.1190    -3.1290 H     1 <1>   0.0800 
 41 H        3.7800    -2.7480    -2.6350 H     1 <1>   0.0800 
 42 H        4.6690     1.0510     2.5900 H     1 <1>   0.1500 
 43 H        6.5920     2.6250     2.5240 H     1 <1>   0.1500 
 44 H        7.6580     3.0170     0.3200 H     1 <1>   0.1500 
@<TRIPOS>BOND
  1   1   2  1   
  2   1  22  1   
  3   2   3  1   
  4   2  23  1   
  5   2  24  1   
  6   3   4  1   
  7   3   5  1   
  8   3   6  1   
  9   4   7  1   
 10   4   8  1   
 11   4  25  1   
 12   5   9  1   
 13   5  26  1   
 14   5  27  1   
 15   6  10  1   
 16   6  28  1   
 17   6  29  1   
 18   7  11  1   
 19   7  12  1   
 20   7  30  1   
 21   8  13  1   
 22   8  31  1   
 23   8  32  1   
 24   9  13  1   
 25   9  33  1   
 26   9  34  1   
 27  10  11  1   
 28  10  35  1   
 29  10  36  1   
 30  11  37  1   
 31  11  38  1   
 32  12  39  1   
 33  12  40  1   
 34  12  41  1   
 35  13  14  1   
 36  14  15  ar  
 37  14  16  ar  
 38  15  17  ar  
 39  16  18  ar  
 40  16  42  1   
 41  17  19  1   
 42  17  20  ar  
 43  18  20  ar  
 44  18  43  1   
 45  19  21  3   
 46  20  44  1   
@<TRIPOS>SUBSTRUCTURE
  1 ****   8 GROUP 4 **** **** 0

# MOE 2024.06 (io_trps.svl 2023.06)
