@<TRIPOS>MOLECULE
NONAME
60 62 1 0 0 
SMALL
USER_CHARGES


@<TRIPOS>ATOM
  1 O       -1.1970     0.1490    -0.5670 O.2   1 <1>  -0.5700 
  2 C       -2.0540     0.9800    -0.8120 C.2   1 <1>   0.5440 
  3 N       -3.3090     0.5120    -1.1420 N.am  1 <1>  -0.6600 
  4 C       -1.7650     2.3980    -0.7090 C.ar  1 <1>   0.0860 
  5 C       -3.4660    -0.9120    -1.5360 C.3   1 <1>   0.1400 
  6 C       -4.5200     1.0850    -0.4950 C.3   1 <1>   0.1400 
  7 C       -0.9280     2.8910     0.2880 C.ar  1 <1>  -0.1500 
  8 C       -2.3130     3.3230    -1.5960 C.ar  1 <1>  -0.1500 
  9 C       -3.7100    -1.7460    -0.2600 C.3   1 <1>   0.4230 
 10 C       -4.8070     0.2760     0.7780 C.3   1 <1>  -0.1600 
 11 C       -0.6530     4.2400     0.4210 C.ar  1 <1>   0.0820 
 12 C       -2.0580     4.6770    -1.4800 C.ar  1 <1>  -0.1500 
 13 N       -3.6650    -3.2510    -0.4850 N.4   1 <1>  -0.9590 
 14 C       -4.9630    -1.2540     0.5280 C.3   1 <1>   0.0000 
 15 O        0.1840     4.5550     1.4490 O.3   1 <1>  -0.3620 
 16 C       -1.2350     5.1610    -0.4660 C.ar  1 <1>   0.0820 
 17 C       -4.2910    -4.0530     0.6160 C.3   1 <1>   0.3430 
 18 C       -4.1680    -3.7230    -1.8160 C.3   1 <1>   0.2630 
 19 C       -5.0220    -1.9820     1.9050 C.3   1 <1>  -0.1600 
 20 C       -6.2550    -1.5370    -0.2900 C.3   1 <1>   0.1200 
 21 C        1.0920     5.6280     1.3470 C.3   1 <1>   0.1200 
 22 O       -1.0020     6.4920    -0.3140 O.3   1 <1>  -0.3630 
 23 C       -4.2290    -3.3020     1.9450 C.3   1 <1>  -0.1600 
 24 O       -7.3640    -0.9320     0.2760 O.3   1 <1>  -0.6800 
 25 C        2.2150     5.3940     2.3530 C.3   1 <1>  -0.2400 
 26 C       -1.5920     7.4720    -1.1370 C.3   1 <1>   0.1200 
 27 C       -1.1130     8.8380    -0.6550 C.3   1 <1>  -0.2400 
 28 H       -4.2800    -0.9920    -2.2320 H     1 <1>   0.0800 
 29 H       -2.5660    -1.2450    -2.0250 H     1 <1>   0.0800 
 30 H       -4.3610     2.1180    -0.2360 H     1 <1>   0.0800 
 31 H       -5.3560     1.0390    -1.1740 H     1 <1>   0.0800 
 32 H       -0.4740     2.2030     0.9790 H     1 <1>   0.1500 
 33 H       -2.9480     2.9720    -2.3910 H     1 <1>   0.1500 
 34 H       -2.8710    -1.5170     0.3780 H     1 <1>   0.0800 
 35 H       -3.9900     0.4530     1.4570 H     1 <1>   0.0800 
 36 H       -5.6860     0.6780     1.2520 H     1 <1>   0.0800 
 37 H       -2.5150     5.3380    -2.1910 H     1 <1>   0.1500 
 38 H       -2.6570    -3.4700    -0.4550 H     1 <1>   0.4500 
 39 H       -5.3260    -4.2470     0.3830 H     1 <1>   0.0800 
 40 H       -3.7880    -5.0030     0.7090 H     1 <1>   0.0800 
 41 H       -5.2110    -3.4790    -1.9340 H     1 <1>   0.0800 
 42 H       -4.0550    -4.7920    -1.9000 H     1 <1>   0.0800 
 43 H       -3.6120    -3.2630    -2.6160 H     1 <1>   0.0800 
 44 H       -4.6300    -1.3500     2.6850 H     1 <1>   0.0800 
 45 H       -6.0450    -2.1820     2.1740 H     1 <1>   0.0800 
 46 H       -6.4610    -2.5910    -0.3520 H     1 <1>   0.0800 
 47 H       -6.1810    -1.1480    -1.2900 H     1 <1>   0.0800 
 48 H        1.4770     5.6610     0.3430 H     1 <1>   0.0800 
 49 H        0.5660     6.5400     1.5730 H     1 <1>   0.0800 
 50 H       -4.6270    -3.9280     2.7260 H     1 <1>   0.0800 
 51 H       -3.1990    -3.1080     2.1930 H     1 <1>   0.0800 
 52 H       -7.5620    -1.2780     1.1690 H     1 <1>   0.4000 
 53 H        2.7240     4.4740     2.1280 H     1 <1>   0.0800 
 54 H        1.8130     5.3480     3.3490 H     1 <1>   0.0800 
 55 H        2.9220     6.2010     2.3030 H     1 <1>   0.0800 
 56 H       -1.2810     7.2980    -2.1530 H     1 <1>   0.0800 
 57 H       -2.6610     7.3920    -1.0500 H     1 <1>   0.0800 
 58 H       -0.0420     8.9030    -0.7300 H     1 <1>   0.0800 
 59 H       -1.4110     8.9940     0.3660 H     1 <1>   0.0800 
 60 H       -1.5470     9.6120    -1.2610 H     1 <1>   0.0800 
@<TRIPOS>BOND
  1   1   2  2   
  2   2   3  am  
  3   2   4  1   
  4   3   5  1   
  5   3   6  1   
  6   4   7  ar  
  7   4   8  ar  
  8   5   9  1   
  9   5  28  1   
 10   5  29  1   
 11   6  10  1   
 12   6  30  1   
 13   6  31  1   
 14   7  11  ar  
 15   7  32  1   
 16   8  12  ar  
 17   8  33  1   
 18   9  13  1   
 19   9  14  1   
 20   9  34  1   
 21  10  14  1   
 22  10  35  1   
 23  10  36  1   
 24  11  15  1   
 25  11  16  ar  
 26  12  16  ar  
 27  12  37  1   
 28  13  17  1   
 29  13  18  1   
 30  13  38  1   
 31  14  19  1   
 32  14  20  1   
 33  15  21  1   
 34  16  22  1   
 35  17  23  1   
 36  17  39  1   
 37  17  40  1   
 38  18  41  1   
 39  18  42  1   
 40  18  43  1   
 41  19  23  1   
 42  19  44  1   
 43  19  45  1   
 44  20  24  1   
 45  20  46  1   
 46  20  47  1   
 47  21  25  1   
 48  21  48  1   
 49  21  49  1   
 50  22  26  1   
 51  23  50  1   
 52  23  51  1   
 53  24  52  1   
 54  25  53  1   
 55  25  54  1   
 56  25  55  1   
 57  26  27  1   
 58  26  56  1   
 59  26  57  1   
 60  27  58  1   
 61  27  59  1   
 62  27  60  1   
@<TRIPOS>SUBSTRUCTURE
  1 ****   2 GROUP 4 **** **** 0

# MOE 2024.06 (io_trps.svl 2023.06)
