@<TRIPOS>MOLECULE
NONAME
46 48 1 0 0 
SMALL
USER_CHARGES


@<TRIPOS>ATOM
  1 O        0.9020     0.1830    -0.5940 O.3   1 <1>  -0.6800 
  2 C        2.1170     0.2500    -1.2710 C.3   1 <1>   0.2000 
  3 C        2.9340    -1.0200    -1.0300 C.3   1 <1>  -0.0800 
  4 C        2.9690     1.3660    -0.6500 C.3   1 <1>   0.1100 
  5 C        3.7030    -0.6920     0.2440 C.3   1 <1>   0.1100 
  6 C        2.1460    -2.3390    -0.9440 C.3   1 <1>   0.0210 
  7 N        4.0640     0.7180     0.1030 N.3   1 <1>  -0.8100 
  8 C        3.0780    -3.5170    -0.7430 C.2   1 <1>   0.1080 
  9 C        4.3100     1.3710     1.4010 C.3   1 <1>   0.2900 
 10 N        3.8640    -3.9560    -1.6760 N.2   1 <1>  -0.7070 
 11 C        3.2030    -4.2450     0.4360 C.2   1 <1>  -0.1500 
 12 C        4.8490     2.7820     1.2140 C.2   1 <1>   0.0060 
 13 N        4.5170    -4.9900    -1.1130 N.pl3 1 <1>   0.3000 
 14 C        4.1350    -5.1830     0.1680 C.2   1 <1>  -0.3320 
 15 N        4.3050     3.8350     1.7270 N.2   1 <1>  -0.3380 
 16 N        5.9420     3.0890     0.5040 N.pl3 1 <1>   0.0480 
 17 C        4.6900    -6.2720     1.0670 C.3   1 <1>  -0.0600 
 18 N        5.0420     4.8810     1.3520 N.2   1 <1>  -0.3380 
 19 C        6.0020     4.4170     0.6300 C.2   1 <1>   0.0360 
 20 C        6.8680     2.1990    -0.2460 C.3   1 <1>   0.1760 
 21 C        8.3080     2.3850     0.2470 C.3   1 <1>  -0.2400 
 22 C        6.7640     2.4730    -1.7500 C.3   1 <1>  -0.2400 
 23 H        0.3000    -0.4390    -1.0420 H     1 <1>   0.4000 
 24 H        1.9170     0.4310    -2.3130 H     1 <1>   0.0800 
 25 H        3.6560    -1.1070    -1.8230 H     1 <1>   0.0800 
 26 H        2.3620     1.9900    -0.0140 H     1 <1>   0.0800 
 27 H        3.3980     1.9780    -1.4230 H     1 <1>   0.0800 
 28 H        4.5810    -1.3080     0.3480 H     1 <1>   0.0800 
 29 H        3.0590    -0.8260     1.0980 H     1 <1>   0.0800 
 30 H        1.5990    -2.4920    -1.8560 H     1 <1>   0.0800 
 31 H        1.4450    -2.3080    -0.1290 H     1 <1>   0.0800 
 32 H        3.3970     1.4090     1.9720 H     1 <1>   0.0800 
 33 H        5.0300     0.8000     1.9590 H     1 <1>   0.0800 
 34 H        2.6600    -4.0740     1.3480 H     1 <1>   0.1500 
 35 H        5.2130    -5.5410    -1.6280 H     1 <1>   0.2700 
 36 H        4.2290    -6.2210     2.0380 H     1 <1>   0.0800 
 37 H        5.7520    -6.1520     1.1860 H     1 <1>   0.0800 
 38 H        4.4910    -7.2410     0.6450 H     1 <1>   0.0800 
 39 H        6.7680     5.0160     0.1750 H     1 <1>   0.1500 
 40 H        6.5810     1.1790    -0.0650 H     1 <1>   0.0800 
 41 H        8.6590     3.3820     0.0470 H     1 <1>   0.0800 
 42 H        8.9570     1.6900    -0.2540 H     1 <1>   0.0800 
 43 H        8.3640     2.1940     1.3050 H     1 <1>   0.0800 
 44 H        7.0550     3.4820    -1.9810 H     1 <1>   0.0800 
 45 H        5.7530     2.3100    -2.0800 H     1 <1>   0.0800 
 46 H        7.4030     1.7980    -2.2910 H     1 <1>   0.0800 
@<TRIPOS>BOND
  1   1   2  1   
  2   1  23  1   
  3   2   3  1   
  4   2   4  1   
  5   2  24  1   
  6   3   5  1   
  7   3   6  1   
  8   3  25  1   
  9   4   7  1   
 10   4  26  1   
 11   4  27  1   
 12   5   7  1   
 13   5  28  1   
 14   5  29  1   
 15   6   8  1   
 16   6  30  1   
 17   6  31  1   
 18   7   9  1   
 19   8  10  2   
 20   8  11  1   
 21   9  12  1   
 22   9  32  1   
 23   9  33  1   
 24  10  13  1   
 25  11  14  2   
 26  11  34  1   
 27  12  15  2   
 28  12  16  1   
 29  13  14  1   
 30  13  35  1   
 31  14  17  1   
 32  15  18  1   
 33  16  19  1   
 34  16  20  1   
 35  17  36  1   
 36  17  37  1   
 37  17  38  1   
 38  18  19  2   
 39  19  39  1   
 40  20  21  1   
 41  20  22  1   
 42  20  40  1   
 43  21  41  1   
 44  21  42  1   
 45  21  43  1   
 46  22  44  1   
 47  22  45  1   
 48  22  46  1   
@<TRIPOS>SUBSTRUCTURE
  1 ****   7 GROUP 4 **** **** 0

# MOE 2024.06 (io_trps.svl 2023.06)
