@<TRIPOS>MOLECULE
NONAME
49 51 1 0 0 
SMALL
USER_CHARGES


@<TRIPOS>ATOM
  1 S       -1.5430     1.1260    -1.2590 S.3   1 <1>  -0.0800 
  2 C       -1.8420     0.6990     0.4120 C.2   1 <1>   0.1980 
  3 C        0.0650     1.6180    -0.8150 C.2   1 <1>  -0.1100 
  4 N       -0.8520     0.9030     1.1890 N.2   1 <1>  -0.5650 
  5 C       -3.2130     0.1420     0.7560 C.3   1 <1>   0.3200 
  6 C        0.2340     1.4250     0.5040 C.2   1 <1>   0.0460 
  7 N       -3.3780    -1.2280     0.2130 N.am  1 <1>  -0.7300 
  8 C        1.4750     1.7130     1.3340 C.3   1 <1>   0.0210 
  9 C       -4.4300    -1.6530    -0.5310 C.2   1 <1>   0.5690 
 10 C        2.6370     2.2960     0.5200 C.3   1 <1>  -0.2400 
 11 O       -5.3840    -0.9390    -0.7220 O.2   1 <1>  -0.5700 
 12 C       -4.3970    -3.0610    -1.1340 C.3   1 <1>   0.2610 
 13 O       -3.0550    -3.5050    -1.2570 O.3   1 <1>  -0.5600 
 14 C       -5.2380    -4.0290    -0.2590 C.3   1 <1>   0.3640 
 15 C       -2.9340    -4.7650    -1.8700 C.3   1 <1>   0.1810 
 16 N       -4.8370    -5.4700    -0.4040 N.am  1 <1>  -0.6600 
 17 C       -6.7330    -3.8860    -0.5770 C.ar  1 <1>  -0.1430 
 18 C       -3.7600    -5.8410    -1.1640 C.2   1 <1>   0.5690 
 19 C       -5.6390    -6.4610     0.3730 C.3   1 <1>   0.0600 
 20 C       -7.6380    -3.3090     0.3140 C.ar  1 <1>  -0.1430 
 21 C       -7.1990    -4.3560    -1.8000 C.ar  1 <1>  -0.1500 
 22 O       -3.4390    -6.9960    -1.3150 O.2   1 <1>  -0.5700 
 23 C       -8.9760    -3.2110    -0.0380 C.ar  1 <1>  -0.1500 
 24 C       -7.2170    -2.7690     1.6750 C.3   1 <1>  -0.0970 
 25 C       -8.5340    -4.2540    -2.1420 C.ar  1 <1>  -0.1500 
 26 C       -9.4250    -3.6790    -1.2590 C.ar  1 <1>  -0.1500 
 27 H        0.7060     1.9980    -1.5880 H     1 <1>   0.1500 
 28 H       -3.9720     0.7960     0.3610 H     1 <1>   0.0800 
 29 H       -3.3170     0.1100     1.8260 H     1 <1>   0.0800 
 30 H       -2.5350    -1.8130     0.2310 H     1 <1>   0.3700 
 31 H        1.2080     2.4030     2.1150 H     1 <1>   0.0800 
 32 H        1.7930     0.7970     1.8010 H     1 <1>   0.0800 
 33 H        2.3450     3.2270     0.0660 H     1 <1>   0.0800 
 34 H        2.9360     1.6070    -0.2500 H     1 <1>   0.0800 
 35 H        3.4800     2.4780     1.1630 H     1 <1>   0.0800 
 36 H       -4.8150    -3.0050    -2.1230 H     1 <1>   0.0800 
 37 H       -5.0570    -3.7630     0.7650 H     1 <1>   0.0800 
 38 H       -3.2460    -4.6820    -2.8950 H     1 <1>   0.0800 
 39 H       -1.8960    -5.0430    -1.8450 H     1 <1>   0.0800 
 40 H       -5.7360    -6.1350     1.3930 H     1 <1>   0.0800 
 41 H       -5.1630    -7.4260     0.3650 H     1 <1>   0.0800 
 42 H       -6.6190    -6.5600    -0.0600 H     1 <1>   0.0800 
 43 H       -6.5200    -4.8150    -2.4980 H     1 <1>   0.1500 
 44 H       -9.6850    -2.7640     0.6370 H     1 <1>   0.1500 
 45 H       -8.0600    -2.3670     2.2080 H     1 <1>   0.0800 
 46 H       -6.4970    -1.9790     1.5560 H     1 <1>   0.0800 
 47 H       -6.7900    -3.5550     2.2720 H     1 <1>   0.0800 
 48 H       -8.8780    -4.6230    -3.0930 H     1 <1>   0.1500 
 49 H      -10.4660    -3.5950    -1.5190 H     1 <1>   0.1500 
@<TRIPOS>BOND
  1   1   2  1   
  2   1   3  1   
  3   2   4  2   
  4   2   5  1   
  5   3   6  2   
  6   3  27  1   
  7   4   6  1   
  8   5   7  1   
  9   5  28  1   
 10   5  29  1   
 11   6   8  1   
 12   7   9  am  
 13   7  30  1   
 14   8  10  1   
 15   8  31  1   
 16   8  32  1   
 17   9  11  2   
 18   9  12  1   
 19  10  33  1   
 20  10  34  1   
 21  10  35  1   
 22  12  13  1   
 23  12  14  1   
 24  12  36  1   
 25  13  15  1   
 26  14  16  1   
 27  14  17  1   
 28  14  37  1   
 29  15  18  1   
 30  15  38  1   
 31  15  39  1   
 32  16  18  am  
 33  16  19  1   
 34  17  20  ar  
 35  17  21  ar  
 36  18  22  2   
 37  19  40  1   
 38  19  41  1   
 39  19  42  1   
 40  20  23  ar  
 41  20  24  1   
 42  21  25  ar  
 43  21  43  1   
 44  23  26  ar  
 45  23  44  1   
 46  24  45  1   
 47  24  46  1   
 48  24  47  1   
 49  25  26  ar  
 50  25  48  1   
 51  26  49  1   
@<TRIPOS>SUBSTRUCTURE
  1 ****   9 GROUP 4 **** **** 0

# MOE 2024.06 (io_trps.svl 2023.06)
