@<TRIPOS>MOLECULE
NONAME
58 60 1 0 0 
SMALL
USER_CHARGES


@<TRIPOS>ATOM
  1 O       -1.1500     3.7210     3.7800 O.2   1 <1>  -0.5700 
  2 C       -0.8990     4.3330     2.7750 C.2   1 <1>   0.5690 
  3 N       -1.8910     4.8500     2.0160 N.am  1 <1>  -0.7300 
  4 C        0.5560     4.5130     2.3300 C.3   1 <1>   0.1810 
  5 C       -1.6520     5.6870     0.8190 C.3   1 <1>   0.3640 
  6 O        0.7280     5.5680     1.4020 O.3   1 <1>  -0.5600 
  7 C       -2.6230     5.2840    -0.2820 C.ar  1 <1>  -0.1440 
  8 C       -0.1890     5.5530     0.3180 C.3   1 <1>   0.2610 
  9 C       -2.8580     3.9470    -0.5810 C.ar  1 <1>   0.1600 
 10 C       -3.2780     6.2500    -1.0220 C.ar  1 <1>  -0.1500 
 11 C        0.1770     6.6720    -0.6720 C.2   1 <1>   0.5690 
 12 N       -3.6570     3.5140    -1.5400 N.ar  1 <1>  -0.6200 
 13 C       -4.1230     5.8140    -2.0190 C.ar  1 <1>  -0.1500 
 14 O       -0.3890     7.7420    -0.5690 O.2   1 <1>  -0.5700 
 15 N        1.1960     6.5350    -1.5940 N.am  1 <1>  -0.6600 
 16 C       -4.2740     4.4550    -2.2350 C.ar  1 <1>   0.1600 
 17 C        1.5880     7.6920    -2.4700 C.3   1 <1>   0.1400 
 18 C        1.9010     5.2530    -1.8890 C.3   1 <1>   0.1400 
 19 C        2.5400     8.6930    -1.7760 C.3   1 <1>   0.3430 
 20 C        3.1930     5.1690    -1.0820 C.3   1 <1>  -0.2400 
 21 N        2.0300     9.1300    -0.4400 N.4   1 <1>  -0.9590 
 22 C        2.0960    10.6010    -0.2390 C.3   1 <1>   0.3430 
 23 C        2.6620     8.3730     0.6780 C.3   1 <1>   0.3430 
 24 C        1.3690    10.9690     1.0550 C.3   1 <1>  -0.1600 
 25 C        1.9510     8.7070     1.9890 C.3   1 <1>  -0.1600 
 26 C        1.9450    10.2180     2.2640 C.3   1 <1>  -0.0800 
 27 C        1.1380    10.5300     3.5290 C.3   1 <1>  -0.2400 
 28 H       -2.8560     4.7480     2.3420 H     1 <1>   0.3700 
 29 H        0.9040     3.6020     1.8780 H     1 <1>   0.0800 
 30 H        1.1650     4.7270     3.1890 H     1 <1>   0.0800 
 31 H       -1.8410     6.7090     1.0970 H     1 <1>   0.0800 
 32 H       -0.0960     4.6040    -0.1700 H     1 <1>   0.0800 
 33 H       -2.3610     3.1860    -0.0030 H     1 <1>   0.1500 
 34 H       -3.1400     7.3030    -0.8390 H     1 <1>   0.1500 
 35 H       -4.6630     6.5180    -2.6270 H     1 <1>   0.1500 
 36 H       -4.9360     4.1260    -3.0180 H     1 <1>   0.1500 
 37 H        2.0570     7.3300    -3.3680 H     1 <1>   0.0800 
 38 H        0.6990     8.2170    -2.7780 H     1 <1>   0.0800 
 39 H        1.2750     4.4080    -1.6640 H     1 <1>   0.0800 
 40 H        2.1270     5.1940    -2.9420 H     1 <1>   0.0800 
 41 H        2.6500     9.5510    -2.4190 H     1 <1>   0.0800 
 42 H        3.5130     8.2430    -1.6680 H     1 <1>   0.0800 
 43 H        2.9850     5.1900    -0.0280 H     1 <1>   0.0800 
 44 H        3.8600     5.9700    -1.3390 H     1 <1>   0.0800 
 45 H        3.6900     4.2400    -1.3030 H     1 <1>   0.0800 
 46 H        1.0250     8.8590    -0.4170 H     1 <1>   0.4500 
 47 H        3.1250    10.9170    -0.1780 H     1 <1>   0.0800 
 48 H        1.6290    11.1090    -1.0670 H     1 <1>   0.0800 
 49 H        2.5830     7.3130     0.4960 H     1 <1>   0.0800 
 50 H        3.7050     8.6320     0.7540 H     1 <1>   0.0800 
 51 H        1.4590    12.0300     1.2160 H     1 <1>   0.0800 
 52 H        0.3220    10.7470     0.9440 H     1 <1>   0.0800 
 53 H        0.9420     8.3340     1.9450 H     1 <1>   0.0800 
 54 H        2.4470     8.1940     2.7940 H     1 <1>   0.0800 
 55 H        2.9600    10.5440     2.4240 H     1 <1>   0.0800 
 56 H        0.1130    10.2190     3.4180 H     1 <1>   0.0800 
 57 H        1.1530    11.5860     3.7330 H     1 <1>   0.0800 
 58 H        1.5580    10.0200     4.3780 H     1 <1>   0.0800 
@<TRIPOS>BOND
  1   1   2  2   
  2   2   3  am  
  3   2   4  1   
  4   3   5  1   
  5   3  28  1   
  6   4   6  1   
  7   4  29  1   
  8   4  30  1   
  9   5   7  1   
 10   5   8  1   
 11   5  31  1   
 12   6   8  1   
 13   7   9  ar  
 14   7  10  ar  
 15   8  11  1   
 16   8  32  1   
 17   9  12  ar  
 18   9  33  1   
 19  10  13  ar  
 20  10  34  1   
 21  11  14  2   
 22  11  15  am  
 23  12  16  ar  
 24  13  16  ar  
 25  13  35  1   
 26  15  17  1   
 27  15  18  1   
 28  16  36  1   
 29  17  19  1   
 30  17  37  1   
 31  17  38  1   
 32  18  20  1   
 33  18  39  1   
 34  18  40  1   
 35  19  21  1   
 36  19  41  1   
 37  19  42  1   
 38  20  43  1   
 39  20  44  1   
 40  20  45  1   
 41  21  22  1   
 42  21  23  1   
 43  21  46  1   
 44  22  24  1   
 45  22  47  1   
 46  22  48  1   
 47  23  25  1   
 48  23  49  1   
 49  23  50  1   
 50  24  26  1   
 51  24  51  1   
 52  24  52  1   
 53  25  26  1   
 54  25  53  1   
 55  25  54  1   
 56  26  27  1   
 57  26  55  1   
 58  27  56  1   
 59  27  57  1   
 60  27  58  1   
@<TRIPOS>SUBSTRUCTURE
  1 ****  11 GROUP 4 **** **** 0

# MOE 2024.06 (io_trps.svl 2023.06)
