@<TRIPOS>MOLECULE
NONAME
47 49 1 0 0 
SMALL
USER_CHARGES


@<TRIPOS>ATOM
  1 N       -1.5860    -0.5840    -0.5270 N.2   1 <1>  -0.7070 
  2 N       -1.2690     0.6930    -0.8330 N.pl3 1 <1>   0.3140 
  3 C       -1.1500    -1.2890    -1.5320 C.2   1 <1>   0.1080 
  4 C       -0.6510     0.7610    -2.0280 C.2   1 <1>  -0.3020 
  5 C       -1.5720     1.8290     0.0650 C.3   1 <1>   0.0960 
  6 C       -0.5570    -0.4970    -2.5080 C.2   1 <1>  -0.1500 
  7 C       -1.2890    -2.8060    -1.5930 C.3   1 <1>   0.5240 
  8 C       -0.4610     2.0230     1.1030 C.3   1 <1>  -0.2400 
  9 N       -2.3490    -3.2190    -0.6340 N.4   1 <1>  -0.8520 
 10 C       -2.3070    -4.6110    -0.1240 C.3   1 <1>   0.2960 
 11 C       -3.6950    -2.8430    -1.1370 C.3   1 <1>   0.5240 
 12 C       -1.0150    -5.3220     0.0980 C.3   1 <1>  -0.2000 
 13 C       -1.9170    -5.7270    -1.0340 C.3   1 <1>  -0.2000 
 14 C       -4.7210    -3.1040    -0.0560 C.2   1 <1>  -0.1810 
 15 C       -4.9560    -2.3000     1.0550 C.2   1 <1>   0.1080 
 16 C       -5.5890    -4.1350     0.0710 C.2   1 <1>  -0.3320 
 17 N       -5.8750    -2.7910     1.8170 N.2   1 <1>  -0.7070 
 18 C       -4.2670    -0.9970     1.3960 C.3   1 <1>  -0.0590 
 19 N       -6.2790    -3.9180     1.2150 N.pl3 1 <1>   0.3140 
 20 C       -5.8230    -5.3360    -0.8350 C.3   1 <1>  -0.0600 
 21 C       -7.3490    -4.7420     1.7940 C.3   1 <1>   0.0160 
 22 H       -0.3140     1.6850    -2.4620 H     1 <1>   0.1500 
 23 H       -2.5060     1.6310     0.5590 H     1 <1>   0.0800 
 24 H       -1.6820     2.7180    -0.5300 H     1 <1>   0.0800 
 25 H       -0.1160    -0.8190    -3.4360 H     1 <1>   0.1500 
 26 H       -0.3450    -3.2380    -1.3130 H     1 <1>   0.0800 
 27 H       -1.5350    -3.1230    -2.5920 H     1 <1>   0.0800 
 28 H       -0.3580     1.1390     1.7080 H     1 <1>   0.0800 
 29 H       -0.7030     2.8490     1.7470 H     1 <1>   0.0800 
 30 H        0.4760     2.2320     0.6170 H     1 <1>   0.0800 
 31 H       -2.2010    -2.5740     0.1590 H     1 <1>   0.4500 
 32 H       -3.0870    -4.8030     0.6000 H     1 <1>   0.1000 
 33 H       -3.9390    -3.4240    -2.0090 H     1 <1>   0.0800 
 34 H       -3.7160    -1.7970    -1.4000 H     1 <1>   0.0800 
 35 H       -0.9390    -5.9900     0.9390 H     1 <1>   0.1000 
 36 H       -0.0730    -4.8570    -0.1270 H     1 <1>   0.1000 
 37 H       -1.5880    -5.5390    -2.0400 H     1 <1>   0.1000 
 38 H       -2.4330    -6.6680    -0.9460 H     1 <1>   0.1000 
 39 H       -4.2070    -0.3680     0.5290 H     1 <1>   0.0800 
 40 H       -3.2810    -1.1870     1.7760 H     1 <1>   0.0800 
 41 H       -4.8310    -0.4800     2.1530 H     1 <1>   0.0800 
 42 H       -5.1690    -5.3120    -1.6870 H     1 <1>   0.0800 
 43 H       -6.8390    -5.3370    -1.1890 H     1 <1>   0.0800 
 44 H       -5.6460    -6.2490    -0.2940 H     1 <1>   0.0800 
 45 H       -6.9690    -5.7250     1.9980 H     1 <1>   0.0800 
 46 H       -8.1660    -4.7980     1.1010 H     1 <1>   0.0800 
 47 H       -7.6850    -4.2900     2.7090 H     1 <1>   0.0800 
@<TRIPOS>BOND
  1   1   2  1   
  2   1   3  2   
  3   2   4  1   
  4   2   5  1   
  5   3   6  1   
  6   3   7  1   
  7   4   6  2   
  8   4  22  1   
  9   5   8  1   
 10   5  23  1   
 11   5  24  1   
 12   6  25  1   
 13   7   9  1   
 14   7  26  1   
 15   7  27  1   
 16   8  28  1   
 17   8  29  1   
 18   8  30  1   
 19   9  10  1   
 20   9  11  1   
 21   9  31  1   
 22  10  12  1   
 23  10  13  1   
 24  10  32  1   
 25  11  14  1   
 26  11  33  1   
 27  11  34  1   
 28  12  13  1   
 29  12  35  1   
 30  12  36  1   
 31  13  37  1   
 32  13  38  1   
 33  14  15  1   
 34  14  16  2   
 35  15  17  2   
 36  15  18  1   
 37  16  19  1   
 38  16  20  1   
 39  17  19  1   
 40  18  39  1   
 41  18  40  1   
 42  18  41  1   
 43  19  21  1   
 44  20  42  1   
 45  20  43  1   
 46  20  44  1   
 47  21  45  1   
 48  21  46  1   
 49  21  47  1   
@<TRIPOS>SUBSTRUCTURE
  1 ****   9 GROUP 4 **** **** 0

# MOE 2024.06 (io_trps.svl 2023.06)
