@<TRIPOS>MOLECULE
NONAME
51 53 1 0 0 
SMALL
USER_CHARGES


@<TRIPOS>ATOM
  1 F        0.1970    -0.9470     1.3990 F     1 <1>  -0.1900 
  2 C       -0.4950    -1.9960     1.0290 C.ar  1 <1>   0.1900 
  3 C        0.0120    -2.9390     0.1280 C.ar  1 <1>   0.0820 
  4 C       -1.7550    -2.1270     1.5790 C.ar  1 <1>  -0.1500 
  5 O        1.2350    -2.9200    -0.4790 O.3   1 <1>  -0.3630 
  6 C       -0.7980    -4.0150    -0.1970 C.ar  1 <1>  -0.1500 
  7 C       -2.5340    -3.2150     1.2330 C.ar  1 <1>  -0.1500 
  8 C        2.1590    -1.8680    -0.3130 C.3   1 <1>   0.0400 
  9 C       -2.0790    -4.1840     0.3360 C.ar  1 <1>   0.0530 
 10 C       -2.8850    -5.3240    -0.0340 C.2   1 <1>   0.0870 
 11 O       -2.3030    -6.4290    -0.4360 O.3   1 <1>  -0.0190 
 12 C       -4.2230    -5.5510    -0.0830 C.2   1 <1>  -0.2330 
 13 N       -3.1550    -7.3700    -0.7460 N.2   1 <1>  -0.4100 
 14 C       -4.3260    -6.8670    -0.5410 C.2   1 <1>   0.3720 
 15 C       -5.3030    -4.6730     0.2340 C.2   1 <1>   1.0330 
 16 N       -5.5200    -7.5770    -0.7670 N.pl3 1 <1>  -0.8210 
 17 O       -5.9010    -4.0560    -0.6670 O.co2 1 <1>  -0.9000 
 18 O       -5.6240    -4.4580     1.4160 O.co2 1 <1>  -0.9000 
 19 C       -5.4400    -9.0430    -1.0000 C.3   1 <1>   0.2090 
 20 C       -6.5460    -6.8600    -1.5790 C.3   1 <1>   0.1290 
 21 C       -6.6100    -9.7330    -0.2960 C.3   1 <1>  -0.1600 
 22 C       -6.5530   -11.2580    -0.4770 C.3   1 <1>  -0.1600 
 23 C       -7.6850   -11.9760     0.2750 C.3   1 <1>  -0.0800 
 24 C       -7.6100   -13.4930     0.1350 C.3   1 <1>  -0.1600 
 25 C       -9.0880   -11.6410    -0.2320 C.3   1 <1>  -0.1600 
 26 C       -9.0110   -13.9840     0.4980 C.3   1 <1>  -0.1600 
 27 C       -9.9650   -12.8290     0.1720 C.3   1 <1>  -0.1600 
 28 H       -2.1250    -1.3900     2.2690 H     1 <1>   0.1500 
 29 H       -0.4220    -4.7440    -0.8910 H     1 <1>   0.1500 
 30 H       -3.5110    -3.3120     1.6730 H     1 <1>   0.1500 
 31 H        3.0200    -2.0800    -0.9200 H     1 <1>   0.0800 
 32 H        2.4480    -1.8160     0.7220 H     1 <1>   0.0800 
 33 H        1.7030    -0.9480    -0.6340 H     1 <1>   0.0800 
 34 H       -4.5200    -9.4320    -0.5980 H     1 <1>   0.0800 
 35 H       -5.4580    -9.2430    -2.0570 H     1 <1>   0.0800 
 36 H       -7.2400    -6.3650    -0.9210 H     1 <1>   0.0800 
 37 H       -7.0880    -7.5410    -2.2100 H     1 <1>   0.0800 
 38 H       -6.0770    -6.1160    -2.2000 H     1 <1>   0.0800 
 39 H       -7.5340    -9.3550    -0.6920 H     1 <1>   0.0800 
 40 H       -6.5650    -9.4920     0.7520 H     1 <1>   0.0800 
 41 H       -5.6100   -11.6190    -0.1050 H     1 <1>   0.0800 
 42 H       -6.6070   -11.4970    -1.5250 H     1 <1>   0.0800 
 43 H       -7.6310   -11.7300     1.3230 H     1 <1>   0.0800 
 44 H       -6.8560   -13.9210     0.7730 H     1 <1>   0.0800 
 45 H       -7.3990   -13.7560    -0.8880 H     1 <1>   0.0800 
 46 H       -9.0760   -11.5600    -1.3050 H     1 <1>   0.0800 
 47 H       -9.4520   -10.7170     0.1850 H     1 <1>   0.0800 
 48 H       -9.0550   -14.1960     1.5520 H     1 <1>   0.0800 
 49 H       -9.2650   -14.8770    -0.0470 H     1 <1>   0.0800 
 50 H      -10.6330   -13.0930    -0.6300 H     1 <1>   0.0800 
 51 H      -10.5480   -12.5830     1.0420 H     1 <1>   0.0800 
@<TRIPOS>BOND
  1   1   2  1   
  2   2   3  ar  
  3   2   4  ar  
  4   3   5  1   
  5   3   6  ar  
  6   4   7  ar  
  7   4  28  1   
  8   5   8  1   
  9   6   9  ar  
 10   6  29  1   
 11   7   9  ar  
 12   7  30  1   
 13   8  31  1   
 14   8  32  1   
 15   8  33  1   
 16   9  10  1   
 17  10  11  1   
 18  10  12  2   
 19  11  13  1   
 20  12  14  1   
 21  12  15  1   
 22  13  14  2   
 23  14  16  1   
 24  15  17  ar  
 25  15  18  ar  
 26  16  19  1   
 27  16  20  1   
 28  19  21  1   
 29  19  34  1   
 30  19  35  1   
 31  20  36  1   
 32  20  37  1   
 33  20  38  1   
 34  21  22  1   
 35  21  39  1   
 36  21  40  1   
 37  22  23  1   
 38  22  41  1   
 39  22  42  1   
 40  23  24  1   
 41  23  25  1   
 42  23  43  1   
 43  24  26  1   
 44  24  44  1   
 45  24  45  1   
 46  25  27  1   
 47  25  46  1   
 48  25  47  1   
 49  26  27  1   
 50  26  48  1   
 51  26  49  1   
 52  27  50  1   
 53  27  51  1   
@<TRIPOS>SUBSTRUCTURE
  1 ****  14 GROUP 4 **** **** 0

# MOE 2024.06 (io_trps.svl 2023.06)
