@<TRIPOS>MOLECULE
NONAME
52 54 1 0 0 
SMALL
USER_CHARGES


@<TRIPOS>ATOM
  1 S       -0.3480    -0.1240    -2.1280 S.3   1 <1>  -0.0800 
  2 C        1.1260    -0.9600    -1.6690 C.2   1 <1>  -0.1400 
  3 C        0.3490     1.4250    -1.6960 C.2   1 <1>  -0.1100 
  4 C        2.0470    -0.0800    -1.2300 C.2   1 <1>  -0.1500 
  5 C        1.1390    -2.4650    -1.8190 C.3   1 <1>   0.5230 
  6 C        1.6100     1.2860    -1.2400 C.2   1 <1>   0.0190 
  7 N        0.0770    -3.0310    -0.9480 N.4   1 <1>  -0.9590 
  8 C        2.4720     2.3400    -0.7990 C.1   1 <1>  -0.0190 
  9 C       -0.1470    -4.4840    -1.2710 C.3   1 <1>   0.3430 
 10 C        0.3810    -2.7770     0.4880 C.3   1 <1>   0.3430 
 11 C        3.1980     3.2080    -0.4290 C.1   1 <1>  -0.2000 
 12 C       -0.8630    -5.3130    -0.1760 C.3   1 <1>   0.0000 
 13 C       -0.8070    -3.1850     1.3580 C.3   1 <1>  -0.1600 
 14 C        4.1120     4.2870     0.0310 C.3   1 <1>   0.3200 
 15 C       -1.6180    -4.3510     0.7780 C.3   1 <1>   0.2000 
 16 C       -1.9340    -6.1840    -0.8750 C.3   1 <1>   0.1200 
 17 C        0.1380    -6.2860     0.5260 C.3   1 <1>  -0.0170 
 18 O        4.2740     4.1370     1.3920 O.3   1 <1>  -0.6800 
 19 O       -2.2080    -5.0450     1.8150 O.3   1 <1>  -0.6800 
 20 O       -1.3760    -6.8220    -1.9760 O.3   1 <1>  -0.6800 
 21 C        1.4060    -5.6590     1.0920 C.ar  1 <1>  -0.1430 
 22 C        2.5200    -5.4760     0.2840 C.ar  1 <1>  -0.1500 
 23 C        1.4720    -5.2820     2.4260 C.ar  1 <1>  -0.1500 
 24 C        3.6610    -4.8750     0.7860 C.ar  1 <1>  -0.1500 
 25 C        2.6120    -4.6800     2.9290 C.ar  1 <1>  -0.1500 
 26 C        3.7040    -4.4690     2.1070 C.ar  1 <1>  -0.1500 
 27 H       -0.2600     2.3020    -1.8270 H     1 <1>   0.1500 
 28 H        3.0410    -0.3150    -0.8870 H     1 <1>   0.1500 
 29 H        2.1020    -2.8570    -1.5360 H     1 <1>   0.0800 
 30 H        0.9500    -2.7190    -2.8500 H     1 <1>   0.0800 
 31 H       -0.7750    -2.5010    -1.1730 H     1 <1>   0.4500 
 32 H       -0.7280    -4.5420    -2.1780 H     1 <1>   0.0800 
 33 H        0.7940    -4.9600    -1.4840 H     1 <1>   0.0800 
 34 H        1.2580    -3.3300     0.7770 H     1 <1>   0.0800 
 35 H        0.5910    -1.7310     0.6510 H     1 <1>   0.0800 
 36 H       -1.4600    -2.3370     1.4610 H     1 <1>   0.0800 
 37 H       -0.4410    -3.4140     2.3420 H     1 <1>   0.0800 
 38 H        3.6890     5.2580    -0.1590 H     1 <1>   0.0800 
 39 H        5.0790     4.2090    -0.4370 H     1 <1>   0.0800 
 40 H       -2.4310    -3.9140     0.2200 H     1 <1>   0.0800 
 41 H       -2.7570    -5.5860    -1.2300 H     1 <1>   0.0800 
 42 H       -2.3190    -6.9330    -0.2020 H     1 <1>   0.0800 
 43 H       -0.3660    -6.8250     1.3090 H     1 <1>   0.0800 
 44 H        0.4510    -7.0370    -0.1800 H     1 <1>   0.0800 
 45 H        3.4040     3.9670     1.7980 H     1 <1>   0.4000 
 46 H       -1.5460    -5.3590     2.4600 H     1 <1>   0.4000 
 47 H       -1.9990    -7.4840    -2.3470 H     1 <1>   0.4000 
 48 H        2.5180    -5.8130    -0.7380 H     1 <1>   0.1500 
 49 H        0.6430    -5.4560     3.0880 H     1 <1>   0.1500 
 50 H        4.5240    -4.7360     0.1570 H     1 <1>   0.1500 
 51 H        2.6560    -4.3850     3.9640 H     1 <1>   0.1500 
 52 H        4.5930    -4.0050     2.5010 H     1 <1>   0.1500 
@<TRIPOS>BOND
  1   1   2  1   
  2   1   3  1   
  3   2   4  2   
  4   2   5  1   
  5   3   6  2   
  6   3  27  1   
  7   4   6  1   
  8   4  28  1   
  9   5   7  1   
 10   5  29  1   
 11   5  30  1   
 12   6   8  1   
 13   7   9  1   
 14   7  10  1   
 15   7  31  1   
 16   8  11  3   
 17   9  12  1   
 18   9  32  1   
 19   9  33  1   
 20  10  13  1   
 21  10  34  1   
 22  10  35  1   
 23  11  14  1   
 24  12  15  1   
 25  12  16  1   
 26  12  17  1   
 27  13  15  1   
 28  13  36  1   
 29  13  37  1   
 30  14  18  1   
 31  14  38  1   
 32  14  39  1   
 33  15  19  1   
 34  15  40  1   
 35  16  20  1   
 36  16  41  1   
 37  16  42  1   
 38  17  21  1   
 39  17  43  1   
 40  17  44  1   
 41  18  45  1   
 42  19  46  1   
 43  20  47  1   
 44  21  22  ar  
 45  21  23  ar  
 46  22  24  ar  
 47  22  48  1   
 48  23  25  ar  
 49  23  49  1   
 50  24  26  ar  
 51  24  50  1   
 52  25  26  ar  
 53  25  51  1   
 54  26  52  1   
@<TRIPOS>SUBSTRUCTURE
  1 ****  10 GROUP 4 **** **** 0

# MOE 2024.06 (io_trps.svl 2023.06)
