@<TRIPOS>MOLECULE
NONAME
46 47 1 0 0 
SMALL
USER_CHARGES


@<TRIPOS>ATOM
  1 O       -0.5180     0.7020     0.4490 O.2   1 <1>  -0.5700 
  2 C       -0.2270     1.8490     0.1970 C.2   1 <1>   0.5690 
  3 N       -1.1570     2.8570     0.2490 N.am  1 <1>  -0.6600 
  4 C        1.2060     2.1480    -0.2110 C.3   1 <1>  -0.0990 
  5 C       -2.5590     2.5960     0.7040 C.3   1 <1>   0.1400 
  6 C       -0.9340     4.2700    -0.1670 C.3   1 <1>   0.1400 
  7 C        2.1610     0.9960     0.1050 C.3   1 <1>   0.1400 
  8 C       -3.5750     2.9110    -0.4220 C.3   1 <1>   0.0000 
  9 C       -1.9020     4.6310    -1.3000 C.3   1 <1>  -0.1600 
 10 N        3.5190     1.3170    -0.3970 N.am  1 <1>  -0.7300 
 11 C       -5.0210     2.6770     0.0470 C.3   1 <1>   0.2000 
 12 C       -3.3660     4.3620    -0.9100 C.3   1 <1>  -0.1600 
 13 C       -3.4490     1.8840    -1.5610 C.3   1 <1>  -0.1600 
 14 C        4.4110     2.1060     0.2470 C.2   1 <1>   0.5690 
 15 O       -5.2150     3.1280     1.3550 O.3   1 <1>  -0.5600 
 16 C       -5.2550     1.1670    -0.0660 C.3   1 <1>  -0.1600 
 17 C       -4.2360     0.6560    -1.0940 C.3   1 <1>  -0.1600 
 18 O        4.1490     2.6790     1.2750 O.2   1 <1>  -0.5700 
 19 C        5.7780     2.2750    -0.3610 C.3   1 <1>  -0.1790 
 20 C       -6.5460     3.2300     1.7510 C.3   1 <1>   0.0400 
 21 H        1.2200     2.3500    -1.2650 H     1 <1>   0.0800 
 22 H        1.5440     3.0140     0.3250 H     1 <1>   0.0800 
 23 H       -2.6700     1.5760     1.0280 H     1 <1>   0.0800 
 24 H       -2.7580     3.2220     1.5560 H     1 <1>   0.0800 
 25 H       -1.1110     4.9120     0.6790 H     1 <1>   0.0800 
 26 H        0.0740     4.4300    -0.5010 H     1 <1>   0.0800 
 27 H        1.8160     0.0860    -0.3560 H     1 <1>   0.0800 
 28 H        2.1980     0.8420     1.1710 H     1 <1>   0.0800 
 29 H       -1.7840     5.6710    -1.5460 H     1 <1>   0.0800 
 30 H       -1.6450     4.0590    -2.1740 H     1 <1>   0.0800 
 31 H        3.7900     0.8580    -1.2680 H     1 <1>   0.3700 
 32 H       -5.6940     3.2020    -0.6090 H     1 <1>   0.0800 
 33 H       -4.0080     4.5700    -1.7480 H     1 <1>   0.0800 
 34 H       -3.6410     5.0340    -0.1140 H     1 <1>   0.0800 
 35 H       -3.9100     2.2730    -2.4530 H     1 <1>   0.0800 
 36 H       -2.4270     1.6340    -1.7870 H     1 <1>   0.0800 
 37 H       -5.0750     0.6900     0.8820 H     1 <1>   0.0800 
 38 H       -6.2600     0.9640    -0.3890 H     1 <1>   0.0800 
 39 H       -3.5660    -0.0420    -0.6210 H     1 <1>   0.0800 
 40 H       -4.7170     0.1660    -1.9230 H     1 <1>   0.0800 
 41 H        6.2640     1.3200    -0.4300 H     1 <1>   0.0800 
 42 H        6.3710     2.9240     0.2560 H     1 <1>   0.0800 
 43 H        5.6900     2.7080    -1.3390 H     1 <1>   0.0800 
 44 H       -6.5660     3.6040     2.7590 H     1 <1>   0.0800 
 45 H       -7.0060     2.2570     1.7190 H     1 <1>   0.0800 
 46 H       -7.0600     3.9150     1.1000 H     1 <1>   0.0800 
@<TRIPOS>BOND
  1   1   2  2   
  2   2   3  am  
  3   2   4  1   
  4   3   5  1   
  5   3   6  1   
  6   4   7  1   
  7   4  21  1   
  8   4  22  1   
  9   5   8  1   
 10   5  23  1   
 11   5  24  1   
 12   6   9  1   
 13   6  25  1   
 14   6  26  1   
 15   7  10  1   
 16   7  27  1   
 17   7  28  1   
 18   8  11  1   
 19   8  12  1   
 20   8  13  1   
 21   9  12  1   
 22   9  29  1   
 23   9  30  1   
 24  10  14  am  
 25  10  31  1   
 26  11  15  1   
 27  11  16  1   
 28  11  32  1   
 29  12  33  1   
 30  12  34  1   
 31  13  17  1   
 32  13  35  1   
 33  13  36  1   
 34  14  18  2   
 35  14  19  1   
 36  15  20  1   
 37  16  17  1   
 38  16  37  1   
 39  16  38  1   
 40  17  39  1   
 41  17  40  1   
 42  19  41  1   
 43  19  42  1   
 44  19  43  1   
 45  20  44  1   
 46  20  45  1   
 47  20  46  1   
@<TRIPOS>SUBSTRUCTURE
  1 ****   3 GROUP 4 **** **** 0

# MOE 2024.06 (io_trps.svl 2023.06)
