@<TRIPOS>MOLECULE
NONAME
49 50 1 0 0 
SMALL
USER_CHARGES


@<TRIPOS>ATOM
  1 S        0.2680     0.1730     0.7530 S.o2  1 <1>   1.3330 
  2 O        1.5420     0.2690     1.4280 O.2   1 <1>  -0.6500 
  3 O       -0.9560     0.2290     1.5210 O.2   1 <1>  -0.6500 
  4 N        0.2660    -1.2600    -0.1570 N.am  1 <1>  -0.8490 
  5 C        0.1740     1.4440    -0.5060 C.3   1 <1>  -0.0550 
  6 C       -0.3330    -2.3800     0.5740 C.3   1 <1>   0.1160 
  7 C        1.5950    -1.6390    -0.6480 C.3   1 <1>   0.1160 
  8 C        0.0700     2.8630     0.0770 C.3   1 <1>  -0.0800 
  9 C       -0.1440     3.9200    -1.0010 C.3   1 <1>   0.2000 
 10 C        1.3270     3.3360     0.8120 C.3   1 <1>   0.1400 
 11 O       -1.4830     3.9830    -1.3480 O.3   1 <1>  -0.6800 
 12 C        0.3490     5.2270    -0.3840 C.3   1 <1>   0.1400 
 13 N        1.3620     4.8070     0.6170 N.am  1 <1>  -0.6600 
 14 C        2.4450     5.5670     0.9970 C.2   1 <1>   0.5440 
 15 O        3.4190     5.0010     1.4550 O.2   1 <1>  -0.5700 
 16 C        2.4550     7.0110     0.8480 C.ar  1 <1>   0.0860 
 17 C        3.5570     7.6630     0.3000 C.ar  1 <1>  -0.1500 
 18 C        1.3760     7.7990     1.2520 C.ar  1 <1>  -0.1500 
 19 C        3.5850     9.0370     0.1390 C.ar  1 <1>   0.0820 
 20 C        1.3880     9.1730     1.0950 C.ar  1 <1>  -0.1500 
 21 O        4.7090     9.5640    -0.4060 O.3   1 <1>  -0.3620 
 22 C        2.4890     9.7970     0.5360 C.ar  1 <1>  -0.1500 
 23 C        4.8600    10.9690    -0.5700 C.3   1 <1>   0.1810 
 24 C        6.2200    11.3260    -1.1600 C.2   1 <1>   0.5690 
 25 O        6.4360    12.4630    -1.4910 O.2   1 <1>  -0.5700 
 26 N        7.1790    10.3890    -1.3090 N.am  1 <1>  -0.8000 
 27 H        1.0330     1.3820    -1.1450 H     1 <1>   0.0800 
 28 H       -0.6950     1.2600    -1.1080 H     1 <1>   0.0800 
 29 H       -0.3320    -3.2670    -0.0360 H     1 <1>   0.0800 
 30 H       -1.3540    -2.1500     0.8290 H     1 <1>   0.0800 
 31 H        0.2150    -2.5720     1.4810 H     1 <1>   0.0800 
 32 H        1.5200    -2.5000    -1.2910 H     1 <1>   0.0800 
 33 H        2.2500    -1.8730     0.1760 H     1 <1>   0.0800 
 34 H        2.0280    -0.8310    -1.2130 H     1 <1>   0.0800 
 35 H       -0.7450     2.9030     0.7800 H     1 <1>   0.0800 
 36 H        0.4270     3.7000    -1.8880 H     1 <1>   0.0800 
 37 H        2.2160     2.9030     0.3830 H     1 <1>   0.0800 
 38 H        1.2910     3.0930     1.8620 H     1 <1>   0.0800 
 39 H       -2.0390     4.1070    -0.5540 H     1 <1>   0.4000 
 40 H       -0.4540     5.7360     0.1180 H     1 <1>   0.0800 
 41 H        0.7890     5.8640    -1.1320 H     1 <1>   0.0800 
 42 H        4.4090     7.0810    -0.0010 H     1 <1>   0.1500 
 43 H        0.5220     7.3230     1.7010 H     1 <1>   0.1500 
 44 H        0.5420     9.7580     1.4110 H     1 <1>   0.1500 
 45 H        2.4710    10.8650     0.4250 H     1 <1>   0.1500 
 46 H        4.0880    11.3180    -1.2310 H     1 <1>   0.0800 
 47 H        4.7620    11.4370     0.3910 H     1 <1>   0.0800 
 48 H        8.0840    10.6340    -1.7090 H     1 <1>   0.3700 
 49 H        7.0220     9.4120    -1.0530 H     1 <1>   0.3700 
@<TRIPOS>BOND
  1   1   2  2   
  2   1   3  2   
  3   1   4  am  
  4   1   5  1   
  5   4   6  1   
  6   4   7  1   
  7   5   8  1   
  8   5  27  1   
  9   5  28  1   
 10   6  29  1   
 11   6  30  1   
 12   6  31  1   
 13   7  32  1   
 14   7  33  1   
 15   7  34  1   
 16   8   9  1   
 17   8  10  1   
 18   8  35  1   
 19   9  11  1   
 20   9  12  1   
 21   9  36  1   
 22  10  13  1   
 23  10  37  1   
 24  10  38  1   
 25  11  39  1   
 26  12  13  1   
 27  12  40  1   
 28  12  41  1   
 29  13  14  am  
 30  14  15  2   
 31  14  16  1   
 32  16  17  ar  
 33  16  18  ar  
 34  17  19  ar  
 35  17  42  1   
 36  18  20  ar  
 37  18  43  1   
 38  19  21  1   
 39  19  22  ar  
 40  20  22  ar  
 41  20  44  1   
 42  21  23  1   
 43  22  45  1   
 44  23  24  1   
 45  23  46  1   
 46  23  47  1   
 47  24  25  2   
 48  24  26  am  
 49  26  48  1   
 50  26  49  1   
@<TRIPOS>SUBSTRUCTURE
  1 ****  13 GROUP 4 **** **** 0

# MOE 2024.06 (io_trps.svl 2023.06)
