@<TRIPOS>MOLECULE
NONAME
35 37 1 0 0 
SMALL
USER_CHARGES


@<TRIPOS>ATOM
  1 O       -0.1450    -0.9430     0.4290 O.3   1 <1>  -0.5600 
  2 C        0.8300     0.0310     0.6200 C.3   1 <1>   0.1200 
  3 C       -1.4070    -0.3990     0.6540 C.3   1 <1>   0.1200 
  4 C        0.1950     1.3210     0.1230 C.3   1 <1>   0.2890 
  5 C       -1.2860     1.1120     0.4180 C.3   1 <1>  -0.0800 
  6 N        0.7170     2.5160     0.8240 N.pl3 1 <1>  -0.8690 
  7 C       -2.1860     1.6330    -0.7140 C.3   1 <1>  -0.0170 
  8 C        0.4750     3.7490     0.2850 C.ar  1 <1>   0.4100 
  9 C       -3.6560     1.4660    -0.3650 C.ar  1 <1>  -0.1440 
 10 N       -0.2980     4.5100     1.0370 N.ar  1 <1>  -0.6200 
 11 C        0.9860     4.1620    -0.9570 C.ar  1 <1>   0.1600 
 12 C       -4.4460     0.4900    -0.9390 C.ar  1 <1>  -0.1500 
 13 C       -4.2750     2.2910     0.5520 C.ar  1 <1>  -0.1500 
 14 C       -0.5280     5.6890     0.4810 C.ar  1 <1>   0.1600 
 15 N        0.7460     5.3320    -1.5190 N.ar  1 <1>  -0.6200 
 16 C       -5.7780     0.3870    -0.5730 C.ar  1 <1>   0.1600 
 17 C       -5.6150     2.1020     0.8470 C.ar  1 <1>   0.1600 
 18 C       -0.0280     6.0880    -0.7530 C.ar  1 <1>   0.1600 
 19 N       -6.3810     1.1680     0.3080 N.ar  1 <1>  -0.6200 
 20 H        1.0490     0.0820     1.6720 H     1 <1>   0.0800 
 21 H        1.7090    -0.2350     0.0600 H     1 <1>   0.0800 
 22 H       -2.1020    -0.8740    -0.0150 H     1 <1>   0.0800 
 23 H       -1.6860    -0.6090     1.6730 H     1 <1>   0.0800 
 24 H        0.3690     1.3990    -0.9370 H     1 <1>   0.0800 
 25 H       -1.5520     1.6090     1.3340 H     1 <1>   0.0800 
 26 H        0.4290     2.5220     1.8060 H     1 <1>   0.4000 
 27 H       -1.9640     1.1130    -1.6300 H     1 <1>   0.0800 
 28 H       -1.9880     2.6790    -0.8770 H     1 <1>   0.0800 
 29 H        1.6190     3.4750    -1.4860 H     1 <1>   0.1500 
 30 H       -4.0410    -0.1900    -1.6650 H     1 <1>   0.1500 
 31 H       -3.7270     3.0780     1.0380 H     1 <1>   0.1500 
 32 H       -1.1460     6.3760     1.0300 H     1 <1>   0.1500 
 33 H       -6.3800    -0.3810    -1.0300 H     1 <1>   0.1500 
 34 H       -6.0810     2.7550     1.5650 H     1 <1>   0.1500 
 35 H       -0.2750     7.0680    -1.1220 H     1 <1>   0.1500 
@<TRIPOS>BOND
  1   1   2  1   
  2   1   3  1   
  3   2   4  1   
  4   2  20  1   
  5   2  21  1   
  6   3   5  1   
  7   3  22  1   
  8   3  23  1   
  9   4   5  1   
 10   4   6  1   
 11   4  24  1   
 12   5   7  1   
 13   5  25  1   
 14   6   8  1   
 15   6  26  1   
 16   7   9  1   
 17   7  27  1   
 18   7  28  1   
 19   8  10  ar  
 20   8  11  ar  
 21   9  12  ar  
 22   9  13  ar  
 23  10  14  ar  
 24  11  15  ar  
 25  11  29  1   
 26  12  16  ar  
 27  12  30  1   
 28  13  17  ar  
 29  13  31  1   
 30  14  18  ar  
 31  14  32  1   
 32  15  18  ar  
 33  16  19  ar  
 34  16  33  1   
 35  17  19  ar  
 36  17  34  1   
 37  18  35  1   
@<TRIPOS>SUBSTRUCTURE
  1 ****   7 GROUP 4 **** **** 0

# MOE 2024.06 (io_trps.svl 2023.06)
