@<TRIPOS>MOLECULE
NONAME
49 53 1 0 0 
SMALL
USER_CHARGES


@<TRIPOS>ATOM
  1 S       -0.8610     0.5830     1.5880 S.3   1 <1>  -0.0800 
  2 C       -1.3300    -1.0410     1.0730 C.ar  1 <1>   0.0400 
  3 C       -1.1900     1.2490    -0.0160 C.2   1 <1>  -0.1400 
  4 C       -1.7170    -1.0230    -0.2590 C.ar  1 <1>   0.0000 
  5 C       -1.3270    -2.1860     1.8470 C.ar  1 <1>  -0.1500 
  6 C       -1.6330     0.2870    -0.8460 C.2   1 <1>  -0.1500 
  7 C       -0.9540     2.7310    -0.2100 C.3   1 <1>   0.5230 
  8 C       -2.1220    -2.2220    -0.8370 C.ar  1 <1>  -0.1500 
  9 C       -1.7320    -3.3690     1.2530 C.ar  1 <1>  -0.1500 
 10 N        0.4140     2.9340    -0.7690 N.4   1 <1>  -0.9590 
 11 C       -2.1270    -3.3830    -0.0820 C.ar  1 <1>  -0.1500 
 12 C        1.4590     2.6540     0.2960 C.3   1 <1>   0.4230 
 13 C        0.4610     4.2790    -1.4450 C.3   1 <1>   0.3430 
 14 C        1.3810     3.6120     1.5170 C.3   1 <1>   0.1200 
 15 C        2.8760     2.5460    -0.3040 C.3   1 <1>   0.1400 
 16 C        1.5630     5.2610    -1.0170 C.3   1 <1>  -0.0800 
 17 O        0.7200     4.8120     1.2130 O.3   1 <1>  -0.5600 
 18 N        3.5780     3.8520    -0.4830 N.am  1 <1>  -0.6600 
 19 C        1.4490     5.7240     0.4510 C.3   1 <1>   0.1200 
 20 C        2.9770     4.8250    -1.4320 C.3   1 <1>   0.1400 
 21 C        4.7300     4.1200     0.2420 C.2   1 <1>   0.7160 
 22 O        4.8070     3.6130     1.3480 O.2   1 <1>  -0.5700 
 23 C        5.8130     4.9660    -0.2320 C.2   1 <1>   0.1410 
 24 N        6.0190     5.2900    -1.5310 N.2   1 <1>  -0.2270 
 25 C        6.7990     5.5530     0.4870 C.2   1 <1>  -0.3020 
 26 N        7.0550     6.0410    -1.6170 N.2   1 <1>  -0.4180 
 27 N        7.5500     6.2070    -0.3910 N.pl3 1 <1>   0.3000 
 28 H       -1.0200    -2.1530     2.8770 H     1 <1>   0.1500 
 29 H       -1.9230     0.4140    -1.8750 H     1 <1>   0.1500 
 30 H       -1.0750     3.2630     0.7210 H     1 <1>   0.0800 
 31 H       -1.6880     3.1030    -0.9060 H     1 <1>   0.0800 
 32 H       -2.4310    -2.2440    -1.8670 H     1 <1>   0.1500 
 33 H       -1.7450    -4.2820     1.8230 H     1 <1>   0.1500 
 34 H        0.5210     2.2090    -1.4860 H     1 <1>   0.4500 
 35 H       -2.4410    -4.3110    -0.5290 H     1 <1>   0.1500 
 36 H        1.2660     1.6680     0.6830 H     1 <1>   0.0800 
 37 H        0.5480     4.1250    -2.5090 H     1 <1>   0.0800 
 38 H       -0.4800     4.7800    -1.2810 H     1 <1>   0.0800 
 39 H        2.3520     3.8310     1.9250 H     1 <1>   0.0800 
 40 H        0.8140     3.1350     2.2950 H     1 <1>   0.0800 
 41 H        2.8350     2.0330    -1.2480 H     1 <1>   0.0800 
 42 H        3.4590     1.9230     0.3530 H     1 <1>   0.0800 
 43 H        1.3840     6.1460    -1.6030 H     1 <1>   0.0800 
 44 H        0.9100     6.6550     0.4940 H     1 <1>   0.0800 
 45 H        2.4130     5.8810     0.9080 H     1 <1>   0.0800 
 46 H        3.5820     5.7150    -1.4650 H     1 <1>   0.0800 
 47 H        2.9750     4.4050    -2.4230 H     1 <1>   0.0800 
 48 H        6.9850     5.5230     1.5450 H     1 <1>   0.1500 
 49 H        8.3930     6.7650    -0.2060 H     1 <1>   0.2700 
@<TRIPOS>BOND
  1   1   2  1   
  2   1   3  1   
  3   2   4  ar  
  4   2   5  ar  
  5   3   6  2   
  6   3   7  1   
  7   4   6  1   
  8   4   8  ar  
  9   5   9  ar  
 10   5  28  1   
 11   6  29  1   
 12   7  10  1   
 13   7  30  1   
 14   7  31  1   
 15   8  11  ar  
 16   8  32  1   
 17   9  11  ar  
 18   9  33  1   
 19  10  12  1   
 20  10  13  1   
 21  10  34  1   
 22  11  35  1   
 23  12  14  1   
 24  12  15  1   
 25  12  36  1   
 26  13  16  1   
 27  13  37  1   
 28  13  38  1   
 29  14  17  1   
 30  14  39  1   
 31  14  40  1   
 32  15  18  1   
 33  15  41  1   
 34  15  42  1   
 35  16  19  1   
 36  16  20  1   
 37  16  43  1   
 38  17  19  1   
 39  18  20  1   
 40  18  21  am  
 41  19  44  1   
 42  19  45  1   
 43  20  46  1   
 44  20  47  1   
 45  21  22  2   
 46  21  23  1   
 47  23  24  1   
 48  23  25  2   
 49  24  26  2   
 50  25  27  1   
 51  25  48  1   
 52  26  27  1   
 53  27  49  1   
@<TRIPOS>SUBSTRUCTURE
  1 ****  12 GROUP 4 **** **** 0

# MOE 2024.06 (io_trps.svl 2023.06)
