@<TRIPOS>MOLECULE
NONAME
50 52 1 0 0 
SMALL
USER_CHARGES


@<TRIPOS>ATOM
  1 O        3.6480    -1.2250    -0.7280 O.2   1 <1>  -0.5700 
  2 C        2.5810    -1.5890    -0.2890 C.2   1 <1>   0.5690 
  3 N        1.5710    -0.7480     0.0470 N.am  1 <1>  -0.4930 
  4 C        2.3380    -3.0870    -0.0850 C.3   1 <1>   0.1710 
  5 C        1.4640     0.6350    -0.0230 C.2   1 <1>   0.3520 
  6 N        0.8980    -3.4640     0.0270 N.3   1 <1>  -0.8100 
  7 N        0.3470     1.2070     0.2950 N.2   1 <1>  -0.7070 
  8 C        2.4380     1.5530    -0.4080 C.2   1 <1>  -0.1500 
  9 C        0.7520    -4.7960     0.6420 C.3   1 <1>   0.2530 
 10 C        0.2330    -3.4120    -1.2910 C.3   1 <1>   0.0300 
 11 N        0.5770     2.5230     0.1210 N.pl3 1 <1>   0.3140 
 12 C        1.8340     2.7550    -0.3040 C.2   1 <1>  -0.3020 
 13 C       -0.7120    -5.1270     0.8940 C.ar  1 <1>  -0.1430 
 14 C       -0.4660     3.5210     0.3830 C.3   1 <1>   0.0160 
 15 C       -1.3130    -6.1930     0.2430 C.ar  1 <1>  -0.1500 
 16 C       -1.4630    -4.3580     1.7690 C.ar  1 <1>  -0.1500 
 17 C       -2.6520    -6.5030     0.4540 C.ar  1 <1>  -0.0230 
 18 C       -2.7980    -4.6490     1.9870 C.ar  1 <1>  -0.1500 
 19 N       -3.2440    -7.6030    -0.2260 N.pl3 1 <1>   0.5930 
 20 C       -3.3900    -5.7130     1.3310 C.ar  1 <1>  -0.1500 
 21 N       -3.2530    -7.7010    -1.5790 N.2   1 <1>  -0.7070 
 22 C       -3.8220    -8.7100     0.3220 C.2   1 <1>  -0.3320 
 23 C       -3.8340    -8.8250    -1.8440 C.2   1 <1>   0.1080 
 24 C       -4.2130    -9.5050    -0.6950 C.2   1 <1>  -0.1500 
 25 C       -3.9590    -8.9670     1.8150 C.3   1 <1>  -0.0600 
 26 C       -4.0520    -9.3100    -3.2580 C.3   1 <1>  -0.0590 
 27 H        0.7120    -1.2120     0.3480 H     1 <1>   0.3700 
 28 H        2.8490    -3.3580     0.8210 H     1 <1>   0.0800 
 29 H        2.7970    -3.6250    -0.8960 H     1 <1>   0.0800 
 30 H        3.4400     1.3140    -0.7140 H     1 <1>   0.1500 
 31 H        1.2680    -4.8110     1.5870 H     1 <1>   0.0800 
 32 H        1.1970    -5.5420     0.0060 H     1 <1>   0.0800 
 33 H        0.3670    -2.4460    -1.7460 H     1 <1>   0.0800 
 34 H       -0.8260    -3.5780    -1.1800 H     1 <1>   0.0800 
 35 H        0.6340    -4.1650    -1.9480 H     1 <1>   0.0800 
 36 H        2.2230     3.7370    -0.5030 H     1 <1>   0.1500 
 37 H       -1.3170     3.3040    -0.2360 H     1 <1>   0.0800 
 38 H       -0.0930     4.5020     0.1600 H     1 <1>   0.0800 
 39 H       -0.7500     3.4620     1.4160 H     1 <1>   0.0800 
 40 H       -0.7480    -6.7940    -0.4490 H     1 <1>   0.1500 
 41 H       -1.0060    -3.5230     2.2710 H     1 <1>   0.1500 
 42 H       -3.3750    -4.0410     2.6620 H     1 <1>   0.1500 
 43 H       -4.4320    -5.9260     1.4930 H     1 <1>   0.1500 
 44 H       -4.7060   -10.4600    -0.6580 H     1 <1>   0.1500 
 45 H       -2.9980    -8.8960     2.2930 H     1 <1>   0.0800 
 46 H       -4.3550    -9.9520     1.9860 H     1 <1>   0.0800 
 47 H       -4.6250    -8.2500     2.2600 H     1 <1>   0.0800 
 48 H       -4.6030    -8.5690    -3.8090 H     1 <1>   0.0800 
 49 H       -4.6010   -10.2320    -3.2600 H     1 <1>   0.0800 
 50 H       -3.1020    -9.4620    -3.7350 H     1 <1>   0.0800 
@<TRIPOS>BOND
  1   1   2  2   
  2   2   3  am  
  3   2   4  1   
  4   3   5  1   
  5   3  27  1   
  6   4   6  1   
  7   4  28  1   
  8   4  29  1   
  9   5   7  2   
 10   5   8  1   
 11   6   9  1   
 12   6  10  1   
 13   7  11  1   
 14   8  12  2   
 15   8  30  1   
 16   9  13  1   
 17   9  31  1   
 18   9  32  1   
 19  10  33  1   
 20  10  34  1   
 21  10  35  1   
 22  11  12  1   
 23  11  14  1   
 24  12  36  1   
 25  13  15  ar  
 26  13  16  ar  
 27  14  37  1   
 28  14  38  1   
 29  14  39  1   
 30  15  17  ar  
 31  15  40  1   
 32  16  18  ar  
 33  16  41  1   
 34  17  19  1   
 35  17  20  ar  
 36  18  20  ar  
 37  18  42  1   
 38  19  21  1   
 39  19  22  1   
 40  20  43  1   
 41  21  23  2   
 42  22  24  2   
 43  22  25  1   
 44  23  24  1   
 45  23  26  1   
 46  24  44  1   
 47  25  45  1   
 48  25  46  1   
 49  25  47  1   
 50  26  48  1   
 51  26  49  1   
 52  26  50  1   
@<TRIPOS>SUBSTRUCTURE
  1 ****  13 GROUP 4 **** **** 0

# MOE 2024.06 (io_trps.svl 2023.06)
