@<TRIPOS>MOLECULE
NONAME
49 51 1 0 0 
SMALL
USER_CHARGES


@<TRIPOS>ATOM
  1 O        0.0170     1.2480     1.5130 O.2   1 <1>  -0.5700 
  2 C       -0.1210     2.3870     1.1340 C.2   1 <1>   0.5690 
  3 N       -1.2160     3.1420     1.4580 N.am  1 <1>  -0.6600 
  4 C        0.9640     2.9880     0.2420 C.3   1 <1>   0.1810 
  5 C       -1.3850     4.5380     0.9320 C.3   1 <1>   0.3640 
  6 C       -2.2790     2.6540     2.3840 C.3   1 <1>   0.0600 
  7 O        0.9980     4.3910     0.3110 O.3   1 <1>  -0.5600 
  8 C       -2.7590     4.7120     0.2630 C.ar  1 <1>  -0.1440 
  9 C       -0.2380     5.0220     0.0050 C.3   1 <1>   0.2610 
 10 C       -3.2750     3.8740    -0.7340 C.ar  1 <1>  -0.1440 
 11 C       -3.5280     5.7870     0.6930 C.ar  1 <1>  -0.1500 
 12 C       -0.0890     6.5420     0.1320 C.2   1 <1>   0.5690 
 13 C       -4.5350     4.1310    -1.2560 C.ar  1 <1>  -0.1500 
 14 C       -2.5330     2.6640    -1.2910 C.3   1 <1>  -0.0960 
 15 C       -4.7800     6.0340     0.1640 C.ar  1 <1>  -0.1500 
 16 O       -0.8880     7.2730    -0.4000 O.2   1 <1>  -0.5700 
 17 N        0.9530     7.0410     0.8450 N.am  1 <1>  -0.7300 
 18 C       -5.2860     5.2020    -0.8130 C.ar  1 <1>  -0.1500 
 19 C        1.3150     8.4640     0.9560 C.3   1 <1>   0.2840 
 20 C        2.7870     8.6070     0.6020 C.ar  1 <1>  -0.1440 
 21 C        3.2480     8.7310    -0.6990 C.ar  1 <1>  -0.1440 
 22 C        3.7450     8.6090     1.5970 C.ar  1 <1>  -0.1500 
 23 C        4.6150     8.8490    -0.9140 C.ar  1 <1>   0.1600 
 24 C        2.2940     8.7380    -1.8880 C.3   1 <1>  -0.0970 
 25 C        5.0820     8.7320     1.2650 C.ar  1 <1>   0.1600 
 26 N        5.5400     8.8510     0.0320 N.ar  1 <1>  -0.6200 
 27 H        0.8010     2.6960    -0.7790 H     1 <1>   0.0800 
 28 H        1.9240     2.6220     0.5580 H     1 <1>   0.0800 
 29 H       -1.3620     5.1780     1.7960 H     1 <1>   0.0800 
 30 H       -2.4130     3.3550     3.1890 H     1 <1>   0.0800 
 31 H       -2.0110     1.6990     2.8010 H     1 <1>   0.0800 
 32 H       -3.2090     2.5470     1.8520 H     1 <1>   0.0800 
 33 H       -0.4750     4.8020    -1.0190 H     1 <1>   0.0800 
 34 H       -3.1540     6.4580     1.4470 H     1 <1>   0.1500 
 35 H       -4.9470     3.4940    -2.0180 H     1 <1>   0.1500 
 36 H       -3.0090     2.3000    -2.1840 H     1 <1>   0.0800 
 37 H       -2.5320     1.8670    -0.5690 H     1 <1>   0.0800 
 38 H       -1.5220     2.9120    -1.5440 H     1 <1>   0.0800 
 39 H       -5.3560     6.8750     0.5090 H     1 <1>   0.1500 
 40 H        1.6840     6.3800     1.1280 H     1 <1>   0.3700 
 41 H       -6.2610     5.3880    -1.2290 H     1 <1>   0.1500 
 42 H        0.7050     9.0610     0.3000 H     1 <1>   0.0800 
 43 H        1.1420     8.7950     1.9640 H     1 <1>   0.0800 
 44 H        3.4650     8.5140     2.6300 H     1 <1>   0.1500 
 45 H        4.9730     8.9470    -1.9240 H     1 <1>   0.1500 
 46 H        1.6950     7.8450    -1.8880 H     1 <1>   0.0800 
 47 H        2.8340     8.7800    -2.8170 H     1 <1>   0.0800 
 48 H        1.6440     9.5920    -1.8360 H     1 <1>   0.0800 
 49 H        5.8140     8.7320     2.0550 H     1 <1>   0.1500 
@<TRIPOS>BOND
  1   1   2  2   
  2   2   3  am  
  3   2   4  1   
  4   3   5  1   
  5   3   6  1   
  6   4   7  1   
  7   4  27  1   
  8   4  28  1   
  9   5   8  1   
 10   5   9  1   
 11   5  29  1   
 12   6  30  1   
 13   6  31  1   
 14   6  32  1   
 15   7   9  1   
 16   8  10  ar  
 17   8  11  ar  
 18   9  12  1   
 19   9  33  1   
 20  10  13  ar  
 21  10  14  1   
 22  11  15  ar  
 23  11  34  1   
 24  12  16  2   
 25  12  17  am  
 26  13  18  ar  
 27  13  35  1   
 28  14  36  1   
 29  14  37  1   
 30  14  38  1   
 31  15  18  ar  
 32  15  39  1   
 33  17  19  1   
 34  17  40  1   
 35  18  41  1   
 36  19  20  1   
 37  19  42  1   
 38  19  43  1   
 39  20  21  ar  
 40  20  22  ar  
 41  21  23  ar  
 42  21  24  1   
 43  22  25  ar  
 44  22  44  1   
 45  23  26  ar  
 46  23  45  1   
 47  24  46  1   
 48  24  47  1   
 49  24  48  1   
 50  25  26  ar  
 51  25  49  1   
@<TRIPOS>SUBSTRUCTURE
  1 ****   9 GROUP 4 **** **** 0

# MOE 2024.06 (io_trps.svl 2023.06)
