@<TRIPOS>MOLECULE
NONAME
50 53 1 0 0 
SMALL
USER_CHARGES


@<TRIPOS>ATOM
  1 S        0.8420     0.2270     1.3050 S.3   1 <1>  -0.3320 
  2 C        0.6690    -1.4580     0.6910 C.ar  1 <1>   0.1020 
  3 C        1.5570     1.2290    -0.0660 C.3   1 <1>   0.1500 
  4 C        0.6950    -2.4750     1.6280 C.ar  1 <1>  -0.1500 
  5 C        0.5120    -1.7360    -0.6580 C.ar  1 <1>  -0.1500 
  6 C        2.9850     0.7350    -0.3150 C.3   1 <1>  -0.1600 
  7 C        1.5420     2.6880     0.3920 C.3   1 <1>  -0.1600 
  8 C        0.5830    -3.7930     1.2190 C.ar  1 <1>  -0.1430 
  9 C        0.3990    -3.0540    -1.0650 C.ar  1 <1>  -0.1500 
 10 C        3.7290     1.6640    -1.2700 C.3   1 <1>   0.3430 
 11 C        2.3140     3.5790    -0.5760 C.3   1 <1>   0.3430 
 12 C        0.4370    -4.0760    -0.1310 C.ar  1 <1>  -0.1500 
 13 C        0.6130    -4.9190     2.2360 C.3   1 <1>  -0.0960 
 14 N        3.7090     3.0580    -0.7390 N.4   1 <1>  -0.9590 
 15 C        4.5560     3.9640    -1.5780 C.3   1 <1>   0.5230 
 16 C        4.8600     5.2530    -0.8390 C.2   1 <1>  -0.0400 
 17 O        3.9160     6.1360    -0.6830 O.3   1 <1>  -0.0190 
 18 C        5.9700     5.7420    -0.2680 C.2   1 <1>  -0.1500 
 19 N        4.3220     7.1760    -0.0300 N.2   1 <1>  -0.4100 
 20 C        5.5790     6.9900     0.2420 C.2   1 <1>   0.2350 
 21 C        6.4170     7.9320     0.9580 C.ar  1 <1>   0.0540 
 22 C        5.8980     9.0780     1.5460 C.ar  1 <1>  -0.1500 
 23 C        7.7890     7.7780     1.1170 C.ar  1 <1>  -0.1500 
 24 C        6.7190     9.9580     2.2240 C.ar  1 <1>   0.1600 
 25 C        8.5250     8.7170     1.8150 C.ar  1 <1>   0.1600 
 26 N        8.0230     9.8040     2.3750 N.ar  1 <1>  -0.6200 
 27 H        0.9300     1.1000    -0.9300 H     1 <1>   0.0800 
 28 H        0.8030    -2.2300     2.6690 H     1 <1>   0.1500 
 29 H        0.4620    -0.9560    -1.3890 H     1 <1>   0.1500 
 30 H        2.9570    -0.2540    -0.7350 H     1 <1>   0.0800 
 31 H        3.5210     0.6770     0.6170 H     1 <1>   0.0800 
 32 H        1.9740     2.7720     1.3740 H     1 <1>   0.0800 
 33 H        0.5240     3.0300     0.4550 H     1 <1>   0.0800 
 34 H        0.2750    -3.2900    -2.1080 H     1 <1>   0.1500 
 35 H        3.2570     1.6340    -2.2400 H     1 <1>   0.0800 
 36 H        4.7460     1.3190    -1.3770 H     1 <1>   0.0800 
 37 H        2.3290     4.5830    -0.1830 H     1 <1>   0.0800 
 38 H        1.8130     3.5970    -1.5310 H     1 <1>   0.0800 
 39 H        0.3460    -5.0970    -0.4590 H     1 <1>   0.1500 
 40 H        1.1380    -4.6140     3.1240 H     1 <1>   0.0800 
 41 H        1.1100    -5.7800     1.8280 H     1 <1>   0.0800 
 42 H       -0.3920    -5.1930     2.5050 H     1 <1>   0.0800 
 43 H        4.1300     3.0470     0.2010 H     1 <1>   0.4500 
 44 H        4.0590     4.1880    -2.5080 H     1 <1>   0.0800 
 45 H        5.4900     3.4750    -1.8050 H     1 <1>   0.0800 
 46 H        6.9520     5.3140    -0.1940 H     1 <1>   0.1500 
 47 H        4.8460     9.2890     1.4750 H     1 <1>   0.1500 
 48 H        8.3000     6.9330     0.6990 H     1 <1>   0.1500 
 49 H        6.2810    10.8370     2.6670 H     1 <1>   0.1500 
 50 H        9.5870     8.5690     1.9210 H     1 <1>   0.1500 
@<TRIPOS>BOND
  1   1   2  1   
  2   1   3  1   
  3   2   4  ar  
  4   2   5  ar  
  5   3   6  1   
  6   3   7  1   
  7   3  27  1   
  8   4   8  ar  
  9   4  28  1   
 10   5   9  ar  
 11   5  29  1   
 12   6  10  1   
 13   6  30  1   
 14   6  31  1   
 15   7  11  1   
 16   7  32  1   
 17   7  33  1   
 18   8  12  ar  
 19   8  13  1   
 20   9  12  ar  
 21   9  34  1   
 22  10  14  1   
 23  10  35  1   
 24  10  36  1   
 25  11  14  1   
 26  11  37  1   
 27  11  38  1   
 28  12  39  1   
 29  13  40  1   
 30  13  41  1   
 31  13  42  1   
 32  14  15  1   
 33  14  43  1   
 34  15  16  1   
 35  15  44  1   
 36  15  45  1   
 37  16  17  1   
 38  16  18  2   
 39  17  19  1   
 40  18  20  1   
 41  18  46  1   
 42  19  20  2   
 43  20  21  1   
 44  21  22  ar  
 45  21  23  ar  
 46  22  24  ar  
 47  22  47  1   
 48  23  25  ar  
 49  23  48  1   
 50  24  26  ar  
 51  24  49  1   
 52  25  26  ar  
 53  25  50  1   
@<TRIPOS>SUBSTRUCTURE
  1 ****  14 GROUP 4 **** **** 0

# MOE 2024.06 (io_trps.svl 2023.06)
