@<TRIPOS>MOLECULE
NONAME
32 32 1 0 0 
SMALL
USER_CHARGES


@<TRIPOS>ATOM
  1 S       -0.7100    -0.0980    -0.6890 S.3   1 <1>  -0.0800 
  2 C       -0.9150    -1.0280     0.7580 C.2   1 <1>   0.4420 
  3 C        0.1640     1.0570     0.2620 C.2   1 <1>   0.1980 
  4 N       -0.3650    -0.4700     1.7750 N.2   1 <1>  -0.3380 
  5 N       -1.6150    -2.2080     0.6350 N.am  1 <1>  -0.4940 
  6 N        0.2470     0.7190     1.4860 N.2   1 <1>  -0.3380 
  7 C        0.7150     2.3110    -0.4140 C.3   1 <1>   0.3800 
  8 C       -1.9520    -3.1330     1.5800 C.2   1 <1>   0.5690 
  9 O       -0.3040     3.0250    -1.0540 O.3   1 <1>  -0.5600 
 10 C        1.7640     1.9850    -1.4760 C.3   1 <1>  -0.2400 
 11 O       -1.6670    -3.0270     2.7450 O.2   1 <1>  -0.5700 
 12 C       -2.7240    -4.3700     1.1460 C.3   1 <1>  -0.0990 
 13 C       -1.2120     3.6490    -0.1980 C.3   1 <1>   0.0400 
 14 C       -3.2980    -4.3000    -0.2800 C.3   1 <1>  -0.1600 
 15 C       -4.0670    -5.5760    -0.6570 C.3   1 <1>  -0.2660 
 16 C       -4.6080    -5.4990    -2.0670 C.2   1 <1>   0.9060 
 17 O       -3.8120    -5.2920    -2.9870 O.co2 1 <1>  -0.9000 
 18 O       -5.8220    -5.6200    -2.2390 O.co2 1 <1>  -0.9000 
 19 H       -1.9410    -2.4240    -0.3060 H     1 <1>   0.3700 
 20 H        1.1570     2.9500     0.3310 H     1 <1>   0.0800 
 21 H        1.3320     1.3970    -2.2640 H     1 <1>   0.0800 
 22 H        2.5700     1.4300    -1.0310 H     1 <1>   0.0800 
 23 H        2.1600     2.8950    -1.8870 H     1 <1>   0.0800 
 24 H       -3.5290    -4.5200     1.8430 H     1 <1>   0.0800 
 25 H       -2.0650    -5.2150     1.2230 H     1 <1>   0.0800 
 26 H       -1.9220     4.1880    -0.8000 H     1 <1>   0.0800 
 27 H       -0.6860     4.3370     0.4420 H     1 <1>   0.0800 
 28 H       -1.7280     2.9080     0.3880 H     1 <1>   0.0800 
 29 H       -2.5010    -4.1770    -0.9940 H     1 <1>   0.0800 
 30 H       -3.9690    -3.4610    -0.3690 H     1 <1>   0.0800 
 31 H       -4.8930    -5.7280     0.0110 H     1 <1>   0.0800 
 32 H       -3.4210    -6.4310    -0.6080 H     1 <1>   0.0800 
@<TRIPOS>BOND
  1   1   2  1   
  2   1   3  1   
  3   2   4  2   
  4   2   5  1   
  5   3   6  2   
  6   3   7  1   
  7   4   6  1   
  8   5   8  am  
  9   5  19  1   
 10   7   9  1   
 11   7  10  1   
 12   7  20  1   
 13   8  11  2   
 14   8  12  1   
 15   9  13  1   
 16  10  21  1   
 17  10  22  1   
 18  10  23  1   
 19  12  14  1   
 20  12  24  1   
 21  12  25  1   
 22  13  26  1   
 23  13  27  1   
 24  13  28  1   
 25  14  15  1   
 26  14  29  1   
 27  14  30  1   
 28  15  16  1   
 29  15  31  1   
 30  15  32  1   
 31  16  17  ar  
 32  16  18  ar  
@<TRIPOS>SUBSTRUCTURE
  1 ****   5 GROUP 4 **** **** 0

# MOE 2024.06 (io_trps.svl 2023.06)
