@<TRIPOS>MOLECULE
NONAME
53 57 1 0 0 
SMALL
USER_CHARGES


@<TRIPOS>ATOM
  1 N        0.5290     0.2780     0.0770 N.ar  1 <1>  -0.6200 
  2 C       -0.5090     1.0700     0.3890 C.ar  1 <1>   0.6200 
  3 C        1.3720     0.7760    -0.7910 C.ar  1 <1>   0.1660 
  4 N       -0.7180     2.2980    -0.1060 N.ar  1 <1>  -0.6200 
  5 C       -1.4800     0.5570     1.3430 C.ar  1 <1>   0.0000 
  6 C        1.2420     2.0100    -1.3450 C.ar  1 <1>  -0.1440 
  7 C        2.6090     0.0630    -1.2830 C.3   1 <1>   0.1440 
  8 C        0.1580     2.7600    -0.9690 C.ar  1 <1>   0.1600 
  9 C       -1.8240    -0.7980     1.3800 C.ar  1 <1>  -0.1500 
 10 C       -2.1140     1.3960     2.2630 C.ar  1 <1>  -0.1500 
 11 C        2.3700     2.3170    -2.2980 C.3   1 <1>  -0.0160 
 12 C        3.3600    -0.4940    -0.0620 C.3   1 <1>   0.3430 
 13 C        2.2190    -1.0800    -2.2430 C.3   1 <1>  -0.1600 
 14 C        3.3880     1.1970    -2.0040 C.3   1 <1>  -0.1600 
 15 C       -2.7440    -1.2890     2.2890 C.ar  1 <1>  -0.1500 
 16 C       -3.0350     0.9120     3.1750 C.ar  1 <1>  -0.1500 
 17 N        4.5390    -1.3480    -0.4610 N.4   1 <1>  -0.9590 
 18 C        3.4090    -2.0050    -2.5570 C.3   1 <1>  -0.1600 
 19 C       -3.3520    -0.4340     3.1900 C.ar  1 <1>  -0.1500 
 20 C        4.0980    -2.5100    -1.2860 C.3   1 <1>   0.3430 
 21 C        5.3290    -1.7820     0.7280 C.3   1 <1>   0.4860 
 22 C        5.9420    -0.5610     1.3730 C.ar  1 <1>  -0.1440 
 23 C        7.0470     0.0600     0.8320 C.ar  1 <1>   0.1600 
 24 C        5.4140    -0.0070     2.5190 C.ar  1 <1>   0.1600 
 25 N        7.5540     1.1490     1.3480 N.ar  1 <1>  -0.6200 
 26 N        5.9060     1.0810     3.0530 N.ar  1 <1>  -0.6200 
 27 C        6.9440     1.6070     2.4270 C.ar  1 <1>   0.7200 
 28 N        7.4410     2.7250     2.9520 N.pl3 1 <1>  -0.9000 
 29 H        0.0040     3.7460    -1.3770 H     1 <1>   0.1500 
 30 H       -1.3660    -1.4760     0.6820 H     1 <1>   0.1500 
 31 H       -1.8810     2.4470     2.2630 H     1 <1>   0.1500 
 32 H        2.7870     3.2940    -2.1200 H     1 <1>   0.0800 
 33 H        2.0120     2.2550    -3.3120 H     1 <1>   0.0800 
 34 H        2.6680    -1.0820     0.5210 H     1 <1>   0.0800 
 35 H        3.6820     0.3340     0.5480 H     1 <1>   0.0800 
 36 H        1.8110    -0.6760    -3.1540 H     1 <1>   0.0800 
 37 H        1.4400    -1.6670    -1.7830 H     1 <1>   0.0800 
 38 H        3.8700     0.8700    -2.9080 H     1 <1>   0.0800 
 39 H        4.1380     1.6020    -1.3440 H     1 <1>   0.0800 
 40 H       -2.9920    -2.3360     2.2940 H     1 <1>   0.1500 
 41 H       -3.5060     1.5830     3.8710 H     1 <1>   0.1500 
 42 H        5.1480    -0.7610    -1.0450 H     1 <1>   0.4500 
 43 H        4.1260    -1.4970    -3.1780 H     1 <1>   0.0800 
 44 H        3.0530    -2.8530    -3.1180 H     1 <1>   0.0800 
 45 H       -4.0690    -0.8130     3.8970 H     1 <1>   0.1500 
 46 H        3.4080    -3.1200    -0.7230 H     1 <1>   0.0800 
 47 H        4.9470    -3.1190    -1.5580 H     1 <1>   0.0800 
 48 H        6.1140    -2.4570     0.4250 H     1 <1>   0.0800 
 49 H        4.6920    -2.2940     1.4320 H     1 <1>   0.0800 
 50 H        7.5310    -0.3350    -0.0470 H     1 <1>   0.1500 
 51 H        4.5650    -0.4520     3.0110 H     1 <1>   0.1500 
 52 H        7.1880     2.9160     3.9180 H     1 <1>   0.4000 
 53 H        8.3880     2.9670     2.6720 H     1 <1>   0.4000 
@<TRIPOS>BOND
  1   1   2  ar  
  2   1   3  ar  
  3   2   4  ar  
  4   2   5  1   
  5   3   6  ar  
  6   3   7  1   
  7   4   8  ar  
  8   5   9  ar  
  9   5  10  ar  
 10   6   8  ar  
 11   6  11  1   
 12   7  12  1   
 13   7  13  1   
 14   7  14  1   
 15   8  29  1   
 16   9  15  ar  
 17   9  30  1   
 18  10  16  ar  
 19  10  31  1   
 20  11  14  1   
 21  11  32  1   
 22  11  33  1   
 23  12  17  1   
 24  12  34  1   
 25  12  35  1   
 26  13  18  1   
 27  13  36  1   
 28  13  37  1   
 29  14  38  1   
 30  14  39  1   
 31  15  19  ar  
 32  15  40  1   
 33  16  19  ar  
 34  16  41  1   
 35  17  20  1   
 36  17  21  1   
 37  17  42  1   
 38  18  20  1   
 39  18  43  1   
 40  18  44  1   
 41  19  45  1   
 42  20  46  1   
 43  20  47  1   
 44  21  22  1   
 45  21  48  1   
 46  21  49  1   
 47  22  23  ar  
 48  22  24  ar  
 49  23  25  ar  
 50  23  50  1   
 51  24  26  ar  
 52  24  51  1   
 53  25  27  ar  
 54  26  27  ar  
 55  27  28  1   
 56  28  52  1   
 57  28  53  1   
@<TRIPOS>SUBSTRUCTURE
  1 ****  12 GROUP 4 **** **** 0

# MOE 2024.06 (io_trps.svl 2023.06)
