@<TRIPOS>MOLECULE
NONAME
32 32 1 0 0 
SMALL
USER_CHARGES


@<TRIPOS>ATOM
  1 CL      -0.2790    -0.2230     0.3880 Cl    1 <1>  -0.1770 
  2 C        1.2860    -1.0030     0.2310 C.ar  1 <1>   0.1770 
  3 C        1.3920    -2.3610    -0.0430 C.ar  1 <1>   0.4100 
  4 C        2.4370    -0.2800     0.3820 C.ar  1 <1>   0.1600 
  5 N        2.5800    -2.9300    -0.1500 N.ar  1 <1>  -0.6200 
  6 N        0.2870    -3.1620    -0.2150 N.pl3 1 <1>  -0.8690 
  7 N        3.6310    -0.8390     0.2730 N.ar  1 <1>  -0.6200 
  8 C        3.6250    -2.1370     0.0110 C.ar  1 <1>   0.4770 
  9 C        0.3280    -4.6400    -0.1100 C.3   1 <1>   0.2090 
 10 C        4.9750    -2.7990    -0.1160 C.3   1 <1>  -0.0970 
 11 C       -1.0740    -5.2390    -0.3140 C.3   1 <1>   0.2000 
 12 O       -1.9960    -4.6130     0.5210 O.3   1 <1>  -0.6800 
 13 C       -1.1150    -6.7450    -0.0270 C.3   1 <1>   0.1200 
 14 O       -2.4470    -7.1730     0.0010 O.3   1 <1>  -0.5600 
 15 C       -2.6030    -8.5240     0.2800 C.3   1 <1>   0.1200 
 16 C       -4.0970    -8.8220     0.2760 C.3   1 <1>  -0.2400 
 17 H        2.3850     0.7730     0.5940 H     1 <1>   0.1500 
 18 H       -0.6210    -2.7940     0.1010 H     1 <1>   0.4000 
 19 H        0.7010    -4.9130     0.8620 H     1 <1>   0.0800 
 20 H        1.0020    -5.0310    -0.8530 H     1 <1>   0.0800 
 21 H        4.9920    -3.4200    -0.9920 H     1 <1>   0.0800 
 22 H        5.1560    -3.4050     0.7510 H     1 <1>   0.0800 
 23 H        5.7510    -2.0600    -0.1980 H     1 <1>   0.0800 
 24 H       -1.3860    -5.0670    -1.3300 H     1 <1>   0.0800 
 25 H       -2.7760    -5.2100     0.5690 H     1 <1>   0.4000 
 26 H       -0.6670    -6.9510     0.9310 H     1 <1>   0.0800 
 27 H       -0.5900    -7.2860    -0.7950 H     1 <1>   0.0800 
 28 H       -2.1770    -8.7330     1.2470 H     1 <1>   0.0800 
 29 H       -2.0990    -9.0980    -0.4800 H     1 <1>   0.0800 
 30 H       -4.5920    -8.2360     1.0290 H     1 <1>   0.0800 
 31 H       -4.2610    -9.8630     0.4870 H     1 <1>   0.0800 
 32 H       -4.5160    -8.5960    -0.6880 H     1 <1>   0.0800 
@<TRIPOS>BOND
  1   1   2  1   
  2   2   3  ar  
  3   2   4  ar  
  4   3   5  ar  
  5   3   6  1   
  6   4   7  ar  
  7   4  17  1   
  8   5   8  ar  
  9   6   9  1   
 10   6  18  1   
 11   7   8  ar  
 12   8  10  1   
 13   9  11  1   
 14   9  19  1   
 15   9  20  1   
 16  10  21  1   
 17  10  22  1   
 18  10  23  1   
 19  11  12  1   
 20  11  13  1   
 21  11  24  1   
 22  12  25  1   
 23  13  14  1   
 24  13  26  1   
 25  13  27  1   
 26  14  15  1   
 27  15  16  1   
 28  15  28  1   
 29  15  29  1   
 30  16  30  1   
 31  16  31  1   
 32  16  32  1   
@<TRIPOS>SUBSTRUCTURE
  1 ****   6 GROUP 4 **** **** 0

# MOE 2024.06 (io_trps.svl 2023.06)
