@<TRIPOS>MOLECULE
NONAME
48 50 1 0 0 
SMALL
USER_CHARGES


@<TRIPOS>ATOM
  1 O        0.3860     1.8970     2.0330 O.2   1 <1>  -0.5700 
  2 C        0.1980     2.8570     1.3320 C.2   1 <1>   0.5690 
  3 N       -0.6980     3.8050     1.6830 N.am  1 <1>  -0.7300 
  4 C        0.9500     3.0100     0.0110 C.3   1 <1>   0.1810 
  5 C       -1.0250     4.9890     0.8480 C.3   1 <1>   0.3640 
  6 O        1.0240     4.3570    -0.4010 O.3   1 <1>  -0.5600 
  7 C       -2.5310     4.9840     0.6020 C.ar  1 <1>  -0.1440 
  8 C       -0.2300     5.0300    -0.4910 C.3   1 <1>   0.2610 
  9 C       -3.1950     3.8240     0.2210 C.ar  1 <1>   0.1600 
 10 C       -3.2700     6.1430     0.7480 C.ar  1 <1>  -0.1500 
 11 C       -0.0120     6.4860    -0.9280 C.2   1 <1>   0.5690 
 12 N       -4.4920     3.7320    -0.0230 N.ar  1 <1>  -0.6200 
 13 C       -4.6230     6.0660     0.5000 C.ar  1 <1>  -0.1500 
 14 O       -0.9480     7.2490    -0.9630 O.2   1 <1>  -0.5700 
 15 N        1.2420     6.8940    -1.2620 N.am  1 <1>  -0.7300 
 16 C       -5.1750     4.8550     0.1230 C.ar  1 <1>   0.1600 
 17 C        1.6280     8.2410    -1.7250 C.3   1 <1>   0.1400 
 18 C        2.6060     8.8540    -0.7240 C.3   1 <1>  -0.1600 
 19 C        3.0030    10.2750    -1.1370 C.3   1 <1>   0.0210 
 20 C        3.9650    10.8750    -0.1260 C.2   1 <1>  -0.1810 
 21 C        3.7110    11.6630     0.9320 C.2   1 <1>  -0.0400 
 22 C        5.3530    10.7280    -0.0850 C.2   1 <1>   0.1080 
 23 O        4.8480    11.9360     1.5140 O.3   1 <1>  -0.0190 
 24 C        2.4310    12.2290     1.5090 C.3   1 <1>  -0.0600 
 25 N        5.8520    11.3740     0.9060 N.2   1 <1>  -0.4100 
 26 C        6.1900     9.9270    -1.0600 C.3   1 <1>  -0.0590 
 27 H       -1.2130     3.6860     2.5570 H     1 <1>   0.3700 
 28 H        0.4580     2.4410    -0.7560 H     1 <1>   0.0800 
 29 H        1.9540     2.6460     0.1280 H     1 <1>   0.0800 
 30 H       -0.7710     5.8670     1.4170 H     1 <1>   0.0800 
 31 H       -0.8010     4.5410    -1.2590 H     1 <1>   0.0800 
 32 H       -2.6310     2.9130     0.1090 H     1 <1>   0.1500 
 33 H       -2.8150     7.0780     1.0310 H     1 <1>   0.1500 
 34 H       -5.2460     6.9370     0.5940 H     1 <1>   0.1500 
 35 H        1.9900     6.1960    -1.1800 H     1 <1>   0.3700 
 36 H       -6.2340     4.8080    -0.0700 H     1 <1>   0.1500 
 37 H        2.0840     8.1640    -2.6980 H     1 <1>   0.0800 
 38 H        0.7500     8.8620    -1.8100 H     1 <1>   0.0800 
 39 H        2.1420     8.8920     0.2460 H     1 <1>   0.0800 
 40 H        3.4870     8.2410    -0.6590 H     1 <1>   0.0800 
 41 H        2.1240    10.8920    -1.1980 H     1 <1>   0.0800 
 42 H        3.4640    10.2670    -2.1090 H     1 <1>   0.0800 
 43 H        1.5810    11.9040     0.9380 H     1 <1>   0.0800 
 44 H        2.4720    13.3030     1.4960 H     1 <1>   0.0800 
 45 H        2.3150    11.8970     2.5240 H     1 <1>   0.0800 
 46 H        5.8920     8.8960    -1.0380 H     1 <1>   0.0800 
 47 H        7.2280     9.9930    -0.7890 H     1 <1>   0.0800 
 48 H        6.0660    10.3170    -2.0530 H     1 <1>   0.0800 
@<TRIPOS>BOND
  1   1   2  2   
  2   2   3  am  
  3   2   4  1   
  4   3   5  1   
  5   3  27  1   
  6   4   6  1   
  7   4  28  1   
  8   4  29  1   
  9   5   7  1   
 10   5   8  1   
 11   5  30  1   
 12   6   8  1   
 13   7   9  ar  
 14   7  10  ar  
 15   8  11  1   
 16   8  31  1   
 17   9  12  ar  
 18   9  32  1   
 19  10  13  ar  
 20  10  33  1   
 21  11  14  2   
 22  11  15  am  
 23  12  16  ar  
 24  13  16  ar  
 25  13  34  1   
 26  15  17  1   
 27  15  35  1   
 28  16  36  1   
 29  17  18  1   
 30  17  37  1   
 31  17  38  1   
 32  18  19  1   
 33  18  39  1   
 34  18  40  1   
 35  19  20  1   
 36  19  41  1   
 37  19  42  1   
 38  20  21  2   
 39  20  22  1   
 40  21  23  1   
 41  21  24  1   
 42  22  25  2   
 43  22  26  1   
 44  23  25  1   
 45  24  43  1   
 46  24  44  1   
 47  24  45  1   
 48  26  46  1   
 49  26  47  1   
 50  26  48  1   
@<TRIPOS>SUBSTRUCTURE
  1 ****  11 GROUP 4 **** **** 0

# MOE 2024.06 (io_trps.svl 2023.06)
