@<TRIPOS>MOLECULE
NONAME
54 56 1 0 0 
SMALL
USER_CHARGES


@<TRIPOS>ATOM
  1 S       -1.9200    -0.2190     0.4750 S.o2  1 <1>   1.2040 
  2 O       -2.9520    -0.4960     1.4550 O.2   1 <1>  -0.6500 
  3 O       -2.3360     0.4600    -0.7300 O.2   1 <1>  -0.6500 
  4 C       -1.2570    -1.8330     0.0070 C.ar  1 <1>  -0.0090 
  5 C       -0.5580     0.6480     1.2320 C.3   1 <1>  -0.1350 
  6 C       -1.1390    -2.2080    -1.3260 C.ar  1 <1>  -0.1500 
  7 C       -0.9140    -2.7670     0.9750 C.ar  1 <1>  -0.1500 
  8 C       -0.7790    -3.4970    -1.6730 C.ar  1 <1>  -0.1500 
  9 C       -0.5490    -4.0540     0.6260 C.ar  1 <1>  -0.1500 
 10 C       -0.5330    -4.4660    -0.7030 C.ar  1 <1>   0.0860 
 11 C       -0.2750    -5.8440    -1.0700 C.2   1 <1>   0.5440 
 12 O        0.7240    -6.0830    -1.7190 O.2   1 <1>  -0.5700 
 13 N       -1.1100    -6.8940    -0.7140 N.am  1 <1>  -0.6600 
 14 C       -2.5950    -6.8600    -0.5170 C.3   1 <1>   0.2200 
 15 C       -0.5610    -8.2830    -0.7270 C.3   1 <1>   0.0600 
 16 C       -3.3720    -5.9720    -1.4870 C.3   1 <1>  -0.1600 
 17 C       -3.0140    -6.4300     0.8880 C.3   1 <1>  -0.1600 
 18 C       -4.6750    -5.6270    -0.7550 C.3   1 <1>  -0.0800 
 19 C       -4.3410    -5.6640     0.7420 C.3   1 <1>  -0.0800 
 20 C       -5.1750    -4.2090    -1.0410 C.3   1 <1>  -0.1600 
 21 C       -4.3040    -4.1970     1.2170 C.3   1 <1>  -0.1600 
 22 C       -4.4090    -3.3410    -0.0470 C.3   1 <1>   0.4230 
 23 N       -5.0100    -1.9890     0.1810 N.4   1 <1>  -0.9590 
 24 C       -6.3850    -1.9750     0.7720 C.3   1 <1>   0.2630 
 25 C       -4.9860    -1.1660    -1.0680 C.3   1 <1>   0.2630 
 26 H       -0.1940     0.1110     2.0870 H     1 <1>   0.0800 
 27 H       -0.8740     1.6220     1.5530 H     1 <1>   0.0800 
 28 H        0.2460     0.7670     0.5320 H     1 <1>   0.0800 
 29 H       -1.3420    -1.4930    -2.1070 H     1 <1>   0.1500 
 30 H       -0.9500    -2.4990     2.0190 H     1 <1>   0.1500 
 31 H       -0.6950    -3.7770    -2.7110 H     1 <1>   0.1500 
 32 H       -0.2790    -4.7640     1.3890 H     1 <1>   0.1500 
 33 H       -2.9780    -7.8580    -0.6620 H     1 <1>   0.0800 
 34 H       -0.9380    -8.8370     0.1150 H     1 <1>   0.0800 
 35 H        0.5140    -8.2680    -0.6670 H     1 <1>   0.0800 
 36 H       -0.8480    -8.7770    -1.6390 H     1 <1>   0.0800 
 37 H       -2.8340    -5.0790    -1.7150 H     1 <1>   0.0800 
 38 H       -3.5700    -6.4960    -2.4060 H     1 <1>   0.0800 
 39 H       -3.1610    -7.3060     1.4950 H     1 <1>   0.0800 
 40 H       -2.2620    -5.8320     1.3560 H     1 <1>   0.0800 
 41 H       -5.4250    -6.3640    -0.9920 H     1 <1>   0.0800 
 42 H       -5.1190    -6.1900     1.2710 H     1 <1>   0.0800 
 43 H       -6.2310    -4.1770    -0.8440 H     1 <1>   0.0800 
 44 H       -4.9880    -3.9230    -2.0610 H     1 <1>   0.0800 
 45 H       -3.4060    -3.9640     1.7600 H     1 <1>   0.0800 
 46 H       -5.1430    -4.0440     1.8680 H     1 <1>   0.0800 
 47 H       -3.4110    -3.2210    -0.4330 H     1 <1>   0.0800 
 48 H       -4.3850    -1.5000     0.8610 H     1 <1>   0.4500 
 49 H       -7.0810    -2.4770     0.1210 H     1 <1>   0.0800 
 50 H       -6.7160    -0.9590     0.9110 H     1 <1>   0.0800 
 51 H       -6.3910    -2.4630     1.7320 H     1 <1>   0.0800 
 52 H       -5.6660    -1.5710    -1.7990 H     1 <1>   0.0800 
 53 H       -3.9940    -1.1500    -1.4890 H     1 <1>   0.0800 
 54 H       -5.2740    -0.1500    -0.8490 H     1 <1>   0.0800 
@<TRIPOS>BOND
  1   1   2  2   
  2   1   3  2   
  3   1   4  1   
  4   1   5  1   
  5   4   6  ar  
  6   4   7  ar  
  7   5  26  1   
  8   5  27  1   
  9   5  28  1   
 10   6   8  ar  
 11   6  29  1   
 12   7   9  ar  
 13   7  30  1   
 14   8  10  ar  
 15   8  31  1   
 16   9  10  ar  
 17   9  32  1   
 18  10  11  1   
 19  11  12  2   
 20  11  13  am  
 21  13  14  1   
 22  13  15  1   
 23  14  16  1   
 24  14  17  1   
 25  14  33  1   
 26  15  34  1   
 27  15  35  1   
 28  15  36  1   
 29  16  18  1   
 30  16  37  1   
 31  16  38  1   
 32  17  19  1   
 33  17  39  1   
 34  17  40  1   
 35  18  19  1   
 36  18  20  1   
 37  18  41  1   
 38  19  21  1   
 39  19  42  1   
 40  20  22  1   
 41  20  43  1   
 42  20  44  1   
 43  21  22  1   
 44  21  45  1   
 45  21  46  1   
 46  22  23  1   
 47  22  47  1   
 48  23  24  1   
 49  23  25  1   
 50  23  48  1   
 51  24  49  1   
 52  24  50  1   
 53  24  51  1   
 54  25  52  1   
 55  25  53  1   
 56  25  54  1   
@<TRIPOS>SUBSTRUCTURE
  1 ****  22 GROUP 4 **** **** 0

# MOE 2024.06 (io_trps.svl 2023.06)
