@<TRIPOS>MOLECULE
NONAME
42 45 1 0 0 
SMALL
USER_CHARGES


@<TRIPOS>ATOM
  1 S       -0.5200     0.1600     1.9650 S.3   1 <1>  -0.0800 
  2 C       -0.1220     1.8490     1.7460 C.2   1 <1>   0.4620 
  3 C       -1.8440     0.3240     0.8260 C.2   1 <1>  -0.0450 
  4 N       -0.8820     2.4670     0.9210 N.2   1 <1>  -0.5650 
  5 N        0.9170     2.3730     2.4290 N.pl3 1 <1>  -0.8840 
  6 C       -2.6590    -0.8190     0.5200 C.2   1 <1>   0.7150 
  7 C       -1.8240     1.6130     0.4120 C.2   1 <1>   0.0770 
  8 O       -2.1720    -1.9350     0.5860 O.2   1 <1>  -0.5700 
  9 N       -3.9850    -0.7060     0.1420 N.am  1 <1>  -0.6600 
 10 C       -4.8860     0.3860     0.6360 C.3   1 <1>   0.1400 
 11 C       -4.7200    -1.8910    -0.3940 C.3   1 <1>   0.1400 
 12 C       -5.8700     0.8520    -0.4560 C.3   1 <1>   0.1440 
 13 C       -5.7090    -1.4660    -1.4870 C.3   1 <1>  -0.1600 
 14 C       -6.7750     1.9140     0.1410 C.ar  1 <1>   0.1670 
 15 C       -6.6580    -0.3590    -0.9980 C.3   1 <1>  -0.1600 
 16 C       -5.1560     1.6320    -1.5930 C.3   1 <1>  -0.1600 
 17 N       -7.7530     1.6950     0.9930 N.ar  1 <1>  -0.6200 
 18 C       -6.4430     3.1610    -0.2990 C.ar  1 <1>  -0.1430 
 19 C       -5.2780     3.1290    -1.2560 C.3   1 <1>  -0.0170 
 20 C       -8.3970     2.7870     1.3810 C.ar  1 <1>   0.4770 
 21 C       -7.1750     4.2220     0.1720 C.ar  1 <1>   0.1600 
 22 N       -8.1660     4.0420     1.0200 N.ar  1 <1>  -0.6200 
 23 C       -9.5350     2.5780     2.3490 C.3   1 <1>  -0.0970 
 24 H        1.1800     3.3500     2.2960 H     1 <1>   0.4000 
 25 H        1.5050     1.8180     3.0520 H     1 <1>   0.4000 
 26 H       -2.5080     2.0180    -0.3100 H     1 <1>   0.1500 
 27 H       -4.3230     1.2250     1.0000 H     1 <1>   0.0800 
 28 H       -5.4560     0.0030     1.4670 H     1 <1>   0.0800 
 29 H       -5.2510    -2.3660     0.4140 H     1 <1>   0.0800 
 30 H       -4.0290    -2.6080    -0.8040 H     1 <1>   0.0800 
 31 H       -6.2850    -2.3220    -1.7900 H     1 <1>   0.0800 
 32 H       -5.1550    -1.1300    -2.3460 H     1 <1>   0.0800 
 33 H       -7.3130    -0.0510    -1.7940 H     1 <1>   0.0800 
 34 H       -7.2750    -0.7540    -0.2100 H     1 <1>   0.0800 
 35 H       -5.6780     1.4630    -2.5180 H     1 <1>   0.0800 
 36 H       -4.1360     1.3250    -1.7320 H     1 <1>   0.0800 
 37 H       -5.4700     3.7180    -2.1360 H     1 <1>   0.0800 
 38 H       -4.3930     3.4890    -0.7610 H     1 <1>   0.0800 
 39 H       -6.9500     5.2260    -0.1460 H     1 <1>   0.1500 
 40 H       -9.3940     1.6670     2.9000 H     1 <1>   0.0800 
 41 H      -10.4580     2.5220     1.8030 H     1 <1>   0.0800 
 42 H       -9.5840     3.3990     3.0400 H     1 <1>   0.0800 
@<TRIPOS>BOND
  1   1   2  1   
  2   1   3  1   
  3   2   4  2   
  4   2   5  1   
  5   3   6  1   
  6   3   7  2   
  7   4   7  1   
  8   5  24  1   
  9   5  25  1   
 10   6   8  2   
 11   6   9  am  
 12   7  26  1   
 13   9  10  1   
 14   9  11  1   
 15  10  12  1   
 16  10  27  1   
 17  10  28  1   
 18  11  13  1   
 19  11  29  1   
 20  11  30  1   
 21  12  14  1   
 22  12  15  1   
 23  12  16  1   
 24  13  15  1   
 25  13  31  1   
 26  13  32  1   
 27  14  17  ar  
 28  14  18  ar  
 29  15  33  1   
 30  15  34  1   
 31  16  19  1   
 32  16  35  1   
 33  16  36  1   
 34  17  20  ar  
 35  18  19  1   
 36  18  21  ar  
 37  19  37  1   
 38  19  38  1   
 39  20  22  ar  
 40  20  23  1   
 41  21  22  ar  
 42  21  39  1   
 43  23  40  1   
 44  23  41  1   
 45  23  42  1   
@<TRIPOS>SUBSTRUCTURE
  1 ****  10 GROUP 4 **** **** 0

# MOE 2024.06 (io_trps.svl 2023.06)
