@<TRIPOS>MOLECULE
NONAME
34 35 1 0 0 
SMALL
USER_CHARGES


@<TRIPOS>ATOM
  1 CL       2.5740     0.1540    -3.0180 Cl    1 <1>  -0.1770 
  2 C        3.0130     1.1330    -1.6380 C.ar  1 <1>   0.1770 
  3 C        3.7100     2.3170    -1.8200 C.ar  1 <1>   0.1600 
  4 C        2.6580     0.7150    -0.3730 C.ar  1 <1>  -0.1500 
  5 N        4.0890     3.1310    -0.8390 N.ar  1 <1>  -0.6200 
  6 C        3.0510     1.5560     0.6390 C.ar  1 <1>   0.1900 
  7 C        3.7590     2.7450     0.3940 C.ar  1 <1>   0.4100 
  8 F        2.7450     1.2250     1.8720 F     1 <1>  -0.1900 
  9 N        4.1560     3.5690     1.4330 N.pl3 1 <1>  -0.8690 
 10 C        4.4070     5.0240     1.2490 C.3   1 <1>   0.2090 
 11 C        5.8900     5.2690     0.9580 C.3   1 <1>   0.1400 
 12 N        6.1280     6.7060     0.6100 N.am  1 <1>  -0.4690 
 13 C        6.2660     7.6110     1.6570 C.2   1 <1>   0.8410 
 14 C        6.1910     7.1470    -0.6950 C.2   1 <1>  -0.0290 
 15 O        6.1490     7.2410     2.8140 O.2   1 <1>  -0.5700 
 16 N        6.5160     8.9370     1.4220 N.2   1 <1>  -0.6610 
 17 C        6.4260     8.4650    -0.8990 C.2   1 <1>  -0.1360 
 18 C        5.9950     6.1830    -1.8560 C.3   1 <1>  -0.1020 
 19 C        6.5910     9.3270     0.2060 C.2   1 <1>   0.3750 
 20 C        6.8660    10.7900    -0.0660 C.3   1 <1>  -0.1790 
 21 H        3.9660     2.6040    -2.8250 H     1 <1>   0.1500 
 22 H        2.1180    -0.1960    -0.1960 H     1 <1>   0.1500 
 23 H        3.7710     3.3210     2.3500 H     1 <1>   0.4000 
 24 H        4.1250     5.5500     2.1450 H     1 <1>   0.0800 
 25 H        3.8120     5.3930     0.4310 H     1 <1>   0.0800 
 26 H        6.2060     4.6290     0.1560 H     1 <1>   0.0800 
 27 H        6.4680     5.0070     1.8260 H     1 <1>   0.0800 
 28 H        6.4930     8.8850    -1.8850 H     1 <1>   0.1500 
 29 H        5.0460     5.6840    -1.7720 H     1 <1>   0.0800 
 30 H        6.7790     5.4470    -1.8660 H     1 <1>   0.0800 
 31 H        6.0160     6.7070    -2.7940 H     1 <1>   0.0800 
 32 H        7.7730    10.8910    -0.6320 H     1 <1>   0.0800 
 33 H        6.9750    11.3260     0.8590 H     1 <1>   0.0800 
 34 H        6.0500    11.2180    -0.6180 H     1 <1>   0.0800 
@<TRIPOS>BOND
  1   1   2  1   
  2   2   3  ar  
  3   2   4  ar  
  4   3   5  ar  
  5   3  21  1   
  6   4   6  ar  
  7   4  22  1   
  8   5   7  ar  
  9   6   7  ar  
 10   6   8  1   
 11   7   9  1   
 12   9  10  1   
 13   9  23  1   
 14  10  11  1   
 15  10  24  1   
 16  10  25  1   
 17  11  12  1   
 18  11  26  1   
 19  11  27  1   
 20  12  13  am  
 21  12  14  1   
 22  13  15  2   
 23  13  16  1   
 24  14  17  2   
 25  14  18  1   
 26  16  19  2   
 27  17  19  1   
 28  17  28  1   
 29  18  29  1   
 30  18  30  1   
 31  18  31  1   
 32  19  20  1   
 33  20  32  1   
 34  20  33  1   
 35  20  34  1   
@<TRIPOS>SUBSTRUCTURE
  1 ****  10 GROUP 4 **** **** 0

# MOE 2024.06 (io_trps.svl 2023.06)
