@<TRIPOS>MOLECULE
NONAME
44 47 1 0 0 
SMALL
USER_CHARGES


@<TRIPOS>ATOM
  1 N        0.1540     0.5230     0.0200 N.2   1 <1>  -0.6210 
  2 C       -0.9130    -0.1770    -0.1970 C.2   1 <1>   0.9190 
  3 C        0.0370     1.8490     0.1840 C.2   1 <1>   0.2710 
  4 N       -2.1510     0.3600    -0.2620 N.pl3 1 <1>  -0.6690 
  5 N       -0.7770    -1.4900    -0.3640 N.pl3 1 <1>  -0.8500 
  6 N        1.1880     2.5530     0.4060 N.pl3 1 <1>  -0.8380 
  7 C       -1.1910     2.4650     0.1390 C.2   1 <1>  -0.1410 
  8 C       -2.2890     1.6710    -0.0880 C.cat 1 <1>   0.7910 
  9 C       -3.4190    -0.1260    -0.4590 C.2   1 <1>   0.5030 
 10 C        2.4190     1.9500     1.0240 C.3   1 <1>   0.2090 
 11 C        1.4620     3.9360    -0.1180 C.3   1 <1>   0.2090 
 12 N       -3.6030     1.9300    -0.1850 N.pl3 1 <1>  -0.3930 
 13 N       -4.3110     0.7920    -0.4190 N.2   1 <1>  -0.2600 
 14 C        3.6060     1.9390     0.0410 C.3   1 <1>   0.2090 
 15 C        2.6550     3.9530    -1.0980 C.3   1 <1>   0.2090 
 16 N        3.8740     3.2950    -0.5310 N.pl3 1 <1>  -0.8380 
 17 C        4.8610     4.0690     0.0430 C.ar  1 <1>   0.4100 
 18 N        4.4540     5.0510     0.8220 N.ar  1 <1>  -0.6200 
 19 C        6.2150     3.8230    -0.1710 C.ar  1 <1>  -0.1430 
 20 C        5.4080     5.7580     1.3890 C.ar  1 <1>   0.4700 
 21 C        7.1110     4.6290     0.4980 C.ar  1 <1>   0.1670 
 22 C        6.6730     2.7130    -1.1210 C.3   1 <1>  -0.0970 
 23 N        6.7140     5.6100     1.2840 N.ar  1 <1>  -0.6200 
 24 C        8.6160     4.4650     0.3890 C.3   1 <1>  -0.0970 
 25 H        0.1700    -1.8710    -0.3190 H     1 <1>   0.4000 
 26 H       -1.5150    -2.1590    -0.5560 H     1 <1>   0.4000 
 27 H       -1.2940     3.5190     0.2920 H     1 <1>   0.1500 
 28 H       -3.6210    -1.1730    -0.6270 H     1 <1>   0.1500 
 29 H        2.2260     0.9470     1.3600 H     1 <1>   0.0800 
 30 H        2.6960     2.5320     1.8850 H     1 <1>   0.0800 
 31 H        1.6900     4.5860     0.7090 H     1 <1>   0.0800 
 32 H        0.6010     4.3290    -0.6230 H     1 <1>   0.0800 
 33 H       -4.0410     2.8540    -0.0910 H     1 <1>   0.4500 
 34 H        3.3920     1.2550    -0.7600 H     1 <1>   0.0800 
 35 H        4.4820     1.5860     0.5560 H     1 <1>   0.0800 
 36 H        2.8860     4.9710    -1.3580 H     1 <1>   0.0800 
 37 H        2.3740     3.4400    -2.0010 H     1 <1>   0.0800 
 38 H        5.0800     6.5620     2.0260 H     1 <1>   0.1500 
 39 H        5.9330     2.5290    -1.8790 H     1 <1>   0.0800 
 40 H        6.8370     1.8050    -0.5710 H     1 <1>   0.0800 
 41 H        7.5800     2.9870    -1.6280 H     1 <1>   0.0800 
 42 H        8.8880     3.4300     0.3110 H     1 <1>   0.0800 
 43 H        9.0950     4.8680     1.2640 H     1 <1>   0.0800 
 44 H        8.9740     4.9980    -0.4720 H     1 <1>   0.0800 
@<TRIPOS>BOND
  1   1   2  2   
  2   1   3  1   
  3   2   4  1   
  4   2   5  1   
  5   3   6  1   
  6   3   7  2   
  7   4   8  ar  
  8   4   9  1   
  9   5  25  1   
 10   5  26  1   
 11   6  10  1   
 12   6  11  1   
 13   7   8  1   
 14   7  27  1   
 15   8  12  ar  
 16   9  13  2   
 17   9  28  1   
 18  10  14  1   
 19  10  29  1   
 20  10  30  1   
 21  11  15  1   
 22  11  31  1   
 23  11  32  1   
 24  12  13  1   
 25  12  33  1   
 26  14  16  1   
 27  14  34  1   
 28  14  35  1   
 29  15  16  1   
 30  15  36  1   
 31  15  37  1   
 32  16  17  1   
 33  17  18  ar  
 34  17  19  ar  
 35  18  20  ar  
 36  19  21  ar  
 37  19  22  1   
 38  20  23  ar  
 39  20  38  1   
 40  21  23  ar  
 41  21  24  1   
 42  22  39  1   
 43  22  40  1   
 44  22  41  1   
 45  24  42  1   
 46  24  43  1   
 47  24  44  1   
@<TRIPOS>SUBSTRUCTURE
  1 ****   6 GROUP 4 **** **** 0

# MOE 2024.06 (io_trps.svl 2023.06)
