@<TRIPOS>MOLECULE
NONAME
66 69 1 0 0 
SMALL
USER_CHARGES


@<TRIPOS>ATOM
  1 O       -0.1100    -0.5270     1.4880 O.2   1 <1>  -0.5700 
  2 C        0.6610    -1.4170     1.2470 C.2   1 <1>   0.5690 
  3 N        0.3210    -2.7130     1.4060 N.am  1 <1>  -0.7300 
  4 C        2.0620    -1.1210     0.7590 C.3   1 <1>  -0.0990 
  5 C        1.2360    -3.8370     1.1320 C.3   1 <1>   0.1400 
  6 C        2.4530    -2.0790    -0.3850 C.3   1 <1>  -0.0800 
  7 C        2.0270    -3.5540    -0.1640 C.3   1 <1>  -0.0800 
  8 C        3.9610    -2.0980    -0.6660 C.3   1 <1>  -0.1600 
  9 C        3.3100    -4.3890    -0.2860 C.3   1 <1>  -0.1600 
 10 C        4.2430    -3.5220    -1.1300 C.3   1 <1>   0.4230 
 11 N        5.6840    -3.8960    -1.0460 N.4   1 <1>  -0.9590 
 12 C        6.2980    -3.8720     0.3120 C.3   1 <1>   0.4860 
 13 C        5.9550    -5.1900    -1.7420 C.3   1 <1>   0.2630 
 14 C        7.3480    -2.7810     0.2930 C.ar  1 <1>  -0.1430 
 15 C        8.4810    -2.9020    -0.5000 C.ar  1 <1>  -0.1500 
 16 C        7.1730    -1.6350     1.0550 C.ar  1 <1>  -0.1500 
 17 C        9.4060    -1.8750    -0.5510 C.ar  1 <1>  -0.1500 
 18 C        8.0980    -0.6100     1.0040 C.ar  1 <1>  -0.1500 
 19 C        9.2200    -0.7200     0.1890 C.ar  1 <1>   0.0830 
 20 O       10.1640     0.2440     0.0560 O.3   1 <1>  -0.3630 
 21 C       10.1230     1.4750     0.7700 C.3   1 <1>   0.1810 
 22 C        9.1410     2.5100     0.1970 C.2   1 <1>   0.5690 
 23 O        8.1320     2.1230    -0.3490 O.2   1 <1>  -0.5700 
 24 N        9.3910     3.8580     0.3360 N.am  1 <1>  -0.6600 
 25 C       10.4720     4.4670     1.1620 C.3   1 <1>   0.1400 
 26 C        8.5700     4.8700    -0.3890 C.3   1 <1>   0.1400 
 27 C       11.4090     5.2730     0.2580 C.3   1 <1>  -0.1600 
 28 C        9.4770     5.6990    -1.3060 C.3   1 <1>  -0.1600 
 29 C       10.6390     6.3430    -0.5320 C.3   1 <1>  -0.0800 
 30 C       11.5760     7.0900    -1.4870 C.3   1 <1>  -0.2400 
 31 H       -0.6150    -2.9100     1.7720 H     1 <1>   0.3700 
 32 H        2.1150    -0.1000     0.4240 H     1 <1>   0.0800 
 33 H        2.7230    -1.2320     1.5980 H     1 <1>   0.0800 
 34 H        1.9030    -3.9390     1.9710 H     1 <1>   0.0800 
 35 H        0.6710    -4.7490     1.0310 H     1 <1>   0.0800 
 36 H        1.9460    -1.7350    -1.2730 H     1 <1>   0.0800 
 37 H        1.3810    -3.8210    -0.9850 H     1 <1>   0.0800 
 38 H        4.4900    -1.8770     0.2410 H     1 <1>   0.0800 
 39 H        4.2250    -1.3740    -1.4170 H     1 <1>   0.0800 
 40 H        3.1080    -5.3340    -0.7580 H     1 <1>   0.0800 
 41 H        3.7200    -4.5550     0.6930 H     1 <1>   0.0800 
 42 H        3.9200    -3.5940    -2.1570 H     1 <1>   0.0800 
 43 H        6.1960    -3.1520    -1.5460 H     1 <1>   0.4500 
 44 H        5.5610    -3.6520     1.0650 H     1 <1>   0.0800 
 45 H        6.7600    -4.8180     0.5430 H     1 <1>   0.0800 
 46 H        5.4560    -6.0010    -1.2350 H     1 <1>   0.0800 
 47 H        7.0140    -5.3930    -1.7580 H     1 <1>   0.0800 
 48 H        5.6000    -5.1500    -2.7590 H     1 <1>   0.0800 
 49 H        8.6640    -3.7860    -1.0870 H     1 <1>   0.1500 
 50 H        6.3150    -1.5160     1.6950 H     1 <1>   0.1500 
 51 H       10.2830    -1.9570    -1.1690 H     1 <1>   0.1500 
 52 H        7.9230     0.2730     1.5900 H     1 <1>   0.1500 
 53 H        9.8970     1.2710     1.7990 H     1 <1>   0.0800 
 54 H       11.1180     1.8710     0.7120 H     1 <1>   0.0800 
 55 H       10.0220     5.1240     1.8880 H     1 <1>   0.0800 
 56 H       11.0300     3.7240     1.7000 H     1 <1>   0.0800 
 57 H        7.8070     4.3930    -0.9810 H     1 <1>   0.0800 
 58 H        8.0850     5.5090     0.3270 H     1 <1>   0.0800 
 59 H       12.1640     5.7430     0.8630 H     1 <1>   0.0800 
 60 H       11.9030     4.5980    -0.4210 H     1 <1>   0.0800 
 61 H        9.8600     5.0550    -2.0780 H     1 <1>   0.0800 
 62 H        8.8880     6.4630    -1.7810 H     1 <1>   0.0800 
 63 H       10.2290     7.0550     0.1670 H     1 <1>   0.0800 
 64 H       12.0060     6.4130    -2.2040 H     1 <1>   0.0800 
 65 H       12.3720     7.5600    -0.9380 H     1 <1>   0.0800 
 66 H       11.0350     7.8530    -2.0180 H     1 <1>   0.0800 
@<TRIPOS>BOND
  1   1   2  2   
  2   2   3  am  
  3   2   4  1   
  4   3   5  1   
  5   3  31  1   
  6   4   6  1   
  7   4  32  1   
  8   4  33  1   
  9   5   7  1   
 10   5  34  1   
 11   5  35  1   
 12   6   7  1   
 13   6   8  1   
 14   6  36  1   
 15   7   9  1   
 16   7  37  1   
 17   8  10  1   
 18   8  38  1   
 19   8  39  1   
 20   9  10  1   
 21   9  40  1   
 22   9  41  1   
 23  10  11  1   
 24  10  42  1   
 25  11  12  1   
 26  11  13  1   
 27  11  43  1   
 28  12  14  1   
 29  12  44  1   
 30  12  45  1   
 31  13  46  1   
 32  13  47  1   
 33  13  48  1   
 34  14  15  ar  
 35  14  16  ar  
 36  15  17  ar  
 37  15  49  1   
 38  16  18  ar  
 39  16  50  1   
 40  17  19  ar  
 41  17  51  1   
 42  18  19  ar  
 43  18  52  1   
 44  19  20  1   
 45  20  21  1   
 46  21  22  1   
 47  21  53  1   
 48  21  54  1   
 49  22  23  2   
 50  22  24  am  
 51  24  25  1   
 52  24  26  1   
 53  25  27  1   
 54  25  55  1   
 55  25  56  1   
 56  26  28  1   
 57  26  57  1   
 58  26  58  1   
 59  27  29  1   
 60  27  59  1   
 61  27  60  1   
 62  28  29  1   
 63  28  61  1   
 64  28  62  1   
 65  29  30  1   
 66  29  63  1   
 67  30  64  1   
 68  30  65  1   
 69  30  66  1   
@<TRIPOS>SUBSTRUCTURE
  1 ****  18 GROUP 4 **** **** 0

# MOE 2024.06 (io_trps.svl 2023.06)
