@<TRIPOS>MOLECULE
NONAME
35 37 1 0 0 
SMALL
USER_CHARGES


@<TRIPOS>ATOM
  1 CL      -0.2920     0.2720    -0.5330 Cl    1 <1>  -0.1770 
  2 C       -1.6830    -0.7540    -0.2650 C.ar  1 <1>   0.1770 
  3 C       -2.9540    -0.2130    -0.2340 C.ar  1 <1>   0.1600 
  4 C       -1.5060    -2.1080    -0.0830 C.ar  1 <1>  -0.1500 
  5 N       -4.0610    -0.9160    -0.0400 N.ar  1 <1>  -0.6200 
  6 C       -2.6510    -2.8450     0.1210 C.ar  1 <1>  -0.1500 
  7 C       -3.9070    -2.2280     0.1320 C.ar  1 <1>   0.4100 
  8 N       -5.0640    -2.9690     0.3410 N.pl3 1 <1>  -0.8380 
  9 C       -6.4140    -2.3460     0.2030 C.3   1 <1>   0.2090 
 10 C       -5.1490    -4.4130     0.0070 C.3   1 <1>   0.2090 
 11 C       -7.3610    -3.4840    -0.1870 C.3   1 <1>   0.2000 
 12 C       -6.6250    -4.7750     0.1600 C.3   1 <1>  -0.0800 
 13 O       -8.5590    -3.4290     0.5130 O.3   1 <1>  -0.6800 
 14 C       -7.0750    -5.9630    -0.7060 C.3   1 <1>  -0.0170 
 15 C       -6.3790    -7.2550    -0.3070 C.ar  1 <1>   0.1670 
 16 N       -5.1420    -7.4260    -0.7480 N.ar  1 <1>  -0.6200 
 17 C       -7.0490    -8.1880     0.4840 C.ar  1 <1>   0.1600 
 18 C       -4.6300    -8.5800    -0.3540 C.ar  1 <1>   0.1600 
 19 N       -6.5360    -9.3400     0.8820 N.ar  1 <1>  -0.6200 
 20 C       -5.3030    -9.5050     0.4340 C.ar  1 <1>   0.1600 
 21 H       -3.0610     0.8470    -0.3760 H     1 <1>   0.1500 
 22 H       -0.5260    -2.5490    -0.0990 H     1 <1>   0.1500 
 23 H       -2.5760    -3.9020     0.2800 H     1 <1>   0.1500 
 24 H       -6.6940    -1.9040     1.1420 H     1 <1>   0.0800 
 25 H       -6.4130    -1.5940    -0.5670 H     1 <1>   0.0800 
 26 H       -4.8210    -4.5640    -1.0080 H     1 <1>   0.0800 
 27 H       -4.5420    -5.0020     0.6730 H     1 <1>   0.0800 
 28 H       -7.5790    -3.4270    -1.2390 H     1 <1>   0.0800 
 29 H       -6.7840    -5.0070     1.1990 H     1 <1>   0.0800 
 30 H       -8.3820    -3.3920     1.4730 H     1 <1>   0.4000 
 31 H       -6.8690    -5.7620    -1.7430 H     1 <1>   0.0800 
 32 H       -8.1400    -6.0840    -0.6080 H     1 <1>   0.0800 
 33 H       -8.0530    -7.9720     0.8030 H     1 <1>   0.1500 
 34 H       -3.6270    -8.8070    -0.6710 H     1 <1>   0.1500 
 35 H       -4.8010   -10.4180     0.7030 H     1 <1>   0.1500 
@<TRIPOS>BOND
  1   1   2  1   
  2   2   3  ar  
  3   2   4  ar  
  4   3   5  ar  
  5   3  21  1   
  6   4   6  ar  
  7   4  22  1   
  8   5   7  ar  
  9   6   7  ar  
 10   6  23  1   
 11   7   8  1   
 12   8   9  1   
 13   8  10  1   
 14   9  11  1   
 15   9  24  1   
 16   9  25  1   
 17  10  12  1   
 18  10  26  1   
 19  10  27  1   
 20  11  12  1   
 21  11  13  1   
 22  11  28  1   
 23  12  14  1   
 24  12  29  1   
 25  13  30  1   
 26  14  15  1   
 27  14  31  1   
 28  14  32  1   
 29  15  16  ar  
 30  15  17  ar  
 31  16  18  ar  
 32  17  19  ar  
 33  17  33  1   
 34  18  20  ar  
 35  18  34  1   
 36  19  20  ar  
 37  20  35  1   
@<TRIPOS>SUBSTRUCTURE
  1 ****  10 GROUP 4 **** **** 0

# MOE 2024.06 (io_trps.svl 2023.06)
