@<TRIPOS>MOLECULE
NONAME
52 55 1 0 0 
SMALL
USER_CHARGES


@<TRIPOS>ATOM
  1 O       -0.2210    -0.8400    -0.6040 O.3   1 <1>  -0.5600 
  2 C        0.6340    -1.7250    -1.2730 C.3   1 <1>   0.1200 
  3 C       -1.4210    -1.4330    -0.1910 C.3   1 <1>   0.1200 
  4 C        1.0300    -2.9070    -0.3700 C.3   1 <1>   0.2090 
  5 C       -1.1620    -2.5940     0.7840 C.3   1 <1>   0.2090 
  6 N       -0.1790    -3.5700     0.2140 N.pl3 1 <1>  -0.8380 
  7 C       -0.2390    -4.9220     0.4670 C.ar  1 <1>   0.7200 
  8 N       -1.3150    -5.3780     1.1070 N.ar  1 <1>  -0.6200 
  9 N        0.7800    -5.6710     0.0480 N.ar  1 <1>  -0.6200 
 10 C       -1.3670    -6.6630     1.3350 C.ar  1 <1>   0.1600 
 11 C        0.7070    -6.9540     0.2850 C.ar  1 <1>   0.1600 
 12 C       -0.3720    -7.5180     0.9240 C.ar  1 <1>  -0.1430 
 13 C       -0.4810    -9.0050     1.1640 C.3   1 <1>   0.4860 
 14 N       -0.8600    -9.7070    -0.1030 N.4   1 <1>  -0.9590 
 15 C       -2.1470    -9.1940    -0.6730 C.3   1 <1>   0.3430 
 16 C       -1.0990   -11.1600     0.1640 C.3   1 <1>   0.3430 
 17 C       -3.2460   -10.0160     0.0010 C.3   1 <1>   0.2000 
 18 C       -2.6210   -11.4060     0.1290 C.3   1 <1>  -0.0800 
 19 O       -3.4620    -9.5120     1.2810 O.3   1 <1>  -0.6800 
 20 C       -3.0270   -12.3170    -1.0490 C.3   1 <1>  -0.0170 
 21 C       -2.4890   -13.7310    -0.8860 C.ar  1 <1>   0.1670 
 22 N       -1.1890   -13.8870    -1.0790 N.ar  1 <1>  -0.6200 
 23 C       -3.3550   -14.7640    -0.5580 C.ar  1 <1>  -0.1500 
 24 C       -0.7350   -15.1270    -0.9520 C.ar  1 <1>   0.1600 
 25 C       -2.8670   -16.0450    -0.4200 C.ar  1 <1>  -0.1500 
 26 C       -1.5170   -16.2210    -0.6270 C.ar  1 <1>  -0.1500 
 27 H        0.1360    -2.0830    -2.1570 H     1 <1>   0.0800 
 28 H        1.5100    -1.1760    -1.5670 H     1 <1>   0.0800 
 29 H       -2.0140    -0.6750     0.2870 H     1 <1>   0.0800 
 30 H       -1.9470    -1.7870    -1.0610 H     1 <1>   0.0800 
 31 H        1.6550    -2.5480     0.4290 H     1 <1>   0.0800 
 32 H        1.6070    -3.6010    -0.9550 H     1 <1>   0.0800 
 33 H       -2.1010    -3.0710     0.9990 H     1 <1>   0.0800 
 34 H       -0.7720    -2.2010     1.7070 H     1 <1>   0.0800 
 35 H       -2.2340    -7.0390     1.8560 H     1 <1>   0.1500 
 36 H        1.5320    -7.5610    -0.0470 H     1 <1>   0.1500 
 37 H       -1.2240    -9.1890     1.9230 H     1 <1>   0.0800 
 38 H        0.4630    -9.3810     1.5240 H     1 <1>   0.0800 
 39 H       -0.1050    -9.5880    -0.7900 H     1 <1>   0.4500 
 40 H       -2.2890    -8.1380    -0.5120 H     1 <1>   0.0800 
 41 H       -2.1690    -9.3880    -1.7330 H     1 <1>   0.0800 
 42 H       -0.6100   -11.7460    -0.5970 H     1 <1>   0.0800 
 43 H       -0.6960   -11.4490     1.1210 H     1 <1>   0.0800 
 44 H       -4.1770    -9.9900    -0.5420 H     1 <1>   0.0800 
 45 H       -2.9350   -11.8870     1.0400 H     1 <1>   0.0800 
 46 H       -4.2790    -9.8880     1.6750 H     1 <1>   0.4000 
 47 H       -2.6640   -11.9190    -1.9800 H     1 <1>   0.0800 
 48 H       -4.1000   -12.3600    -1.1150 H     1 <1>   0.0800 
 49 H       -4.4050   -14.5810    -0.4110 H     1 <1>   0.1500 
 50 H        0.3180   -15.2840    -1.1160 H     1 <1>   0.1500 
 51 H       -3.5100   -16.8720    -0.1670 H     1 <1>   0.1500 
 52 H       -1.0740   -17.1970    -0.5410 H     1 <1>   0.1500 
@<TRIPOS>BOND
  1   1   2  1   
  2   1   3  1   
  3   2   4  1   
  4   2  27  1   
  5   2  28  1   
  6   3   5  1   
  7   3  29  1   
  8   3  30  1   
  9   4   6  1   
 10   4  31  1   
 11   4  32  1   
 12   5   6  1   
 13   5  33  1   
 14   5  34  1   
 15   6   7  1   
 16   7   8  ar  
 17   7   9  ar  
 18   8  10  ar  
 19   9  11  ar  
 20  10  12  ar  
 21  10  35  1   
 22  11  12  ar  
 23  11  36  1   
 24  12  13  1   
 25  13  14  1   
 26  13  37  1   
 27  13  38  1   
 28  14  15  1   
 29  14  16  1   
 30  14  39  1   
 31  15  17  1   
 32  15  40  1   
 33  15  41  1   
 34  16  18  1   
 35  16  42  1   
 36  16  43  1   
 37  17  18  1   
 38  17  19  1   
 39  17  44  1   
 40  18  20  1   
 41  18  45  1   
 42  19  46  1   
 43  20  21  1   
 44  20  47  1   
 45  20  48  1   
 46  21  22  ar  
 47  21  23  ar  
 48  22  24  ar  
 49  23  25  ar  
 50  23  49  1   
 51  24  26  ar  
 52  24  50  1   
 53  25  26  ar  
 54  25  51  1   
 55  26  52  1   
@<TRIPOS>SUBSTRUCTURE
  1 ****  14 GROUP 4 **** **** 0

# MOE 2024.06 (io_trps.svl 2023.06)
