@<TRIPOS>MOLECULE
NONAME
51 55 1 0 0 
SMALL
USER_CHARGES


@<TRIPOS>ATOM
  1 O        0.2270     0.9490    -0.4640 O.2   1 <1>  -0.5700 
  2 C        0.0250     2.1380    -0.3750 C.2   1 <1>   0.5690 
  3 N       -1.0830     2.6750     0.2330 N.am  1 <1>  -0.5090 
  4 C        1.0730     3.0720    -0.9720 C.3   1 <1>   0.1810 
  5 C       -1.2550     4.1640     0.3500 C.3   1 <1>   0.3640 
  6 C       -1.9130     1.8610     1.1620 C.3   1 <1>   0.0490 
  7 O        1.1150     4.3080    -0.3090 O.3   1 <1>  -0.5600 
  8 C       -2.5790     4.5900    -0.2820 C.ar  1 <1>  -0.1440 
  9 C       -0.1190     4.9970    -0.3110 C.3   1 <1>   0.2610 
 10 C       -2.5590     0.6100     0.6540 C.3   1 <1>  -0.2000 
 11 C       -3.4030     1.7860     1.0170 C.3   1 <1>  -0.2000 
 12 C       -3.4210     5.4610     0.3960 C.ar  1 <1>   0.1600 
 13 C       -2.9640     4.1380    -1.5330 C.ar  1 <1>  -0.1500 
 14 C        0.0250     6.3930     0.3300 C.2   1 <1>   0.5690 
 15 N       -4.5840     5.9000    -0.0600 N.ar  1 <1>  -0.6200 
 16 C       -4.1720     4.5870    -2.0200 C.ar  1 <1>  -0.1500 
 17 O       -0.6340     6.6450     1.3150 O.2   1 <1>  -0.5700 
 18 N        0.8590     7.3430    -0.2100 N.am  1 <1>  -0.6600 
 19 C       -4.9320     5.4530    -1.2540 C.ar  1 <1>   0.1600 
 20 C        1.0700     8.6530     0.4760 C.3   1 <1>   0.2840 
 21 C        1.7340     7.1480    -1.3980 C.3   1 <1>   0.1400 
 22 C        2.5470     9.0430     0.5520 C.ar  1 <1>  -0.1430 
 23 C        3.1900     7.1010    -0.9370 C.3   1 <1>  -0.0170 
 24 C        3.5410     8.3280    -0.1090 C.ar  1 <1>  -0.1430 
 25 C        2.8980    10.1530     1.3070 C.ar  1 <1>  -0.1500 
 26 C        4.8640     8.7280    -0.0070 C.ar  1 <1>  -0.1500 
 27 C        4.2190    10.5500     1.4040 C.ar  1 <1>  -0.1500 
 28 C        5.2040     9.8360     0.7460 C.ar  1 <1>  -0.1500 
 29 H        0.8660     3.2390    -2.0130 H     1 <1>   0.0800 
 30 H        2.0440     2.6190    -0.8780 H     1 <1>   0.0800 
 31 H       -1.2810     4.3830     1.4030 H     1 <1>   0.0800 
 32 H       -1.4970     1.8350     2.1560 H     1 <1>   0.1000 
 33 H       -0.3820     5.1590    -1.3400 H     1 <1>   0.0800 
 34 H       -2.4380     0.3550    -0.3840 H     1 <1>   0.1000 
 35 H       -2.5730    -0.2550     1.2930 H     1 <1>   0.1000 
 36 H       -4.0050     1.7200     1.9060 H     1 <1>   0.1000 
 37 H       -3.9160     2.2830     0.2150 H     1 <1>   0.1000 
 38 H       -3.1240     5.8240     1.3670 H     1 <1>   0.1500 
 39 H       -2.3590     3.4550    -2.1040 H     1 <1>   0.1500 
 40 H       -4.5280     4.2670    -2.9830 H     1 <1>   0.1500 
 41 H       -5.8760     5.7960    -1.6440 H     1 <1>   0.1500 
 42 H        0.5340     9.4140    -0.0640 H     1 <1>   0.0800 
 43 H        0.6750     8.6190     1.4760 H     1 <1>   0.0800 
 44 H        1.4910     6.2470    -1.9280 H     1 <1>   0.0800 
 45 H        1.5990     7.9780    -2.0710 H     1 <1>   0.0800 
 46 H        3.3460     6.2160    -0.3460 H     1 <1>   0.0800 
 47 H        3.8290     7.0450    -1.7990 H     1 <1>   0.0800 
 48 H        2.1410    10.7150     1.8250 H     1 <1>   0.1500 
 49 H        5.6370     8.1760    -0.5120 H     1 <1>   0.1500 
 50 H        4.4810    11.4120     1.9920 H     1 <1>   0.1500 
 51 H        6.2330    10.1420     0.8220 H     1 <1>   0.1500 
@<TRIPOS>BOND
  1   1   2  2   
  2   2   3  am  
  3   2   4  1   
  4   3   5  1   
  5   3   6  1   
  6   4   7  1   
  7   4  29  1   
  8   4  30  1   
  9   5   8  1   
 10   5   9  1   
 11   5  31  1   
 12   6  10  1   
 13   6  11  1   
 14   6  32  1   
 15   7   9  1   
 16   8  12  ar  
 17   8  13  ar  
 18   9  14  1   
 19   9  33  1   
 20  10  11  1   
 21  10  34  1   
 22  10  35  1   
 23  11  36  1   
 24  11  37  1   
 25  12  15  ar  
 26  12  38  1   
 27  13  16  ar  
 28  13  39  1   
 29  14  17  2   
 30  14  18  am  
 31  15  19  ar  
 32  16  19  ar  
 33  16  40  1   
 34  18  20  1   
 35  18  21  1   
 36  19  41  1   
 37  20  22  1   
 38  20  42  1   
 39  20  43  1   
 40  21  23  1   
 41  21  44  1   
 42  21  45  1   
 43  22  24  ar  
 44  22  25  ar  
 45  23  24  1   
 46  23  46  1   
 47  23  47  1   
 48  24  26  ar  
 49  25  27  ar  
 50  25  48  1   
 51  26  28  ar  
 52  26  49  1   
 53  27  28  ar  
 54  27  50  1   
 55  28  51  1   
@<TRIPOS>SUBSTRUCTURE
  1 ****   9 GROUP 4 **** **** 0

# MOE 2024.06 (io_trps.svl 2023.06)
