@<TRIPOS>MOLECULE
NONAME
38 38 1 0 0 
SMALL
USER_CHARGES


@<TRIPOS>ATOM
  1 CL       1.4080     0.1490    -2.8580 Cl    1 <1>  -0.1770 
  2 C        1.9750     0.9550    -1.4100 C.ar  1 <1>   0.4870 
  3 N        1.8320     2.2610    -1.4140 N.ar  1 <1>  -0.6200 
  4 C        2.5470     0.1890    -0.3650 C.ar  1 <1>   0.4100 
  5 C        2.3120     2.8410    -0.2940 C.ar  1 <1>   0.3960 
  6 N        3.0570     0.7620     0.7140 N.ar  1 <1>  -0.6200 
  7 N        2.6410    -1.1960    -0.4080 N.pl3 1 <1>  -0.8380 
  8 C        2.9430     2.0780     0.7280 C.ar  1 <1>   0.4100 
  9 C        2.1600     4.2790    -0.1730 C.2   1 <1>   0.5440 
 10 C        1.6300    -2.0650     0.2520 C.3   1 <1>   0.2890 
 11 C        3.9990    -1.7810    -0.5130 C.3   1 <1>   0.2090 
 12 N        3.5150     2.6140     1.8460 N.pl3 1 <1>  -0.9000 
 13 O        2.2280     4.8560     0.9030 O.2   1 <1>  -0.5700 
 14 N        1.8630     5.0040    -1.3020 N.am  1 <1>  -0.4900 
 15 C        0.2380    -1.7800    -0.3040 C.3   1 <1>  -0.2400 
 16 C        1.6610    -1.8810     1.7690 C.3   1 <1>  -0.2400 
 17 C        4.1130    -2.5060    -1.8490 C.3   1 <1>  -0.2400 
 18 C        1.9400     6.3740    -1.5490 C.2   1 <1>   0.4500 
 19 N        2.6300     7.2050    -0.8820 N.2   1 <1>  -0.5030 
 20 N        2.6050     8.5320    -1.2600 N.pl3 1 <1>  -0.5690 
 21 H        1.8680    -3.0930     0.0310 H     1 <1>   0.0800 
 22 H        4.1760    -2.4640     0.3010 H     1 <1>   0.0800 
 23 H        4.7420    -1.0020    -0.4610 H     1 <1>   0.0800 
 24 H        3.7200     1.9740     2.6150 H     1 <1>   0.4000 
 25 H        3.2650     3.5800     2.1090 H     1 <1>   0.4000 
 26 H        1.5850     4.4280    -2.0970 H     1 <1>   0.3700 
 27 H       -0.0630    -0.7700    -0.0930 H     1 <1>   0.0800 
 28 H       -0.4760    -2.4460     0.1460 H     1 <1>   0.0800 
 29 H        0.2270    -1.9490    -1.3650 H     1 <1>   0.0800 
 30 H        1.3390    -0.8920     2.0380 H     1 <1>   0.0800 
 31 H        2.6550    -2.0410     2.1430 H     1 <1>   0.0800 
 32 H        1.0030    -2.5890     2.2360 H     1 <1>   0.0800 
 33 H        3.3910    -3.2990    -1.9080 H     1 <1>   0.0800 
 34 H        5.0960    -2.9260    -1.9510 H     1 <1>   0.0800 
 35 H        3.9490    -1.8150    -2.6570 H     1 <1>   0.0800 
 36 H        1.3720     6.7010    -2.4030 H     1 <1>   0.0600 
 37 H        1.6790     8.9120    -1.4950 H     1 <1>   0.3110 
 38 H        3.0950     9.1580    -0.6070 H     1 <1>   0.3110 
@<TRIPOS>BOND
  1   1   2  1   
  2   2   3  ar  
  3   2   4  ar  
  4   3   5  ar  
  5   4   6  ar  
  6   4   7  1   
  7   5   8  ar  
  8   5   9  1   
  9   6   8  ar  
 10   7  10  1   
 11   7  11  1   
 12   8  12  1   
 13   9  13  2   
 14   9  14  am  
 15  10  15  1   
 16  10  16  1   
 17  10  21  1   
 18  11  17  1   
 19  11  22  1   
 20  11  23  1   
 21  12  24  1   
 22  12  25  1   
 23  14  18  1   
 24  14  26  1   
 25  15  27  1   
 26  15  28  1   
 27  15  29  1   
 28  16  30  1   
 29  16  31  1   
 30  16  32  1   
 31  17  33  1   
 32  17  34  1   
 33  17  35  1   
 34  18  19  2   
 35  18  36  1   
 36  19  20  1   
 37  20  37  1   
 38  20  38  1   
@<TRIPOS>SUBSTRUCTURE
  1 ****   5 GROUP 4 **** **** 0

# MOE 2024.06 (io_trps.svl 2023.06)
