@<TRIPOS>MOLECULE
NONAME
50 53 1 0 0 
SMALL
USER_CHARGES


@<TRIPOS>ATOM
  1 S       -1.4560     0.2270     0.8070 S.3   1 <1>  -0.0800 
  2 C       -1.9490     1.2640    -0.5250 C.2   1 <1>  -0.1400 
  3 C        0.2370     0.4180     0.3900 C.2   1 <1>  -0.1100 
  4 C       -0.8700     1.6960    -1.2040 C.2   1 <1>  -0.1500 
  5 C       -3.4350     1.5240    -0.7240 C.3   1 <1>   0.0810 
  6 C        0.3740     1.2160    -0.6840 C.2   1 <1>  -0.1500 
  7 C       -4.1850     0.2960    -1.2270 C.2   1 <1>   0.5690 
  8 O       -4.2300     0.1350    -2.4260 O.2   1 <1>  -0.5700 
  9 N       -4.8200    -0.5780    -0.3760 N.am  1 <1>  -0.6600 
 10 C       -5.4260    -1.8420    -0.8990 C.3   1 <1>   0.1400 
 11 C       -5.0100    -0.3810     1.0890 C.3   1 <1>   0.1400 
 12 C       -6.9530    -1.7400    -1.0450 C.3   1 <1>   0.1400 
 13 C       -6.2680     0.4460     1.3900 C.3   1 <1>  -0.1600 
 14 N       -7.6160    -1.3040     0.2270 N.am  1 <1>  -0.6600 
 15 C       -7.4810     0.1540     0.4950 C.3   1 <1>   0.1400 
 16 C       -8.2750    -2.1190     1.1210 C.2   1 <1>   0.5690 
 17 O       -8.7400    -1.6590     2.1410 O.2   1 <1>  -0.5700 
 18 C       -8.4010    -3.6310     0.8690 C.3   1 <1>   0.1240 
 19 C       -9.5760    -4.0400    -0.0020 C.ar  1 <1>  -0.1430 
 20 C       -8.5990    -4.5150     2.1230 C.3   1 <1>  -0.1600 
 21 C      -10.1040    -5.2340     0.4270 C.ar  1 <1>  -0.1430 
 22 C      -10.1230    -3.3860    -1.0940 C.ar  1 <1>  -0.1500 
 23 C       -9.3840    -5.7480     1.6490 C.3   1 <1>  -0.0170 
 24 C      -11.1730    -5.8170    -0.2290 C.ar  1 <1>  -0.1500 
 25 C      -11.1950    -3.9610    -1.7580 C.ar  1 <1>  -0.1500 
 26 C      -11.7170    -5.1730    -1.3290 C.ar  1 <1>  -0.1500 
 27 H        0.9590    -0.0950     1.0010 H     1 <1>   0.1500 
 28 H       -0.8910     2.3410    -2.0660 H     1 <1>   0.1500 
 29 H       -3.5480     2.2980    -1.4600 H     1 <1>   0.0800 
 30 H       -3.8640     1.8920     0.1860 H     1 <1>   0.0800 
 31 H        1.3070     1.4920    -1.1440 H     1 <1>   0.1500 
 32 H       -5.1830    -2.6560    -0.2390 H     1 <1>   0.0800 
 33 H       -5.0020    -2.0810    -1.8600 H     1 <1>   0.0800 
 34 H       -4.1490     0.0920     1.5250 H     1 <1>   0.0800 
 35 H       -5.1090    -1.3440     1.5610 H     1 <1>   0.0800 
 36 H       -7.3380    -2.6880    -1.3710 H     1 <1>   0.0800 
 37 H       -7.1760    -1.0320    -1.8250 H     1 <1>   0.0800 
 38 H       -6.0350     1.4920     1.3140 H     1 <1>   0.0800 
 39 H       -6.5510     0.2670     2.4120 H     1 <1>   0.0800 
 40 H       -7.3700     0.6800    -0.4390 H     1 <1>   0.0800 
 41 H       -8.3760     0.5220     0.9680 H     1 <1>   0.0800 
 42 H       -7.5060    -3.9760     0.3890 H     1 <1>   0.0800 
 43 H       -9.2060    -3.9930     2.8410 H     1 <1>   0.0800 
 44 H       -7.6640    -4.7780     2.5840 H     1 <1>   0.0800 
 45 H       -9.7320    -2.4410    -1.4250 H     1 <1>   0.1500 
 46 H      -10.0730    -6.0900     2.4020 H     1 <1>   0.0800 
 47 H       -8.7180    -6.5440     1.3680 H     1 <1>   0.0800 
 48 H      -11.5790    -6.7520     0.1120 H     1 <1>   0.1500 
 49 H      -11.6280    -3.4630    -2.6080 H     1 <1>   0.1500 
 50 H      -12.5490    -5.6130    -1.8500 H     1 <1>   0.1500 
@<TRIPOS>BOND
  1   1   2  1   
  2   1   3  1   
  3   2   4  2   
  4   2   5  1   
  5   3   6  2   
  6   3  27  1   
  7   4   6  1   
  8   4  28  1   
  9   5   7  1   
 10   5  29  1   
 11   5  30  1   
 12   6  31  1   
 13   7   8  2   
 14   7   9  am  
 15   9  10  1   
 16   9  11  1   
 17  10  12  1   
 18  10  32  1   
 19  10  33  1   
 20  11  13  1   
 21  11  34  1   
 22  11  35  1   
 23  12  14  1   
 24  12  36  1   
 25  12  37  1   
 26  13  15  1   
 27  13  38  1   
 28  13  39  1   
 29  14  15  1   
 30  14  16  am  
 31  15  40  1   
 32  15  41  1   
 33  16  17  2   
 34  16  18  1   
 35  18  19  1   
 36  18  20  1   
 37  18  42  1   
 38  19  21  ar  
 39  19  22  ar  
 40  20  23  1   
 41  20  43  1   
 42  20  44  1   
 43  21  23  1   
 44  21  24  ar  
 45  22  25  ar  
 46  22  45  1   
 47  23  46  1   
 48  23  47  1   
 49  24  26  ar  
 50  24  48  1   
 51  25  26  ar  
 52  25  49  1   
 53  26  50  1   
@<TRIPOS>SUBSTRUCTURE
  1 ****  12 GROUP 4 **** **** 0

# MOE 2024.06 (io_trps.svl 2023.06)
