@<TRIPOS>MOLECULE
NONAME
46 48 1 0 0 
SMALL
USER_CHARGES


@<TRIPOS>ATOM
  1 O       -1.1590     0.2140     2.4380 O.2   1 <1>  -0.5700 
  2 C       -1.6820     0.8730     1.5690 C.2   1 <1>   0.5690 
  3 N       -2.5140     0.2880     0.6500 N.am  1 <1>  -0.6600 
  4 C       -1.4200     2.3770     1.5580 C.3   1 <1>   0.1810 
  5 C       -3.2420     0.9730    -0.4480 C.3   1 <1>   0.1400 
  6 C       -2.7350    -1.1770     0.5800 C.3   1 <1>   0.1400 
  7 O       -1.0110     2.8310     0.2760 O.3   1 <1>  -0.3620 
  8 C       -4.2940    -0.0430    -0.8890 C.3   1 <1>   0.2000 
  9 C       -3.6030    -1.3930    -0.6660 C.3   1 <1>  -0.0800 
 10 C       -0.8270     4.1500     0.0240 C.ar  1 <1>   0.0820 
 11 O       -5.3820     0.0680    -0.0350 O.3   1 <1>  -0.6800 
 12 C       -4.5440    -2.6080    -0.5680 C.3   1 <1>  -0.0170 
 13 C       -0.9310     5.1470     0.9900 C.ar  1 <1>  -0.1500 
 14 C       -0.5200     4.4980    -1.2810 C.ar  1 <1>  -0.1500 
 15 C       -3.7510    -3.8990    -0.4330 C.ar  1 <1>  -0.1440 
 16 C       -0.7360     6.4720     0.6390 C.ar  1 <1>  -0.1500 
 17 C       -0.3250     5.8230    -1.6270 C.ar  1 <1>  -0.1500 
 18 C       -3.5170    -4.4910     0.7910 C.ar  1 <1>  -0.1500 
 19 C       -3.2200    -4.5420    -1.5320 C.ar  1 <1>  -0.1500 
 20 C       -0.4350     6.8180    -0.6690 C.ar  1 <1>  -0.1440 
 21 C       -2.7810    -5.6630     0.8560 C.ar  1 <1>   0.1600 
 22 C       -2.4990    -5.7120    -1.3590 C.ar  1 <1>   0.1600 
 23 C       -0.2200     8.2730    -1.0470 C.3   1 <1>  -0.0970 
 24 N       -2.2650    -6.2870    -0.1910 N.ar  1 <1>  -0.6200 
 25 H       -0.6380     2.6080     2.2580 H     1 <1>   0.0800 
 26 H       -2.3210     2.8930     1.8320 H     1 <1>   0.0800 
 27 H       -3.6880     1.8990    -0.1270 H     1 <1>   0.0800 
 28 H       -2.5560     1.1650    -1.2550 H     1 <1>   0.0800 
 29 H       -1.7980    -1.7020     0.5050 H     1 <1>   0.0800 
 30 H       -3.2490    -1.4950     1.4720 H     1 <1>   0.0800 
 31 H       -4.6330     0.1080    -1.9000 H     1 <1>   0.0800 
 32 H       -2.9340    -1.5530    -1.4930 H     1 <1>   0.0800 
 33 H       -5.0540     0.0730     0.8870 H     1 <1>   0.4000 
 34 H       -5.1570    -2.6570    -1.4510 H     1 <1>   0.0800 
 35 H       -5.2050    -2.5050     0.2740 H     1 <1>   0.0800 
 36 H       -1.1580     4.9180     2.0130 H     1 <1>   0.1500 
 37 H       -0.4320     3.7260    -2.0240 H     1 <1>   0.1500 
 38 H       -0.8170     7.2370     1.3910 H     1 <1>   0.1500 
 39 H       -0.0870     6.0770    -2.6450 H     1 <1>   0.1500 
 40 H       -3.8980    -4.0560     1.6970 H     1 <1>   0.1500 
 41 H       -3.3600    -4.1470    -2.5220 H     1 <1>   0.1500 
 42 H       -2.6070    -6.1100     1.8200 H     1 <1>   0.1500 
 43 H       -2.0920    -6.2010    -2.2280 H     1 <1>   0.1500 
 44 H       -0.8110     8.9160    -0.4200 H     1 <1>   0.0800 
 45 H       -0.5060     8.4420    -2.0700 H     1 <1>   0.0800 
 46 H        0.8170     8.5290    -0.9300 H     1 <1>   0.0800 
@<TRIPOS>BOND
  1   1   2  2   
  2   2   3  am  
  3   2   4  1   
  4   3   5  1   
  5   3   6  1   
  6   4   7  1   
  7   4  25  1   
  8   4  26  1   
  9   5   8  1   
 10   5  27  1   
 11   5  28  1   
 12   6   9  1   
 13   6  29  1   
 14   6  30  1   
 15   7  10  1   
 16   8   9  1   
 17   8  11  1   
 18   8  31  1   
 19   9  12  1   
 20   9  32  1   
 21  10  13  ar  
 22  10  14  ar  
 23  11  33  1   
 24  12  15  1   
 25  12  34  1   
 26  12  35  1   
 27  13  16  ar  
 28  13  36  1   
 29  14  17  ar  
 30  14  37  1   
 31  15  18  ar  
 32  15  19  ar  
 33  16  20  ar  
 34  16  38  1   
 35  17  20  ar  
 36  17  39  1   
 37  18  21  ar  
 38  18  40  1   
 39  19  22  ar  
 40  19  41  1   
 41  20  23  1   
 42  21  24  ar  
 43  21  42  1   
 44  22  24  ar  
 45  22  43  1   
 46  23  44  1   
 47  23  45  1   
 48  23  46  1   
@<TRIPOS>SUBSTRUCTURE
  1 ****   3 GROUP 4 **** **** 0

# MOE 2024.06 (io_trps.svl 2023.06)
