@<TRIPOS>MOLECULE
NONAME
54 57 1 0 0 
SMALL
USER_CHARGES


@<TRIPOS>ATOM
  1 O       -1.0190     1.1740    -2.3130 O.2   1 <1>  -0.5700 
  2 C       -1.8890     1.4580    -1.5040 C.2   1 <1>   0.5440 
  3 N       -3.1070     0.8010    -1.5970 N.am  1 <1>  -0.6600 
  4 C       -1.6000     2.4290    -0.4450 C.ar  1 <1>   0.3960 
  5 C       -3.4090    -0.1820    -2.6740 C.3   1 <1>   0.1400 
  6 C       -4.2240     0.9810    -0.6320 C.3   1 <1>   0.1400 
  7 N       -2.2650     3.5990    -0.4450 N.ar  1 <1>  -0.6200 
  8 C       -0.6580     2.1180     0.5500 C.ar  1 <1>  -0.1430 
  9 C       -3.7010    -1.5430    -2.0370 C.3   1 <1>  -0.1600 
 10 C       -4.5190    -0.3630     0.0360 C.3   1 <1>  -0.1600 
 11 C       -1.9800     4.4550     0.5160 C.ar  1 <1>   0.1600 
 12 C       -0.3820     3.0300     1.5490 C.ar  1 <1>  -0.1500 
 13 C        0.0800     0.7820     0.5580 C.3   1 <1>  -0.0970 
 14 C       -4.8290    -1.4620    -0.9970 C.3   1 <1>   0.4240 
 15 C       -1.0630     4.2250     1.5230 C.ar  1 <1>  -0.1500 
 16 O       -5.9730    -1.0720    -1.7210 O.3   1 <1>  -0.5600 
 17 C       -5.0280    -2.8300    -0.3090 C.ar  1 <1>  -0.1430 
 18 C       -7.2180    -1.3460    -1.1590 C.3   1 <1>   0.1200 
 19 C       -6.2480    -3.4920    -0.3560 C.ar  1 <1>  -0.1430 
 20 C       -3.9830    -3.4270     0.3830 C.ar  1 <1>  -0.1500 
 21 C       -7.4080    -2.8590    -1.0980 C.3   1 <1>  -0.0170 
 22 C       -6.4100    -4.7180     0.2690 C.ar  1 <1>  -0.1500 
 23 C       -4.1240    -4.6540     1.0100 C.ar  1 <1>   0.0830 
 24 C       -5.3620    -5.3140     0.9660 C.ar  1 <1>   0.0830 
 25 O       -3.0000    -5.1070     1.6340 O.3   1 <1>  -0.3630 
 26 O       -5.5260    -6.5060     1.6130 O.3   1 <1>  -0.3620 
 27 C       -2.7210    -6.4860     1.7290 C.3   1 <1>   0.0400 
 28 C       -6.7860    -7.1270     1.7390 C.3   1 <1>   0.0400 
 29 H       -2.5830    -0.2720    -3.3580 H     1 <1>   0.0800 
 30 H       -4.2660     0.1580    -3.2300 H     1 <1>   0.0800 
 31 H       -5.0940     1.3300    -1.1640 H     1 <1>   0.0800 
 32 H       -3.9810     1.7100     0.1200 H     1 <1>   0.0800 
 33 H       -2.7960    -1.8940    -1.5800 H     1 <1>   0.0800 
 34 H       -3.9740    -2.2500    -2.7980 H     1 <1>   0.0800 
 35 H       -5.3360    -0.2610     0.7240 H     1 <1>   0.0800 
 36 H       -3.6580    -0.6450     0.6120 H     1 <1>   0.0800 
 37 H       -2.5070     5.3940     0.5040 H     1 <1>   0.1500 
 38 H        0.3370     2.8250     2.3220 H     1 <1>   0.1500 
 39 H       -0.6210    -0.0320     0.5010 H     1 <1>   0.0800 
 40 H        0.6630     0.6630     1.4530 H     1 <1>   0.0800 
 41 H        0.7420     0.7250    -0.2890 H     1 <1>   0.0800 
 42 H       -0.8850     4.9740     2.2730 H     1 <1>   0.1500 
 43 H       -7.9680    -0.8970    -1.7860 H     1 <1>   0.0800 
 44 H       -7.2700    -0.9080    -0.1790 H     1 <1>   0.0800 
 45 H       -3.0260    -2.9450     0.4480 H     1 <1>   0.1500 
 46 H       -7.4590    -3.2530    -2.0970 H     1 <1>   0.0800 
 47 H       -8.3350    -3.0780    -0.5990 H     1 <1>   0.0800 
 48 H       -7.3680    -5.1950     0.2020 H     1 <1>   0.1500 
 49 H       -1.6690    -6.6040     1.9130 H     1 <1>   0.0800 
 50 H       -2.9910    -6.9640     0.8030 H     1 <1>   0.0800 
 51 H       -3.2820    -6.8970     2.5490 H     1 <1>   0.0800 
 52 H       -6.6650    -8.0070     2.3440 H     1 <1>   0.0800 
 53 H       -7.1390    -7.4030     0.7620 H     1 <1>   0.0800 
 54 H       -7.4650    -6.4440     2.2200 H     1 <1>   0.0800 
@<TRIPOS>BOND
  1   1   2  2   
  2   2   3  am  
  3   2   4  1   
  4   3   5  1   
  5   3   6  1   
  6   4   7  ar  
  7   4   8  ar  
  8   5   9  1   
  9   5  29  1   
 10   5  30  1   
 11   6  10  1   
 12   6  31  1   
 13   6  32  1   
 14   7  11  ar  
 15   8  12  ar  
 16   8  13  1   
 17   9  14  1   
 18   9  33  1   
 19   9  34  1   
 20  10  14  1   
 21  10  35  1   
 22  10  36  1   
 23  11  15  ar  
 24  11  37  1   
 25  12  15  ar  
 26  12  38  1   
 27  13  39  1   
 28  13  40  1   
 29  13  41  1   
 30  14  16  1   
 31  14  17  1   
 32  15  42  1   
 33  16  18  1   
 34  17  19  ar  
 35  17  20  ar  
 36  18  21  1   
 37  18  43  1   
 38  18  44  1   
 39  19  21  1   
 40  19  22  ar  
 41  20  23  ar  
 42  20  45  1   
 43  21  46  1   
 44  21  47  1   
 45  22  24  ar  
 46  22  48  1   
 47  23  24  ar  
 48  23  25  1   
 49  24  26  1   
 50  25  27  1   
 51  26  28  1   
 52  27  49  1   
 53  27  50  1   
 54  27  51  1   
 55  28  52  1   
 56  28  53  1   
 57  28  54  1   
@<TRIPOS>SUBSTRUCTURE
  1 ****  10 GROUP 4 **** **** 0

# MOE 2024.06 (io_trps.svl 2023.06)
