@<TRIPOS>MOLECULE
NONAME
21 21 1 0 0 
SMALL
USER_CHARGES


@<TRIPOS>ATOM
  1 F        1.3900     1.5380    -1.3910 F     1 <1>  -0.3400 
  2 C        0.2520     2.1800    -1.1480 C.3   1 <1>   1.0200 
  3 F       -0.7130     1.2760    -1.2860 F     1 <1>  -0.3400 
  4 F        0.0910     3.0360    -2.1560 F     1 <1>  -0.3400 
  5 C        0.2170     2.8840     0.2360 C.3   1 <1>   0.3440 
  6 O       -0.9750     3.6110     0.4880 O.3   1 <1>  -0.6800 
  7 C        1.4280     3.7980     0.4170 C.ar  1 <1>   0.1660 
  8 N        2.3770     3.3490     1.2270 N.ar  1 <1>  -0.6200 
  9 C        1.5020     5.0190    -0.2460 C.ar  1 <1>  -0.1500 
 10 C        3.4260     4.1390     1.3860 C.ar  1 <1>   0.1600 
 11 C        2.6020     5.8340    -0.0760 C.ar  1 <1>  -0.1430 
 12 C        3.5850     5.3680     0.7700 C.ar  1 <1>  -0.1500 
 13 C        2.7190     7.1730    -0.7810 C.3   1 <1>  -0.0970 
 14 H        0.2610     2.1130     0.9830 H     1 <1>   0.0800 
 15 H       -1.0130     4.4130    -0.0680 H     1 <1>   0.4000 
 16 H        0.7110     5.3400    -0.8970 H     1 <1>   0.1500 
 17 H        4.2040     3.7890     2.0430 H     1 <1>   0.1500 
 18 H        4.4710     5.9460     0.9560 H     1 <1>   0.1500 
 19 H        2.3220     7.1060    -1.7780 H     1 <1>   0.0800 
 20 H        3.7490     7.4770    -0.8460 H     1 <1>   0.0800 
 21 H        2.1710     7.9220    -0.2380 H     1 <1>   0.0800 
@<TRIPOS>BOND
  1   1   2  1   
  2   2   3  1   
  3   2   4  1   
  4   2   5  1   
  5   5   6  1   
  6   5   7  1   
  7   5  14  1   
  8   6  15  1   
  9   7   8  ar  
 10   7   9  ar  
 11   8  10  ar  
 12   9  11  ar  
 13   9  16  1   
 14  10  12  ar  
 15  10  17  1   
 16  11  12  ar  
 17  11  13  1   
 18  12  18  1   
 19  13  19  1   
 20  13  20  1   
 21  13  21  1   
@<TRIPOS>SUBSTRUCTURE
  1 ****   7 GROUP 4 **** **** 0

# MOE 2024.06 (io_trps.svl 2023.06)
