@<TRIPOS>MOLECULE
NONAME
39 41 1 0 0 
SMALL
USER_CHARGES


@<TRIPOS>ATOM
  1 CL      -2.3970     0.4050    -0.8440 Cl    1 <1>  -0.1770 
  2 C       -2.7720    -1.0260     0.0790 C.ar  1 <1>   0.1770 
  3 C       -2.9130    -0.9250     1.4480 C.ar  1 <1>  -0.1500 
  4 C       -2.9220    -2.2350    -0.5760 C.ar  1 <1>  -0.1500 
  5 C       -3.2120    -2.0820     2.1360 C.ar  1 <1>   0.1900 
  6 C       -3.2200    -3.4080     0.1250 C.ar  1 <1>   0.0860 
  7 F       -3.3560    -2.0200     3.4320 F     1 <1>  -0.1900 
  8 C       -3.3680    -3.3040     1.5110 C.ar  1 <1>  -0.1500 
  9 C       -3.3700    -4.6730    -0.5760 C.2   1 <1>   0.5440 
 10 O       -3.6010    -4.6970    -1.7680 O.2   1 <1>  -0.5700 
 11 N       -3.2600    -5.8630     0.0810 N.am  1 <1>  -0.7300 
 12 C       -3.3460    -7.2030    -0.5490 C.3   1 <1>   0.2200 
 13 C       -4.6740    -7.8780    -0.2320 C.3   1 <1>  -0.0800 
 14 C       -2.3840    -8.1380     0.1700 C.3   1 <1>   0.1200 
 15 C       -4.4220    -8.5150     1.1400 C.3   1 <1>   0.1200 
 16 C       -5.9200    -6.9740    -0.2950 C.3   1 <1>  -0.0160 
 17 O       -3.0390    -8.4790     1.3530 O.3   1 <1>  -0.5600 
 18 C       -7.1870    -7.7820    -0.0620 C.ar  1 <1>  -0.1430 
 19 C       -7.8120    -7.8320     1.1670 C.ar  1 <1>  -0.1500 
 20 C       -7.7770    -8.5100    -1.0760 C.ar  1 <1>  -0.1500 
 21 C       -8.9600    -8.5920     1.3210 C.ar  1 <1>   0.1600 
 22 C       -8.9270    -9.2370    -0.8160 C.ar  1 <1>   0.1600 
 23 N       -9.5320    -9.2980     0.3590 N.ar  1 <1>  -0.6200 
 24 H       -2.7960     0.0150     1.9550 H     1 <1>   0.1500 
 25 H       -2.8060    -2.2690    -1.6450 H     1 <1>   0.1500 
 26 H       -3.6090    -4.1630     2.1090 H     1 <1>   0.1500 
 27 H       -3.0360    -5.9020     1.0770 H     1 <1>   0.3700 
 28 H       -3.1480    -7.1450    -1.6060 H     1 <1>   0.0800 
 29 H       -4.8090    -8.6790    -0.9370 H     1 <1>   0.0800 
 30 H       -1.4390    -7.6760     0.3950 H     1 <1>   0.0800 
 31 H       -2.2290    -9.0400    -0.3960 H     1 <1>   0.0800 
 32 H       -4.7550    -9.5380     1.1700 H     1 <1>   0.0800 
 33 H       -4.8880    -7.9570     1.9330 H     1 <1>   0.0800 
 34 H       -5.9690    -6.5030    -1.2620 H     1 <1>   0.0800 
 35 H       -5.8560    -6.1920     0.4410 H     1 <1>   0.0800 
 36 H       -7.4200    -7.2900     2.0080 H     1 <1>   0.1500 
 37 H       -7.3550    -8.5180    -2.0640 H     1 <1>   0.1500 
 38 H       -9.4340    -8.6200     2.2870 H     1 <1>   0.1500 
 39 H       -9.3730    -9.7990    -1.6190 H     1 <1>   0.1500 
@<TRIPOS>BOND
  1   1   2  1   
  2   2   3  ar  
  3   2   4  ar  
  4   3   5  ar  
  5   3  24  1   
  6   4   6  ar  
  7   4  25  1   
  8   5   7  1   
  9   5   8  ar  
 10   6   8  ar  
 11   6   9  1   
 12   8  26  1   
 13   9  10  2   
 14   9  11  am  
 15  11  12  1   
 16  11  27  1   
 17  12  13  1   
 18  12  14  1   
 19  12  28  1   
 20  13  15  1   
 21  13  16  1   
 22  13  29  1   
 23  14  17  1   
 24  14  30  1   
 25  14  31  1   
 26  15  17  1   
 27  15  32  1   
 28  15  33  1   
 29  16  18  1   
 30  16  34  1   
 31  16  35  1   
 32  18  19  ar  
 33  18  20  ar  
 34  19  21  ar  
 35  19  36  1   
 36  20  22  ar  
 37  20  37  1   
 38  21  23  ar  
 39  21  38  1   
 40  22  23  ar  
 41  22  39  1   
@<TRIPOS>SUBSTRUCTURE
  1 ****  11 GROUP 4 **** **** 0

# MOE 2024.06 (io_trps.svl 2023.06)
