@<TRIPOS>MOLECULE
NONAME
55 59 1 0 0 
SMALL
USER_CHARGES


@<TRIPOS>ATOM
  1 O       -1.0610     1.0100    -2.1850 O.2   1 <1>  -0.5700 
  2 C       -2.0090     1.4590    -1.5660 C.2   1 <1>   0.5440 
  3 N       -3.2200     0.7950    -1.6110 N.am  1 <1>  -0.6600 
  4 C       -1.8300     2.6680    -0.7890 C.ar  1 <1>   0.0860 
  5 C       -4.3310     1.0230    -0.6450 C.3   1 <1>   0.1400 
  6 C       -3.4500    -0.3650    -2.5180 C.3   1 <1>   0.1400 
  7 C       -2.6240     3.7960    -0.9900 C.ar  1 <1>  -0.1500 
  8 C       -0.8490     2.7500     0.1970 C.ar  1 <1>  -0.1500 
  9 C       -4.5120    -0.2270     0.2190 C.3   1 <1>  -0.1600 
 10 C       -3.6280    -1.6360    -1.6840 C.3   1 <1>  -0.1600 
 11 C       -2.4570     4.9370    -0.2290 C.ar  1 <1>  -0.1500 
 12 C       -0.6830     3.8920     0.9580 C.ar  1 <1>  -0.1500 
 13 C       -4.7440    -1.4910    -0.6330 C.3   1 <1>   0.4240 
 14 C       -1.4840     5.0170     0.7670 C.ar  1 <1>   0.0540 
 15 O       -5.9030    -1.2500    -1.4040 O.3   1 <1>  -0.5600 
 16 C       -4.8880    -2.7770     0.2320 C.ar  1 <1>  -0.1430 
 17 C       -1.3260     6.2210     1.5580 C.2   1 <1>   0.2350 
 18 C       -7.1380    -1.5100    -0.8230 C.3   1 <1>   0.1200 
 19 C       -3.8460    -3.2530     1.0400 C.ar  1 <1>   0.0820 
 20 C       -6.0840    -3.4940     0.2170 C.ar  1 <1>  -0.1430 
 21 N       -2.2770     7.1080     1.7410 N.2   1 <1>  -0.7070 
 22 C       -0.1610     6.6120     2.2290 C.2   1 <1>  -0.1500 
 23 C       -7.2530    -3.0120    -0.6160 C.3   1 <1>  -0.0170 
 24 O       -2.6780    -2.5600     1.0890 O.3   1 <1>  -0.3620 
 25 C       -4.0120    -4.4170     1.7880 C.ar  1 <1>  -0.1500 
 26 C       -6.2360    -4.6530     0.9600 C.ar  1 <1>  -0.1500 
 27 N       -1.7370     8.0550     2.5240 N.pl3 1 <1>   0.3000 
 28 C       -0.4570     7.7790     2.8330 C.2   1 <1>  -0.3020 
 29 C       -1.4950    -3.1020     1.6330 C.3   1 <1>   0.0400 
 30 C       -5.2010    -5.1160     1.7450 C.ar  1 <1>  -0.1500 
 31 H       -5.2350     1.2290    -1.1920 H     1 <1>   0.0800 
 32 H       -4.1270     1.8620    -0.0060 H     1 <1>   0.0800 
 33 H       -2.6240    -0.4900    -3.1970 H     1 <1>   0.0800 
 34 H       -4.3340    -0.1820    -3.1040 H     1 <1>   0.0800 
 35 H       -3.3790     3.7690    -1.7550 H     1 <1>   0.1500 
 36 H       -0.2150     1.8950     0.3600 H     1 <1>   0.1500 
 37 H       -5.3270    -0.0900     0.9020 H     1 <1>   0.0800 
 38 H       -3.6260    -0.3380     0.8130 H     1 <1>   0.0800 
 39 H       -2.6870    -1.8480    -1.2180 H     1 <1>   0.0800 
 40 H       -3.8590    -2.4650    -2.3270 H     1 <1>   0.0800 
 41 H       -3.0890     5.7910    -0.4010 H     1 <1>   0.1500 
 42 H        0.0790     3.9060     1.7160 H     1 <1>   0.1500 
 43 H       -7.9010    -1.1620    -1.4970 H     1 <1>   0.0800 
 44 H       -7.2160    -0.9800     0.1090 H     1 <1>   0.0800 
 45 H        0.7700     6.0750     2.2390 H     1 <1>   0.1500 
 46 H       -7.2520    -3.5090    -1.5700 H     1 <1>   0.0800 
 47 H       -8.1820    -3.2290    -0.1200 H     1 <1>   0.0800 
 48 H       -3.2290    -4.7960     2.4150 H     1 <1>   0.1500 
 49 H       -7.1630    -5.1990     0.9320 H     1 <1>   0.1500 
 50 H       -2.2660     8.8810     2.8310 H     1 <1>   0.2700 
 51 H        0.1530     8.4160     3.4470 H     1 <1>   0.1500 
 52 H       -0.6920    -2.4180     1.4290 H     1 <1>   0.0800 
 53 H       -1.2970    -4.0490     1.1620 H     1 <1>   0.0800 
 54 H       -1.6180    -3.2140     2.6950 H     1 <1>   0.0800 
 55 H       -5.3220    -6.0160     2.3230 H     1 <1>   0.1500 
@<TRIPOS>BOND
  1   1   2  2   
  2   2   3  am  
  3   2   4  1   
  4   3   5  1   
  5   3   6  1   
  6   4   7  ar  
  7   4   8  ar  
  8   5   9  1   
  9   5  31  1   
 10   5  32  1   
 11   6  10  1   
 12   6  33  1   
 13   6  34  1   
 14   7  11  ar  
 15   7  35  1   
 16   8  12  ar  
 17   8  36  1   
 18   9  13  1   
 19   9  37  1   
 20   9  38  1   
 21  10  13  1   
 22  10  39  1   
 23  10  40  1   
 24  11  14  ar  
 25  11  41  1   
 26  12  14  ar  
 27  12  42  1   
 28  13  15  1   
 29  13  16  1   
 30  14  17  1   
 31  15  18  1   
 32  16  19  ar  
 33  16  20  ar  
 34  17  21  2   
 35  17  22  1   
 36  18  23  1   
 37  18  43  1   
 38  18  44  1   
 39  19  24  1   
 40  19  25  ar  
 41  20  23  1   
 42  20  26  ar  
 43  21  27  1   
 44  22  28  2   
 45  22  45  1   
 46  23  46  1   
 47  23  47  1   
 48  24  29  1   
 49  25  30  ar  
 50  25  48  1   
 51  26  30  ar  
 52  26  49  1   
 53  27  28  1   
 54  27  50  1   
 55  28  51  1   
 56  29  52  1   
 57  29  53  1   
 58  29  54  1   
 59  30  55  1   
@<TRIPOS>SUBSTRUCTURE
  1 ****   5 GROUP 4 **** **** 0

# MOE 2024.06 (io_trps.svl 2023.06)
