@<TRIPOS>MOLECULE
NONAME
47 51 1 0 0 
SMALL
USER_CHARGES


@<TRIPOS>ATOM
  1 O       -0.7870     0.6810    -1.1420 O.2   1 <1>  -0.5700 
  2 C       -1.8350     1.2030    -0.7900 C.2   1 <1>   0.7160 
  3 N       -3.0110     0.5360    -1.1020 N.am  1 <1>  -0.6600 
  4 C       -1.7780     2.4690    -0.0570 C.2   1 <1>   0.2030 
  5 C       -4.2960     0.7200    -0.3750 C.3   1 <1>   0.1400 
  6 C       -3.0720    -0.4950    -2.1750 C.3   1 <1>   0.1400 
  7 N       -2.7340     3.3750     0.0830 N.2   1 <1>  -0.7070 
  8 C       -0.6170     2.8960     0.6070 C.2   1 <1>  -0.1500 
  9 C       -4.7130    -0.6130     0.2510 C.3   1 <1>  -0.1600 
 10 C       -3.4660    -1.8380    -1.5630 C.3   1 <1>  -0.1600 
 11 N       -2.1850     4.3560     0.8280 N.pl3 1 <1>   0.3000 
 12 C       -0.8990     4.0940     1.1560 C.2   1 <1>  -0.0680 
 13 C       -4.7840    -1.7360    -0.7910 C.3   1 <1>   0.4600 
 14 N       -0.0640     4.9200     1.9190 N.pl3 1 <1>  -0.8840 
 15 O       -5.7790    -1.4240    -1.7440 O.3   1 <1>  -0.5600 
 16 C       -5.1180    -3.0720    -0.1370 C.2   1 <1>  -0.3320 
 17 C       -7.1210    -1.6990    -1.4190 C.3   1 <1>   0.1200 
 18 N       -4.3220    -3.7750     0.7250 N.pl3 1 <1>   0.0330 
 19 C       -6.2680    -3.7470    -0.3320 C.2   1 <1>  -0.1810 
 20 C       -7.3500    -3.2090    -1.2340 C.3   1 <1>   0.0210 
 21 C       -4.9890    -4.9250     1.0750 C.ar  1 <1>  -0.1520 
 22 C       -6.2190    -4.9370     0.4230 C.ar  1 <1>   0.0000 
 23 C       -4.6160    -5.9730     1.9200 C.ar  1 <1>  -0.1500 
 24 C       -7.0930    -6.0120     0.6140 C.ar  1 <1>  -0.1500 
 25 C       -5.4860    -7.0240     2.1000 C.ar  1 <1>  -0.1500 
 26 C       -6.7250    -7.0440     1.4460 C.ar  1 <1>  -0.1500 
 27 H       -5.0490     1.0590    -1.0670 H     1 <1>   0.0800 
 28 H       -4.2040     1.4500     0.4080 H     1 <1>   0.0800 
 29 H       -2.1240    -0.5860    -2.6770 H     1 <1>   0.0800 
 30 H       -3.8050    -0.1960    -2.9060 H     1 <1>   0.0800 
 31 H        0.3050     2.3460     0.6450 H     1 <1>   0.1500 
 32 H       -5.6570    -0.5080     0.7480 H     1 <1>   0.0800 
 33 H       -3.9890    -0.8730     1.0000 H     1 <1>   0.0800 
 34 H       -2.6780    -2.1550    -0.9060 H     1 <1>   0.0800 
 35 H       -3.5660    -2.5790    -2.3350 H     1 <1>   0.0800 
 36 H       -2.7020     5.1910     1.1230 H     1 <1>   0.2700 
 37 H       -0.0630     5.9130     1.6610 H     1 <1>   0.4000 
 38 H        0.9040     4.5850     1.9870 H     1 <1>   0.4000 
 39 H       -7.7350    -1.3260    -2.2180 H     1 <1>   0.0800 
 40 H       -7.3700    -1.1710    -0.5160 H     1 <1>   0.0800 
 41 H       -3.3870    -3.5130     1.0490 H     1 <1>   0.2700 
 42 H       -7.3080    -3.7060    -2.1860 H     1 <1>   0.0800 
 43 H       -8.3160    -3.3780    -0.7970 H     1 <1>   0.0800 
 44 H       -3.6630    -5.9510     2.4180 H     1 <1>   0.1500 
 45 H       -8.0390    -6.0140     0.1050 H     1 <1>   0.1500 
 46 H       -5.2220    -7.8440     2.7450 H     1 <1>   0.1500 
 47 H       -7.3860    -7.8780     1.6030 H     1 <1>   0.1500 
@<TRIPOS>BOND
  1   1   2  2   
  2   2   3  am  
  3   2   4  1   
  4   3   5  1   
  5   3   6  1   
  6   4   7  2   
  7   4   8  1   
  8   5   9  1   
  9   5  27  1   
 10   5  28  1   
 11   6  10  1   
 12   6  29  1   
 13   6  30  1   
 14   7  11  1   
 15   8  12  2   
 16   8  31  1   
 17   9  13  1   
 18   9  32  1   
 19   9  33  1   
 20  10  13  1   
 21  10  34  1   
 22  10  35  1   
 23  11  12  1   
 24  11  36  1   
 25  12  14  1   
 26  13  15  1   
 27  13  16  1   
 28  14  37  1   
 29  14  38  1   
 30  15  17  1   
 31  16  18  1   
 32  16  19  2   
 33  17  20  1   
 34  17  39  1   
 35  17  40  1   
 36  18  21  1   
 37  18  41  1   
 38  19  20  1   
 39  19  22  1   
 40  20  42  1   
 41  20  43  1   
 42  21  22  ar  
 43  21  23  ar  
 44  22  24  ar  
 45  23  25  ar  
 46  23  44  1   
 47  24  26  ar  
 48  24  45  1   
 49  25  26  ar  
 50  25  46  1   
 51  26  47  1   
@<TRIPOS>SUBSTRUCTURE
  1 ****   9 GROUP 4 **** **** 0

# MOE 2024.06 (io_trps.svl 2023.06)
