@<TRIPOS>MOLECULE
NONAME
48 51 1 0 0 
SMALL
USER_CHARGES


@<TRIPOS>ATOM
  1 O        2.5560    -0.8180    -2.6510 O.2   1 <1>  -0.5700 
  2 C        2.0920    -1.2850    -1.6230 C.2   1 <1>   0.5440 
  3 N        1.9010    -0.4090    -0.5670 N.am  1 <1>  -0.6600 
  4 C        1.8040    -2.7210    -1.5680 C.ar  1 <1>   0.3960 
  5 C        2.2970     1.0160    -0.6280 C.3   1 <1>   0.1400 
  6 C        1.4680    -0.7750     0.8020 C.3   1 <1>   0.1400 
  7 N        0.8210    -3.2080    -0.7920 N.ar  1 <1>  -0.6200 
  8 C        2.5860    -3.5680    -2.3580 C.ar  1 <1>   0.1600 
  9 C        2.4610     1.4330     0.8280 C.3   1 <1>  -0.1600 
 10 C        1.5010     0.5280     1.5950 C.3   1 <1>  -0.1600 
 11 C        0.6760    -4.5220    -0.8470 C.ar  1 <1>   0.4100 
 12 N        2.4740    -4.8870    -2.4250 N.ar  1 <1>  -0.6200 
 13 N       -0.3360    -5.0570    -0.0530 N.pl3 1 <1>  -0.8380 
 14 C        1.5050    -5.3260    -1.6490 C.ar  1 <1>   0.1600 
 15 C       -1.3700    -4.1900     0.5870 C.3   1 <1>   0.2090 
 16 C       -0.9050    -6.4060    -0.2990 C.3   1 <1>   0.2090 
 17 C       -2.6080    -5.0740     0.7580 C.3   1 <1>   0.2000 
 18 C       -2.1140    -6.5120     0.6290 C.3   1 <1>  -0.0800 
 19 O       -3.2070    -4.8970     1.9980 O.3   1 <1>  -0.6800 
 20 C       -3.2080    -7.4710     0.1280 C.3   1 <1>  -0.0170 
 21 C       -2.7080    -8.9050     0.0280 C.ar  1 <1>   0.1670 
 22 N       -1.9450    -9.1950    -1.0150 N.ar  1 <1>  -0.6200 
 23 C       -3.0610    -9.8340     1.0050 C.ar  1 <1>   0.1600 
 24 C       -1.5690   -10.4640    -1.0170 C.ar  1 <1>   0.1600 
 25 N       -2.6820   -11.1020     1.0070 N.ar  1 <1>  -0.6200 
 26 C       -1.9250   -11.3850    -0.0390 C.ar  1 <1>   0.1600 
 27 H        3.2110     1.1450    -1.1830 H     1 <1>   0.0800 
 28 H        1.5070     1.5770    -1.0980 H     1 <1>   0.0800 
 29 H        0.4750    -1.1910     0.7920 H     1 <1>   0.0800 
 30 H        2.1590    -1.4900     1.2150 H     1 <1>   0.0800 
 31 H        3.3520    -3.1220    -2.9680 H     1 <1>   0.1500 
 32 H        3.4740     1.2370     1.1340 H     1 <1>   0.0800 
 33 H        2.2460     2.4770     0.9710 H     1 <1>   0.0800 
 34 H        0.5160     0.9600     1.5950 H     1 <1>   0.0800 
 35 H        1.8120     0.3680     2.6120 H     1 <1>   0.0800 
 36 H        1.3470    -6.3870    -1.6340 H     1 <1>   0.1500 
 37 H       -1.0000    -3.8450     1.5360 H     1 <1>   0.0800 
 38 H       -1.6050    -3.3470    -0.0420 H     1 <1>   0.0800 
 39 H       -1.2100    -6.4840    -1.3300 H     1 <1>   0.0800 
 40 H       -0.1860    -7.1770    -0.0780 H     1 <1>   0.0800 
 41 H       -3.3290    -4.8360    -0.0050 H     1 <1>   0.0800 
 42 H       -1.7480    -6.8520     1.5820 H     1 <1>   0.0800 
 43 H       -2.5590    -5.0560     2.7110 H     1 <1>   0.4000 
 44 H       -3.5570    -7.1570    -0.8400 H     1 <1>   0.0800 
 45 H       -4.0460    -7.4280     0.8010 H     1 <1>   0.0800 
 46 H       -3.6840    -9.5170     1.8220 H     1 <1>   0.1500 
 47 H       -0.9490   -10.7920    -1.8320 H     1 <1>   0.1500 
 48 H       -1.5680   -12.3960    -0.1280 H     1 <1>   0.1500 
@<TRIPOS>BOND
  1   1   2  2   
  2   2   3  am  
  3   2   4  1   
  4   3   5  1   
  5   3   6  1   
  6   4   7  ar  
  7   4   8  ar  
  8   5   9  1   
  9   5  27  1   
 10   5  28  1   
 11   6  10  1   
 12   6  29  1   
 13   6  30  1   
 14   7  11  ar  
 15   8  12  ar  
 16   8  31  1   
 17   9  10  1   
 18   9  32  1   
 19   9  33  1   
 20  10  34  1   
 21  10  35  1   
 22  11  13  1   
 23  11  14  ar  
 24  12  14  ar  
 25  13  15  1   
 26  13  16  1   
 27  14  36  1   
 28  15  17  1   
 29  15  37  1   
 30  15  38  1   
 31  16  18  1   
 32  16  39  1   
 33  16  40  1   
 34  17  18  1   
 35  17  19  1   
 36  17  41  1   
 37  18  20  1   
 38  18  42  1   
 39  19  43  1   
 40  20  21  1   
 41  20  44  1   
 42  20  45  1   
 43  21  22  ar  
 44  21  23  ar  
 45  22  24  ar  
 46  23  25  ar  
 47  23  46  1   
 48  24  26  ar  
 49  24  47  1   
 50  25  26  ar  
 51  26  48  1   
@<TRIPOS>SUBSTRUCTURE
  1 ****  13 GROUP 4 **** **** 0

# MOE 2024.06 (io_trps.svl 2023.06)
