@<TRIPOS>MOLECULE
NONAME
42 43 1 0 0 
SMALL
USER_CHARGES


@<TRIPOS>ATOM
  1 F       -2.7890    -0.9530     1.6500 F     1 <1>  -0.1900 
  2 C       -2.5340     0.0670     0.8770 C.ar  1 <1>   0.1900 
  3 C       -2.6440    -0.0790    -0.5060 C.ar  1 <1>   0.0860 
  4 C       -2.1630     1.2480     1.4890 C.ar  1 <1>  -0.1500 
  5 C       -3.0530    -1.3180    -1.1220 C.2   1 <1>   0.5440 
  6 C       -2.3360     1.0430    -1.2790 C.ar  1 <1>  -0.1500 
  7 C       -1.8790     2.3420     0.6890 C.ar  1 <1>   0.0830 
  8 O       -2.2390    -1.9370    -1.7810 O.2   1 <1>  -0.5700 
  9 N       -4.3450    -1.7900    -1.0240 N.am  1 <1>  -0.6600 
 10 C       -1.9610     2.2390    -0.6920 C.ar  1 <1>  -0.1500 
 11 O       -1.5200     3.5080     1.2360 O.3   1 <1>  -0.5330 
 12 C       -4.7110    -3.1770    -1.4660 C.3   1 <1>   0.1400 
 13 C       -5.4850    -0.9850    -0.4960 C.3   1 <1>   0.1400 
 14 C       -5.5070    -3.9220    -0.3810 C.3   1 <1>   0.2000 
 15 C       -6.2110    -1.7570     0.6080 C.3   1 <1>  -0.1600 
 16 O       -5.9050    -5.1500    -0.8820 O.3   1 <1>  -0.6800 
 17 C       -6.7420    -3.1420     0.1410 C.3   1 <1>  -0.1060 
 18 C       -7.3160    -3.9370     1.3320 C.2   1 <1>   0.9060 
 19 C       -7.8350    -2.9930    -0.9670 C.3   1 <1>  -0.1600 
 20 O       -7.5910    -3.3570     2.3890 O.co2 1 <1>  -0.9000 
 21 O       -7.4960    -5.1580     1.2000 O.co2 1 <1>  -0.9000 
 22 C       -9.0700    -2.1750    -0.5510 C.3   1 <1>  -0.1600 
 23 C      -10.1370    -2.1970    -1.6490 C.3   1 <1>  -0.2400 
 24 H       -2.1010     1.3010     2.5590 H     1 <1>   0.1500 
 25 H       -2.3940     0.9620    -2.3510 H     1 <1>   0.1500 
 26 H       -1.7280     3.0980    -1.2970 H     1 <1>   0.1500 
 27 H       -1.4660     3.4960     2.2080 H     1 <1>   0.4500 
 28 H       -5.2950    -3.1130    -2.3650 H     1 <1>   0.0800 
 29 H       -3.8230    -3.7450    -1.6820 H     1 <1>   0.0800 
 30 H       -5.1430    -0.0460    -0.1000 H     1 <1>   0.0800 
 31 H       -6.1640    -0.7690    -1.3020 H     1 <1>   0.0800 
 32 H       -4.8480    -4.1250     0.4460 H     1 <1>   0.0800 
 33 H       -5.5260    -1.9030     1.4260 H     1 <1>   0.0800 
 34 H       -7.0160    -1.1630     0.9980 H     1 <1>   0.0800 
 35 H       -6.5550    -5.5020    -0.2030 H     1 <1>   0.4000 
 36 H       -7.4160    -2.5590    -1.8550 H     1 <1>   0.0800 
 37 H       -8.1740    -3.9810    -1.2330 H     1 <1>   0.0800 
 38 H       -9.4870    -2.5860     0.3540 H     1 <1>   0.0800 
 39 H       -8.7950    -1.1550    -0.3570 H     1 <1>   0.0800 
 40 H      -10.4540    -3.2080    -1.8370 H     1 <1>   0.0800 
 41 H       -9.7480    -1.7790    -2.5600 H     1 <1>   0.0800 
 42 H      -10.9920    -1.6220    -1.3400 H     1 <1>   0.0800 
@<TRIPOS>BOND
  1   1   2  1   
  2   2   3  ar  
  3   2   4  ar  
  4   3   5  1   
  5   3   6  ar  
  6   4   7  ar  
  7   4  24  1   
  8   5   8  2   
  9   5   9  am  
 10   6  10  ar  
 11   6  25  1   
 12   7  10  ar  
 13   7  11  1   
 14   9  12  1   
 15   9  13  1   
 16  10  26  1   
 17  11  27  1   
 18  12  14  1   
 19  12  28  1   
 20  12  29  1   
 21  13  15  1   
 22  13  30  1   
 23  13  31  1   
 24  14  16  1   
 25  14  17  1   
 26  14  32  1   
 27  15  17  1   
 28  15  33  1   
 29  15  34  1   
 30  16  35  1   
 31  17  18  1   
 32  17  19  1   
 33  18  20  ar  
 34  18  21  ar  
 35  19  22  1   
 36  19  36  1   
 37  19  37  1   
 38  22  23  1   
 39  22  38  1   
 40  22  39  1   
 41  23  40  1   
 42  23  41  1   
 43  23  42  1   
@<TRIPOS>SUBSTRUCTURE
  1 ****  13 GROUP 4 **** **** 0

# MOE 2024.06 (io_trps.svl 2023.06)
