@<TRIPOS>MOLECULE
NONAME
62 65 1 0 0 
SMALL
USER_CHARGES


@<TRIPOS>ATOM
  1 O       -1.7540     0.4460    -1.6810 O.2   1 <1>  -0.5700 
  2 C       -2.6550     1.0650    -1.1530 C.2   1 <1>   0.5690 
  3 N       -3.9350     0.5490    -1.2340 N.am  1 <1>  -0.6600 
  4 C       -2.2040     2.3720    -0.4220 C.3   1 <1>   0.2040 
  5 C       -4.1840    -0.6190    -2.1390 C.3   1 <1>   0.3200 
  6 C       -5.1070     0.8130    -0.3350 C.3   1 <1>   0.1400 
  7 C       -3.3660     3.2850     0.0640 C.ar  1 <1>  -0.1440 
  8 C       -1.3120     3.1950    -1.3930 C.3   1 <1>  -0.1600 
  9 C       -1.2490     1.9820     0.7400 C.3   1 <1>  -0.1600 
 10 C       -3.9160    -1.9140    -1.3940 C.2   1 <1>   0.0060 
 11 C       -4.8640     0.2730     1.0790 C.3   1 <1>   0.1200 
 12 C       -4.1000     4.0230    -0.8640 C.ar  1 <1>  -0.1500 
 13 C       -3.7380     3.3970     1.4050 C.ar  1 <1>  -0.1500 
 14 C       -0.7460     4.4410    -0.7200 C.3   1 <1>   0.3430 
 15 C       -0.5980     3.1950     1.4150 C.3   1 <1>   0.3430 
 16 N       -4.8250    -2.7380    -0.9800 N.2   1 <1>  -0.5650 
 17 N       -2.6590    -2.2990    -1.0930 N.pl3 1 <1>   0.0330 
 18 O       -5.6590     0.9720     1.9780 O.3   1 <1>  -0.6800 
 19 C       -5.1300     4.8580    -0.4710 C.ar  1 <1>  -0.1500 
 20 C       -4.7690     4.2310     1.8010 C.ar  1 <1>  -0.1500 
 21 N        0.1280     4.0220     0.4140 N.4   1 <1>  -0.9590 
 22 C       -4.1200    -3.7150    -0.3760 C.2   1 <1>   0.0770 
 23 C       -2.7940    -3.4640    -0.4340 C.2   1 <1>  -0.3020 
 24 C       -5.4640     4.9670     0.8640 C.ar  1 <1>  -0.1500 
 25 C        0.7790     5.2000     1.0530 C.3   1 <1>   0.4860 
 26 C        1.6950     5.8550     0.0400 C.ar  1 <1>  -0.1430 
 27 C        1.3300     7.0520    -0.5600 C.ar  1 <1>  -0.1500 
 28 C        2.9040     5.2620    -0.2990 C.ar  1 <1>  -0.1500 
 29 C        2.1580     7.6420    -1.4990 C.ar  1 <1>  -0.1500 
 30 C        3.7300     5.8540    -1.2380 C.ar  1 <1>  -0.1500 
 31 C        3.3570     7.0420    -1.8390 C.ar  1 <1>  -0.1500 
 32 H       -3.5490    -0.5650    -3.0060 H     1 <1>   0.0800 
 33 H       -5.2020    -0.6110    -2.4880 H     1 <1>   0.0800 
 34 H       -5.9830     0.3220    -0.7220 H     1 <1>   0.0800 
 35 H       -5.3330     1.8580    -0.3130 H     1 <1>   0.0800 
 36 H       -1.8610     3.4820    -2.2700 H     1 <1>   0.0800 
 37 H       -0.4880     2.6010    -1.7490 H     1 <1>   0.0800 
 38 H       -0.4640     1.3460     0.3680 H     1 <1>   0.0800 
 39 H       -1.7750     1.3990     1.4730 H     1 <1>   0.0800 
 40 H       -3.8420     0.4040     1.3770 H     1 <1>   0.0800 
 41 H       -5.1230    -0.7710     1.1380 H     1 <1>   0.0800 
 42 H       -3.9050     3.9550    -1.9200 H     1 <1>   0.1500 
 43 H       -3.2590     2.8350     2.1850 H     1 <1>   0.1500 
 44 H       -1.5520     5.0630    -0.3620 H     1 <1>   0.0800 
 45 H       -0.1730     5.0050    -1.4400 H     1 <1>   0.0800 
 46 H        0.0880     2.8540     2.1760 H     1 <1>   0.0800 
 47 H       -1.3540     3.7960     1.8930 H     1 <1>   0.0800 
 48 H       -1.8070    -1.7710    -1.3200 H     1 <1>   0.2700 
 49 H       -5.5880     1.9370     1.8300 H     1 <1>   0.4000 
 50 H       -5.6810     5.4210    -1.2070 H     1 <1>   0.1500 
 51 H       -5.0380     4.3070     2.8420 H     1 <1>   0.1500 
 52 H        0.8890     3.4630     0.0060 H     1 <1>   0.4500 
 53 H       -4.6130    -4.5610     0.0750 H     1 <1>   0.1500 
 54 H       -1.9660    -4.0330    -0.0540 H     1 <1>   0.1500 
 55 H       -6.2670     5.6170     1.1700 H     1 <1>   0.1500 
 56 H        1.3610     4.8880     1.9050 H     1 <1>   0.0800 
 57 H        0.0340     5.9040     1.3870 H     1 <1>   0.0800 
 58 H        0.4050     7.5420    -0.3080 H     1 <1>   0.1500 
 59 H        3.2230     4.3420     0.1600 H     1 <1>   0.1500 
 60 H        1.8750     8.5710    -1.9650 H     1 <1>   0.1500 
 61 H        4.6690     5.3950    -1.5020 H     1 <1>   0.1500 
 62 H        4.0020     7.5030    -2.5690 H     1 <1>   0.1500 
@<TRIPOS>BOND
  1   1   2  2   
  2   2   3  am  
  3   2   4  1   
  4   3   5  1   
  5   3   6  1   
  6   4   7  1   
  7   4   8  1   
  8   4   9  1   
  9   5  10  1   
 10   5  32  1   
 11   5  33  1   
 12   6  11  1   
 13   6  34  1   
 14   6  35  1   
 15   7  12  ar  
 16   7  13  ar  
 17   8  14  1   
 18   8  36  1   
 19   8  37  1   
 20   9  15  1   
 21   9  38  1   
 22   9  39  1   
 23  10  16  2   
 24  10  17  1   
 25  11  18  1   
 26  11  40  1   
 27  11  41  1   
 28  12  19  ar  
 29  12  42  1   
 30  13  20  ar  
 31  13  43  1   
 32  14  21  1   
 33  14  44  1   
 34  14  45  1   
 35  15  21  1   
 36  15  46  1   
 37  15  47  1   
 38  16  22  1   
 39  17  23  1   
 40  17  48  1   
 41  18  49  1   
 42  19  24  ar  
 43  19  50  1   
 44  20  24  ar  
 45  20  51  1   
 46  21  25  1   
 47  21  52  1   
 48  22  23  2   
 49  22  53  1   
 50  23  54  1   
 51  24  55  1   
 52  25  26  1   
 53  25  56  1   
 54  25  57  1   
 55  26  27  ar  
 56  26  28  ar  
 57  27  29  ar  
 58  27  58  1   
 59  28  30  ar  
 60  28  59  1   
 61  29  31  ar  
 62  29  60  1   
 63  30  31  ar  
 64  30  61  1   
 65  31  62  1   
@<TRIPOS>SUBSTRUCTURE
  1 ****   4 GROUP 4 **** **** 0

# MOE 2024.06 (io_trps.svl 2023.06)
