@<TRIPOS>MOLECULE
NONAME
49 51 1 0 0 
SMALL
USER_CHARGES


@<TRIPOS>ATOM
  1 O       -1.1130     0.2440     0.7220 O.2   1 <1>  -0.5700 
  2 C       -2.0430     0.8850     0.2740 C.2   1 <1>   0.7160 
  3 N       -3.2800     0.3160     0.2920 N.am  1 <1>  -0.7300 
  4 C       -1.8660     2.2000    -0.2650 C.2   1 <1>  -0.0860 
  5 C       -3.6480    -0.9760     0.9220 C.3   1 <1>   0.1400 
  6 C       -2.8800     3.1450    -0.4730 C.2   1 <1>   0.3720 
  7 C       -0.7460     2.8520    -0.6860 C.2   1 <1>   0.0870 
  8 C       -3.1970    -2.1450     0.0470 C.3   1 <1>   0.1200 
  9 N       -2.4090     4.2350    -0.9640 N.2   1 <1>  -0.4100 
 10 N       -4.2400     2.9660    -0.1680 N.pl3 1 <1>  -0.8210 
 11 O       -1.1250     4.0410    -1.0810 O.3   1 <1>  -0.0190 
 12 C        0.6490     2.4960    -0.7790 C.ar  1 <1>   0.0530 
 13 O       -3.7160    -3.3230     0.5830 O.3   1 <1>  -0.5600 
 14 C       -5.2110     3.6070    -1.1200 C.3   1 <1>   0.2090 
 15 C       -4.5830     3.2790     1.2580 C.3   1 <1>   0.2090 
 16 C        1.6400     3.4400    -0.5080 C.ar  1 <1>  -0.1500 
 17 C        1.0670     1.2200    -1.1560 C.ar  1 <1>  -0.1500 
 18 C       -3.3110    -4.4720    -0.0920 C.3   1 <1>   0.1200 
 19 C       -5.5290     5.0720    -0.7570 C.3   1 <1>   0.1200 
 20 C       -4.8990     4.7710     1.4670 C.3   1 <1>   0.1200 
 21 C        2.9830     3.1270    -0.6030 C.ar  1 <1>  -0.1500 
 22 C        2.4080     0.8980    -1.2510 C.ar  1 <1>  -0.1500 
 23 C       -3.9040    -5.6850     0.6230 C.3   1 <1>   0.1200 
 24 O       -5.9020     5.1870     0.5870 O.3   1 <1>  -0.5600 
 25 C        3.3710     1.8520    -0.9750 C.ar  1 <1>  -0.1500 
 26 O       -3.6010    -6.8370    -0.0920 O.3   1 <1>  -0.6800 
 27 H       -4.0490     0.9450     0.0160 H     1 <1>   0.3700 
 28 H       -4.7150    -1.0140     1.0510 H     1 <1>   0.0800 
 29 H       -3.1730    -1.0510     1.8860 H     1 <1>   0.0800 
 30 H       -2.1220    -2.2070     0.0400 H     1 <1>   0.0800 
 31 H       -3.5740    -2.0310    -0.9540 H     1 <1>   0.0800 
 32 H       -6.1280     3.0440    -1.1140 H     1 <1>   0.0800 
 33 H       -4.8140     3.5700    -2.1200 H     1 <1>   0.0800 
 34 H       -3.7640     3.0000     1.8990 H     1 <1>   0.0800 
 35 H       -5.4390     2.6970     1.5510 H     1 <1>   0.0800 
 36 H        1.3510     4.4350    -0.2180 H     1 <1>   0.1500 
 37 H        0.3330     0.4670    -1.3790 H     1 <1>   0.1500 
 38 H       -2.2360    -4.5230    -0.0750 H     1 <1>   0.0800 
 39 H       -3.6720    -4.4160    -1.1040 H     1 <1>   0.0800 
 40 H       -6.3450     5.4320    -1.3570 H     1 <1>   0.0800 
 41 H       -4.6730     5.7000    -0.9330 H     1 <1>   0.0800 
 42 H       -4.0200     5.3710     1.3030 H     1 <1>   0.0800 
 43 H       -5.2510     4.9390     2.4690 H     1 <1>   0.0800 
 44 H        3.7280     3.8730    -0.3870 H     1 <1>   0.1500 
 45 H        2.7030    -0.0950    -1.5400 H     1 <1>   0.1500 
 46 H       -4.9740    -5.6030     0.6980 H     1 <1>   0.0800 
 47 H       -3.4750    -5.7820     1.6050 H     1 <1>   0.0800 
 48 H        4.4150     1.6040    -1.0480 H     1 <1>   0.1500 
 49 H       -4.1100    -6.8720    -0.9250 H     1 <1>   0.4000 
@<TRIPOS>BOND
  1   1   2  2   
  2   2   3  am  
  3   2   4  1   
  4   3   5  1   
  5   3  27  1   
  6   4   6  1   
  7   4   7  2   
  8   5   8  1   
  9   5  28  1   
 10   5  29  1   
 11   6   9  2   
 12   6  10  1   
 13   7  11  1   
 14   7  12  1   
 15   8  13  1   
 16   8  30  1   
 17   8  31  1   
 18   9  11  1   
 19  10  14  1   
 20  10  15  1   
 21  12  16  ar  
 22  12  17  ar  
 23  13  18  1   
 24  14  19  1   
 25  14  32  1   
 26  14  33  1   
 27  15  20  1   
 28  15  34  1   
 29  15  35  1   
 30  16  21  ar  
 31  16  36  1   
 32  17  22  ar  
 33  17  37  1   
 34  18  23  1   
 35  18  38  1   
 36  18  39  1   
 37  19  24  1   
 38  19  40  1   
 39  19  41  1   
 40  20  24  1   
 41  20  42  1   
 42  20  43  1   
 43  21  25  ar  
 44  21  44  1   
 45  22  25  ar  
 46  22  45  1   
 47  23  26  1   
 48  23  46  1   
 49  23  47  1   
 50  25  48  1   
 51  26  49  1   
@<TRIPOS>SUBSTRUCTURE
  1 ****   2 GROUP 4 **** **** 0

# MOE 2024.06 (io_trps.svl 2023.06)
