@<TRIPOS>MOLECULE
NONAME
47 50 1 0 0 
SMALL
USER_CHARGES


@<TRIPOS>ATOM
  1 S       -1.9090     2.0630    -0.9210 S.3   1 <1>  -0.0800 
  2 C       -0.8270     3.1830    -0.1200 C.2   1 <1>  -0.1400 
  3 C       -0.6050     1.5240    -1.9690 C.2   1 <1>  -0.1100 
  4 C        0.4150     3.1230    -0.6170 C.2   1 <1>  -0.1810 
  5 C       -1.2780     4.0950     0.9890 C.3   1 <1>   0.0200 
  6 C        0.5420     2.1730    -1.6860 C.2   1 <1>  -0.1500 
  7 C        1.5330     4.0040    -0.0540 C.3   1 <1>   0.4610 
  8 C       -0.2210     5.2020     1.1250 C.3   1 <1>   0.1200 
  9 O        1.0820     4.6690     1.1130 O.3   1 <1>  -0.5600 
 10 C        1.9870     5.0500    -1.0830 C.3   1 <1>  -0.1600 
 11 C        2.7210     3.1410     0.3860 C.3   1 <1>  -0.1600 
 12 C        3.1580     5.8830    -0.5610 C.3   1 <1>   0.1400 
 13 C        3.8880     3.9960     0.8850 C.3   1 <1>   0.1400 
 14 N        4.2700     4.9700    -0.1770 N.am  1 <1>  -0.6600 
 15 C        5.5450     5.0010    -0.6960 C.2   1 <1>   0.5690 
 16 O        6.3990     4.2300    -0.3200 O.2   1 <1>  -0.5700 
 17 C        5.9590     6.0010    -1.7760 C.3   1 <1>   0.2010 
 18 N        6.3020     7.3510    -1.2210 N.am  1 <1>  -0.4690 
 19 C        5.6140     8.4790    -1.6360 C.2   1 <1>   0.6900 
 20 C        7.3330     7.4580    -0.2940 C.2   1 <1>  -0.0410 
 21 O        4.6980     8.4270    -2.4300 O.2   1 <1>  -0.5700 
 22 N        5.9800     9.6840    -1.1280 N.am  1 <1>  -0.4900 
 23 C        7.6840     8.6660     0.2080 C.2   1 <1>  -0.1240 
 24 C        6.9850     9.8400    -0.2260 C.2   1 <1>   0.6160 
 25 C        8.8050     8.8170     1.2270 C.3   1 <1>  -0.1020 
 26 O        7.2360    10.9630     0.1620 O.2   1 <1>  -0.5700 
 27 H       -0.8390     0.7670    -2.6960 H     1 <1>   0.1500 
 28 H       -1.3610     3.5420     1.9070 H     1 <1>   0.0800 
 29 H       -2.2330     4.5280     0.7550 H     1 <1>   0.0800 
 30 H        1.4800     2.0200    -2.1900 H     1 <1>   0.1500 
 31 H       -0.3530     5.7280     2.0540 H     1 <1>   0.0800 
 32 H       -0.3100     5.9060     0.3160 H     1 <1>   0.0800 
 33 H        1.1660     5.6890    -1.3480 H     1 <1>   0.0800 
 34 H        2.2980     4.5490    -1.9810 H     1 <1>   0.0800 
 35 H        3.0670     2.5450    -0.4370 H     1 <1>   0.0800 
 36 H        2.4010     2.4700     1.1620 H     1 <1>   0.0800 
 37 H        2.8500     6.4450     0.3060 H     1 <1>   0.0800 
 38 H        3.4600     6.5820    -1.3160 H     1 <1>   0.0800 
 39 H        4.7170     3.3590     1.1410 H     1 <1>   0.0800 
 40 H        3.5980     4.5350     1.7710 H     1 <1>   0.0800 
 41 H        5.1800     6.0720    -2.5120 H     1 <1>   0.0800 
 42 H        6.8280     5.6130    -2.2750 H     1 <1>   0.0800 
 43 H        7.8280     6.5440     0.0010 H     1 <1>   0.1500 
 44 H        5.4850    10.5090    -1.4410 H     1 <1>   0.3700 
 45 H        9.5730     9.4600     0.8350 H     1 <1>   0.0800 
 46 H        9.2420     7.8640     1.4660 H     1 <1>   0.0800 
 47 H        8.4210     9.2560     2.1310 H     1 <1>   0.0800 
@<TRIPOS>BOND
  1   1   2  1   
  2   1   3  1   
  3   2   4  2   
  4   2   5  1   
  5   3   6  2   
  6   3  27  1   
  7   4   6  1   
  8   4   7  1   
  9   5   8  1   
 10   5  28  1   
 11   5  29  1   
 12   6  30  1   
 13   7   9  1   
 14   7  10  1   
 15   7  11  1   
 16   8   9  1   
 17   8  31  1   
 18   8  32  1   
 19  10  12  1   
 20  10  33  1   
 21  10  34  1   
 22  11  13  1   
 23  11  35  1   
 24  11  36  1   
 25  12  14  1   
 26  12  37  1   
 27  12  38  1   
 28  13  14  1   
 29  13  39  1   
 30  13  40  1   
 31  14  15  am  
 32  15  16  2   
 33  15  17  1   
 34  17  18  1   
 35  17  41  1   
 36  17  42  1   
 37  18  19  am  
 38  18  20  1   
 39  19  21  2   
 40  19  22  am  
 41  20  23  2   
 42  20  43  1   
 43  22  24  am  
 44  22  44  1   
 45  23  24  1   
 46  23  25  1   
 47  24  26  2   
 48  25  45  1   
 49  25  46  1   
 50  25  47  1   
@<TRIPOS>SUBSTRUCTURE
  1 ****  12 GROUP 4 **** **** 0

# MOE 2024.06 (io_trps.svl 2023.06)
