@<TRIPOS>MOLECULE
NONAME
46 48 1 0 0 
SMALL
USER_CHARGES


@<TRIPOS>ATOM
  1 O        1.9810    -0.8130    -3.2820 O.2   1 <1>  -0.5700 
  2 C        1.8830    -1.2210    -2.1480 C.2   1 <1>   0.5690 
  3 N        2.2320    -0.5020    -1.0490 N.am  1 <1>  -0.4930 
  4 C        1.3300    -2.6260    -1.9030 C.3   1 <1>   0.1710 
  5 C        2.7060     0.8250    -0.9290 C.2   1 <1>   0.0630 
  6 N        0.8420    -2.8530    -0.5070 N.3   1 <1>  -0.8100 
  7 C        2.8490     1.5260     0.2170 C.2   1 <1>  -0.3320 
  8 C        3.1240     1.6960    -1.9340 C.2   1 <1>   0.1390 
  9 C       -0.4160    -2.1480    -0.2220 C.3   1 <1>   0.1100 
 10 C        0.5420    -4.2710    -0.2560 C.3   1 <1>   0.1100 
 11 N        3.3330     2.7430    -0.1360 N.pl3 1 <1>   0.3140 
 12 C        2.5450     1.1100     1.6500 C.3   1 <1>  -0.0600 
 13 N        3.5020     2.8470    -1.4640 N.2   1 <1>  -0.7070 
 14 C       -0.9370    -2.8350     1.0330 C.3   1 <1>   0.2000 
 15 C       -0.5790    -4.3050     0.8030 C.3   1 <1>  -0.0800 
 16 C        3.6540     3.8640     0.7560 C.3   1 <1>   0.0160 
 17 O       -0.1830    -2.3830     2.1000 O.3   1 <1>  -0.6800 
 18 C       -1.8040    -5.1120     0.3360 C.3   1 <1>  -0.0170 
 19 C       -1.4630    -6.5750     0.1010 C.ar  1 <1>   0.1670 
 20 N       -1.1770    -6.9270    -1.1420 N.ar  1 <1>  -0.6200 
 21 C       -1.4600    -7.4660     1.1730 C.ar  1 <1>   0.1600 
 22 C       -0.8940    -8.2150    -1.2410 C.ar  1 <1>   0.1600 
 23 N       -1.1730    -8.7530     1.0760 N.ar  1 <1>  -0.6200 
 24 C       -0.8920    -9.0980    -0.1680 C.ar  1 <1>   0.1600 
 25 H        2.0440    -0.9970    -0.1750 H     1 <1>   0.3700 
 26 H        2.1250    -3.3200    -2.1130 H     1 <1>   0.0800 
 27 H        0.5380    -2.8120    -2.6060 H     1 <1>   0.0800 
 28 H        3.1320     1.4440    -2.9810 H     1 <1>   0.1500 
 29 H       -0.2700    -1.0920    -0.0670 H     1 <1>   0.0800 
 30 H       -1.1160    -2.2960    -1.0280 H     1 <1>   0.0800 
 31 H        0.2110    -4.7390    -1.1690 H     1 <1>   0.0800 
 32 H        1.4230    -4.7810     0.0930 H     1 <1>   0.0800 
 33 H        2.1480     0.1110     1.6810 H     1 <1>   0.0800 
 34 H        1.8180     1.7740     2.0820 H     1 <1>   0.0800 
 35 H        3.4420     1.1390     2.2420 H     1 <1>   0.0800 
 36 H       -1.9770    -2.6470     1.2360 H     1 <1>   0.0800 
 37 H       -0.2100    -4.7490     1.7120 H     1 <1>   0.0800 
 38 H        4.4110     3.5550     1.4510 H     1 <1>   0.0800 
 39 H        2.7670     4.1600     1.2830 H     1 <1>   0.0800 
 40 H        4.0160     4.6870     0.1690 H     1 <1>   0.0800 
 41 H        0.7560    -2.4920     1.8430 H     1 <1>   0.4000 
 42 H       -2.2010    -4.6920    -0.5730 H     1 <1>   0.0800 
 43 H       -2.5760    -5.0510     1.0820 H     1 <1>   0.0800 
 44 H       -1.7050    -7.0980     2.1540 H     1 <1>   0.1500 
 45 H       -0.6520    -8.5930    -2.2190 H     1 <1>   0.1500 
 46 H       -0.6480   -10.1300    -0.3480 H     1 <1>   0.1500 
@<TRIPOS>BOND
  1   1   2  2   
  2   2   3  am  
  3   2   4  1   
  4   3   5  1   
  5   3  25  1   
  6   4   6  1   
  7   4  26  1   
  8   4  27  1   
  9   5   7  2   
 10   5   8  1   
 11   6   9  1   
 12   6  10  1   
 13   7  11  1   
 14   7  12  1   
 15   8  13  2   
 16   8  28  1   
 17   9  14  1   
 18   9  29  1   
 19   9  30  1   
 20  10  15  1   
 21  10  31  1   
 22  10  32  1   
 23  11  13  1   
 24  11  16  1   
 25  12  33  1   
 26  12  34  1   
 27  12  35  1   
 28  14  15  1   
 29  14  17  1   
 30  14  36  1   
 31  15  18  1   
 32  15  37  1   
 33  16  38  1   
 34  16  39  1   
 35  16  40  1   
 36  17  41  1   
 37  18  19  1   
 38  18  42  1   
 39  18  43  1   
 40  19  20  ar  
 41  19  21  ar  
 42  20  22  ar  
 43  21  23  ar  
 44  21  44  1   
 45  22  24  ar  
 46  22  45  1   
 47  23  24  ar  
 48  24  46  1   
@<TRIPOS>SUBSTRUCTURE
  1 ****   6 GROUP 4 **** **** 0

# MOE 2024.06 (io_trps.svl 2023.06)
