@<TRIPOS>MOLECULE
NONAME
52 53 1 0 0 
SMALL
USER_CHARGES


@<TRIPOS>ATOM
  1 O       -2.1820     0.8750    -1.9350 O.2   1 <1>  -0.5700 
  2 C       -2.9100     1.1460    -1.0080 C.2   1 <1>   0.5690 
  3 N       -4.1150     0.5010    -0.8420 N.am  1 <1>  -0.6600 
  4 C       -2.4220     2.2460    -0.0490 C.3   1 <1>  -0.0190 
  5 C       -4.5140    -0.5730    -1.8050 C.3   1 <1>   0.3210 
  6 C       -5.1520     0.8470     0.1690 C.3   1 <1>   0.1400 
  7 C       -2.1300     3.5620    -0.7980 C.3   1 <1>  -0.1600 
  8 C       -1.1740     1.7870     0.7440 C.3   1 <1>  -0.1600 
  9 C       -4.7440    -1.8870    -1.0830 C.2   1 <1>  -0.1810 
 10 C       -4.8240     0.2160     1.5230 C.3   1 <1>  -0.2400 
 11 C       -1.7740     4.7160     0.1650 C.3   1 <1>   0.2000 
 12 C       -0.3370     2.9490     1.3190 C.3   1 <1>  -0.1600 
 13 C       -5.9710    -2.4810    -0.8120 C.2   1 <1>   0.1390 
 14 C       -3.8330    -2.7350    -0.5610 C.2   1 <1>  -0.3020 
 15 O       -0.8420     5.5580    -0.4690 O.3   1 <1>  -0.5600 
 16 C       -1.1760     4.2160     1.5070 C.3   1 <1>   0.2000 
 17 N       -5.8430    -3.6010    -0.1710 N.2   1 <1>  -0.7070 
 18 N       -4.5110    -3.7650    -0.0140 N.pl3 1 <1>   0.3140 
 19 C       -1.3730     6.4210    -1.4270 C.3   1 <1>   0.0400 
 20 O       -0.3620     5.1960     2.0360 O.3   1 <1>  -0.6800 
 21 C       -3.9030    -4.9330     0.6840 C.3   1 <1>   0.1760 
 22 C       -4.2700    -6.2430    -0.0280 C.3   1 <1>  -0.2400 
 23 C       -4.3390    -4.9710     2.1560 C.3   1 <1>  -0.2400 
 24 H       -3.1900     2.4650     0.6650 H     1 <1>   0.0800 
 25 H       -5.4120    -0.2740    -2.3160 H     1 <1>   0.0800 
 26 H       -3.7550    -0.7270    -2.5520 H     1 <1>   0.0800 
 27 H       -5.2280     1.9160     0.2650 H     1 <1>   0.0800 
 28 H       -6.1140     0.4910    -0.1620 H     1 <1>   0.0800 
 29 H       -2.9870     3.8390    -1.3840 H     1 <1>   0.0800 
 30 H       -1.3050     3.3890    -1.4700 H     1 <1>   0.0800 
 31 H       -1.4930     1.1440     1.5450 H     1 <1>   0.0800 
 32 H       -0.5340     1.2010     0.1060 H     1 <1>   0.0800 
 33 H       -3.8670     0.5420     1.8820 H     1 <1>   0.0800 
 34 H       -4.8240    -0.8560     1.4490 H     1 <1>   0.0800 
 35 H       -5.5710     0.4990     2.2420 H     1 <1>   0.0800 
 36 H       -2.6550     5.2910     0.3950 H     1 <1>   0.0800 
 37 H        0.4620     3.1720     0.6320 H     1 <1>   0.0800 
 38 H        0.0980     2.6530     2.2580 H     1 <1>   0.0800 
 39 H       -6.9270    -2.0720    -1.0930 H     1 <1>   0.1500 
 40 H       -2.7620    -2.6550    -0.5500 H     1 <1>   0.1500 
 41 H       -1.9600     4.0210     2.2170 H     1 <1>   0.0800 
 42 H       -0.5700     7.0250    -1.8130 H     1 <1>   0.0800 
 43 H       -2.1120     7.0530    -0.9670 H     1 <1>   0.0800 
 44 H       -1.8060     5.8480    -2.2280 H     1 <1>   0.0800 
 45 H        0.0200     5.6700     1.2620 H     1 <1>   0.4000 
 46 H       -2.8360    -4.8120     0.6460 H     1 <1>   0.0800 
 47 H       -5.3360    -6.3950    -0.0020 H     1 <1>   0.0800 
 48 H       -3.7920    -7.0760     0.4540 H     1 <1>   0.0800 
 49 H       -3.9470    -6.2080    -1.0530 H     1 <1>   0.0800 
 50 H       -5.4050    -5.0960     2.2250 H     1 <1>   0.0800 
 51 H       -4.0610    -4.0550     2.6460 H     1 <1>   0.0800 
 52 H       -3.8620    -5.7900     2.6640 H     1 <1>   0.0800 
@<TRIPOS>BOND
  1   1   2  2   
  2   2   3  am  
  3   2   4  1   
  4   3   5  1   
  5   3   6  1   
  6   4   7  1   
  7   4   8  1   
  8   4  24  1   
  9   5   9  1   
 10   5  25  1   
 11   5  26  1   
 12   6  10  1   
 13   6  27  1   
 14   6  28  1   
 15   7  11  1   
 16   7  29  1   
 17   7  30  1   
 18   8  12  1   
 19   8  31  1   
 20   8  32  1   
 21   9  13  1   
 22   9  14  2   
 23  10  33  1   
 24  10  34  1   
 25  10  35  1   
 26  11  15  1   
 27  11  16  1   
 28  11  36  1   
 29  12  16  1   
 30  12  37  1   
 31  12  38  1   
 32  13  17  2   
 33  13  39  1   
 34  14  18  1   
 35  14  40  1   
 36  15  19  1   
 37  16  20  1   
 38  16  41  1   
 39  17  18  1   
 40  18  21  1   
 41  19  42  1   
 42  19  43  1   
 43  19  44  1   
 44  20  45  1   
 45  21  22  1   
 46  21  23  1   
 47  21  46  1   
 48  22  47  1   
 49  22  48  1   
 50  22  49  1   
 51  23  50  1   
 52  23  51  1   
 53  23  52  1   
@<TRIPOS>SUBSTRUCTURE
  1 ****   3 GROUP 4 **** **** 0

# MOE 2024.06 (io_trps.svl 2023.06)
