@<TRIPOS>MOLECULE
NONAME
39 40 1 0 0 
SMALL
USER_CHARGES


@<TRIPOS>ATOM
  1 S        0.0330     0.4940    -0.5570 S.o2  1 <1>   1.3330 
  2 O        0.1490     1.3040    -1.7490 O.2   1 <1>  -0.6500 
  3 O       -0.4610    -0.8590    -0.6800 O.2   1 <1>  -0.6500 
  4 N        1.5430     0.4250     0.2210 N.am  1 <1>  -0.8490 
  5 C       -1.0210     1.3270     0.6420 C.3   1 <1>  -0.0550 
  6 C        2.6130     1.1460    -0.4800 C.3   1 <1>   0.1160 
  7 C        1.9780    -0.9300     0.5700 C.3   1 <1>   0.1160 
  8 C       -0.8870     2.8550     0.8540 C.3   1 <1>  -0.0800 
  9 C       -1.1280     3.6910    -0.4130 C.3   1 <1>   0.2000 
 10 C        0.4550     3.3380     1.4280 C.3   1 <1>   0.2090 
 11 O       -1.9820     4.7280    -0.0690 O.3   1 <1>  -0.6800 
 12 C        0.2280     4.3010    -0.7680 C.3   1 <1>   0.2090 
 13 N        0.9260     4.4330     0.5340 N.pl3 1 <1>  -0.8380 
 14 C        2.2330     4.8830     0.5710 C.ar  1 <1>   0.4100 
 15 N        3.1400     4.0980     1.1390 N.ar  1 <1>  -0.6200 
 16 C        2.5450     6.1270     0.0330 C.ar  1 <1>  -0.1500 
 17 C        4.3760     4.5610     1.1730 C.ar  1 <1>   0.1600 
 18 C        3.8360     6.6100     0.0670 C.ar  1 <1>   0.0730 
 19 C        4.7710     5.7810     0.6630 C.ar  1 <1>  -0.1500 
 20 C        4.1920     7.8910    -0.4720 C.1   1 <1>   0.4840 
 21 N        4.4830     8.9080    -0.8990 N.1   1 <1>  -0.5570 
 22 H       -2.0370     1.1450     0.3490 H     1 <1>   0.0800 
 23 H       -0.8900     0.8440     1.5910 H     1 <1>   0.0800 
 24 H        3.5120     1.1460     0.1120 H     1 <1>   0.0800 
 25 H        2.3250     2.1690    -0.6450 H     1 <1>   0.0800 
 26 H        2.8120     0.6860    -1.4340 H     1 <1>   0.0800 
 27 H        2.9010    -0.8950     1.1230 H     1 <1>   0.0800 
 28 H        2.1220    -1.5180    -0.3230 H     1 <1>   0.0800 
 29 H        1.2340    -1.4100     1.1830 H     1 <1>   0.0800 
 30 H       -1.6430     3.1040     1.5790 H     1 <1>   0.0800 
 31 H       -1.5720     3.1470    -1.2300 H     1 <1>   0.0800 
 32 H        1.1790     2.5460     1.4740 H     1 <1>   0.0800 
 33 H        0.3230     3.7280     2.4230 H     1 <1>   0.0800 
 34 H       -1.5090     5.3080     0.5630 H     1 <1>   0.4000 
 35 H        0.1120     5.2500    -1.2610 H     1 <1>   0.0800 
 36 H        0.7860     3.6400    -1.4060 H     1 <1>   0.0800 
 37 H        1.7580     6.7140    -0.4000 H     1 <1>   0.1500 
 38 H        5.1160     3.9300     1.6370 H     1 <1>   0.1500 
 39 H        5.8010     6.0860     0.7320 H     1 <1>   0.1500 
@<TRIPOS>BOND
  1   1   2  2   
  2   1   3  2   
  3   1   4  am  
  4   1   5  1   
  5   4   6  1   
  6   4   7  1   
  7   5   8  1   
  8   5  22  1   
  9   5  23  1   
 10   6  24  1   
 11   6  25  1   
 12   6  26  1   
 13   7  27  1   
 14   7  28  1   
 15   7  29  1   
 16   8   9  1   
 17   8  10  1   
 18   8  30  1   
 19   9  11  1   
 20   9  12  1   
 21   9  31  1   
 22  10  13  1   
 23  10  32  1   
 24  10  33  1   
 25  11  34  1   
 26  12  13  1   
 27  12  35  1   
 28  12  36  1   
 29  13  14  1   
 30  14  15  ar  
 31  14  16  ar  
 32  15  17  ar  
 33  16  18  ar  
 34  16  37  1   
 35  17  19  ar  
 36  17  38  1   
 37  18  19  ar  
 38  18  20  1   
 39  19  39  1   
 40  20  21  3   
@<TRIPOS>SUBSTRUCTURE
  1 ****  13 GROUP 4 **** **** 0

# MOE 2024.06 (io_trps.svl 2023.06)
