@<TRIPOS>MOLECULE
NONAME
40 42 1 0 0 
SMALL
USER_CHARGES


@<TRIPOS>ATOM
  1 CL      -0.2640    -0.0380    -0.8710 Cl    1 <1>  -0.1230 
  2 C       -1.8220     0.5000    -0.2650 C.2   1 <1>   0.1230 
  3 C       -2.9100    -0.2930     0.1200 C.2   1 <1>   0.2030 
  4 C       -2.1800     1.7840    -0.1070 C.2   1 <1>  -0.3020 
  5 N       -3.9030     0.5090     0.4930 N.2   1 <1>  -0.7070 
  6 C       -2.9130    -1.7530     0.1040 C.2   1 <1>   0.7160 
  7 N       -3.4420     1.7610     0.3550 N.pl3 1 <1>   0.3140 
  8 O       -1.8650    -2.3750     0.1750 O.2   1 <1>  -0.5700 
  9 N       -4.0730    -2.5020     0.0060 N.am  1 <1>  -0.6600 
 10 C       -4.2620     2.9330     0.6830 C.3   1 <1>   0.0160 
 11 C       -5.4410    -1.9620    -0.1870 C.3   1 <1>   0.1400 
 12 C       -4.0860    -3.9840     0.0110 C.3   1 <1>   0.1400 
 13 C       -6.2940    -3.1790    -0.5390 C.3   1 <1>   0.2000 
 14 C       -5.5640    -4.3730     0.0720 C.3   1 <1>  -0.0800 
 15 O       -7.5730    -3.0790    -0.0170 O.3   1 <1>  -0.6800 
 16 C       -5.8820    -5.7000    -0.6330 C.3   1 <1>   0.0210 
 17 C       -5.0470    -6.8330    -0.0680 C.2   1 <1>   0.1080 
 18 N       -5.1350    -7.2250     1.1650 N.2   1 <1>  -0.7070 
 19 C       -4.1030    -7.5600    -0.7840 C.2   1 <1>  -0.1500 
 20 N       -4.2410    -8.2260     1.2690 N.pl3 1 <1>   0.3000 
 21 C       -3.6010    -8.4470     0.1010 C.2   1 <1>  -0.3320 
 22 C       -2.5340    -9.5070    -0.0990 C.3   1 <1>  -0.0600 
 23 H       -1.6230     2.6820    -0.2950 H     1 <1>   0.1500 
 24 H       -3.7640     3.5150     1.4350 H     1 <1>   0.0800 
 25 H       -5.2150     2.6050     1.0550 H     1 <1>   0.0800 
 26 H       -4.4050     3.5240    -0.2030 H     1 <1>   0.0800 
 27 H       -5.7730    -1.5100     0.7320 H     1 <1>   0.0800 
 28 H       -5.4550    -1.2380    -0.9820 H     1 <1>   0.0800 
 29 H       -3.6270    -4.3410    -0.8960 H     1 <1>   0.0800 
 30 H       -3.5440    -4.3720     0.8580 H     1 <1>   0.0800 
 31 H       -6.3700    -3.2690    -1.6090 H     1 <1>   0.0800 
 32 H       -5.8220    -4.4600     1.1140 H     1 <1>   0.0800 
 33 H       -7.5390    -3.0970     0.9590 H     1 <1>   0.4000 
 34 H       -5.6940    -5.6130    -1.6880 H     1 <1>   0.0800 
 35 H       -6.9220    -5.9380    -0.4970 H     1 <1>   0.0800 
 36 H       -3.8460    -7.4240    -1.8190 H     1 <1>   0.1500 
 37 H       -4.0920    -8.7360     2.1480 H     1 <1>   0.2700 
 38 H       -2.1780    -9.4860    -1.1130 H     1 <1>   0.0800 
 39 H       -2.9380   -10.4840     0.1020 H     1 <1>   0.0800 
 40 H       -1.7030    -9.3270     0.5600 H     1 <1>   0.0800 
@<TRIPOS>BOND
  1   1   2  1   
  2   2   3  1   
  3   2   4  2   
  4   3   5  2   
  5   3   6  1   
  6   4   7  1   
  7   4  23  1   
  8   5   7  1   
  9   6   8  2   
 10   6   9  am  
 11   7  10  1   
 12   9  11  1   
 13   9  12  1   
 14  10  24  1   
 15  10  25  1   
 16  10  26  1   
 17  11  13  1   
 18  11  27  1   
 19  11  28  1   
 20  12  14  1   
 21  12  29  1   
 22  12  30  1   
 23  13  14  1   
 24  13  15  1   
 25  13  31  1   
 26  14  16  1   
 27  14  32  1   
 28  15  33  1   
 29  16  17  1   
 30  16  34  1   
 31  16  35  1   
 32  17  18  2   
 33  17  19  1   
 34  18  20  1   
 35  19  21  2   
 36  19  36  1   
 37  20  21  1   
 38  20  37  1   
 39  21  22  1   
 40  22  38  1   
 41  22  39  1   
 42  22  40  1   
@<TRIPOS>SUBSTRUCTURE
  1 ****   9 GROUP 4 **** **** 0

# MOE 2024.06 (io_trps.svl 2023.06)
