@<TRIPOS>MOLECULE
NONAME
45 46 1 0 0 
SMALL
USER_CHARGES


@<TRIPOS>ATOM
  1 S       -0.4470     0.4070     1.3560 S.o2  1 <1>   1.4470 
  2 O       -1.0730     1.5410     1.9920 O.2   1 <1>  -0.6500 
  3 O       -0.3000    -0.8150     2.1120 O.2   1 <1>  -0.6500 
  4 N       -1.4720     0.0760     0.0630 N.am  1 <1>  -0.9140 
  5 C        1.1420     0.8910     0.5990 C.ar  1 <1>  -0.0090 
  6 C       -1.5460    -1.2700    -0.5140 C.3   1 <1>   0.2760 
  7 C        1.2800     1.9690    -0.2870 C.ar  1 <1>  -0.1430 
  8 C        2.2820     0.1480     0.9140 C.ar  1 <1>  -0.1500 
  9 C       -2.2730    -2.2870     0.3710 C.3   1 <1>  -0.0800 
 10 C       -0.2160    -1.9470    -0.8640 C.3   1 <1>   0.1200 
 11 C        2.5190     2.2700    -0.8380 C.ar  1 <1>  -0.1500 
 12 C        0.1000     2.8530    -0.6770 C.3   1 <1>  -0.0970 
 13 C        3.5200     0.4410     0.3710 C.ar  1 <1>  -0.1500 
 14 C       -1.2430    -3.4140     0.5060 C.3   1 <1>   0.1200 
 15 C       -3.5660    -2.7810    -0.3060 C.3   1 <1>  -0.0550 
 16 O       -0.4340    -3.2970    -0.6170 O.3   1 <1>  -0.5600 
 17 C        3.6140     1.5030    -0.5020 C.ar  1 <1>   0.1900 
 18 S       -4.6480    -3.6980     0.7900 S.o2  1 <1>   1.3330 
 19 F        4.7740     1.7910    -1.0250 F     1 <1>  -0.1900 
 20 O       -5.1150    -2.7740     1.7990 O.2   1 <1>  -0.6500 
 21 O       -4.0210    -4.9390     1.1840 O.2   1 <1>  -0.6500 
 22 N       -5.9550    -4.0770    -0.2250 N.am  1 <1>  -0.8490 
 23 C       -5.7310    -5.2800    -1.0360 C.3   1 <1>   0.1160 
 24 C       -7.2130    -4.2080     0.5170 C.3   1 <1>   0.1160 
 25 H       -2.3900     0.3250     0.4280 H     1 <1>   0.4200 
 26 H       -2.0860    -1.1770    -1.4420 H     1 <1>   0.0800 
 27 H        2.2030    -0.6800     1.6000 H     1 <1>   0.1500 
 28 H       -2.5080    -1.8880     1.3430 H     1 <1>   0.0800 
 29 H        0.5940    -1.6380    -0.2340 H     1 <1>   0.0800 
 30 H        0.0450    -1.8210    -1.9000 H     1 <1>   0.0800 
 31 H        2.6480     3.0910    -1.5210 H     1 <1>   0.1500 
 32 H        0.4170     3.6660    -1.3060 H     1 <1>   0.0800 
 33 H       -0.3570     3.2790     0.1990 H     1 <1>   0.0800 
 34 H       -0.6350     2.2850    -1.2170 H     1 <1>   0.0800 
 35 H        4.3930    -0.1370     0.6160 H     1 <1>   0.1500 
 36 H       -1.6710    -4.4010     0.5290 H     1 <1>   0.0800 
 37 H       -0.6250    -3.2720     1.3780 H     1 <1>   0.0800 
 38 H       -3.3130    -3.3860    -1.1540 H     1 <1>   0.0800 
 39 H       -4.1150    -1.9310    -0.6630 H     1 <1>   0.0800 
 40 H       -6.5470    -5.4180    -1.7240 H     1 <1>   0.0800 
 41 H       -5.6530    -6.1510    -0.4050 H     1 <1>   0.0800 
 42 H       -4.8210    -5.1830    -1.6030 H     1 <1>   0.0800 
 43 H       -8.0220    -4.4330    -0.1560 H     1 <1>   0.0800 
 44 H       -7.4430    -3.2830     1.0200 H     1 <1>   0.0800 
 45 H       -7.1350    -4.9910     1.2530 H     1 <1>   0.0800 
@<TRIPOS>BOND
  1   1   2  2   
  2   1   3  2   
  3   1   4  am  
  4   1   5  1   
  5   4   6  1   
  6   4  25  1   
  7   5   7  ar  
  8   5   8  ar  
  9   6   9  1   
 10   6  10  1   
 11   6  26  1   
 12   7  11  ar  
 13   7  12  1   
 14   8  13  ar  
 15   8  27  1   
 16   9  14  1   
 17   9  15  1   
 18   9  28  1   
 19  10  16  1   
 20  10  29  1   
 21  10  30  1   
 22  11  17  ar  
 23  11  31  1   
 24  12  32  1   
 25  12  33  1   
 26  12  34  1   
 27  13  17  ar  
 28  13  35  1   
 29  14  16  1   
 30  14  36  1   
 31  14  37  1   
 32  15  18  1   
 33  15  38  1   
 34  15  39  1   
 35  17  19  1   
 36  18  20  2   
 37  18  21  2   
 38  18  22  am  
 39  22  23  1   
 40  22  24  1   
 41  23  40  1   
 42  23  41  1   
 43  23  42  1   
 44  24  43  1   
 45  24  44  1   
 46  24  45  1   
@<TRIPOS>SUBSTRUCTURE
  1 ****   6 GROUP 4 **** **** 0

# MOE 2024.06 (io_trps.svl 2023.06)
