@<TRIPOS>MOLECULE
NONAME
37 38 1 0 0 
SMALL
USER_CHARGES


@<TRIPOS>ATOM
  1 O        0.0790    -0.7960    -0.3440 O.2   1 <1>  -0.5700 
  2 C        1.1770    -1.2990    -0.4700 C.2   1 <1>   0.6900 
  3 N        1.3480    -2.6010    -0.8970 N.am  1 <1>  -0.4200 
  4 N        2.2790    -0.5500    -0.1650 N.am  1 <1>  -0.5390 
  5 C        2.6190    -3.1460    -0.9620 C.2   1 <1>   0.6160 
  6 C        0.1590    -3.4180    -1.2630 C.3   1 <1>   0.1400 
  7 C        3.5640    -1.0400    -0.2440 C.2   1 <1>  -0.0290 
  8 O        2.7790    -4.3100    -1.2790 O.2   1 <1>  -0.5700 
  9 C        3.7360    -2.3200    -0.6360 C.2   1 <1>  -0.1360 
 10 C       -0.3610    -4.1670    -0.0320 C.3   1 <1>   0.1100 
 11 C        4.6880    -0.0920     0.1210 C.3   1 <1>  -0.1020 
 12 N       -1.5660    -4.9540    -0.3550 N.3   1 <1>  -0.8100 
 13 C       -1.7620    -6.0390     0.6390 C.3   1 <1>   0.2530 
 14 C       -2.7630    -4.0940    -0.4220 C.3   1 <1>   0.0300 
 15 C       -2.8080    -7.0640     0.2110 C.ar  1 <1>   0.1670 
 16 N       -3.5920    -7.5580     1.1600 N.ar  1 <1>  -0.6200 
 17 C       -2.8900    -7.4430    -1.1280 C.ar  1 <1>   0.1600 
 18 C       -4.4530    -8.4410     0.6810 C.ar  1 <1>   0.1600 
 19 N       -3.7520    -8.3280    -1.6080 N.ar  1 <1>  -0.6200 
 20 C       -4.5300    -8.8120    -0.6560 C.ar  1 <1>   0.1600 
 21 H        2.0750     0.4060     0.1300 H     1 <1>   0.3700 
 22 H        0.4260    -4.1290    -2.0260 H     1 <1>   0.0800 
 23 H       -0.6050    -2.7750    -1.6600 H     1 <1>   0.0800 
 24 H        4.7020    -2.7800    -0.7210 H     1 <1>   0.1500 
 25 H       -0.5790    -3.4700     0.7600 H     1 <1>   0.0800 
 26 H        0.4220    -4.8290     0.2980 H     1 <1>   0.0800 
 27 H        4.5760     0.2400     1.1380 H     1 <1>   0.0800 
 28 H        4.6750     0.7640    -0.5300 H     1 <1>   0.0800 
 29 H        5.6410    -0.5800     0.0240 H     1 <1>   0.0800 
 30 H       -2.0480    -5.6130     1.5860 H     1 <1>   0.0800 
 31 H       -0.8360    -6.5670     0.7830 H     1 <1>   0.0800 
 32 H       -2.6440    -3.3410    -1.1800 H     1 <1>   0.0800 
 33 H       -2.9360    -3.6110     0.5240 H     1 <1>   0.0800 
 34 H       -3.6310    -4.6800    -0.6740 H     1 <1>   0.0800 
 35 H       -2.2120    -6.9910    -1.8310 H     1 <1>   0.1500 
 36 H       -5.1320    -8.8940     1.3810 H     1 <1>   0.1500 
 37 H       -5.2660    -9.5400    -0.9470 H     1 <1>   0.1500 
@<TRIPOS>BOND
  1   1   2  2   
  2   2   3  am  
  3   2   4  am  
  4   3   5  am  
  5   3   6  1   
  6   4   7  1   
  7   4  21  1   
  8   5   8  2   
  9   5   9  1   
 10   6  10  1   
 11   6  22  1   
 12   6  23  1   
 13   7   9  2   
 14   7  11  1   
 15   9  24  1   
 16  10  12  1   
 17  10  25  1   
 18  10  26  1   
 19  11  27  1   
 20  11  28  1   
 21  11  29  1   
 22  12  13  1   
 23  12  14  1   
 24  13  15  1   
 25  13  30  1   
 26  13  31  1   
 27  14  32  1   
 28  14  33  1   
 29  14  34  1   
 30  15  16  ar  
 31  15  17  ar  
 32  16  18  ar  
 33  17  19  ar  
 34  17  35  1   
 35  18  20  ar  
 36  18  36  1   
 37  19  20  ar  
 38  20  37  1   
@<TRIPOS>SUBSTRUCTURE
  1 ****  10 GROUP 4 **** **** 0

# MOE 2024.06 (io_trps.svl 2023.06)
