@<TRIPOS>MOLECULE
NONAME
40 42 1 0 0 
SMALL
USER_CHARGES


@<TRIPOS>ATOM
  1 CL       1.8140     0.5160    -1.3170 Cl    1 <1>  -0.1770 
  2 C        1.4840     2.2150    -1.1070 C.ar  1 <1>   0.1770 
  3 C        0.9330     2.6770     0.0750 C.ar  1 <1>   0.1600 
  4 C        1.7710     3.0980    -2.1210 C.ar  1 <1>  -0.1500 
  5 N        0.6500     3.9470     0.3200 N.ar  1 <1>  -0.6200 
  6 C        1.4770     4.4230    -1.8750 C.ar  1 <1>  -0.1500 
  7 C        0.9220     4.8360    -0.6590 C.ar  1 <1>   0.3960 
  8 C        0.6280     6.2610    -0.4770 C.2   1 <1>   0.5440 
  9 O        0.1120     6.8740    -1.3990 O.2   1 <1>  -0.5700 
 10 N        0.9250     6.9650     0.6820 N.am  1 <1>  -0.6600 
 11 C        1.8160     6.3980     1.7470 C.3   1 <1>   0.1400 
 12 C        0.4200     8.3510     0.8800 C.3   1 <1>   0.1400 
 13 C        2.7950     7.4070     2.3750 C.3   1 <1>   0.1400 
 14 C        1.4100     9.3700     0.3040 C.3   1 <1>  -0.1600 
 15 N        3.4160     8.3180     1.3650 N.am  1 <1>  -0.6600 
 16 C        2.6690     9.5880     1.1510 C.3   1 <1>   0.1400 
 17 C        4.4000     7.8460     0.5130 C.2   1 <1>   0.6160 
 18 O        4.6190     6.6450     0.4910 O.2   1 <1>  -0.5700 
 19 C        5.1830     8.7070    -0.3520 C.2   1 <1>   0.1230 
 20 N        5.6500     8.2980    -1.6100 N.am  1 <1>  -0.5390 
 21 C        5.6540     9.9690    -0.1860 C.2   1 <1>  -0.0410 
 22 C        6.3680     9.2940    -2.1590 C.2   1 <1>   0.6900 
 23 N        6.3730    10.3380    -1.3050 N.am  1 <1>  -0.5390 
 24 O        6.9330     9.2620    -3.2390 O.2   1 <1>  -0.5700 
 25 H        0.7180     1.9610     0.8490 H     1 <1>   0.1500 
 26 H        2.1990     2.7650    -3.0490 H     1 <1>   0.1500 
 27 H        1.6730     5.1660    -2.6290 H     1 <1>   0.1500 
 28 H        2.4080     5.6030     1.3310 H     1 <1>   0.0800 
 29 H        1.2050     5.9680     2.5210 H     1 <1>   0.0800 
 30 H        0.2420     8.5360     1.9250 H     1 <1>   0.0800 
 31 H       -0.5240     8.4530     0.3690 H     1 <1>   0.0800 
 32 H        3.5730     6.8610     2.8800 H     1 <1>   0.0800 
 33 H        2.2800     7.9860     3.1200 H     1 <1>   0.0800 
 34 H        0.9030    10.3140     0.2250 H     1 <1>   0.0800 
 35 H        1.6860     9.0790    -0.6950 H     1 <1>   0.0800 
 36 H        2.3930    10.0000     2.1060 H     1 <1>   0.0800 
 37 H        3.2860    10.3140     0.6590 H     1 <1>   0.0800 
 38 H        5.5680     7.3620    -2.0060 H     1 <1>   0.3700 
 39 H        5.5350    10.6230     0.6620 H     1 <1>   0.1500 
 40 H        6.8840    11.1960    -1.5130 H     1 <1>   0.3700 
@<TRIPOS>BOND
  1   1   2  1   
  2   2   3  ar  
  3   2   4  ar  
  4   3   5  ar  
  5   3  25  1   
  6   4   6  ar  
  7   4  26  1   
  8   5   7  ar  
  9   6   7  ar  
 10   6  27  1   
 11   7   8  1   
 12   8   9  2   
 13   8  10  am  
 14  10  11  1   
 15  10  12  1   
 16  11  13  1   
 17  11  28  1   
 18  11  29  1   
 19  12  14  1   
 20  12  30  1   
 21  12  31  1   
 22  13  15  1   
 23  13  32  1   
 24  13  33  1   
 25  14  16  1   
 26  14  34  1   
 27  14  35  1   
 28  15  16  1   
 29  15  17  am  
 30  16  36  1   
 31  16  37  1   
 32  17  18  2   
 33  17  19  1   
 34  19  20  1   
 35  19  21  2   
 36  20  22  am  
 37  20  38  1   
 38  21  23  1   
 39  21  39  1   
 40  22  23  am  
 41  22  24  2   
 42  23  40  1   
@<TRIPOS>SUBSTRUCTURE
  1 ****  18 GROUP 4 **** **** 0

# MOE 2024.06 (io_trps.svl 2023.06)
