@<TRIPOS>MOLECULE
NONAME
40 41 1 0 0 
SMALL
USER_CHARGES


@<TRIPOS>ATOM
  1 N        0.5540     0.0600    -0.7240 N.ar  1 <1>  -0.6200 
  2 C        1.3640    -0.6730     0.0350 C.ar  1 <1>   0.1660 
  3 C       -0.6250    -0.4870    -0.9890 C.ar  1 <1>   0.1600 
  4 C        1.0390    -1.9210     0.5430 C.ar  1 <1>  -0.1500 
  5 C        2.7240    -0.0540     0.3490 C.3   1 <1>   0.4870 
  6 C       -1.0470    -1.7260    -0.5320 C.ar  1 <1>  -0.1440 
  7 C       -0.1940    -2.4670     0.2590 C.ar  1 <1>  -0.1500 
  8 N        2.5440     1.4210     0.5400 N.4   1 <1>  -0.9590 
  9 C       -2.4240    -2.2620    -0.8940 C.3   1 <1>  -0.0170 
 10 C        3.7450     2.2010     0.1420 C.3   1 <1>   0.3430 
 11 C        2.0170     1.7260     1.9080 C.3   1 <1>   0.2630 
 12 C       -3.4580    -1.8400     0.1520 C.3   1 <1>  -0.2400 
 13 C        3.3920     3.6820    -0.0060 C.3   1 <1>  -0.1600 
 14 C        4.5940     4.5050    -0.5060 C.3   1 <1>   0.0960 
 15 N        4.2870     5.9490    -0.4780 N.pl3 1 <1>   0.3140 
 16 N        4.0200     6.5950     0.6340 N.2   1 <1>  -0.4180 
 17 C        4.2150     6.8170    -1.4690 C.2   1 <1>   0.0360 
 18 N        3.7940     7.8150     0.2980 N.2   1 <1>   0.0000 
 19 N        3.9120     7.9710    -1.0160 N.2   1 <1>  -0.3380 
 20 H       -1.2990     0.0850    -1.6060 H     1 <1>   0.1500 
 21 H        1.7300    -2.4740     1.1540 H     1 <1>   0.1500 
 22 H        3.3720    -0.2370    -0.4920 H     1 <1>   0.0800 
 23 H        3.1540    -0.5060     1.2260 H     1 <1>   0.0800 
 24 H       -0.4790    -3.4340     0.6380 H     1 <1>   0.1500 
 25 H        1.7680     1.6100    -0.1290 H     1 <1>   0.4500 
 26 H       -2.3920    -3.3360    -0.9540 H     1 <1>   0.0800 
 27 H       -2.7180    -1.8920    -1.8610 H     1 <1>   0.0800 
 28 H        4.1130     1.8340    -0.8030 H     1 <1>   0.0800 
 29 H        4.5230     2.0800     0.8790 H     1 <1>   0.0800 
 30 H        2.7590     1.5050     2.6580 H     1 <1>   0.0800 
 31 H        1.1360     1.1350     2.1060 H     1 <1>   0.0800 
 32 H        1.7450     2.7660     1.9840 H     1 <1>   0.0800 
 33 H       -3.1870    -2.2230     1.1200 H     1 <1>   0.0800 
 34 H       -4.4270    -2.2250    -0.1110 H     1 <1>   0.0800 
 35 H       -3.5180    -0.7670     0.2090 H     1 <1>   0.0800 
 36 H        3.0890     4.0710     0.9510 H     1 <1>   0.0800 
 37 H        2.5800     3.7940    -0.7040 H     1 <1>   0.0800 
 38 H        4.8550     4.2250    -1.5110 H     1 <1>   0.0800 
 39 H        5.4480     4.3440     0.1300 H     1 <1>   0.0800 
 40 H        4.3880     6.5770    -2.5010 H     1 <1>   0.1500 
@<TRIPOS>BOND
  1   1   2  ar  
  2   1   3  ar  
  3   2   4  ar  
  4   2   5  1   
  5   3   6  ar  
  6   3  20  1   
  7   4   7  ar  
  8   4  21  1   
  9   5   8  1   
 10   5  22  1   
 11   5  23  1   
 12   6   7  ar  
 13   6   9  1   
 14   7  24  1   
 15   8  10  1   
 16   8  11  1   
 17   8  25  1   
 18   9  12  1   
 19   9  26  1   
 20   9  27  1   
 21  10  13  1   
 22  10  28  1   
 23  10  29  1   
 24  11  30  1   
 25  11  31  1   
 26  11  32  1   
 27  12  33  1   
 28  12  34  1   
 29  12  35  1   
 30  13  14  1   
 31  13  36  1   
 32  13  37  1   
 33  14  15  1   
 34  14  38  1   
 35  14  39  1   
 36  15  16  1   
 37  15  17  1   
 38  16  18  2   
 39  17  19  2   
 40  17  40  1   
 41  18  19  1   
@<TRIPOS>SUBSTRUCTURE
  1 ****   8 GROUP 4 **** **** 0

# MOE 2024.06 (io_trps.svl 2023.06)
