@<TRIPOS>MOLECULE
NONAME
49 51 1 0 0 
SMALL
USER_CHARGES


@<TRIPOS>ATOM
  1 O       -0.4730    -2.4250    -1.6490 O.2   1 <1>  -0.5700 
  2 C       -0.3040    -2.6890    -0.4800 C.2   1 <1>   0.5690 
  3 N        0.9260    -3.0190     0.0170 N.am  1 <1>  -0.6600 
  4 C       -1.5390    -2.6200     0.4340 C.3   1 <1>   0.4040 
  5 C        2.1280    -3.0920    -0.8490 C.3   1 <1>   0.1400 
  6 C        1.2580    -3.4060     1.4100 C.3   1 <1>   0.1400 
  7 N       -2.6360    -1.7410    -0.1220 N.4   1 <1>  -0.9590 
  8 C        3.2910    -3.3060     0.1120 C.3   1 <1>  -0.1600 
  9 C        2.6660    -3.9820     1.3290 C.3   1 <1>  -0.1600 
 10 C       -3.9720    -1.9920     0.5020 C.3   1 <1>   0.3430 
 11 C       -2.2510    -0.3010    -0.1060 C.3   1 <1>   0.3430 
 12 C       -5.0890    -1.2100    -0.2170 C.3   1 <1>   0.0000 
 13 C       -3.3130     0.5210    -0.8360 C.3   1 <1>  -0.1600 
 14 C       -6.4220    -1.4950     0.5060 C.3   1 <1>   0.2000 
 15 C       -4.7190     0.2920    -0.2590 C.3   1 <1>  -0.1600 
 16 C       -5.3370    -1.7940    -1.6200 C.3   1 <1>  -0.1600 
 17 O       -7.3570    -0.5330     0.1230 O.3   1 <1>  -0.5600 
 18 C       -6.8720    -2.8610    -0.0300 C.3   1 <1>  -0.1600 
 19 C       -6.2150    -3.0310    -1.4070 C.3   1 <1>  -0.1600 
 20 C       -8.4360    -0.3610     0.9890 C.3   1 <1>   0.0400 
 21 H       -1.2370    -2.2600     1.4020 H     1 <1>   0.0800 
 22 H       -1.9090    -3.6230     0.5480 H     1 <1>   0.0800 
 23 H        2.0320    -3.9320    -1.5170 H     1 <1>   0.0800 
 24 H        2.2490    -2.1890    -1.4240 H     1 <1>   0.0800 
 25 H        1.2590    -2.5280     2.0340 H     1 <1>   0.0800 
 26 H        0.5660    -4.1350     1.7960 H     1 <1>   0.0800 
 27 H       -2.6920    -1.9910    -1.1240 H     1 <1>   0.4500 
 28 H        4.0720    -3.8990    -0.3320 H     1 <1>   0.0800 
 29 H        3.6980    -2.3490     0.3900 H     1 <1>   0.0800 
 30 H        3.2280    -3.8030     2.2290 H     1 <1>   0.0800 
 31 H        2.6050    -5.0440     1.1630 H     1 <1>   0.0800 
 32 H       -4.2000    -3.0440     0.4610 H     1 <1>   0.0800 
 33 H       -3.9460    -1.6920     1.5360 H     1 <1>   0.0800 
 34 H       -2.1650     0.0460     0.9110 H     1 <1>   0.0800 
 35 H       -1.2990    -0.1670    -0.5960 H     1 <1>   0.0800 
 36 H       -3.0630     1.5650    -0.7560 H     1 <1>   0.0800 
 37 H       -3.2980     0.2720    -1.8830 H     1 <1>   0.0800 
 38 H       -6.3190    -1.4750     1.5780 H     1 <1>   0.0800 
 39 H       -5.4370     0.8360    -0.8500 H     1 <1>   0.0800 
 40 H       -4.7620     0.6940     0.7390 H     1 <1>   0.0800 
 41 H       -5.9030    -1.0820    -2.1990 H     1 <1>   0.0800 
 42 H       -4.4400    -2.0280    -2.1660 H     1 <1>   0.0800 
 43 H       -6.5250    -3.6370     0.6280 H     1 <1>   0.0800 
 44 H       -7.9440    -2.9320    -0.0990 H     1 <1>   0.0800 
 45 H       -5.6220    -3.9300    -1.4270 H     1 <1>   0.0800 
 46 H       -6.9610    -3.0960    -2.1810 H     1 <1>   0.0800 
 47 H       -9.0870     0.3840     0.5660 H     1 <1>   0.0800 
 48 H       -8.0750    -0.0220     1.9450 H     1 <1>   0.0800 
 49 H       -8.9710    -1.2880     1.0930 H     1 <1>   0.0800 
@<TRIPOS>BOND
  1   1   2  2   
  2   2   3  am  
  3   2   4  1   
  4   3   5  1   
  5   3   6  1   
  6   4   7  1   
  7   4  21  1   
  8   4  22  1   
  9   5   8  1   
 10   5  23  1   
 11   5  24  1   
 12   6   9  1   
 13   6  25  1   
 14   6  26  1   
 15   7  10  1   
 16   7  11  1   
 17   7  27  1   
 18   8   9  1   
 19   8  28  1   
 20   8  29  1   
 21   9  30  1   
 22   9  31  1   
 23  10  12  1   
 24  10  32  1   
 25  10  33  1   
 26  11  13  1   
 27  11  34  1   
 28  11  35  1   
 29  12  14  1   
 30  12  15  1   
 31  12  16  1   
 32  13  15  1   
 33  13  36  1   
 34  13  37  1   
 35  14  17  1   
 36  14  18  1   
 37  14  38  1   
 38  15  39  1   
 39  15  40  1   
 40  16  19  1   
 41  16  41  1   
 42  16  42  1   
 43  17  20  1   
 44  18  19  1   
 45  18  43  1   
 46  18  44  1   
 47  19  45  1   
 48  19  46  1   
 49  20  47  1   
 50  20  48  1   
 51  20  49  1   
@<TRIPOS>SUBSTRUCTURE
  1 ****   7 GROUP 4 **** **** 0

# MOE 2024.06 (io_trps.svl 2023.06)
