@<TRIPOS>MOLECULE
NONAME
45 46 1 0 0 
SMALL
USER_CHARGES


@<TRIPOS>ATOM
  1 S        0.0070    -0.6590     1.0300 S.o2  1 <1>   1.3330 
  2 O        0.1550     0.1430     2.2260 O.2   1 <1>  -0.6500 
  3 O        0.1530    -2.0950     1.1170 O.2   1 <1>  -0.6500 
  4 N       -1.5150    -0.3290     0.3630 N.am  1 <1>  -0.8490 
  5 C        1.1650    -0.0210    -0.2230 C.3   1 <1>   0.0250 
  6 C       -1.8860    -1.2160    -0.7740 C.3   1 <1>   0.1960 
  7 C       -2.5570    -0.2300     1.4050 C.3   1 <1>   0.1960 
  8 C        2.6410    -0.2590     0.1520 C.3   1 <1>  -0.2400 
  9 C        0.9720     1.4770    -0.5330 C.3   1 <1>  -0.2400 
 10 C       -3.0910    -2.1170    -0.4660 C.3   1 <1>   0.2000 
 11 C       -3.9280    -0.0570     0.7500 C.3   1 <1>  -0.1600 
 12 O       -3.3660    -2.9470    -1.5420 O.3   1 <1>  -0.6800 
 13 C       -4.3550    -1.3110    -0.0780 C.3   1 <1>  -0.1060 
 14 C       -5.1770    -2.3280     0.7210 C.2   1 <1>   0.9060 
 15 C       -5.1670    -0.8360    -1.3220 C.3   1 <1>  -0.0170 
 16 O       -5.3520    -2.1830     1.9350 O.co2 1 <1>  -0.9000 
 17 O       -5.5910    -3.3310     0.1190 O.co2 1 <1>  -0.9000 
 18 C       -6.2800     0.1660    -1.0150 C.ar  1 <1>  -0.1440 
 19 C       -6.1770     1.4840    -1.4360 C.ar  1 <1>  -0.1500 
 20 C       -7.4110    -0.2330    -0.3190 C.ar  1 <1>  -0.1500 
 21 C       -7.1870     2.3910    -1.1620 C.ar  1 <1>  -0.1500 
 22 C       -8.4200     0.6720    -0.0410 C.ar  1 <1>  -0.1500 
 23 C       -8.3100     1.9850    -0.4630 C.ar  1 <1>  -0.1500 
 24 H        0.9820    -0.5600    -1.1330 H     1 <1>   0.0800 
 25 H       -2.1380    -0.5930    -1.6140 H     1 <1>   0.0800 
 26 H       -1.0580    -1.8400    -1.0590 H     1 <1>   0.0800 
 27 H       -2.5590    -1.1130     2.0250 H     1 <1>   0.0800 
 28 H       -2.3530     0.6190     2.0360 H     1 <1>   0.0800 
 29 H        2.8850     0.2720     1.0570 H     1 <1>   0.0800 
 30 H        3.2940     0.0730    -0.6350 H     1 <1>   0.0800 
 31 H        2.8100    -1.3080     0.3190 H     1 <1>   0.0800 
 32 H        1.1460     2.0650     0.3530 H     1 <1>   0.0800 
 33 H       -0.0350     1.6590    -0.8640 H     1 <1>   0.0800 
 34 H        1.6480     1.7980    -1.3040 H     1 <1>   0.0800 
 35 H       -2.8090    -2.7640     0.3490 H     1 <1>   0.0800 
 36 H       -4.6660     0.1540     1.5050 H     1 <1>   0.0800 
 37 H       -3.8690     0.8130     0.1220 H     1 <1>   0.0800 
 38 H       -4.1880    -3.4440    -1.2800 H     1 <1>   0.4000 
 39 H       -4.4900    -0.3930    -2.0290 H     1 <1>   0.0800 
 40 H       -5.6130    -1.6820    -1.8160 H     1 <1>   0.0800 
 41 H       -5.3070     1.8080    -1.9780 H     1 <1>   0.1500 
 42 H       -7.5070    -1.2540     0.0150 H     1 <1>   0.1500 
 43 H       -7.0970     3.4110    -1.4910 H     1 <1>   0.1500 
 44 H       -9.2870     0.3470     0.5060 H     1 <1>   0.1500 
 45 H       -9.0940     2.6870    -0.2450 H     1 <1>   0.1500 
@<TRIPOS>BOND
  1   1   2  2   
  2   1   3  2   
  3   1   4  am  
  4   1   5  1   
  5   4   6  1   
  6   4   7  1   
  7   5   8  1   
  8   5   9  1   
  9   5  24  1   
 10   6  10  1   
 11   6  25  1   
 12   6  26  1   
 13   7  11  1   
 14   7  27  1   
 15   7  28  1   
 16   8  29  1   
 17   8  30  1   
 18   8  31  1   
 19   9  32  1   
 20   9  33  1   
 21   9  34  1   
 22  10  12  1   
 23  10  13  1   
 24  10  35  1   
 25  11  13  1   
 26  11  36  1   
 27  11  37  1   
 28  12  38  1   
 29  13  14  1   
 30  13  15  1   
 31  14  16  ar  
 32  14  17  ar  
 33  15  18  1   
 34  15  39  1   
 35  15  40  1   
 36  18  19  ar  
 37  18  20  ar  
 38  19  21  ar  
 39  19  41  1   
 40  20  22  ar  
 41  20  42  1   
 42  21  23  ar  
 43  21  43  1   
 44  22  23  ar  
 45  22  44  1   
 46  23  45  1   
@<TRIPOS>SUBSTRUCTURE
  1 ****  11 GROUP 4 **** **** 0

# MOE 2024.06 (io_trps.svl 2023.06)
