@<TRIPOS>MOLECULE
NONAME
46 48 1 0 0 
SMALL
USER_CHARGES


@<TRIPOS>ATOM
  1 O        0.5530    -0.2280    -0.3630 O.2   1 <1>  -0.5700 
  2 C        1.2320    -1.1890    -0.1160 C.2   1 <1>   0.5690 
  3 N        0.7910    -2.1870     0.6770 N.am  1 <1>  -0.7300 
  4 C        2.6270    -1.3240    -0.6880 C.3   1 <1>  -0.0990 
  5 C        1.6250    -3.3440     1.0520 C.3   1 <1>   0.1400 
  6 C        2.8560    -2.7640    -1.1890 C.3   1 <1>  -0.0800 
  7 C        2.3970    -3.8540    -0.1870 C.3   1 <1>  -0.0800 
  8 C        4.3260    -3.0520    -1.5280 C.3   1 <1>  -0.1600 
  9 C        3.6580    -4.6470     0.1800 C.3   1 <1>  -0.1600 
 10 C        4.5780    -4.4700    -1.0270 C.3   1 <1>   0.4230 
 11 N        6.0310    -4.7710    -0.7970 N.4   1 <1>  -0.9590 
 12 C        6.6310    -4.3220     0.5360 C.3   1 <1>   0.4040 
 13 C        6.2630    -6.2370    -0.9800 C.3   1 <1>   0.2630 
 14 C        6.6660    -2.8100     0.8000 C.2   1 <1>   0.5690 
 15 O        5.7720    -2.3490     1.4630 O.2   1 <1>  -0.5700 
 16 N        7.6750    -2.0570     0.2500 N.am  1 <1>  -0.5470 
 17 C        7.8380    -0.6620     0.2030 C.ar  1 <1>   0.1170 
 18 C        6.7830     0.2360     0.3460 C.ar  1 <1>  -0.1500 
 19 C        9.1120    -0.1520    -0.0220 C.ar  1 <1>  -0.1500 
 20 C        6.9970     1.6000     0.2670 C.ar  1 <1>  -0.1500 
 21 C        9.3290     1.2120    -0.1020 C.ar  1 <1>  -0.1500 
 22 C        8.2710     2.0910     0.0420 C.ar  1 <1>  -0.1500 
 23 H       -0.1290    -2.0720     1.1110 H     1 <1>   0.3700 
 24 H        2.7520    -0.6210    -1.4920 H     1 <1>   0.0800 
 25 H        3.3230    -1.0760     0.0920 H     1 <1>   0.0800 
 26 H        2.3110    -3.0250     1.8200 H     1 <1>   0.0800 
 27 H        1.0050    -4.1280     1.4530 H     1 <1>   0.0800 
 28 H        2.2650    -2.8850    -2.0840 H     1 <1>   0.0800 
 29 H        1.7340    -4.5170    -0.7200 H     1 <1>   0.0800 
 30 H        4.9520    -2.3340    -1.0370 H     1 <1>   0.0800 
 31 H        4.4860    -2.9820    -2.5890 H     1 <1>   0.0800 
 32 H        3.4240    -5.6820     0.3560 H     1 <1>   0.0800 
 33 H        4.0790    -4.2180     1.0680 H     1 <1>   0.0800 
 34 H        4.2100    -5.1270    -1.7990 H     1 <1>   0.0800 
 35 H        6.5320    -4.2730    -1.5480 H     1 <1>   0.4500 
 36 H        6.0800    -4.7750     1.3420 H     1 <1>   0.0800 
 37 H        7.6420    -4.6830     0.6060 H     1 <1>   0.0800 
 38 H        5.7350    -6.7970    -0.2240 H     1 <1>   0.0800 
 39 H        7.3140    -6.4670    -0.9090 H     1 <1>   0.0800 
 40 H        5.9110    -6.5550    -1.9490 H     1 <1>   0.0800 
 41 H        8.4790    -2.5550    -0.1290 H     1 <1>   0.3700 
 42 H        5.7840    -0.1150     0.5200 H     1 <1>   0.1500 
 43 H        9.9500    -0.8150    -0.1330 H     1 <1>   0.1500 
 44 H        6.1720     2.2820     0.3820 H     1 <1>   0.1500 
 45 H       10.3210     1.5940    -0.2750 H     1 <1>   0.1500 
 46 H        8.4370     3.1530    -0.0180 H     1 <1>   0.1500 
@<TRIPOS>BOND
  1   1   2  2   
  2   2   3  am  
  3   2   4  1   
  4   3   5  1   
  5   3  23  1   
  6   4   6  1   
  7   4  24  1   
  8   4  25  1   
  9   5   7  1   
 10   5  26  1   
 11   5  27  1   
 12   6   7  1   
 13   6   8  1   
 14   6  28  1   
 15   7   9  1   
 16   7  29  1   
 17   8  10  1   
 18   8  30  1   
 19   8  31  1   
 20   9  10  1   
 21   9  32  1   
 22   9  33  1   
 23  10  11  1   
 24  10  34  1   
 25  11  12  1   
 26  11  13  1   
 27  11  35  1   
 28  12  14  1   
 29  12  36  1   
 30  12  37  1   
 31  13  38  1   
 32  13  39  1   
 33  13  40  1   
 34  14  15  2   
 35  14  16  am  
 36  16  17  1   
 37  16  41  1   
 38  17  18  ar  
 39  17  19  ar  
 40  18  20  ar  
 41  18  42  1   
 42  19  21  ar  
 43  19  43  1   
 44  20  22  ar  
 45  20  44  1   
 46  21  22  ar  
 47  21  45  1   
 48  22  46  1   
@<TRIPOS>SUBSTRUCTURE
  1 ****  15 GROUP 4 **** **** 0

# MOE 2024.06 (io_trps.svl 2023.06)
