@<TRIPOS>MOLECULE
NONAME
60 63 1 0 0 
SMALL
USER_CHARGES


@<TRIPOS>ATOM
  1 O        1.1300    -0.1130     1.3150 O.3   1 <1>  -0.3630 
  2 C        1.8980    -1.0690     0.7360 C.ar  1 <1>   0.0820 
  3 C        1.2240     1.2000     0.7880 C.3   1 <1>   0.1200 
  4 C        2.9230    -0.7400    -0.1480 C.ar  1 <1>   0.0820 
  5 C        1.6440    -2.3940     1.0310 C.ar  1 <1>  -0.1500 
  6 C        2.6790     1.5350     0.4310 C.3   1 <1>   0.1200 
  7 O        3.2090     0.5530    -0.4400 O.3   1 <1>  -0.3630 
  8 C        3.6710    -1.7430    -0.7360 C.ar  1 <1>  -0.1500 
  9 C        2.3880    -3.4040     0.4330 C.ar  1 <1>  -0.1440 
 10 C        3.4170    -3.0770    -0.4510 C.ar  1 <1>  -0.1440 
 11 C        2.0430    -4.8430     0.7630 C.3   1 <1>   0.4870 
 12 C        4.2980    -4.1260    -1.1210 C.3   1 <1>  -0.0960 
 13 N        1.1650    -5.3650    -0.3170 N.4   1 <1>  -0.9590 
 14 C        1.0650    -6.8590    -0.2530 C.3   1 <1>   0.5660 
 15 C       -0.1850    -4.7100    -0.3070 C.3   1 <1>   0.3430 
 16 C        2.4410    -7.4170    -0.5920 C.ar  1 <1>  -0.1440 
 17 C       -0.0380    -7.4550    -1.1720 C.3   1 <1>   0.2000 
 18 C       -1.1440    -5.3650    -1.3150 C.3   1 <1>   0.1200 
 19 C        3.1700    -8.0530     0.4040 C.ar  1 <1>  -0.1500 
 20 C        2.9940    -7.2920    -1.8620 C.ar  1 <1>  -0.1500 
 21 O       -1.2410    -6.7340    -1.0590 O.3   1 <1>  -0.5600 
 22 C       -0.3100    -8.9220    -0.7980 C.3   1 <1>   0.1200 
 23 C        4.4390    -8.5410     0.1510 C.ar  1 <1>   0.0820 
 24 C        4.2670    -7.7730    -2.1190 C.ar  1 <1>  -0.1500 
 25 O       -0.4450    -9.0490     0.5830 O.3   1 <1>  -0.6800 
 26 O        5.0730    -9.1610     1.1740 O.3   1 <1>  -0.3630 
 27 C        5.0050    -8.3780    -1.1180 C.ar  1 <1>   0.0820 
 28 C        5.3480   -10.5360     1.0090 C.3   1 <1>   0.0400 
 29 O        6.2580    -8.7840    -1.4330 O.3   1 <1>  -0.3630 
 30 C        7.3270    -8.1670    -0.7480 C.3   1 <1>   0.0400 
 31 H        0.6050     1.2530    -0.0900 H     1 <1>   0.0800 
 32 H        0.8460     1.8820     1.5270 H     1 <1>   0.0800 
 33 H        0.8570    -2.6110     1.7320 H     1 <1>   0.1500 
 34 H        3.2870     1.5600     1.3180 H     1 <1>   0.0800 
 35 H        2.7420     2.4870    -0.0660 H     1 <1>   0.0800 
 36 H        4.4570    -1.4590    -1.4140 H     1 <1>   0.1500 
 37 H        1.5410    -4.8970     1.7150 H     1 <1>   0.0800 
 38 H        2.9510    -5.4200     0.8260 H     1 <1>   0.0800 
 39 H        5.2260    -3.6840    -1.4400 H     1 <1>   0.0800 
 40 H        3.8080    -4.5260    -1.9890 H     1 <1>   0.0800 
 41 H        4.5440    -4.9270    -0.4470 H     1 <1>   0.0800 
 42 H        1.6360    -5.1280    -1.1940 H     1 <1>   0.4500 
 43 H        0.8210    -7.1420     0.7580 H     1 <1>   0.0800 
 44 H       -0.6230    -4.7890     0.6750 H     1 <1>   0.0800 
 45 H       -0.0850    -3.6610    -0.5400 H     1 <1>   0.0800 
 46 H        0.2620    -7.4140    -2.2030 H     1 <1>   0.0800 
 47 H       -0.8120    -5.2170    -2.3280 H     1 <1>   0.0800 
 48 H       -2.1300    -4.9440    -1.2120 H     1 <1>   0.0800 
 49 H        2.7650    -8.1870     1.3930 H     1 <1>   0.1500 
 50 H        2.4570    -6.8230    -2.6680 H     1 <1>   0.1500 
 51 H        0.5080    -9.5510    -1.1070 H     1 <1>   0.0800 
 52 H       -1.2160    -9.2630    -1.2690 H     1 <1>   0.0800 
 53 H        4.7020    -7.6790    -3.0990 H     1 <1>   0.1500 
 54 H       -0.8470    -9.9130     0.8130 H     1 <1>   0.4000 
 55 H        5.7630   -10.9090     1.9280 H     1 <1>   0.0800 
 56 H        6.0550   -10.6690     0.2100 H     1 <1>   0.0800 
 57 H        4.4310   -11.0510     0.7840 H     1 <1>   0.0800 
 58 H        8.2480    -8.5070    -1.1870 H     1 <1>   0.0800 
 59 H        7.2970    -8.4430     0.2900 H     1 <1>   0.0800 
 60 H        7.2410    -7.1000    -0.8560 H     1 <1>   0.0800 
@<TRIPOS>BOND
  1   1   2  1   
  2   1   3  1   
  3   2   4  ar  
  4   2   5  ar  
  5   3   6  1   
  6   3  31  1   
  7   3  32  1   
  8   4   7  1   
  9   4   8  ar  
 10   5   9  ar  
 11   5  33  1   
 12   6   7  1   
 13   6  34  1   
 14   6  35  1   
 15   8  10  ar  
 16   8  36  1   
 17   9  10  ar  
 18   9  11  1   
 19  10  12  1   
 20  11  13  1   
 21  11  37  1   
 22  11  38  1   
 23  12  39  1   
 24  12  40  1   
 25  12  41  1   
 26  13  14  1   
 27  13  15  1   
 28  13  42  1   
 29  14  16  1   
 30  14  17  1   
 31  14  43  1   
 32  15  18  1   
 33  15  44  1   
 34  15  45  1   
 35  16  19  ar  
 36  16  20  ar  
 37  17  21  1   
 38  17  22  1   
 39  17  46  1   
 40  18  21  1   
 41  18  47  1   
 42  18  48  1   
 43  19  23  ar  
 44  19  49  1   
 45  20  24  ar  
 46  20  50  1   
 47  22  25  1   
 48  22  51  1   
 49  22  52  1   
 50  23  26  1   
 51  23  27  ar  
 52  24  27  ar  
 53  24  53  1   
 54  25  54  1   
 55  26  28  1   
 56  27  29  1   
 57  28  55  1   
 58  28  56  1   
 59  28  57  1   
 60  29  30  1   
 61  30  58  1   
 62  30  59  1   
 63  30  60  1   
@<TRIPOS>SUBSTRUCTURE
  1 ****  11 GROUP 4 **** **** 0

# MOE 2024.06 (io_trps.svl 2023.06)
