@<TRIPOS>MOLECULE
NONAME
51 54 1 0 0 
SMALL
USER_CHARGES


@<TRIPOS>ATOM
  1 O       -1.1400    -0.0050     2.0360 O.2   1 <1>  -0.5700 
  2 C       -1.9120     0.6990     1.4150 C.2   1 <1>   0.7150 
  3 N       -3.1820     0.2380     1.1670 N.am  1 <1>  -0.6600 
  4 C       -1.5080     1.9830     0.9280 C.2   1 <1>  -0.2370 
  5 C       -4.0410     0.7670     0.0740 C.3   1 <1>   0.1400 
  6 C       -3.6450    -1.1140     1.5710 C.3   1 <1>   0.1400 
  7 N       -0.4470     2.2350     0.1080 N.pl3 1 <1>   0.3140 
  8 C       -2.0890     3.1930     1.1570 C.2   1 <1>  -0.1500 
  9 C       -5.1470    -0.2770    -0.1070 C.3   1 <1>   0.2000 
 10 C       -4.5430    -1.5810     0.4200 C.3   1 <1>  -0.0800 
 11 N       -0.3630     3.5450    -0.1930 N.2   1 <1>  -0.7070 
 12 C        0.5460     1.3010    -0.5120 C.3   1 <1>   0.1760 
 13 C       -1.3410     4.1080     0.4460 C.2   1 <1>   0.1390 
 14 O       -6.2150     0.0640     0.7070 O.3   1 <1>  -0.6800 
 15 C       -3.7300    -2.2950    -0.6800 C.3   1 <1>  -0.0170 
 16 C       -0.1140     0.0960    -1.2010 C.3   1 <1>  -0.2400 
 17 C        1.6250     0.8680     0.4900 C.3   1 <1>  -0.2400 
 18 C       -3.1350    -3.6090    -0.1840 C.ar  1 <1>  -0.1440 
 19 C       -3.9000    -4.7930    -0.0590 C.ar  1 <1>   0.0000 
 20 C       -1.8170    -3.6730     0.1630 C.ar  1 <1>  -0.1500 
 21 C       -3.2440    -5.9520     0.4230 C.ar  1 <1>   0.3100 
 22 C       -5.2740    -4.8960    -0.3820 C.ar  1 <1>  -0.1500 
 23 C       -1.2650    -4.8720     0.6290 C.ar  1 <1>   0.1600 
 24 N       -1.9300    -5.9750     0.7600 N.ar  1 <1>  -0.6200 
 25 C       -3.9790    -7.1410     0.5620 C.ar  1 <1>  -0.1500 
 26 C       -5.9600    -6.0710    -0.2350 C.ar  1 <1>  -0.1500 
 27 C       -5.3070    -7.2090     0.2430 C.ar  1 <1>  -0.1500 
 28 H       -4.4460     1.7330     0.3210 H     1 <1>   0.0800 
 29 H       -3.4580     0.8440    -0.8270 H     1 <1>   0.0800 
 30 H       -2.8210    -1.7830     1.7510 H     1 <1>   0.0800 
 31 H       -4.2180    -1.0280     2.4780 H     1 <1>   0.0800 
 32 H       -2.9490     3.4120     1.7640 H     1 <1>   0.1500 
 33 H       -5.5060    -0.3400    -1.1200 H     1 <1>   0.0800 
 34 H       -5.3090    -2.2460     0.7790 H     1 <1>   0.0800 
 35 H        1.0420     1.8670    -1.2820 H     1 <1>   0.0800 
 36 H       -1.5330     5.1680     0.4120 H     1 <1>   0.1500 
 37 H       -5.8920     0.2330     1.6140 H     1 <1>   0.4000 
 38 H       -2.9350    -1.6530    -1.0170 H     1 <1>   0.0800 
 39 H       -4.3530    -2.4880    -1.5360 H     1 <1>   0.0800 
 40 H       -0.5180    -0.5890    -0.4810 H     1 <1>   0.0800 
 41 H        0.6200    -0.4320    -1.7820 H     1 <1>   0.0800 
 42 H       -0.8930     0.4280    -1.8630 H     1 <1>   0.0800 
 43 H        1.2160     0.2480     1.2650 H     1 <1>   0.0800 
 44 H        2.0760     1.7360     0.9370 H     1 <1>   0.0800 
 45 H        2.3920     0.3110    -0.0160 H     1 <1>   0.0800 
 46 H       -1.1720    -2.8160     0.1000 H     1 <1>   0.1500 
 47 H       -5.7980    -4.0360    -0.7530 H     1 <1>   0.1500 
 48 H       -0.2220    -4.8740     0.8950 H     1 <1>   0.1500 
 49 H       -3.4550    -8.0030     0.9310 H     1 <1>   0.1500 
 50 H       -7.0060    -6.1360    -0.4840 H     1 <1>   0.1500 
 51 H       -5.8570    -8.1270     0.3550 H     1 <1>   0.1500 
@<TRIPOS>BOND
  1   1   2  2   
  2   2   3  am  
  3   2   4  1   
  4   3   5  1   
  5   3   6  1   
  6   4   7  1   
  7   4   8  2   
  8   5   9  1   
  9   5  28  1   
 10   5  29  1   
 11   6  10  1   
 12   6  30  1   
 13   6  31  1   
 14   7  11  1   
 15   7  12  1   
 16   8  13  1   
 17   8  32  1   
 18   9  10  1   
 19   9  14  1   
 20   9  33  1   
 21  10  15  1   
 22  10  34  1   
 23  11  13  2   
 24  12  16  1   
 25  12  17  1   
 26  12  35  1   
 27  13  36  1   
 28  14  37  1   
 29  15  18  1   
 30  15  38  1   
 31  15  39  1   
 32  16  40  1   
 33  16  41  1   
 34  16  42  1   
 35  17  43  1   
 36  17  44  1   
 37  17  45  1   
 38  18  19  ar  
 39  18  20  ar  
 40  19  21  ar  
 41  19  22  ar  
 42  20  23  ar  
 43  20  46  1   
 44  21  24  ar  
 45  21  25  ar  
 46  22  26  ar  
 47  22  47  1   
 48  23  24  ar  
 49  23  48  1   
 50  25  27  ar  
 51  25  49  1   
 52  26  27  ar  
 53  26  50  1   
 54  27  51  1   
@<TRIPOS>SUBSTRUCTURE
  1 ****   6 GROUP 4 **** **** 0

# MOE 2024.06 (io_trps.svl 2023.06)
