@<TRIPOS>MOLECULE
NONAME
53 56 1 0 0 
SMALL
USER_CHARGES


@<TRIPOS>ATOM
  1 O        0.7240     0.8110     1.2070 O.3   1 <1>  -0.0190 
  2 N        0.6920    -0.4660     1.1150 N.2   1 <1>  -0.4100 
  3 C        1.6770     1.2940     0.4570 C.2   1 <1>   0.4250 
  4 C        1.6390    -0.7270     0.3000 C.2   1 <1>   0.3350 
  5 N        2.2990     0.3430    -0.1500 N.2   1 <1>  -0.5650 
  6 C        1.9260     2.7150     0.3820 C.ar  1 <1>   0.0530 
  7 C        2.0250    -2.1150    -0.1490 C.3   1 <1>  -0.0590 
  8 C        2.9300     3.2480    -0.4070 C.ar  1 <1>  -0.1500 
  9 C        1.1860     3.6550     1.0900 C.ar  1 <1>  -0.1500 
 10 C        3.1520     4.6160    -0.4660 C.ar  1 <1>   0.4100 
 11 C        1.4780     4.9980     0.9750 C.ar  1 <1>   0.1600 
 12 N        2.4400     5.4990     0.2210 N.ar  1 <1>  -0.6200 
 13 N        4.1630     5.0940    -1.2720 N.pl3 1 <1>  -0.8690 
 14 C        4.2270     6.5130    -1.6980 C.3   1 <1>   0.2090 
 15 C        4.9610     7.3540    -0.6380 C.3   1 <1>  -0.0800 
 16 C        5.0260     8.8330    -1.0500 C.3   1 <1>  -0.1600 
 17 C        6.3800     6.8340    -0.3460 C.3   1 <1>  -0.1600 
 18 C        5.7550     9.6700     0.0010 C.3   1 <1>   0.3430 
 19 C        7.0830     7.6990     0.6970 C.3   1 <1>   0.3430 
 20 N        7.1210     9.1140     0.2340 N.4   1 <1>  -0.9590 
 21 C        7.9060     9.9670     1.1650 C.3   1 <1>   0.4860 
 22 C        8.1230    11.3190     0.5140 C.ar  1 <1>  -0.1430 
 23 C        7.4070    12.4260     0.9470 C.ar  1 <1>  -0.1500 
 24 C        9.0340    11.4580    -0.5240 C.ar  1 <1>  -0.1500 
 25 C        7.5900    13.6550     0.3390 C.ar  1 <1>  -0.1500 
 26 C        9.2160    12.6890    -1.1300 C.ar  1 <1>  -0.1500 
 27 C        8.4930    13.7860    -0.7010 C.ar  1 <1>  -0.1500 
 28 H        1.3870    -2.8440     0.3160 H     1 <1>   0.0800 
 29 H        3.0440    -2.3120     0.1250 H     1 <1>   0.0800 
 30 H        1.9250    -2.1890    -1.2160 H     1 <1>   0.0800 
 31 H        3.5530     2.5920    -0.9850 H     1 <1>   0.1500 
 32 H        0.3820     3.3400     1.7310 H     1 <1>   0.1500 
 33 H        0.8870     5.7030     1.5360 H     1 <1>   0.1500 
 34 H        4.4590     4.4390    -1.9990 H     1 <1>   0.4000 
 35 H        3.2270     6.8910    -1.8410 H     1 <1>   0.0800 
 36 H        4.7430     6.5740    -2.6410 H     1 <1>   0.0800 
 37 H        4.3860     7.2940     0.2710 H     1 <1>   0.0800 
 38 H        4.0260     9.2160    -1.1620 H     1 <1>   0.0800 
 39 H        5.5220     8.9390    -1.9990 H     1 <1>   0.0800 
 40 H        6.9630     6.8020    -1.2490 H     1 <1>   0.0800 
 41 H        6.3220     5.8290     0.0370 H     1 <1>   0.0800 
 42 H        5.1930     9.6580     0.9210 H     1 <1>   0.0800 
 43 H        5.8220    10.6910    -0.3420 H     1 <1>   0.0800 
 44 H        8.0840     7.3290     0.8520 H     1 <1>   0.0800 
 45 H        6.5470     7.6330     1.6310 H     1 <1>   0.0800 
 46 H        7.6060     9.1460    -0.6700 H     1 <1>   0.4500 
 47 H        8.8640     9.5150     1.3660 H     1 <1>   0.0800 
 48 H        7.3810    10.0860     2.0980 H     1 <1>   0.0800 
 49 H        6.7020    12.3500     1.7580 H     1 <1>   0.1500 
 50 H        9.6160    10.6220    -0.8720 H     1 <1>   0.1500 
 51 H        7.0350    14.5160     0.6750 H     1 <1>   0.1500 
 52 H        9.9240    12.7990    -1.9360 H     1 <1>   0.1500 
 53 H        8.6360    14.7440    -1.1720 H     1 <1>   0.1500 
@<TRIPOS>BOND
  1   1   2  1   
  2   1   3  1   
  3   2   4  2   
  4   3   5  2   
  5   3   6  1   
  6   4   5  1   
  7   4   7  1   
  8   6   8  ar  
  9   6   9  ar  
 10   7  28  1   
 11   7  29  1   
 12   7  30  1   
 13   8  10  ar  
 14   8  31  1   
 15   9  11  ar  
 16   9  32  1   
 17  10  12  ar  
 18  10  13  1   
 19  11  12  ar  
 20  11  33  1   
 21  13  14  1   
 22  13  34  1   
 23  14  15  1   
 24  14  35  1   
 25  14  36  1   
 26  15  16  1   
 27  15  17  1   
 28  15  37  1   
 29  16  18  1   
 30  16  38  1   
 31  16  39  1   
 32  17  19  1   
 33  17  40  1   
 34  17  41  1   
 35  18  20  1   
 36  18  42  1   
 37  18  43  1   
 38  19  20  1   
 39  19  44  1   
 40  19  45  1   
 41  20  21  1   
 42  20  46  1   
 43  21  22  1   
 44  21  47  1   
 45  21  48  1   
 46  22  23  ar  
 47  22  24  ar  
 48  23  25  ar  
 49  23  49  1   
 50  24  26  ar  
 51  24  50  1   
 52  25  27  ar  
 53  25  51  1   
 54  26  27  ar  
 55  26  52  1   
 56  27  53  1   
@<TRIPOS>SUBSTRUCTURE
  1 ****  15 GROUP 4 **** **** 0

# MOE 2024.06 (io_trps.svl 2023.06)
