@<TRIPOS>MOLECULE
NONAME
48 51 1 0 0 
SMALL
USER_CHARGES


@<TRIPOS>ATOM
  1 O       -0.5710    -0.4880     0.0220 O.3   1 <1>  -0.2800 
  2 C       -0.2880     0.5430     0.7840 C.2   1 <1>   0.4250 
  3 C       -0.8440    -1.3830     0.9280 C.2   1 <1>   0.2980 
  4 N       -0.3690     0.2810     2.0440 N.2   1 <1>  -0.3380 
  5 C        0.0720     1.8100     0.1810 C.ar  1 <1>   0.0530 
  6 N       -0.7300    -0.9780     2.1330 N.2   1 <1>  -0.3380 
  7 C       -1.2260    -2.7990     0.5000 C.3   1 <1>   0.2900 
  8 C        0.3950     2.9180     0.9670 C.ar  1 <1>  -0.1500 
  9 C        0.1120     1.9810    -1.2050 C.ar  1 <1>  -0.1500 
 10 N       -2.6200    -2.9430     0.0050 N.3   1 <1>  -0.8100 
 11 C        0.7410     4.1320     0.4030 C.ar  1 <1>  -0.1500 
 12 C        0.4570     3.1920    -1.7760 C.ar  1 <1>  -0.1500 
 13 C       -2.9890    -4.3720    -0.0710 C.3   1 <1>   0.1100 
 14 C       -2.8300    -2.2690    -1.2890 C.3   1 <1>   0.1100 
 15 C        0.7730     4.2720    -0.9720 C.ar  1 <1>  -0.1500 
 16 C       -4.4670    -4.5460    -0.4650 C.3   1 <1>   0.2000 
 17 C       -4.2980    -2.3770    -1.7160 C.3   1 <1>  -0.1600 
 18 O       -4.7450    -5.8990    -0.6440 O.3   1 <1>  -0.5600 
 19 C       -4.7610    -3.8390    -1.7890 C.3   1 <1>  -0.1600 
 20 C       -5.1110    -6.5820     0.5260 C.3   1 <1>   0.2640 
 21 C       -5.2130    -8.0900     0.3030 C.ar  1 <1>   0.1670 
 22 N       -5.2390    -8.8250     1.4080 N.ar  1 <1>  -0.6200 
 23 C       -5.2770    -8.6270    -0.9770 C.ar  1 <1>  -0.1500 
 24 C       -5.3280   -10.1340     1.2300 C.ar  1 <1>   0.1600 
 25 C       -5.3700    -9.9910    -1.1470 C.ar  1 <1>  -0.1500 
 26 C       -5.3950   -10.7580    -0.0030 C.ar  1 <1>  -0.1500 
 27 H       -1.1010    -3.4300     1.3630 H     1 <1>   0.0800 
 28 H       -0.5350    -3.1350    -0.2540 H     1 <1>   0.0800 
 29 H        0.3740     2.8260     2.0400 H     1 <1>   0.1500 
 30 H       -0.1310     1.1540    -1.8500 H     1 <1>   0.1500 
 31 H        0.9860     4.9690     1.0340 H     1 <1>   0.1500 
 32 H        0.4810     3.2970    -2.8480 H     1 <1>   0.1500 
 33 H       -2.8290    -4.8270     0.8900 H     1 <1>   0.0800 
 34 H       -2.3710    -4.8670    -0.8000 H     1 <1>   0.0800 
 35 H       -2.1970    -2.7110    -2.0410 H     1 <1>   0.0800 
 36 H       -2.5830    -1.2250    -1.2040 H     1 <1>   0.0800 
 37 H        1.0430     5.2160    -1.4140 H     1 <1>   0.1500 
 38 H       -5.1040    -4.1470     0.3070 H     1 <1>   0.0800 
 39 H       -4.4250    -1.9100    -2.6760 H     1 <1>   0.0800 
 40 H       -4.9030    -1.8390    -1.0070 H     1 <1>   0.0800 
 41 H       -5.8160    -3.8790    -1.9940 H     1 <1>   0.0800 
 42 H       -4.2340    -4.3390    -2.5830 H     1 <1>   0.0800 
 43 H       -6.0630    -6.2060     0.8570 H     1 <1>   0.0800 
 44 H       -4.3730    -6.3950     1.2850 H     1 <1>   0.0800 
 45 H       -5.2550    -7.9830    -1.8380 H     1 <1>   0.1500 
 46 H       -5.3490   -10.7430     2.1170 H     1 <1>   0.1500 
 47 H       -5.4200   -10.4330    -2.1260 H     1 <1>   0.1500 
 48 H       -5.4660   -11.8290    -0.0640 H     1 <1>   0.1500 
@<TRIPOS>BOND
  1   1   2  1   
  2   1   3  1   
  3   2   4  2   
  4   2   5  1   
  5   3   6  2   
  6   3   7  1   
  7   4   6  1   
  8   5   8  ar  
  9   5   9  ar  
 10   7  10  1   
 11   7  27  1   
 12   7  28  1   
 13   8  11  ar  
 14   8  29  1   
 15   9  12  ar  
 16   9  30  1   
 17  10  13  1   
 18  10  14  1   
 19  11  15  ar  
 20  11  31  1   
 21  12  15  ar  
 22  12  32  1   
 23  13  16  1   
 24  13  33  1   
 25  13  34  1   
 26  14  17  1   
 27  14  35  1   
 28  14  36  1   
 29  15  37  1   
 30  16  18  1   
 31  16  19  1   
 32  16  38  1   
 33  17  19  1   
 34  17  39  1   
 35  17  40  1   
 36  18  20  1   
 37  19  41  1   
 38  19  42  1   
 39  20  21  1   
 40  20  43  1   
 41  20  44  1   
 42  21  22  ar  
 43  21  23  ar  
 44  22  24  ar  
 45  23  25  ar  
 46  23  45  1   
 47  24  26  ar  
 48  24  46  1   
 49  25  26  ar  
 50  25  47  1   
 51  26  48  1   
@<TRIPOS>SUBSTRUCTURE
  1 ****  10 GROUP 4 **** **** 0

# MOE 2024.06 (io_trps.svl 2023.06)
