@<TRIPOS>MOLECULE
NONAME
59 62 1 0 0 
SMALL
USER_CHARGES


@<TRIPOS>ATOM
  1 O       -1.3440    -0.5050     1.5350 O.2   1 <1>  -0.5700 
  2 C       -2.0660    -0.8140     0.6150 C.2   1 <1>   0.5690 
  3 N       -2.9230     0.0940     0.0390 N.am  1 <1>  -0.6600 
  4 C       -1.9440    -2.2450     0.1010 C.3   1 <1>   0.0440 
  5 C       -2.9640     1.5020     0.5550 C.3   1 <1>   0.2200 
  6 C       -3.8660    -0.2630    -1.0730 C.3   1 <1>   0.1400 
  7 C       -2.8830    -3.2210     0.8020 C.ar  1 <1>  -0.1440 
  8 C       -4.3820     2.1300     0.5580 C.3   1 <1>   0.1400 
  9 C       -1.9380     2.3450    -0.2120 C.3   1 <1>  -0.2400 
 10 C       -4.6650     0.9360    -1.6200 C.3   1 <1>   0.2200 
 11 C       -3.8730    -3.8940     0.1020 C.ar  1 <1>  -0.1500 
 12 C       -2.7280    -3.4670     2.1570 C.ar  1 <1>  -0.1500 
 13 N       -5.3460     1.6520    -0.4930 N.am  1 <1>  -0.6600 
 14 C       -5.5400     0.5320    -2.8080 C.3   1 <1>  -0.2400 
 15 C       -4.6930    -4.8130     0.7380 C.ar  1 <1>   0.0820 
 16 C       -3.5380    -4.3870     2.8000 C.ar  1 <1>  -0.1500 
 17 C       -6.6740     1.9300    -0.2480 C.2   1 <1>   0.5690 
 18 O       -5.6320    -5.4160    -0.0330 O.3   1 <1>  -0.3630 
 19 C       -4.5140    -5.0680     2.0950 C.ar  1 <1>  -0.1500 
 20 O       -6.9790     2.8520     0.4720 O.2   1 <1>  -0.5700 
 21 C       -7.8380     1.0950    -0.7620 C.3   1 <1>  -0.0990 
 22 C       -6.5920    -6.3230     0.4760 C.3   1 <1>   0.1200 
 23 C       -7.8030    -0.3410    -0.2110 C.3   1 <1>  -0.1600 
 24 C       -7.6730    -5.5990     1.2880 C.3   1 <1>   0.0960 
 25 C       -8.9280    -1.2070    -0.7920 C.3   1 <1>   0.0210 
 26 N       -8.2960    -4.5180     0.5100 N.pl3 1 <1>   0.3140 
 27 C       -8.8270    -2.6530    -0.3440 C.2   1 <1>   0.0460 
 28 N       -9.3880    -4.6980    -0.2370 N.2   1 <1>  -0.4180 
 29 C       -7.9280    -3.2390     0.4610 C.2   1 <1>  -0.3020 
 30 N       -9.7120    -3.5660    -0.7600 N.2   1 <1>  -0.2270 
 31 H       -2.0870    -2.2780    -0.9600 H     1 <1>   0.0800 
 32 H       -0.9350    -2.5700     0.2800 H     1 <1>   0.0800 
 33 H       -2.6430     1.5000     1.5840 H     1 <1>   0.0800 
 34 H       -3.3030    -0.6840    -1.8860 H     1 <1>   0.0800 
 35 H       -4.5530    -1.0110    -0.7190 H     1 <1>   0.0800 
 36 H       -4.2970     3.2010     0.4900 H     1 <1>   0.0800 
 37 H       -4.8160     1.9220     1.5210 H     1 <1>   0.0800 
 38 H       -2.1670     2.4140    -1.2560 H     1 <1>   0.0800 
 39 H       -0.9600     1.9130    -0.0960 H     1 <1>   0.0800 
 40 H       -1.9080     3.3400     0.1950 H     1 <1>   0.0800 
 41 H       -3.9570     1.6270    -2.0370 H     1 <1>   0.0800 
 42 H       -4.0180    -3.7230    -0.9490 H     1 <1>   0.1500 
 43 H       -1.9690    -2.9450     2.7160 H     1 <1>   0.1500 
 44 H       -6.2060    -0.2730    -2.5620 H     1 <1>   0.0800 
 45 H       -4.9100     0.1890    -3.6090 H     1 <1>   0.0800 
 46 H       -6.0870     1.3820    -3.1730 H     1 <1>   0.0800 
 47 H       -3.4000    -4.5730     3.8510 H     1 <1>   0.1500 
 48 H       -5.1110    -5.7880     2.6180 H     1 <1>   0.1500 
 49 H       -8.7500     1.5580    -0.4270 H     1 <1>   0.0800 
 50 H       -7.8740     1.1130    -1.8310 H     1 <1>   0.0800 
 51 H       -7.0470    -6.8090    -0.3690 H     1 <1>   0.0800 
 52 H       -6.0880    -7.0690     1.0630 H     1 <1>   0.0800 
 53 H       -6.8570    -0.7940    -0.4390 H     1 <1>   0.0800 
 54 H       -7.8960    -0.3070     0.8620 H     1 <1>   0.0800 
 55 H       -7.2620    -5.1810     2.1860 H     1 <1>   0.0800 
 56 H       -8.4410    -6.2980     1.5640 H     1 <1>   0.0800 
 57 H       -8.8870    -1.1860    -1.8660 H     1 <1>   0.0800 
 58 H       -9.8830    -0.8170    -0.4870 H     1 <1>   0.0800 
 59 H       -7.0740    -2.8480     0.9810 H     1 <1>   0.1500 
@<TRIPOS>BOND
  1   1   2  2   
  2   2   3  am  
  3   2   4  1   
  4   3   5  1   
  5   3   6  1   
  6   4   7  1   
  7   4  31  1   
  8   4  32  1   
  9   5   8  1   
 10   5   9  1   
 11   5  33  1   
 12   6  10  1   
 13   6  34  1   
 14   6  35  1   
 15   7  11  ar  
 16   7  12  ar  
 17   8  13  1   
 18   8  36  1   
 19   8  37  1   
 20   9  38  1   
 21   9  39  1   
 22   9  40  1   
 23  10  13  1   
 24  10  14  1   
 25  10  41  1   
 26  11  15  ar  
 27  11  42  1   
 28  12  16  ar  
 29  12  43  1   
 30  13  17  am  
 31  14  44  1   
 32  14  45  1   
 33  14  46  1   
 34  15  18  1   
 35  15  19  ar  
 36  16  19  ar  
 37  16  47  1   
 38  17  20  2   
 39  17  21  1   
 40  18  22  1   
 41  19  48  1   
 42  21  23  1   
 43  21  49  1   
 44  21  50  1   
 45  22  24  1   
 46  22  51  1   
 47  22  52  1   
 48  23  25  1   
 49  23  53  1   
 50  23  54  1   
 51  24  26  1   
 52  24  55  1   
 53  24  56  1   
 54  25  27  1   
 55  25  57  1   
 56  25  58  1   
 57  26  28  1   
 58  26  29  1   
 59  27  29  2   
 60  27  30  1   
 61  28  30  2   
 62  29  59  1   
@<TRIPOS>SUBSTRUCTURE
  1 ****   6 GROUP 4 **** **** 0

# MOE 2024.06 (io_trps.svl 2023.06)
