@<TRIPOS>MOLECULE
NONAME
49 52 1 0 0 
SMALL
USER_CHARGES


@<TRIPOS>ATOM
  1 F       -3.0950    -0.9570    -1.2480 F     1 <1>  -0.1900 
  2 C       -2.5700    -2.0300    -0.7140 C.ar  1 <1>   0.1900 
  3 C       -3.0450    -3.2620    -1.0910 C.ar  1 <1>  -0.1500 
  4 C       -1.5440    -1.8580     0.2210 C.ar  1 <1>  -0.1500 
  5 C       -2.4630    -4.3810    -0.5010 C.ar  1 <1>   0.2270 
  6 C       -0.9710    -2.9680     0.8030 C.ar  1 <1>  -0.1500 
  7 N       -2.7420    -5.7010    -0.6900 N.2   1 <1>  -0.5650 
  8 C       -1.4460    -4.2300     0.4280 C.ar  1 <1>  -0.1520 
  9 C       -1.9250    -6.3160     0.0900 C.2   1 <1>   0.0060 
 10 N       -1.1110    -5.4910     0.7980 N.pl3 1 <1>   0.0330 
 11 C       -1.8780    -7.8230     0.2230 C.3   1 <1>   0.0200 
 12 C       -2.8090    -8.2850     1.3470 C.3   1 <1>  -0.0990 
 13 C       -2.9140    -9.7940     1.3600 C.2   1 <1>   0.5690 
 14 O       -2.1880   -10.3990     2.1110 O.2   1 <1>  -0.5700 
 15 N       -3.7850   -10.4370     0.5270 N.am  1 <1>  -0.6600 
 16 C       -4.7530    -9.8240    -0.4230 C.3   1 <1>   0.1400 
 17 C       -3.8520   -11.9180     0.4340 C.3   1 <1>   0.1400 
 18 C       -5.7470   -10.9450    -0.7220 C.3   1 <1>   0.2000 
 19 C       -4.8830   -12.2060    -0.6630 C.3   1 <1>  -0.0800 
 20 O       -6.6800   -10.9730     0.3050 O.3   1 <1>  -0.6800 
 21 C       -5.6450   -13.5290    -0.4670 C.3   1 <1>   0.0210 
 22 C       -4.6850   -14.7010    -0.4150 C.2   1 <1>   0.1080 
 23 N       -3.8970   -15.0090    -1.3980 N.2   1 <1>  -0.7070 
 24 C       -4.5290   -15.5550     0.6710 C.2   1 <1>  -0.1500 
 25 N       -3.2120   -16.0820    -0.9610 N.pl3 1 <1>   0.3000 
 26 C       -3.5760   -16.4310     0.2910 C.2   1 <1>  -0.3320 
 27 C       -2.9800   -17.5960     1.0590 C.3   1 <1>  -0.0600 
 28 H       -3.8320    -3.3800    -1.8090 H     1 <1>   0.1500 
 29 H       -1.2210    -0.8630     0.4690 H     1 <1>   0.1500 
 30 H       -0.1790    -2.8750     1.5260 H     1 <1>   0.1500 
 31 H       -0.3920    -5.7590     1.4740 H     1 <1>   0.2700 
 32 H       -2.1940    -8.2560    -0.7100 H     1 <1>   0.0800 
 33 H       -0.8720    -8.1540     0.4150 H     1 <1>   0.0800 
 34 H       -3.7820    -7.8480     1.2260 H     1 <1>   0.0800 
 35 H       -2.4220    -7.9560     2.2940 H     1 <1>   0.0800 
 36 H       -5.2490    -8.9620    -0.0110 H     1 <1>   0.0800 
 37 H       -4.2340    -9.5470    -1.3240 H     1 <1>   0.0800 
 38 H       -2.8890   -12.3310     0.1840 H     1 <1>   0.0800 
 39 H       -4.1710   -12.3170     1.3820 H     1 <1>   0.0800 
 40 H       -6.2650   -10.8190    -1.6570 H     1 <1>   0.0800 
 41 H       -4.3430   -12.2740    -1.5920 H     1 <1>   0.0800 
 42 H       -6.2000   -10.9440     1.1580 H     1 <1>   0.4000 
 43 H       -6.3250   -13.6760    -1.2860 H     1 <1>   0.0800 
 44 H       -6.2190   -13.5050     0.4420 H     1 <1>   0.0800 
 45 H       -5.0660   -15.5050     1.6010 H     1 <1>   0.1500 
 46 H       -2.5040   -16.5510    -1.5390 H     1 <1>   0.2700 
 47 H       -3.4340   -17.6680     2.0320 H     1 <1>   0.0800 
 48 H       -1.9210   -17.4560     1.1850 H     1 <1>   0.0800 
 49 H       -3.1530   -18.5170     0.5310 H     1 <1>   0.0800 
@<TRIPOS>BOND
  1   1   2  1   
  2   2   3  ar  
  3   2   4  ar  
  4   3   5  ar  
  5   3  28  1   
  6   4   6  ar  
  7   4  29  1   
  8   5   7  1   
  9   5   8  ar  
 10   6   8  ar  
 11   6  30  1   
 12   7   9  2   
 13   8  10  1   
 14   9  10  1   
 15   9  11  1   
 16  10  31  1   
 17  11  12  1   
 18  11  32  1   
 19  11  33  1   
 20  12  13  1   
 21  12  34  1   
 22  12  35  1   
 23  13  14  2   
 24  13  15  am  
 25  15  16  1   
 26  15  17  1   
 27  16  18  1   
 28  16  36  1   
 29  16  37  1   
 30  17  19  1   
 31  17  38  1   
 32  17  39  1   
 33  18  19  1   
 34  18  20  1   
 35  18  40  1   
 36  19  21  1   
 37  19  41  1   
 38  20  42  1   
 39  21  22  1   
 40  21  43  1   
 41  21  44  1   
 42  22  23  2   
 43  22  24  1   
 44  23  25  1   
 45  24  26  2   
 46  24  45  1   
 47  25  26  1   
 48  25  46  1   
 49  26  27  1   
 50  27  47  1   
 51  27  48  1   
 52  27  49  1   
@<TRIPOS>SUBSTRUCTURE
  1 ****  15 GROUP 4 **** **** 0

# MOE 2024.06 (io_trps.svl 2023.06)
