@<TRIPOS>MOLECULE
NONAME
56 59 1 0 0 
SMALL
USER_CHARGES


@<TRIPOS>ATOM
  1 S       -2.0500    -0.3380     2.0760 S.3   1 <1>  -0.2320 
  2 C       -2.3510     1.1400     1.2270 C.cat 1 <1>   0.8400 
  3 C       -2.6800    -1.2810     0.7230 C.2   1 <1>  -0.0490 
  4 N       -2.0770     2.3210     1.7270 N.pl3 1 <1>  -0.7940 
  5 N       -2.8870     0.9140     0.0340 N.pl3 1 <1>  -0.6850 
  6 C       -3.0840    -0.4600    -0.2600 C.2   1 <1>   0.2030 
  7 C       -2.3260     3.5740     0.9890 C.3   1 <1>   0.3290 
  8 C       -3.2250     2.0510    -0.8640 C.3   1 <1>   0.3290 
  9 C       -3.6970    -0.8800    -1.5890 C.3   1 <1>   0.0390 
 10 C       -2.3640     3.2760    -0.5170 C.3   1 <1>  -0.1600 
 11 C       -3.9150    -2.3800    -1.6560 C.2   1 <1>   0.5690 
 12 O       -3.0420    -3.0140    -2.1950 O.2   1 <1>  -0.5700 
 13 N       -5.0300    -2.9830    -1.1210 N.am  1 <1>  -0.6600 
 14 C       -5.3200    -4.4360    -1.3990 C.3   1 <1>   0.1400 
 15 C       -6.1200    -2.2710    -0.3930 C.3   1 <1>   0.1400 
 16 C       -5.6520    -5.2380    -0.1150 C.3   1 <1>   0.0000 
 17 C       -6.4360    -3.0010     0.9110 C.3   1 <1>  -0.1600 
 18 C       -6.7790    -4.4620     0.6190 C.3   1 <1>   0.2000 
 19 C       -6.2450    -6.6160    -0.5080 C.3   1 <1>   0.1200 
 20 C       -4.3830    -5.3930     0.7830 C.3   1 <1>  -0.0170 
 21 O       -7.1230    -5.0700     1.8140 O.3   1 <1>  -0.6800 
 22 O       -5.4780    -7.2520    -1.4750 O.3   1 <1>  -0.6800 
 23 C       -3.3610    -6.4200     0.3040 C.ar  1 <1>  -0.1430 
 24 C       -3.3980    -7.7160     0.7980 C.ar  1 <1>  -0.1500 
 25 C       -2.3900    -6.0810    -0.6250 C.ar  1 <1>  -0.1500 
 26 C       -2.4890    -8.6620     0.3570 C.ar  1 <1>  -0.1500 
 27 C       -1.4800    -7.0250    -1.0670 C.ar  1 <1>  -0.1500 
 28 C       -1.5300    -8.3170    -0.5780 C.ar  1 <1>  -0.1500 
 29 H       -2.6710    -2.3540     0.8230 H     1 <1>   0.1500 
 30 H       -1.6770     2.4000     2.6670 H     1 <1>   0.4500 
 31 H       -3.2660     3.9940     1.3110 H     1 <1>   0.0800 
 32 H       -1.5440     4.2850     1.2000 H     1 <1>   0.0800 
 33 H       -3.0490     1.7780    -1.8910 H     1 <1>   0.0800 
 34 H       -4.2690     2.2890    -0.7470 H     1 <1>   0.0800 
 35 H       -3.0270    -0.6050    -2.3830 H     1 <1>   0.0800 
 36 H       -4.6270    -0.3740    -1.7600 H     1 <1>   0.0800 
 37 H       -2.7350     4.1370    -1.0440 H     1 <1>   0.0800 
 38 H       -1.3590     3.1050    -0.8630 H     1 <1>   0.0800 
 39 H       -6.1600    -4.4870    -2.0710 H     1 <1>   0.0800 
 40 H       -4.4930    -4.8960    -1.9090 H     1 <1>   0.0800 
 41 H       -5.8460    -1.2590    -0.1610 H     1 <1>   0.0800 
 42 H       -6.9990    -2.2480    -1.0170 H     1 <1>   0.0800 
 43 H       -7.2820    -2.5260     1.3760 H     1 <1>   0.0800 
 44 H       -5.5960    -2.9260     1.5760 H     1 <1>   0.0800 
 45 H       -7.6650    -4.4820     0.0050 H     1 <1>   0.0800 
 46 H       -7.2310    -6.5000    -0.9220 H     1 <1>   0.0800 
 47 H       -6.3130    -7.2620     0.3500 H     1 <1>   0.0800 
 48 H       -3.8870    -4.4450     0.8790 H     1 <1>   0.0800 
 49 H       -4.6750    -5.6850     1.7740 H     1 <1>   0.0800 
 50 H       -6.4260    -4.9390     2.4840 H     1 <1>   0.4000 
 51 H       -4.5540    -7.3640    -1.1460 H     1 <1>   0.4000 
 52 H       -4.1370    -8.0020     1.5260 H     1 <1>   0.1500 
 53 H       -2.3310    -5.0810    -1.0150 H     1 <1>   0.1500 
 54 H       -2.5270    -9.6660     0.7420 H     1 <1>   0.1500 
 55 H       -0.7350    -6.7510    -1.7940 H     1 <1>   0.1500 
 56 H       -0.8230    -9.0520    -0.9230 H     1 <1>   0.1500 
@<TRIPOS>BOND
  1   1   2  1   
  2   1   3  1   
  3   2   4  ar  
  4   2   5  ar  
  5   3   6  2   
  6   3  29  1   
  7   4   7  1   
  8   4  30  1   
  9   5   6  1   
 10   5   8  1   
 11   6   9  1   
 12   7  10  1   
 13   7  31  1   
 14   7  32  1   
 15   8  10  1   
 16   8  33  1   
 17   8  34  1   
 18   9  11  1   
 19   9  35  1   
 20   9  36  1   
 21  10  37  1   
 22  10  38  1   
 23  11  12  2   
 24  11  13  am  
 25  13  14  1   
 26  13  15  1   
 27  14  16  1   
 28  14  39  1   
 29  14  40  1   
 30  15  17  1   
 31  15  41  1   
 32  15  42  1   
 33  16  18  1   
 34  16  19  1   
 35  16  20  1   
 36  17  18  1   
 37  17  43  1   
 38  17  44  1   
 39  18  21  1   
 40  18  45  1   
 41  19  22  1   
 42  19  46  1   
 43  19  47  1   
 44  20  23  1   
 45  20  48  1   
 46  20  49  1   
 47  21  50  1   
 48  22  51  1   
 49  23  24  ar  
 50  23  25  ar  
 51  24  26  ar  
 52  24  52  1   
 53  25  27  ar  
 54  25  53  1   
 55  26  28  ar  
 56  26  54  1   
 57  27  28  ar  
 58  27  55  1   
 59  28  56  1   
@<TRIPOS>SUBSTRUCTURE
  1 ****  13 GROUP 4 **** **** 0

# MOE 2024.06 (io_trps.svl 2023.06)
