@<TRIPOS>MOLECULE
NONAME
37 38 1 0 0 
SMALL
USER_CHARGES


@<TRIPOS>ATOM
  1 F       -1.6190    -0.1810    -2.1690 F     1 <1>  -0.1900 
  2 C       -2.2420    -0.9390    -1.2890 C.ar  1 <1>   0.1900 
  3 C       -3.0200    -0.3950    -0.2680 C.ar  1 <1>   0.4100 
  4 C       -2.1290    -2.2970    -1.3930 C.ar  1 <1>   0.1600 
  5 N       -3.6390    -1.2030     0.5750 N.ar  1 <1>  -0.6200 
  6 N       -3.1970     0.9740    -0.0690 N.pl3 1 <1>  -0.8380 
  7 N       -2.7400    -3.1070    -0.5510 N.ar  1 <1>  -0.6200 
  8 C       -3.4590    -2.4990     0.3890 C.ar  1 <1>   0.7200 
  9 C       -2.0350     1.9030    -0.0960 C.3   1 <1>   0.1290 
 10 C       -4.3970     1.4870     0.6490 C.3   1 <1>   0.1290 
 11 N       -4.1150    -3.2700     1.2880 N.pl3 1 <1>  -0.8690 
 12 C       -4.6230    -4.6320     1.0070 C.3   1 <1>   0.2090 
 13 C       -6.1440    -4.6140     0.8000 C.3   1 <1>  -0.0800 
 14 C       -6.6450    -6.0490     0.5650 C.3   1 <1>   0.1200 
 15 C       -6.5680    -3.7110    -0.3750 C.3   1 <1>  -0.1600 
 16 O       -8.0250    -6.0450     0.3550 O.3   1 <1>  -0.5600 
 17 C       -8.0670    -3.8780    -0.6530 C.3   1 <1>  -0.1600 
 18 C       -8.4380    -5.3590    -0.7870 C.3   1 <1>   0.1200 
 19 H       -1.5320    -2.7280    -2.1770 H     1 <1>   0.1500 
 20 H       -1.1120     1.3540    -0.1660 H     1 <1>   0.0800 
 21 H       -2.0110     2.4910     0.8040 H     1 <1>   0.0800 
 22 H       -2.1180     2.5590    -0.9450 H     1 <1>   0.0800 
 23 H       -5.2470     0.8590     0.4440 H     1 <1>   0.0800 
 24 H       -4.6220     2.4860     0.3220 H     1 <1>   0.0800 
 25 H       -4.2130     1.4880     1.7090 H     1 <1>   0.0800 
 26 H       -4.7020    -2.7000     1.8950 H     1 <1>   0.4000 
 27 H       -4.3780    -5.2660     1.8430 H     1 <1>   0.0800 
 28 H       -4.1420    -5.0410     0.1350 H     1 <1>   0.0800 
 29 H       -6.6020    -4.2580     1.7060 H     1 <1>   0.0800 
 30 H       -6.4510    -6.6630     1.4270 H     1 <1>   0.0800 
 31 H       -6.1710    -6.4930    -0.2950 H     1 <1>   0.0800 
 32 H       -6.0100    -3.9810    -1.2550 H     1 <1>   0.0800 
 33 H       -6.3570    -2.6790    -0.1520 H     1 <1>   0.0800 
 34 H       -8.3310    -3.3570    -1.5560 H     1 <1>   0.0800 
 35 H       -8.6380    -3.4510     0.1530 H     1 <1>   0.0800 
 36 H       -9.5040    -5.4750    -0.8710 H     1 <1>   0.0800 
 37 H       -7.9660    -5.8040    -1.6460 H     1 <1>   0.0800 
@<TRIPOS>BOND
  1   1   2  1   
  2   2   3  ar  
  3   2   4  ar  
  4   3   5  ar  
  5   3   6  1   
  6   4   7  ar  
  7   4  19  1   
  8   5   8  ar  
  9   6   9  1   
 10   6  10  1   
 11   7   8  ar  
 12   8  11  1   
 13   9  20  1   
 14   9  21  1   
 15   9  22  1   
 16  10  23  1   
 17  10  24  1   
 18  10  25  1   
 19  11  12  1   
 20  11  26  1   
 21  12  13  1   
 22  12  27  1   
 23  12  28  1   
 24  13  14  1   
 25  13  15  1   
 26  13  29  1   
 27  14  16  1   
 28  14  30  1   
 29  14  31  1   
 30  15  17  1   
 31  15  32  1   
 32  15  33  1   
 33  16  18  1   
 34  17  18  1   
 35  17  34  1   
 36  17  35  1   
 37  18  36  1   
 38  18  37  1   
@<TRIPOS>SUBSTRUCTURE
  1 ****   8 GROUP 4 **** **** 0

# MOE 2024.06 (io_trps.svl 2023.06)
