@<TRIPOS>MOLECULE
NONAME
32 33 1 0 0 
SMALL
USER_CHARGES


@<TRIPOS>ATOM
  1 S       -0.8130     0.0580     2.3120 S.3   1 <1>  -0.0800 
  2 C       -1.7250     0.6590     0.9340 C.2   1 <1>  -0.1400 
  3 C        0.4980     1.1750     1.9920 C.2   1 <1>  -0.1100 
  4 C       -1.0410     1.6400     0.3080 C.2   1 <1>  -0.1810 
  5 C       -3.0810     0.0120     0.6820 C.3   1 <1>   0.3890 
  6 C        0.2240     1.9300     0.9140 C.2   1 <1>  -0.1500 
  7 C       -1.4780     2.4140    -0.9220 C.3   1 <1>  -0.0590 
  8 N       -2.9370    -1.3890     0.1930 N.pl3 1 <1>  -0.8380 
  9 C       -4.0210    -2.2670     0.3030 C.ar  1 <1>   0.4100 
 10 C       -1.9010    -1.6210    -0.8500 C.3   1 <1>   0.1290 
 11 N       -5.2140    -1.6810     0.2790 N.ar  1 <1>  -0.6200 
 12 C       -3.8720    -3.6830     0.4280 C.ar  1 <1>   0.3930 
 13 C       -6.2130    -2.5430     0.3720 C.ar  1 <1>   0.1600 
 14 O       -2.6160    -4.2120     0.4690 O.3   1 <1>  -0.3630 
 15 N       -4.8890    -4.5320     0.5160 N.ar  1 <1>  -0.6200 
 16 C       -6.0590    -3.9130     0.4840 C.ar  1 <1>   0.1600 
 17 C       -2.4080    -5.5970     0.6620 C.3   1 <1>   0.0400 
 18 H        1.3440     1.1460     2.6550 H     1 <1>   0.1500 
 19 H       -3.6290     0.5790    -0.0480 H     1 <1>   0.0800 
 20 H       -3.6460     0.0150     1.5980 H     1 <1>   0.0800 
 21 H        0.8700     2.6910     0.5120 H     1 <1>   0.1500 
 22 H       -2.4280     2.0660    -1.2820 H     1 <1>   0.0800 
 23 H       -0.7510     2.2930    -1.7060 H     1 <1>   0.0800 
 24 H       -1.5610     3.4590    -0.6840 H     1 <1>   0.0800 
 25 H       -0.9430    -1.7560    -0.3780 H     1 <1>   0.0800 
 26 H       -1.8490    -0.7780    -1.5160 H     1 <1>   0.0800 
 27 H       -2.1320    -2.5000    -1.4250 H     1 <1>   0.0800 
 28 H       -7.2080    -2.1340     0.3570 H     1 <1>   0.1500 
 29 H       -6.9370    -4.5300     0.5520 H     1 <1>   0.1500 
 30 H       -1.3500    -5.7810     0.6770 H     1 <1>   0.0800 
 31 H       -2.8680    -6.1350    -0.1480 H     1 <1>   0.0800 
 32 H       -2.8460    -5.8850     1.6020 H     1 <1>   0.0800 
@<TRIPOS>BOND
  1   1   2  1   
  2   1   3  1   
  3   2   4  2   
  4   2   5  1   
  5   3   6  2   
  6   3  18  1   
  7   4   6  1   
  8   4   7  1   
  9   5   8  1   
 10   5  19  1   
 11   5  20  1   
 12   6  21  1   
 13   7  22  1   
 14   7  23  1   
 15   7  24  1   
 16   8   9  1   
 17   8  10  1   
 18   9  11  ar  
 19   9  12  ar  
 20  10  25  1   
 21  10  26  1   
 22  10  27  1   
 23  11  13  ar  
 24  12  14  1   
 25  12  15  ar  
 26  13  16  ar  
 27  13  28  1   
 28  14  17  1   
 29  15  16  ar  
 30  16  29  1   
 31  17  30  1   
 32  17  31  1   
 33  17  32  1   
@<TRIPOS>SUBSTRUCTURE
  1 ****   8 GROUP 4 **** **** 0

# MOE 2024.06 (io_trps.svl 2023.06)
