@<TRIPOS>MOLECULE
NONAME
33 34 1 0 0 
SMALL
USER_CHARGES


@<TRIPOS>ATOM
  1 S        0.0930    -0.3670     0.0940 S.o2  1 <1>   1.3330 
  2 O        0.2380    -0.0490    -1.3060 O.2   1 <1>  -0.6500 
  3 O        1.1740    -0.9580     0.8380 O.2   1 <1>  -0.6500 
  4 N       -1.1780    -1.4430     0.2490 N.am  1 <1>  -0.9140 
  5 C       -0.5110     1.0670     0.9570 C.3   1 <1>  -0.1350 
  6 C       -1.2600    -2.4170    -0.8360 C.3   1 <1>   0.2760 
  7 C       -2.5530    -3.2160    -0.7250 C.3   1 <1>  -0.0800 
  8 C       -0.2410    -3.5350    -0.6190 C.3   1 <1>   0.1200 
  9 C       -2.1940    -4.3290     0.2670 C.3   1 <1>   0.1200 
 10 C       -3.8130    -2.4150    -0.3480 C.3   1 <1>  -0.0160 
 11 O       -0.8010    -4.3330     0.3780 O.3   1 <1>  -0.5600 
 12 C       -5.0430    -3.3070    -0.3570 C.ar  1 <1>  -0.1440 
 13 C       -5.5730    -3.8360     0.8030 C.ar  1 <1>  -0.1500 
 14 C       -5.6920    -3.6370    -1.5290 C.ar  1 <1>  -0.1500 
 15 C       -6.6910    -4.6510     0.7350 C.ar  1 <1>   0.1600 
 16 C       -6.8040    -4.4610    -1.4880 C.ar  1 <1>   0.1600 
 17 N       -7.3170    -4.9780    -0.3840 N.ar  1 <1>  -0.6200 
 18 H       -0.9220    -2.0090     1.0620 H     1 <1>   0.4200 
 19 H       -1.4010     1.4330     0.4850 H     1 <1>   0.0800 
 20 H        0.2300     1.8420     0.9420 H     1 <1>   0.0800 
 21 H       -0.7320     0.8210     1.9760 H     1 <1>   0.0800 
 22 H       -1.1690    -1.9480    -1.8010 H     1 <1>   0.0800 
 23 H       -2.7290    -3.6850    -1.6770 H     1 <1>   0.0800 
 24 H        0.7290    -3.1880    -0.3080 H     1 <1>   0.0800 
 25 H       -0.1400    -4.1350    -1.5070 H     1 <1>   0.0800 
 26 H       -2.5220    -5.2940    -0.0800 H     1 <1>   0.0800 
 27 H       -2.5980    -4.1390     1.2470 H     1 <1>   0.0800 
 28 H       -3.9500    -1.6120    -1.0510 H     1 <1>   0.0800 
 29 H       -3.7020    -1.9730     0.6270 H     1 <1>   0.0800 
 30 H       -5.1310    -3.6230     1.7590 H     1 <1>   0.1500 
 31 H       -5.3440    -3.2620    -2.4740 H     1 <1>   0.1500 
 32 H       -7.0920    -5.0560     1.6490 H     1 <1>   0.1500 
 33 H       -7.2970    -4.7090    -2.4120 H     1 <1>   0.1500 
@<TRIPOS>BOND
  1   1   2  2   
  2   1   3  2   
  3   1   4  am  
  4   1   5  1   
  5   4   6  1   
  6   4  18  1   
  7   5  19  1   
  8   5  20  1   
  9   5  21  1   
 10   6   7  1   
 11   6   8  1   
 12   6  22  1   
 13   7   9  1   
 14   7  10  1   
 15   7  23  1   
 16   8  11  1   
 17   8  24  1   
 18   8  25  1   
 19   9  11  1   
 20   9  26  1   
 21   9  27  1   
 22  10  12  1   
 23  10  28  1   
 24  10  29  1   
 25  12  13  ar  
 26  12  14  ar  
 27  13  15  ar  
 28  13  30  1   
 29  14  16  ar  
 30  14  31  1   
 31  15  17  ar  
 32  15  32  1   
 33  16  17  ar  
 34  16  33  1   
@<TRIPOS>SUBSTRUCTURE
  1 ****   7 GROUP 4 **** **** 0

# MOE 2024.06 (io_trps.svl 2023.06)
