@<TRIPOS>MOLECULE
NONAME
47 48 1 0 0 
SMALL
USER_CHARGES


@<TRIPOS>ATOM
  1 O       -2.8570     0.2570    -1.1790 O.2   1 <1>  -0.5700 
  2 C       -2.7370     0.9190    -0.1660 C.2   1 <1>   0.5440 
  3 N       -3.3300     0.4130     0.9580 N.am  1 <1>  -0.6600 
  4 C       -2.1070     2.2300    -0.1860 C.ar  1 <1>   0.0860 
  5 C       -2.9610    -0.9560     1.4360 C.3   1 <1>   0.3210 
  6 C       -4.5080     1.0880     1.5900 C.3   1 <1>   0.1400 
  7 C       -1.9030     2.9110    -1.3870 C.ar  1 <1>  -0.1500 
  8 C       -1.6870     2.8670     0.9840 C.ar  1 <1>  -0.1500 
  9 C       -3.9840    -2.0300     1.0650 C.2   1 <1>   0.0460 
 10 C       -5.8460     0.6650     0.9440 C.3   1 <1>   0.3430 
 11 C       -1.3350     4.1710    -1.4180 C.ar  1 <1>  -0.1500 
 12 C       -1.1180     4.1270     0.9580 C.ar  1 <1>  -0.1500 
 13 N       -5.0990    -2.2220     1.8040 N.2   1 <1>  -0.5650 
 14 C       -3.9200    -2.9320     0.0560 C.2   1 <1>  -0.3320 
 15 N       -5.7080     0.4430    -0.5310 N.4   1 <1>  -0.9590 
 16 C       -0.9430     4.7900    -0.2440 C.ar  1 <1>  -0.1430 
 17 C       -5.6600    -3.2530     1.2610 C.2   1 <1>   0.0360 
 18 N       -4.9950    -3.7300     0.1890 N.pl3 1 <1>   0.0330 
 19 C       -2.8840    -3.1310    -1.0390 C.3   1 <1>  -0.0600 
 20 C       -5.7840     1.6980    -1.3320 C.3   1 <1>   0.2630 
 21 C       -6.6530    -0.5980    -1.0130 C.3   1 <1>   0.2630 
 22 C       -0.3160     6.1720    -0.2760 C.3   1 <1>  -0.0970 
 23 H       -2.8450    -0.9420     2.5050 H     1 <1>   0.0800 
 24 H       -2.0100    -1.2270     1.0140 H     1 <1>   0.0800 
 25 H       -4.4010     2.1540     1.4910 H     1 <1>   0.0800 
 26 H       -4.5350     0.8630     2.6430 H     1 <1>   0.0800 
 27 H       -2.1900     2.4440    -2.3140 H     1 <1>   0.1500 
 28 H       -1.8000     2.3700     1.9310 H     1 <1>   0.1500 
 29 H       -6.6020     1.4040     1.1460 H     1 <1>   0.0800 
 30 H       -6.1650    -0.2490     1.4120 H     1 <1>   0.0800 
 31 H       -1.1920     4.6680    -2.3630 H     1 <1>   0.1500 
 32 H       -0.8060     4.5910     1.8770 H     1 <1>   0.1500 
 33 H       -4.7410     0.0540    -0.6460 H     1 <1>   0.4500 
 34 H       -6.5680    -3.7100     1.6180 H     1 <1>   0.1500 
 35 H       -5.2380    -4.5500    -0.3770 H     1 <1>   0.2700 
 36 H       -2.1140    -2.3830    -0.9810 H     1 <1>   0.0800 
 37 H       -3.3460    -3.0570    -2.0080 H     1 <1>   0.0800 
 38 H       -2.4240    -4.0990    -0.9450 H     1 <1>   0.0800 
 39 H       -6.7620     2.1430    -1.2430 H     1 <1>   0.0800 
 40 H       -5.5900     1.4850    -2.3710 H     1 <1>   0.0800 
 41 H       -5.0460     2.4040    -0.9880 H     1 <1>   0.0800 
 42 H       -7.6710    -0.2650    -0.8980 H     1 <1>   0.0800 
 43 H       -6.5160    -1.5040    -0.4460 H     1 <1>   0.0800 
 44 H       -6.4680    -0.8140    -2.0520 H     1 <1>   0.0800 
 45 H       -0.6870     6.7360    -1.1130 H     1 <1>   0.0800 
 46 H        0.7520     6.0850    -0.3630 H     1 <1>   0.0800 
 47 H       -0.5480     6.7120     0.6250 H     1 <1>   0.0800 
@<TRIPOS>BOND
  1   1   2  2   
  2   2   3  am  
  3   2   4  1   
  4   3   5  1   
  5   3   6  1   
  6   4   7  ar  
  7   4   8  ar  
  8   5   9  1   
  9   5  23  1   
 10   5  24  1   
 11   6  10  1   
 12   6  25  1   
 13   6  26  1   
 14   7  11  ar  
 15   7  27  1   
 16   8  12  ar  
 17   8  28  1   
 18   9  13  1   
 19   9  14  2   
 20  10  15  1   
 21  10  29  1   
 22  10  30  1   
 23  11  16  ar  
 24  11  31  1   
 25  12  16  ar  
 26  12  32  1   
 27  13  17  2   
 28  14  18  1   
 29  14  19  1   
 30  15  20  1   
 31  15  21  1   
 32  15  33  1   
 33  16  22  1   
 34  17  18  1   
 35  17  34  1   
 36  18  35  1   
 37  19  36  1   
 38  19  37  1   
 39  19  38  1   
 40  20  39  1   
 41  20  40  1   
 42  20  41  1   
 43  21  42  1   
 44  21  43  1   
 45  21  44  1   
 46  22  45  1   
 47  22  46  1   
 48  22  47  1   
@<TRIPOS>SUBSTRUCTURE
  1 ****   2 GROUP 4 **** **** 0

# MOE 2024.06 (io_trps.svl 2023.06)
