@<TRIPOS>MOLECULE
NONAME
51 54 1 0 0 
SMALL
USER_CHARGES


@<TRIPOS>ATOM
  1 O       -0.1800     0.4360    -0.7590 O.3   1 <1>  -0.6800 
  2 C        1.1180     0.2790    -1.2290 C.3   1 <1>   0.2000 
  3 C        1.6530    -1.0720    -0.7460 C.3   1 <1>  -0.0800 
  4 C        2.0280     1.3250    -0.5610 C.3   1 <1>   0.1100 
  5 C        2.3000    -0.6990     0.5870 C.3   1 <1>   0.1100 
  6 C        2.6820    -1.6400    -1.7480 C.3   1 <1>  -0.0170 
  7 N        2.9520     0.5700     0.3010 N.3   1 <1>  -0.8100 
  8 C        3.3850    -2.8850    -1.2300 C.ar  1 <1>   0.1670 
  9 C        3.3920     1.3080     1.4930 C.3   1 <1>   0.2900 
 10 N        4.6210    -2.7670    -0.8460 N.ar  1 <1>  -0.6200 
 11 C        2.6720    -4.0940    -1.1890 C.ar  1 <1>  -0.1500 
 12 C        4.4310     2.3490     1.1090 C.2   1 <1>   0.0060 
 13 C        5.2460    -3.8770    -0.3760 C.ar  1 <1>   0.3100 
 14 C        3.2740    -5.2220    -0.7210 C.ar  1 <1>  -0.1500 
 15 N        4.3370     3.6060     1.3890 N.2   1 <1>  -0.3380 
 16 N        5.5590     2.0740     0.4390 N.pl3 1 <1>   0.0480 
 17 C        4.6080    -5.1340    -0.2910 C.ar  1 <1>   0.0000 
 18 C        6.5810    -3.7770     0.0460 C.ar  1 <1>  -0.1500 
 19 N        5.4240     4.1990     0.8940 N.2   1 <1>  -0.3380 
 20 C        6.1280     3.2770     0.3360 C.2   1 <1>   0.0360 
 21 C        6.0670     0.7720    -0.0780 C.3   1 <1>   0.1760 
 22 C        5.3280    -6.2350     0.2150 C.ar  1 <1>  -0.1500 
 23 C        7.2640    -4.8590     0.5340 C.ar  1 <1>  -0.1500 
 24 C        7.4800     0.4990     0.4510 C.3   1 <1>  -0.2400 
 25 C        6.0440     0.7680    -1.6100 C.3   1 <1>  -0.2400 
 26 C        6.6280    -6.1010     0.6200 C.ar  1 <1>  -0.1500 
 27 H       -0.7770    -0.2130    -1.1770 H     1 <1>   0.4000 
 28 H        1.1050     0.3810    -2.3010 H     1 <1>   0.0800 
 29 H        0.8660    -1.7900    -0.5970 H     1 <1>   0.0800 
 30 H        1.4400     2.0210     0.0130 H     1 <1>   0.0800 
 31 H        2.5970     1.8650    -1.2970 H     1 <1>   0.0800 
 32 H        3.0090    -1.4320     0.9310 H     1 <1>   0.0800 
 33 H        1.5370    -0.5570     1.3350 H     1 <1>   0.0800 
 34 H        3.4260    -0.8940    -1.9660 H     1 <1>   0.0800 
 35 H        2.1910    -1.8800    -2.6730 H     1 <1>   0.0800 
 36 H        2.5520     1.7800     1.9730 H     1 <1>   0.0800 
 37 H        3.8410     0.6250     2.1930 H     1 <1>   0.0800 
 38 H        1.6530    -4.1150    -1.5300 H     1 <1>   0.1500 
 39 H        2.7600    -6.1650    -0.6740 H     1 <1>   0.1500 
 40 H        7.0520    -2.8160    -0.0300 H     1 <1>   0.1500 
 41 H        7.0660     3.4400    -0.1600 H     1 <1>   0.1500 
 42 H        5.4210    -0.0140     0.2720 H     1 <1>   0.0800 
 43 H        4.8340    -7.1880     0.2770 H     1 <1>   0.1500 
 44 H        8.2880    -4.7700     0.8540 H     1 <1>   0.1500 
 45 H        8.1740     1.2410     0.0990 H     1 <1>   0.0800 
 46 H        7.8140    -0.4640     0.1110 H     1 <1>   0.0800 
 47 H        7.4770     0.4950     1.5260 H     1 <1>   0.0800 
 48 H        6.7240     1.4990    -2.0090 H     1 <1>   0.0800 
 49 H        5.0490     0.9790    -1.9580 H     1 <1>   0.0800 
 50 H        6.3260    -0.2040    -1.9740 H     1 <1>   0.0800 
 51 H        7.1750    -6.9440     1.0060 H     1 <1>   0.1500 
@<TRIPOS>BOND
  1   1   2  1   
  2   1  27  1   
  3   2   3  1   
  4   2   4  1   
  5   2  28  1   
  6   3   5  1   
  7   3   6  1   
  8   3  29  1   
  9   4   7  1   
 10   4  30  1   
 11   4  31  1   
 12   5   7  1   
 13   5  32  1   
 14   5  33  1   
 15   6   8  1   
 16   6  34  1   
 17   6  35  1   
 18   7   9  1   
 19   8  10  ar  
 20   8  11  ar  
 21   9  12  1   
 22   9  36  1   
 23   9  37  1   
 24  10  13  ar  
 25  11  14  ar  
 26  11  38  1   
 27  12  15  2   
 28  12  16  1   
 29  13  17  ar  
 30  13  18  ar  
 31  14  17  ar  
 32  14  39  1   
 33  15  19  1   
 34  16  20  1   
 35  16  21  1   
 36  17  22  ar  
 37  18  23  ar  
 38  18  40  1   
 39  19  20  2   
 40  20  41  1   
 41  21  24  1   
 42  21  25  1   
 43  21  42  1   
 44  22  26  ar  
 45  22  43  1   
 46  23  26  ar  
 47  23  44  1   
 48  24  45  1   
 49  24  46  1   
 50  24  47  1   
 51  25  48  1   
 52  25  49  1   
 53  25  50  1   
 54  26  51  1   
@<TRIPOS>SUBSTRUCTURE
  1 ****  10 GROUP 4 **** **** 0

# MOE 2024.06 (io_trps.svl 2023.06)
