@<TRIPOS>MOLECULE
NONAME
53 55 1 0 0 
SMALL
USER_CHARGES


@<TRIPOS>ATOM
  1 O        1.4200    -0.3520     1.5280 O.2   1 <1>  -0.5700 
  2 C        1.2860    -0.6090     0.3540 C.2   1 <1>   0.5690 
  3 N        1.3560     0.3650    -0.6110 N.am  1 <1>  -0.6600 
  4 C        1.0380    -2.0560    -0.0340 C.3   1 <1>  -0.0990 
  5 C        1.5540     1.7890    -0.2250 C.3   1 <1>   0.1400 
  6 C        1.2400     0.1330    -2.0810 C.3   1 <1>   0.0600 
  7 C        0.8340    -2.9660     1.1850 C.3   1 <1>   0.0960 
  8 C        3.0470     2.1250    -0.2370 C.3   1 <1>  -0.1600 
  9 N        0.6130    -4.3570     0.7430 N.pl3 1 <1>   0.0480 
 10 C        3.3000     3.5540     0.2500 C.3   1 <1>   0.0210 
 11 C       -0.5650    -4.8730     0.3000 C.ar  1 <1>  -0.1520 
 12 C        1.5270    -5.3570     0.5920 C.2   1 <1>   0.0060 
 13 C        4.7880     3.8560     0.2310 C.2   1 <1>  -0.1810 
 14 C       -0.2760    -6.1670    -0.0920 C.ar  1 <1>   0.2270 
 15 C       -1.8610    -4.3600     0.1920 C.ar  1 <1>  -0.1500 
 16 N        1.0420    -6.4420     0.1020 N.2   1 <1>  -0.5650 
 17 C        2.9890    -5.2080     0.9640 C.3   1 <1>  -0.0600 
 18 C        5.5100     4.4580    -0.7990 C.2   1 <1>   0.1080 
 19 C        5.7050     3.6040     1.1910 C.2   1 <1>  -0.3320 
 20 C       -1.2830    -6.9820    -0.6060 C.ar  1 <1>  -0.1500 
 21 C       -2.8500    -5.1720    -0.3170 C.ar  1 <1>  -0.1500 
 22 N        6.7670     4.5800    -0.5130 N.2   1 <1>  -0.7070 
 23 C        4.9420     4.9350    -2.1160 C.3   1 <1>  -0.0590 
 24 N        6.8870     4.0510     0.7170 N.pl3 1 <1>   0.3000 
 25 C        5.5480     2.9510     2.5540 C.3   1 <1>  -0.0600 
 26 C       -2.5630    -6.4830    -0.7170 C.ar  1 <1>  -0.1500 
 27 H        1.8840    -2.4030    -0.5970 H     1 <1>   0.0800 
 28 H        0.1590    -2.0980    -0.6510 H     1 <1>   0.0800 
 29 H        1.1550     1.9540     0.7620 H     1 <1>   0.0800 
 30 H        1.0200     2.4290    -0.9070 H     1 <1>   0.0800 
 31 H        1.2950    -0.9120    -2.3250 H     1 <1>   0.0800 
 32 H        2.0400     0.6370    -2.5940 H     1 <1>   0.0800 
 33 H        0.3000     0.5220    -2.4340 H     1 <1>   0.0800 
 34 H       -0.0190    -2.6400     1.7530 H     1 <1>   0.0800 
 35 H        1.6970    -2.9300     1.8250 H     1 <1>   0.0800 
 36 H        3.4400     2.0170    -1.2320 H     1 <1>   0.0800 
 37 H        3.5670     1.4430     0.4120 H     1 <1>   0.0800 
 38 H        2.9300     3.6680     1.2540 H     1 <1>   0.0800 
 39 H        2.7800     4.2600    -0.3730 H     1 <1>   0.0800 
 40 H       -2.0760    -3.3540     0.5040 H     1 <1>   0.1500 
 41 H        3.4360    -4.4080     0.4030 H     1 <1>   0.0800 
 42 H        3.5140    -6.1200     0.7400 H     1 <1>   0.0800 
 43 H        3.0840    -5.0080     2.0150 H     1 <1>   0.0800 
 44 H       -1.0300    -7.9820    -0.9040 H     1 <1>   0.1500 
 45 H       -3.8580    -4.8060    -0.4120 H     1 <1>   0.1500 
 46 H        4.3090     4.1800    -2.5400 H     1 <1>   0.0800 
 47 H        5.7430     5.1420    -2.8020 H     1 <1>   0.0800 
 48 H        4.3760     5.8340    -1.9600 H     1 <1>   0.0800 
 49 H        7.7880     4.0070     1.2050 H     1 <1>   0.2700 
 50 H        4.5340     2.6310     2.7070 H     1 <1>   0.0800 
 51 H        5.8070     3.6490     3.3310 H     1 <1>   0.0800 
 52 H        6.1890     2.0910     2.6280 H     1 <1>   0.0800 
 53 H       -3.3520    -7.0990    -1.1120 H     1 <1>   0.1500 
@<TRIPOS>BOND
  1   1   2  2   
  2   2   3  am  
  3   2   4  1   
  4   3   5  1   
  5   3   6  1   
  6   4   7  1   
  7   4  27  1   
  8   4  28  1   
  9   5   8  1   
 10   5  29  1   
 11   5  30  1   
 12   6  31  1   
 13   6  32  1   
 14   6  33  1   
 15   7   9  1   
 16   7  34  1   
 17   7  35  1   
 18   8  10  1   
 19   8  36  1   
 20   8  37  1   
 21   9  11  1   
 22   9  12  1   
 23  10  13  1   
 24  10  38  1   
 25  10  39  1   
 26  11  14  ar  
 27  11  15  ar  
 28  12  16  2   
 29  12  17  1   
 30  13  18  1   
 31  13  19  2   
 32  14  16  1   
 33  14  20  ar  
 34  15  21  ar  
 35  15  40  1   
 36  17  41  1   
 37  17  42  1   
 38  17  43  1   
 39  18  22  2   
 40  18  23  1   
 41  19  24  1   
 42  19  25  1   
 43  20  26  ar  
 44  20  44  1   
 45  21  26  ar  
 46  21  45  1   
 47  22  24  1   
 48  23  46  1   
 49  23  47  1   
 50  23  48  1   
 51  24  49  1   
 52  25  50  1   
 53  25  51  1   
 54  25  52  1   
 55  26  53  1   
@<TRIPOS>SUBSTRUCTURE
  1 ****   2 GROUP 4 **** **** 0

# MOE 2024.06 (io_trps.svl 2023.06)
