@<TRIPOS>MOLECULE
NONAME
55 57 1 0 0 
SMALL
USER_CHARGES


@<TRIPOS>ATOM
  1 O        2.9310    -0.6580    -2.3240 O.2   1 <1>  -0.5700 
  2 C        2.7790    -0.8670    -1.1470 C.2   1 <1>   0.5690 
  3 N        2.8520     0.1550    -0.2310 N.am  1 <1>  -0.6600 
  4 C        2.5320    -2.3030    -0.7250 C.3   1 <1>  -0.0990 
  5 C        3.2110    -0.0290     1.2020 C.3   1 <1>   0.1400 
  6 C        2.7240     1.5700    -0.6790 C.3   1 <1>   0.1400 
  7 C        1.0470    -2.5360    -0.4310 C.3   1 <1>   0.0200 
  8 C        4.7390    -0.1880     1.3590 C.3   1 <1>   0.3430 
  9 C        4.0400     2.3420    -0.5270 C.3   1 <1>  -0.1600 
 10 C        0.8120    -3.9650     0.0280 C.2   1 <1>  -0.3320 
 11 N        5.5510     1.0060     0.9260 N.4   1 <1>  -0.9590 
 12 C        5.2880     1.4590    -0.4810 C.3   1 <1>   0.3430 
 13 N        0.7760    -5.0550    -0.7770 N.pl3 1 <1>   0.3140 
 14 C        0.5920    -4.4070     1.2860 C.2   1 <1>  -0.1500 
 15 C        6.9970     0.7320     1.1140 C.3   1 <1>   0.4810 
 16 N        0.5530    -6.1750    -0.0710 N.2   1 <1>  -0.7070 
 17 C        0.9330    -5.1110    -2.2380 C.3   1 <1>   0.0160 
 18 C        0.4410    -5.7810     1.1590 C.2   1 <1>   0.1390 
 19 C        7.7300     2.0470     1.0110 C.2   1 <1>  -0.2880 
 20 C        8.5780     2.3780     0.0220 C.2   1 <1>  -0.1780 
 21 C        9.3010     3.6190    -0.1490 C.ar  1 <1>   0.0280 
 22 C        9.4350     4.5560     0.8750 C.ar  1 <1>  -0.1500 
 23 C        9.8940     3.9130    -1.3740 C.ar  1 <1>  -0.1500 
 24 C       10.1220     5.7400     0.6790 C.ar  1 <1>  -0.1500 
 25 C       10.5830     5.0950    -1.5760 C.ar  1 <1>  -0.1500 
 26 C       10.6970     6.0130    -0.5480 C.ar  1 <1>  -0.1500 
 27 H        2.8380    -2.9490    -1.5270 H     1 <1>   0.0800 
 28 H        3.1230    -2.5600     0.1320 H     1 <1>   0.0800 
 29 H        2.8660     0.8100     1.7820 H     1 <1>   0.0800 
 30 H        2.7200    -0.9040     1.5900 H     1 <1>   0.0800 
 31 H        2.4230     1.5950    -1.7150 H     1 <1>   0.0800 
 32 H        1.9430     2.0570    -0.1180 H     1 <1>   0.0800 
 33 H        0.4570    -2.3270    -1.3080 H     1 <1>   0.0800 
 34 H        0.7220    -1.8630     0.3430 H     1 <1>   0.0800 
 35 H        5.0430    -1.0510     0.7890 H     1 <1>   0.0800 
 36 H        4.9490    -0.3980     2.3950 H     1 <1>   0.0800 
 37 H        3.9980     2.9840     0.3340 H     1 <1>   0.0800 
 38 H        4.1240     2.9900    -1.3820 H     1 <1>   0.0800 
 39 H        5.3280     1.8010     1.5340 H     1 <1>   0.4500 
 40 H        6.1210     2.0480    -0.8310 H     1 <1>   0.0800 
 41 H        5.1760     0.6160    -1.1460 H     1 <1>   0.0800 
 42 H        0.5350    -3.8550     2.2060 H     1 <1>   0.1500 
 43 H        7.1790     0.2940     2.0830 H     1 <1>   0.0800 
 44 H        7.3480     0.0490     0.3560 H     1 <1>   0.0800 
 45 H        0.4160    -4.2870    -2.6880 H     1 <1>   0.0800 
 46 H        0.5170    -6.0340    -2.5970 H     1 <1>   0.0800 
 47 H        1.9770    -5.0720    -2.4820 H     1 <1>   0.0800 
 48 H        0.2510    -6.4530     1.9790 H     1 <1>   0.1500 
 49 H        7.5020     2.7140     1.8240 H     1 <1>   0.1500 
 50 H        8.7760     1.6720    -0.7690 H     1 <1>   0.1500 
 51 H        9.0080     4.3670     1.8410 H     1 <1>   0.1500 
 52 H        9.8190     3.2140    -2.1870 H     1 <1>   0.1500 
 53 H       10.2140     6.4520     1.4820 H     1 <1>   0.1500 
 54 H       11.0330     5.3030    -2.5320 H     1 <1>   0.1500 
 55 H       11.2330     6.9340    -0.7020 H     1 <1>   0.1500 
@<TRIPOS>BOND
  1   1   2  2   
  2   2   3  am  
  3   2   4  1   
  4   3   5  1   
  5   3   6  1   
  6   4   7  1   
  7   4  27  1   
  8   4  28  1   
  9   5   8  1   
 10   5  29  1   
 11   5  30  1   
 12   6   9  1   
 13   6  31  1   
 14   6  32  1   
 15   7  10  1   
 16   7  33  1   
 17   7  34  1   
 18   8  11  1   
 19   8  35  1   
 20   8  36  1   
 21   9  12  1   
 22   9  37  1   
 23   9  38  1   
 24  10  13  1   
 25  10  14  2   
 26  11  12  1   
 27  11  15  1   
 28  11  39  1   
 29  12  40  1   
 30  12  41  1   
 31  13  16  1   
 32  13  17  1   
 33  14  18  1   
 34  14  42  1   
 35  15  19  1   
 36  15  43  1   
 37  15  44  1   
 38  16  18  2   
 39  17  45  1   
 40  17  46  1   
 41  17  47  1   
 42  18  48  1   
 43  19  20  2   
 44  19  49  1   
 45  20  21  1   
 46  20  50  1   
 47  21  22  ar  
 48  21  23  ar  
 49  22  24  ar  
 50  22  51  1   
 51  23  25  ar  
 52  23  52  1   
 53  24  26  ar  
 54  24  53  1   
 55  25  26  ar  
 56  25  54  1   
 57  26  55  1   
@<TRIPOS>SUBSTRUCTURE
  1 ****  12 GROUP 4 **** **** 0

# MOE 2024.06 (io_trps.svl 2023.06)
