@<TRIPOS>MOLECULE
NONAME
55 58 1 0 0 
SMALL
USER_CHARGES


@<TRIPOS>ATOM
  1 S       -1.0540     0.1490     1.0860 S.o2  1 <1>   1.3330 
  2 O       -0.4280     1.3370     1.6060 O.2   1 <1>  -0.6500 
  3 O       -0.6690    -1.1560     1.5570 O.2   1 <1>  -0.6500 
  4 N       -0.6160     0.1290    -0.5080 N.am  1 <1>  -0.9780 
  5 C       -2.8410     0.3420     1.0590 C.3   1 <1>  -0.0550 
  6 C       -3.5900    -0.7870     0.3270 C.3   1 <1>  -0.1600 
  7 C       -5.1150    -0.5640     0.3350 C.3   1 <1>  -0.0990 
  8 C       -5.9120    -1.6530    -0.3780 C.2   1 <1>   0.5690 
  9 O       -5.3070    -2.5650    -0.8930 O.2   1 <1>  -0.5700 
 10 N       -7.2810    -1.5920    -0.4270 N.am  1 <1>  -0.6600 
 11 C       -8.1250    -0.4960     0.1460 C.3   1 <1>   0.1400 
 12 C       -8.0430    -2.7070    -1.0720 C.3   1 <1>   0.1400 
 13 C       -9.0240     0.1470    -0.9350 C.3   1 <1>   0.1430 
 14 C       -9.5070    -2.3320    -1.3570 C.3   1 <1>  -0.1600 
 15 C      -10.1070     0.9280    -0.2090 C.ar  1 <1>   0.1670 
 16 C       -9.6070    -0.9060    -1.9170 C.3   1 <1>  -0.1600 
 17 C       -8.2760     1.2700    -1.7030 C.3   1 <1>  -0.1600 
 18 N      -11.1390     0.4040     0.4050 N.ar  1 <1>  -0.6200 
 19 C       -9.8720     2.2680    -0.2470 C.ar  1 <1>  -0.1430 
 20 C       -8.6070     2.5970    -0.9980 C.3   1 <1>  -0.0170 
 21 C      -11.9770     1.2710     0.9890 C.ar  1 <1>   0.6200 
 22 C      -10.7720     3.0910     0.3780 C.ar  1 <1>   0.1600 
 23 N      -11.8240     2.6040     0.9950 N.ar  1 <1>  -0.6200 
 24 C      -13.1430     0.7220     1.6700 C.ar  1 <1>   0.0000 
 25 C      -14.3200     1.4620     1.8220 C.ar  1 <1>  -0.1500 
 26 C      -13.1420    -0.5700     2.2050 C.ar  1 <1>  -0.1500 
 27 C      -15.4290     0.9450     2.4670 C.ar  1 <1>  -0.1500 
 28 C      -14.2470    -1.0940     2.8510 C.ar  1 <1>  -0.1500 
 29 C      -15.3950    -0.3370     2.9840 C.ar  1 <1>  -0.1500 
 30 H       -0.3360    -0.8370    -0.6680 H     1 <1>   0.4200 
 31 H        0.2420     0.6750    -0.5270 H     1 <1>   0.4200 
 32 H       -3.0760     1.2770     0.5880 H     1 <1>   0.0800 
 33 H       -3.1940     0.3920     2.0720 H     1 <1>   0.0800 
 34 H       -3.3640    -1.7290     0.8000 H     1 <1>   0.0800 
 35 H       -3.2470    -0.8430    -0.6920 H     1 <1>   0.0800 
 36 H       -5.3300     0.3740    -0.1430 H     1 <1>   0.0800 
 37 H       -5.4540    -0.5180     1.3530 H     1 <1>   0.0800 
 38 H       -7.5300     0.2620     0.6190 H     1 <1>   0.0800 
 39 H       -8.7490    -0.9270     0.9100 H     1 <1>   0.0800 
 40 H       -8.0030    -3.5770    -0.4380 H     1 <1>   0.0800 
 41 H       -7.5590    -2.9570    -2.0020 H     1 <1>   0.0800 
 42 H      -10.0840    -2.4100    -0.4510 H     1 <1>   0.0800 
 43 H       -9.9190    -3.0330    -2.0610 H     1 <1>   0.0800 
 44 H       -9.0560    -0.8870    -2.8410 H     1 <1>   0.0800 
 45 H      -10.6320    -0.6720    -2.1460 H     1 <1>   0.0800 
 46 H       -8.6590     1.3350    -2.7060 H     1 <1>   0.0800 
 47 H       -7.2170     1.0910    -1.7590 H     1 <1>   0.0800 
 48 H       -8.7590     3.3940    -1.7060 H     1 <1>   0.0800 
 49 H       -7.8310     2.8670    -0.3030 H     1 <1>   0.0800 
 50 H      -10.6300     4.1590     0.3740 H     1 <1>   0.1500 
 51 H      -14.3670     2.4610     1.4260 H     1 <1>   0.1500 
 52 H      -12.2580    -1.1770     2.1120 H     1 <1>   0.1500 
 53 H      -16.3200     1.5410     2.5660 H     1 <1>   0.1500 
 54 H      -14.2130    -2.0930     3.2500 H     1 <1>   0.1500 
 55 H      -16.2570    -0.7410     3.4860 H     1 <1>   0.1500 
@<TRIPOS>BOND
  1   1   2  2   
  2   1   3  2   
  3   1   4  am  
  4   1   5  1   
  5   4  30  1   
  6   4  31  1   
  7   5   6  1   
  8   5  32  1   
  9   5  33  1   
 10   6   7  1   
 11   6  34  1   
 12   6  35  1   
 13   7   8  1   
 14   7  36  1   
 15   7  37  1   
 16   8   9  2   
 17   8  10  am  
 18  10  11  1   
 19  10  12  1   
 20  11  13  1   
 21  11  38  1   
 22  11  39  1   
 23  12  14  1   
 24  12  40  1   
 25  12  41  1   
 26  13  15  1   
 27  13  16  1   
 28  13  17  1   
 29  14  16  1   
 30  14  42  1   
 31  14  43  1   
 32  15  18  ar  
 33  15  19  ar  
 34  16  44  1   
 35  16  45  1   
 36  17  20  1   
 37  17  46  1   
 38  17  47  1   
 39  18  21  ar  
 40  19  20  1   
 41  19  22  ar  
 42  20  48  1   
 43  20  49  1   
 44  21  23  ar  
 45  21  24  1   
 46  22  23  ar  
 47  22  50  1   
 48  24  25  ar  
 49  24  26  ar  
 50  25  27  ar  
 51  25  51  1   
 52  26  28  ar  
 53  26  52  1   
 54  27  29  ar  
 55  27  53  1   
 56  28  29  ar  
 57  28  54  1   
 58  29  55  1   
@<TRIPOS>SUBSTRUCTURE
  1 ****  11 GROUP 4 **** **** 0

# MOE 2024.06 (io_trps.svl 2023.06)
