@<TRIPOS>MOLECULE
NONAME
48 50 1 0 0 
SMALL
USER_CHARGES


@<TRIPOS>ATOM
  1 S        0.1400    -0.2300    -1.5240 S.3   1 <1>  -0.0800 
  2 C        0.2480    -1.5400    -0.3650 C.2   1 <1>  -0.0450 
  3 C        1.4450     0.5920    -0.7120 C.2   1 <1>   0.1980 
  4 C        1.2520    -1.2280     0.4880 C.2   1 <1>   0.0460 
  5 C       -0.6330    -2.6740    -0.4820 C.2   1 <1>   0.7150 
  6 N        1.9070    -0.0310     0.2940 N.2   1 <1>  -0.5650 
  7 C        1.8870     1.9250    -1.2670 C.3   1 <1>  -0.0600 
  8 C        1.7380    -2.0680     1.6510 C.3   1 <1>  -0.0590 
  9 O       -0.1740    -3.7970    -0.3720 O.2   1 <1>  -0.5700 
 10 N       -1.9920    -2.5430    -0.6920 N.am  1 <1>  -0.6600 
 11 C       -2.7950    -3.7210    -1.1400 C.3   1 <1>   0.1400 
 12 C       -2.7420    -1.2920    -0.3810 C.3   1 <1>   0.1400 
 13 C       -3.2250    -4.5980     0.0460 C.3   1 <1>   0.1400 
 14 C       -4.0310    -1.5280     0.4180 C.3   1 <1>  -0.1600 
 15 N       -4.2740    -3.9480     0.8940 N.am  1 <1>  -0.6600 
 16 C       -3.9210    -2.6250     1.4830 C.3   1 <1>   0.1400 
 17 C       -5.5480    -4.4600     1.0440 C.2   1 <1>   0.5440 
 18 O       -6.4480    -3.7100     1.3710 O.2   1 <1>  -0.5700 
 19 C       -5.8490    -5.8600     0.8200 C.ar  1 <1>   0.0860 
 20 C       -6.9130    -6.2680     0.0350 C.ar  1 <1>  -0.1500 
 21 C       -5.1050    -6.8900     1.3810 C.ar  1 <1>  -0.1500 
 22 C       -7.1650    -7.6140    -0.1650 C.ar  1 <1>   0.3930 
 23 C       -5.4330    -8.2060     1.1240 C.ar  1 <1>   0.1600 
 24 O       -8.2170    -7.9290    -0.9490 O.3   1 <1>  -0.3630 
 25 N       -6.4380    -8.5950     0.3600 N.ar  1 <1>  -0.6200 
 26 C       -8.5690    -9.2780    -1.1870 C.3   1 <1>   0.0400 
 27 H        1.0680     2.6190    -1.2460 H     1 <1>   0.0800 
 28 H        2.2250     1.8030    -2.2800 H     1 <1>   0.0800 
 29 H        2.6930     2.3150    -0.6730 H     1 <1>   0.0800 
 30 H        1.1670    -2.9720     1.7440 H     1 <1>   0.0800 
 31 H        1.6520    -1.5060     2.5630 H     1 <1>   0.0800 
 32 H        2.7700    -2.3250     1.5000 H     1 <1>   0.0800 
 33 H       -2.1920    -4.3160    -1.8030 H     1 <1>   0.0800 
 34 H       -3.6600    -3.3970    -1.6920 H     1 <1>   0.0800 
 35 H       -2.9770    -0.7830    -1.3000 H     1 <1>   0.0800 
 36 H       -2.1130    -0.6410     0.2020 H     1 <1>   0.0800 
 37 H       -2.3660    -4.8320     0.6520 H     1 <1>   0.0800 
 38 H       -3.5990    -5.5210    -0.3570 H     1 <1>   0.0800 
 39 H       -4.8480    -1.7490    -0.2460 H     1 <1>   0.0800 
 40 H       -4.2790    -0.6050     0.9090 H     1 <1>   0.0800 
 41 H       -4.6040    -2.4030     2.2860 H     1 <1>   0.0800 
 42 H       -2.9290    -2.6580     1.9000 H     1 <1>   0.0800 
 43 H       -7.5550    -5.5380    -0.4210 H     1 <1>   0.1500 
 44 H       -4.2730    -6.6560     2.0200 H     1 <1>   0.1500 
 45 H       -4.8370    -8.9850     1.5710 H     1 <1>   0.1500 
 46 H       -9.4340    -9.2940    -1.8260 H     1 <1>   0.0800 
 47 H       -8.7940    -9.7500    -0.2470 H     1 <1>   0.0800 
 48 H       -7.7440    -9.7730    -1.6680 H     1 <1>   0.0800 
@<TRIPOS>BOND
  1   1   2  1   
  2   1   3  1   
  3   2   4  2   
  4   2   5  1   
  5   3   6  2   
  6   3   7  1   
  7   4   6  1   
  8   4   8  1   
  9   5   9  2   
 10   5  10  am  
 11   7  27  1   
 12   7  28  1   
 13   7  29  1   
 14   8  30  1   
 15   8  31  1   
 16   8  32  1   
 17  10  11  1   
 18  10  12  1   
 19  11  13  1   
 20  11  33  1   
 21  11  34  1   
 22  12  14  1   
 23  12  35  1   
 24  12  36  1   
 25  13  15  1   
 26  13  37  1   
 27  13  38  1   
 28  14  16  1   
 29  14  39  1   
 30  14  40  1   
 31  15  16  1   
 32  15  17  am  
 33  16  41  1   
 34  16  42  1   
 35  17  18  2   
 36  17  19  1   
 37  19  20  ar  
 38  19  21  ar  
 39  20  22  ar  
 40  20  43  1   
 41  21  23  ar  
 42  21  44  1   
 43  22  24  1   
 44  22  25  ar  
 45  23  25  ar  
 46  23  45  1   
 47  24  26  1   
 48  26  46  1   
 49  26  47  1   
 50  26  48  1   
@<TRIPOS>SUBSTRUCTURE
  1 ****  13 GROUP 4 **** **** 0

# MOE 2024.06 (io_trps.svl 2023.06)
