@<TRIPOS>MOLECULE
NONAME
53 54 1 0 0 
SMALL
USER_CHARGES


@<TRIPOS>ATOM
  1 O       -1.6870     0.3880    -2.4330 O.2   1 <1>  -0.5700 
  2 C       -1.5250     1.0090    -1.4060 C.2   1 <1>   0.5690 
  3 N       -1.8260     0.4620    -0.1790 N.am  1 <1>  -0.6600 
  4 C       -0.9830     2.4440    -1.5490 C.3   1 <1>   0.1710 
  5 C       -2.4030    -0.9060    -0.0610 C.3   1 <1>   0.1400 
  6 C       -1.5610     1.1200     1.1290 C.3   1 <1>   0.1400 
  7 N        0.3720     2.7230    -0.9620 N.3   1 <1>  -0.8100 
  8 C       -3.7080    -0.8490     0.7400 C.3   1 <1>  -0.1600 
  9 C       -2.8590     1.2010     1.9390 C.3   1 <1>  -0.1600 
 10 C        0.8430     4.0770    -1.2780 C.3   1 <1>   0.1100 
 11 C        1.3420     1.7220    -1.4410 C.3   1 <1>   0.0300 
 12 C       -3.5060    -0.1810     2.1080 C.3   1 <1>  -0.1600 
 13 C        0.1040     5.1390    -0.4450 C.3   1 <1>  -0.0800 
 14 C        0.7430     6.5160    -0.6250 C.3   1 <1>   0.3430 
 15 C        0.1570     4.8650     1.0670 C.3   1 <1>  -0.1600 
 16 N        1.4420     6.8050     0.6570 N.4   1 <1>  -0.9590 
 17 C        0.6170     6.1630     1.7070 C.3   1 <1>   0.3430 
 18 C        1.6610     8.2640     0.9260 C.3   1 <1>   0.3430 
 19 C        2.6450     8.9080    -0.0580 C.3   1 <1>   0.1200 
 20 O        2.7420    10.2480     0.2820 O.3   1 <1>  -0.5600 
 21 C        3.6240    10.9830    -0.5090 C.3   1 <1>   0.0400 
 22 H       -1.7060     3.0960    -1.0980 H     1 <1>   0.0800 
 23 H       -0.9590     2.6680    -2.6010 H     1 <1>   0.0800 
 24 H       -1.6930    -1.5430     0.4370 H     1 <1>   0.0800 
 25 H       -2.5990    -1.3240    -1.0340 H     1 <1>   0.0800 
 26 H       -1.1610     2.1070     0.9960 H     1 <1>   0.0800 
 27 H       -0.8320     0.5380     1.6660 H     1 <1>   0.0800 
 28 H       -4.0830    -1.8480     0.8770 H     1 <1>   0.0800 
 29 H       -4.4380    -0.3010     0.1700 H     1 <1>   0.0800 
 30 H       -3.5430     1.8620     1.4360 H     1 <1>   0.0800 
 31 H       -2.6500     1.6200     2.9070 H     1 <1>   0.0800 
 32 H        0.7240     4.2690    -2.3330 H     1 <1>   0.0800 
 33 H        1.8950     4.1360    -1.0500 H     1 <1>   0.0800 
 34 H        1.0510     0.7360    -1.1180 H     1 <1>   0.0800 
 35 H        2.3180     1.9230    -1.0350 H     1 <1>   0.0800 
 36 H        1.3970     1.7310    -2.5170 H     1 <1>   0.0800 
 37 H       -2.8700    -0.8010     2.7160 H     1 <1>   0.0800 
 38 H       -4.4540    -0.0820     2.6080 H     1 <1>   0.0800 
 39 H       -0.9160     5.2030    -0.7820 H     1 <1>   0.0800 
 40 H       -0.0340     7.2470    -0.7870 H     1 <1>   0.0800 
 41 H        1.4250     6.5340    -1.4600 H     1 <1>   0.0800 
 42 H        0.8700     4.0920     1.2970 H     1 <1>   0.0800 
 43 H       -0.8010     4.5630     1.4510 H     1 <1>   0.0800 
 44 H        2.3480     6.3160     0.6510 H     1 <1>   0.4500 
 45 H        1.1790     5.9870     2.6110 H     1 <1>   0.0800 
 46 H       -0.2400     6.7800     1.9290 H     1 <1>   0.0800 
 47 H        2.0550     8.3900     1.9210 H     1 <1>   0.0800 
 48 H        0.7220     8.7880     0.8660 H     1 <1>   0.0800 
 49 H        2.2840     8.8440    -1.0700 H     1 <1>   0.0800 
 50 H        3.6210     8.4630     0.0290 H     1 <1>   0.0800 
 51 H        3.6190    12.0010    -0.1590 H     1 <1>   0.0800 
 52 H        3.2980    10.9540    -1.5340 H     1 <1>   0.0800 
 53 H        4.6170    10.5760    -0.4140 H     1 <1>   0.0800 
@<TRIPOS>BOND
  1   1   2  2   
  2   2   3  am  
  3   2   4  1   
  4   3   5  1   
  5   3   6  1   
  6   4   7  1   
  7   4  22  1   
  8   4  23  1   
  9   5   8  1   
 10   5  24  1   
 11   5  25  1   
 12   6   9  1   
 13   6  26  1   
 14   6  27  1   
 15   7  10  1   
 16   7  11  1   
 17   8  12  1   
 18   8  28  1   
 19   8  29  1   
 20   9  12  1   
 21   9  30  1   
 22   9  31  1   
 23  10  13  1   
 24  10  32  1   
 25  10  33  1   
 26  11  34  1   
 27  11  35  1   
 28  11  36  1   
 29  12  37  1   
 30  12  38  1   
 31  13  14  1   
 32  13  15  1   
 33  13  39  1   
 34  14  16  1   
 35  14  40  1   
 36  14  41  1   
 37  15  17  1   
 38  15  42  1   
 39  15  43  1   
 40  16  17  1   
 41  16  18  1   
 42  16  44  1   
 43  17  45  1   
 44  17  46  1   
 45  18  19  1   
 46  18  47  1   
 47  18  48  1   
 48  19  20  1   
 49  19  49  1   
 50  19  50  1   
 51  20  21  1   
 52  21  51  1   
 53  21  52  1   
 54  21  53  1   
@<TRIPOS>SUBSTRUCTURE
  1 ****  13 GROUP 4 **** **** 0

# MOE 2024.06 (io_trps.svl 2023.06)
