@<TRIPOS>MOLECULE
NONAME
44 44 1 0 0 
SMALL
USER_CHARGES


@<TRIPOS>ATOM
  1 O        2.3770     1.1590    -2.6770 O.2   1 <1>  -0.5700 
  2 C        2.5470     0.2430    -1.9020 C.2   1 <1>   0.5690 
  3 N        3.6580     0.2220    -1.0840 N.am  1 <1>  -0.6600 
  4 C        1.4230    -0.8200    -1.8550 C.3   1 <1>   0.2810 
  5 C        4.5890     1.3940    -1.0480 C.3   1 <1>   0.3200 
  6 C        4.0970    -0.9450    -0.2620 C.3   1 <1>   0.0600 
  7 N        0.7010    -0.8160    -0.5410 N.am  1 <1>  -0.7300 
  8 C        1.8440    -2.2150    -2.3430 C.3   1 <1>  -0.2400 
  9 C        4.7130     2.0280     0.3360 C.2   1 <1>   0.0060 
 10 C        0.5700    -1.7550     0.4290 C.2   1 <1>   0.5690 
 11 N        5.8350     2.4950     0.7680 N.2   1 <1>  -0.3380 
 12 N        3.7360     2.1970     1.2440 N.pl3 1 <1>   0.0480 
 13 O        1.1130    -2.8300     0.3980 O.2   1 <1>  -0.5700 
 14 C       -0.2800    -1.4020     1.6360 C.3   1 <1>  -0.0990 
 15 N        5.6200     2.9890     1.9860 N.2   1 <1>  -0.3380 
 16 C        4.3750     2.8010     2.2470 C.2   1 <1>   0.0370 
 17 C        2.3120     1.7960     1.2560 C.3   1 <1>   0.0960 
 18 C       -1.7400    -1.0820     1.2780 C.3   1 <1>  -0.2400 
 19 C        1.4910     2.6160     0.2630 C.3   1 <1>   0.1200 
 20 O        0.2670     1.9690     0.0840 O.3   1 <1>  -0.5600 
 21 C       -0.5170     2.5440    -0.9140 C.3   1 <1>   0.0400 
 22 H        0.6970    -0.4860    -2.5750 H     1 <1>   0.0800 
 23 H        4.2750     2.1580    -1.7370 H     1 <1>   0.0800 
 24 H        5.5640     1.0670    -1.3660 H     1 <1>   0.0800 
 25 H        3.2530    -1.4710     0.1410 H     1 <1>   0.0800 
 26 H        4.7100    -0.6210     0.5620 H     1 <1>   0.0800 
 27 H        4.6730    -1.6200    -0.8710 H     1 <1>   0.0800 
 28 H        0.2980     0.1110    -0.3350 H     1 <1>   0.3700 
 29 H        2.5840    -2.6570    -1.7050 H     1 <1>   0.0800 
 30 H        2.2560    -2.1390    -3.3320 H     1 <1>   0.0800 
 31 H        0.9860    -2.8620    -2.3810 H     1 <1>   0.0800 
 32 H        0.1620    -0.5590     2.1330 H     1 <1>   0.0800 
 33 H       -0.2600    -2.2330     2.3200 H     1 <1>   0.0800 
 34 H        3.8960     3.0890     3.1660 H     1 <1>   0.1500 
 35 H        1.9160     1.9350     2.2450 H     1 <1>   0.0800 
 36 H        2.2530     0.7540     1.0130 H     1 <1>   0.0800 
 37 H       -1.7940    -0.2160     0.6430 H     1 <1>   0.0800 
 38 H       -2.3060    -0.8870     2.1720 H     1 <1>   0.0800 
 39 H       -2.1860    -1.9170     0.7650 H     1 <1>   0.0800 
 40 H        1.9900     2.6770    -0.6880 H     1 <1>   0.0800 
 41 H        1.3080     3.6060     0.6450 H     1 <1>   0.0800 
 42 H       -1.4410     1.9970    -0.9770 H     1 <1>   0.0800 
 43 H        0.0040     2.4830    -1.8560 H     1 <1>   0.0800 
 44 H       -0.7210     3.5700    -0.6620 H     1 <1>   0.0800 
@<TRIPOS>BOND
  1   1   2  2   
  2   2   3  am  
  3   2   4  1   
  4   3   5  1   
  5   3   6  1   
  6   4   7  1   
  7   4   8  1   
  8   4  22  1   
  9   5   9  1   
 10   5  23  1   
 11   5  24  1   
 12   6  25  1   
 13   6  26  1   
 14   6  27  1   
 15   7  10  am  
 16   7  28  1   
 17   8  29  1   
 18   8  30  1   
 19   8  31  1   
 20   9  11  2   
 21   9  12  1   
 22  10  13  2   
 23  10  14  1   
 24  11  15  1   
 25  12  16  1   
 26  12  17  1   
 27  14  18  1   
 28  14  32  1   
 29  14  33  1   
 30  15  16  2   
 31  16  34  1   
 32  17  19  1   
 33  17  35  1   
 34  17  36  1   
 35  18  37  1   
 36  18  38  1   
 37  18  39  1   
 38  19  20  1   
 39  19  40  1   
 40  19  41  1   
 41  20  21  1   
 42  21  42  1   
 43  21  43  1   
 44  21  44  1   
@<TRIPOS>SUBSTRUCTURE
  1 ****   3 GROUP 4 **** **** 0

# MOE 2024.06 (io_trps.svl 2023.06)
