@<TRIPOS>MOLECULE
NONAME
55 57 1 0 0 
SMALL
USER_CHARGES


@<TRIPOS>ATOM
  1 O       -1.4190    -1.1270    -0.3200 O.2   1 <1>  -0.5700 
  2 C       -0.8630    -2.1920    -0.1380 C.2   1 <1>   0.5440 
  3 N        0.4680    -2.3030    -0.4410 N.am  1 <1>  -0.7300 
  4 C       -1.6040    -3.3130     0.3900 C.ar  1 <1>   0.0860 
  5 C        1.3140    -1.2200    -0.9820 C.3   1 <1>   0.1400 
  6 C       -2.7140    -3.0990     1.2080 C.ar  1 <1>   0.1600 
  7 C       -1.2770    -4.6390     0.1160 C.ar  1 <1>  -0.1500 
  8 C        2.6310    -1.2060    -0.2170 C.3   1 <1>  -0.2400 
  9 N       -3.4830    -4.0330     1.7440 N.ar  1 <1>  -0.6200 
 10 C       -2.0590    -5.6240     0.6670 C.ar  1 <1>  -0.1500 
 11 C       -3.1440    -5.2800     1.4670 C.ar  1 <1>   0.4100 
 12 N       -3.9630    -6.2070     2.0260 N.pl3 1 <1>  -0.8690 
 13 C       -4.6610    -7.2660     1.2460 C.3   1 <1>   0.2090 
 14 C       -6.0040    -6.7980     0.6280 C.3   1 <1>   0.1430 
 15 C       -6.6770    -8.0550     0.0150 C.ar  1 <1>  -0.1430 
 16 C       -5.7810    -5.7090    -0.4510 C.3   1 <1>  -0.1600 
 17 C       -6.9020    -6.1210     1.6940 C.3   1 <1>  -0.1600 
 18 C       -6.3480    -8.4890    -1.2690 C.ar  1 <1>  -0.1500 
 19 C       -7.6030    -8.8170     0.7270 C.ar  1 <1>  -0.1500 
 20 C       -7.1080    -5.2780    -1.0740 C.3   1 <1>   0.3430 
 21 C       -8.2350    -5.6730     1.0910 C.3   1 <1>   0.3430 
 22 C       -6.9500    -9.6000    -1.8320 C.ar  1 <1>  -0.1500 
 23 C       -8.2070    -9.9280     0.1660 C.ar  1 <1>  -0.1500 
 24 N       -7.9850    -4.7010    -0.0130 N.4   1 <1>  -0.9590 
 25 C       -7.8870   -10.3190    -1.1180 C.ar  1 <1>  -0.1500 
 26 C       -9.2700    -4.2140    -0.5960 C.3   1 <1>   0.2630 
 27 H        0.9670    -3.1600    -0.2060 H     1 <1>   0.3700 
 28 H        0.8160    -0.2700    -0.8750 H     1 <1>   0.0800 
 29 H        1.4910    -1.3960    -2.0290 H     1 <1>   0.0800 
 30 H       -2.9730    -2.0760     1.4270 H     1 <1>   0.1500 
 31 H       -0.4390    -4.8840    -0.5130 H     1 <1>   0.1500 
 32 H        2.4510    -1.0270     0.8280 H     1 <1>   0.0800 
 33 H        3.2550    -0.4150    -0.5930 H     1 <1>   0.0800 
 34 H        3.1520    -2.1380    -0.3410 H     1 <1>   0.0800 
 35 H       -1.8430    -6.6620     0.4980 H     1 <1>   0.1500 
 36 H       -4.5060    -5.8140     2.7980 H     1 <1>   0.4000 
 37 H       -4.8480    -8.0980     1.9040 H     1 <1>   0.0800 
 38 H       -4.0140    -7.6230     0.4630 H     1 <1>   0.0800 
 39 H       -5.1090    -6.0460    -1.2160 H     1 <1>   0.0800 
 40 H       -5.3230    -4.8380    -0.0220 H     1 <1>   0.0800 
 41 H       -6.4130    -5.2540     2.1010 H     1 <1>   0.0800 
 42 H       -7.0770    -6.7800     2.5240 H     1 <1>   0.0800 
 43 H       -5.6080    -7.9910    -1.8660 H     1 <1>   0.1500 
 44 H       -7.8780    -8.5850     1.7380 H     1 <1>   0.1500 
 45 H       -7.5900    -6.1300    -1.5280 H     1 <1>   0.0800 
 46 H       -6.9220    -4.5420    -1.8400 H     1 <1>   0.0800 
 47 H       -8.8390    -5.2120     1.8560 H     1 <1>   0.0800 
 48 H       -8.7670    -6.5290     0.7080 H     1 <1>   0.0800 
 49 H       -6.6850    -9.9130    -2.8280 H     1 <1>   0.1500 
 50 H       -8.9240   -10.4980     0.7330 H     1 <1>   0.1500 
 51 H       -7.4770    -3.8990     0.3920 H     1 <1>   0.4500 
 52 H       -8.3560   -11.1840    -1.5560 H     1 <1>   0.1500 
 53 H       -9.8180    -5.0360    -1.0300 H     1 <1>   0.0800 
 54 H       -9.0800    -3.4830    -1.3650 H     1 <1>   0.0800 
 55 H       -9.8790    -3.7580     0.1680 H     1 <1>   0.0800 
@<TRIPOS>BOND
  1   1   2  2   
  2   2   3  am  
  3   2   4  1   
  4   3   5  1   
  5   3  27  1   
  6   4   6  ar  
  7   4   7  ar  
  8   5   8  1   
  9   5  28  1   
 10   5  29  1   
 11   6   9  ar  
 12   6  30  1   
 13   7  10  ar  
 14   7  31  1   
 15   8  32  1   
 16   8  33  1   
 17   8  34  1   
 18   9  11  ar  
 19  10  11  ar  
 20  10  35  1   
 21  11  12  1   
 22  12  13  1   
 23  12  36  1   
 24  13  14  1   
 25  13  37  1   
 26  13  38  1   
 27  14  15  1   
 28  14  16  1   
 29  14  17  1   
 30  15  18  ar  
 31  15  19  ar  
 32  16  20  1   
 33  16  39  1   
 34  16  40  1   
 35  17  21  1   
 36  17  41  1   
 37  17  42  1   
 38  18  22  ar  
 39  18  43  1   
 40  19  23  ar  
 41  19  44  1   
 42  20  24  1   
 43  20  45  1   
 44  20  46  1   
 45  21  24  1   
 46  21  47  1   
 47  21  48  1   
 48  22  25  ar  
 49  22  49  1   
 50  23  25  ar  
 51  23  50  1   
 52  24  26  1   
 53  24  51  1   
 54  25  52  1   
 55  26  53  1   
 56  26  54  1   
 57  26  55  1   
@<TRIPOS>SUBSTRUCTURE
  1 ****  16 GROUP 4 **** **** 0

# MOE 2024.06 (io_trps.svl 2023.06)
