@<TRIPOS>MOLECULE
NONAME
59 61 1 0 0 
SMALL
USER_CHARGES


@<TRIPOS>ATOM
  1 O       -0.7500     0.8200    -0.3960 O.2   1 <1>  -0.5700 
  2 C       -0.6230     2.0210    -0.3530 C.2   1 <1>   0.5690 
  3 N       -1.4150     2.8170     0.4300 N.am  1 <1>  -0.6600 
  4 C        0.4540     2.6630    -1.2290 C.3   1 <1>   0.1810 
  5 C       -1.2550     4.3070     0.4400 C.3   1 <1>   0.3640 
  6 C       -2.4260     2.2540     1.3740 C.3   1 <1>   0.0600 
  7 O        0.8630     3.9240    -0.7510 O.3   1 <1>  -0.5600 
  8 C       -2.6060     5.0160     0.2580 C.ar  1 <1>  -0.1430 
  9 C       -0.2030     4.8420    -0.5670 C.3   1 <1>   0.2610 
 10 C       -3.5020     4.7650    -0.7880 C.ar  1 <1>  -0.1430 
 11 C       -2.9420     5.9720     1.2110 C.ar  1 <1>  -0.1500 
 12 C        0.3570     6.1840    -0.0790 C.2   1 <1>   0.5690 
 13 C       -4.6920     5.4760    -0.8500 C.ar  1 <1>  -0.1500 
 14 C       -3.2650     3.7240    -1.8790 C.3   1 <1>  -0.0960 
 15 C       -4.1300     6.6730     1.1380 C.ar  1 <1>  -0.1500 
 16 O       -0.2930     7.1960    -0.1830 O.2   1 <1>  -0.5700 
 17 N        1.6130     6.2230     0.4450 N.am  1 <1>  -0.7300 
 18 C       -5.0080     6.4250     0.1030 C.ar  1 <1>  -0.1500 
 19 C        2.3320     7.3630     1.1050 C.3   1 <1>   0.1400 
 20 C        2.7280     8.5510     0.1640 C.3   1 <1>   0.5030 
 21 N        1.4950     9.2670    -0.3260 N.4   1 <1>  -0.9590 
 22 C        3.6730     9.5100     0.9050 C.3   1 <1>  -0.1600 
 23 C        3.6270     8.0310    -0.9740 C.3   1 <1>  -0.1600 
 24 C        1.6430    10.1550    -1.5210 C.3   1 <1>   0.2630 
 25 C        0.7540     9.9990     0.7490 C.3   1 <1>   0.2630 
 26 C        5.0860     8.9230     0.7670 C.3   1 <1>  -0.1600 
 27 C        5.0200     7.8840    -0.3560 C.3   1 <1>  -0.1600 
 28 H        0.0840     2.7770    -2.2310 H     1 <1>   0.0800 
 29 H        1.3180     2.0240    -1.2500 H     1 <1>   0.0800 
 30 H       -0.8870     4.5530     1.4210 H     1 <1>   0.0800 
 31 H       -2.2390     2.6150     2.3700 H     1 <1>   0.0800 
 32 H       -2.3800     1.1790     1.3850 H     1 <1>   0.0800 
 33 H       -3.4160     2.5500     1.0730 H     1 <1>   0.0800 
 34 H       -0.6600     5.0110    -1.5230 H     1 <1>   0.0800 
 35 H       -2.2770     6.1870     2.0290 H     1 <1>   0.1500 
 36 H       -5.3930     5.2930    -1.6460 H     1 <1>   0.1500 
 37 H       -3.9720     3.8410    -2.6810 H     1 <1>   0.0800 
 38 H       -3.3880     2.7350    -1.4760 H     1 <1>   0.0800 
 39 H       -2.2840     3.8100    -2.3000 H     1 <1>   0.0800 
 40 H       -4.3740     7.4090     1.8840 H     1 <1>   0.1500 
 41 H        2.1220     5.3280     0.4150 H     1 <1>   0.3700 
 42 H       -5.9360     6.9660     0.0380 H     1 <1>   0.1500 
 43 H        1.7290     7.7290     1.9160 H     1 <1>   0.0800 
 44 H        3.2270     6.9640     1.5510 H     1 <1>   0.0800 
 45 H        0.8520     8.4890    -0.5910 H     1 <1>   0.4500 
 46 H        3.6680    10.4740     0.4300 H     1 <1>   0.0800 
 47 H        3.4080     9.6290     1.9410 H     1 <1>   0.0800 
 48 H        3.2840     7.1020    -1.3930 H     1 <1>   0.0800 
 49 H        3.7260     8.7480    -1.7660 H     1 <1>   0.0800 
 50 H        2.3640    10.9320    -1.3250 H     1 <1>   0.0800 
 51 H        0.6970    10.6130    -1.7620 H     1 <1>   0.0800 
 52 H        1.9650     9.5860    -2.3760 H     1 <1>   0.0800 
 53 H        1.3520    10.8060     1.1380 H     1 <1>   0.0800 
 54 H        0.5000     9.3290     1.5530 H     1 <1>   0.0800 
 55 H       -0.1620    10.4060     0.3530 H     1 <1>   0.0800 
 56 H        5.7940     9.7000     0.5290 H     1 <1>   0.0800 
 57 H        5.3970     8.4530     1.6850 H     1 <1>   0.0800 
 58 H        5.1410     6.8950     0.0540 H     1 <1>   0.0800 
 59 H        5.7940     8.0430    -1.0890 H     1 <1>   0.0800 
@<TRIPOS>BOND
  1   1   2  2   
  2   2   3  am  
  3   2   4  1   
  4   3   5  1   
  5   3   6  1   
  6   4   7  1   
  7   4  28  1   
  8   4  29  1   
  9   5   8  1   
 10   5   9  1   
 11   5  30  1   
 12   6  31  1   
 13   6  32  1   
 14   6  33  1   
 15   7   9  1   
 16   8  10  ar  
 17   8  11  ar  
 18   9  12  1   
 19   9  34  1   
 20  10  13  ar  
 21  10  14  1   
 22  11  15  ar  
 23  11  35  1   
 24  12  16  2   
 25  12  17  am  
 26  13  18  ar  
 27  13  36  1   
 28  14  37  1   
 29  14  38  1   
 30  14  39  1   
 31  15  18  ar  
 32  15  40  1   
 33  17  19  1   
 34  17  41  1   
 35  18  42  1   
 36  19  20  1   
 37  19  43  1   
 38  19  44  1   
 39  20  21  1   
 40  20  22  1   
 41  20  23  1   
 42  21  24  1   
 43  21  25  1   
 44  21  45  1   
 45  22  26  1   
 46  22  46  1   
 47  22  47  1   
 48  23  27  1   
 49  23  48  1   
 50  23  49  1   
 51  24  50  1   
 52  24  51  1   
 53  24  52  1   
 54  25  53  1   
 55  25  54  1   
 56  25  55  1   
 57  26  27  1   
 58  26  56  1   
 59  26  57  1   
 60  27  58  1   
 61  27  59  1   
@<TRIPOS>SUBSTRUCTURE
  1 ****  12 GROUP 4 **** **** 0

# MOE 2024.06 (io_trps.svl 2023.06)
