@<TRIPOS>MOLECULE
NONAME
53 54 1 0 0 
SMALL
USER_CHARGES


@<TRIPOS>ATOM
  1 O       -0.0690     1.0090    -0.7520 O.2   1 <1>  -0.5700 
  2 C       -0.1850     2.2060    -0.6290 C.2   1 <1>   0.5690 
  3 N       -0.9640     2.7730     0.3440 N.am  1 <1>  -0.6600 
  4 C        0.5500     3.1090    -1.6180 C.3   1 <1>   0.1810 
  5 C       -1.1330     4.2620     0.4390 C.3   1 <1>   0.3640 
  6 C       -1.6540     1.9640     1.3900 C.3   1 <1>   0.0600 
  7 O        0.8050     4.3850    -1.0880 O.3   1 <1>  -0.5600 
  8 C       -2.6240     4.6420     0.4650 C.ar  1 <1>  -0.1430 
  9 C       -0.3550     5.0720    -0.6330 C.3   1 <1>   0.2610 
 10 C       -3.5750     4.2160    -0.4700 C.ar  1 <1>  -0.1430 
 11 C       -3.0350     5.4720     1.5020 C.ar  1 <1>  -0.1500 
 12 C        0.0420     6.4330    -0.0500 C.2   1 <1>   0.5690 
 13 C       -4.8960     4.6190    -0.3310 C.ar  1 <1>  -0.1500 
 14 C       -3.2530     3.3120    -1.6540 C.3   1 <1>  -0.0960 
 15 C       -4.3520     5.8690     1.6280 C.ar  1 <1>  -0.1500 
 16 O       -0.8010     7.2790     0.1250 O.2   1 <1>  -0.5700 
 17 N        1.3480     6.6500     0.2630 N.am  1 <1>  -0.7300 
 18 C       -5.2870     5.4390     0.7100 C.ar  1 <1>  -0.1500 
 19 C        1.9470     7.9290     0.7210 C.3   1 <1>   0.1400 
 20 C        3.1850     8.3210    -0.1210 C.3   1 <1>   0.0000 
 21 C        3.8360     9.5770     0.4970 C.3   1 <1>   0.1200 
 22 C        4.2350     7.1900    -0.1200 C.3   1 <1>  -0.2400 
 23 C        2.7730     8.6080    -1.5780 C.3   1 <1>  -0.2400 
 24 O        2.9070    10.6130     0.5850 O.3   1 <1>  -0.5600 
 25 C        3.4250    11.7990     1.0910 C.3   1 <1>   0.0400 
 26 H       -0.0290     3.2170    -2.5160 H     1 <1>   0.0800 
 27 H        1.4960     2.6640    -1.8660 H     1 <1>   0.0800 
 28 H       -0.7110     4.5420     1.3890 H     1 <1>   0.0800 
 29 H       -1.3830     2.3220     2.3670 H     1 <1>   0.0800 
 30 H       -1.3750     0.9270     1.3140 H     1 <1>   0.0800 
 31 H       -2.7200     2.0410     1.2690 H     1 <1>   0.0800 
 32 H       -0.9840     5.2550    -1.4830 H     1 <1>   0.0800 
 33 H       -2.3240     5.8310     2.2270 H     1 <1>   0.1500 
 34 H       -5.6400     4.2950    -1.0380 H     1 <1>   0.1500 
 35 H       -4.0700     3.2860    -2.3520 H     1 <1>   0.0800 
 36 H       -3.0780     2.3070    -1.3140 H     1 <1>   0.0800 
 37 H       -2.3890     3.6620    -2.1820 H     1 <1>   0.0800 
 38 H       -4.6450     6.5150     2.4370 H     1 <1>   0.1500 
 39 H        2.0100     5.9140     0.0020 H     1 <1>   0.3700 
 40 H       -6.3150     5.7440     0.8020 H     1 <1>   0.1500 
 41 H        1.2090     8.7120     0.6630 H     1 <1>   0.0800 
 42 H        2.2310     7.8250     1.7540 H     1 <1>   0.0800 
 43 H        4.6580     9.9090    -0.1140 H     1 <1>   0.0800 
 44 H        4.1940     9.3630     1.4890 H     1 <1>   0.0800 
 45 H        3.8630     6.3150    -0.6220 H     1 <1>   0.0800 
 46 H        4.4980     6.9210     0.8870 H     1 <1>   0.0800 
 47 H        5.1270     7.5070    -0.6320 H     1 <1>   0.0800 
 48 H        2.3590     7.7310    -2.0410 H     1 <1>   0.0800 
 49 H        3.6200     8.9310    -2.1570 H     1 <1>   0.0800 
 50 H        2.0280     9.3840    -1.6070 H     1 <1>   0.0800 
 51 H        2.6300    12.5240     1.1210 H     1 <1>   0.0800 
 52 H        4.2100    12.1490     0.4430 H     1 <1>   0.0800 
 53 H        3.7990    11.6290     2.0860 H     1 <1>   0.0800 
@<TRIPOS>BOND
  1   1   2  2   
  2   2   3  am  
  3   2   4  1   
  4   3   5  1   
  5   3   6  1   
  6   4   7  1   
  7   4  26  1   
  8   4  27  1   
  9   5   8  1   
 10   5   9  1   
 11   5  28  1   
 12   6  29  1   
 13   6  30  1   
 14   6  31  1   
 15   7   9  1   
 16   8  10  ar  
 17   8  11  ar  
 18   9  12  1   
 19   9  32  1   
 20  10  13  ar  
 21  10  14  1   
 22  11  15  ar  
 23  11  33  1   
 24  12  16  2   
 25  12  17  am  
 26  13  18  ar  
 27  13  34  1   
 28  14  35  1   
 29  14  36  1   
 30  14  37  1   
 31  15  18  ar  
 32  15  38  1   
 33  17  19  1   
 34  17  39  1   
 35  18  40  1   
 36  19  20  1   
 37  19  41  1   
 38  19  42  1   
 39  20  21  1   
 40  20  22  1   
 41  20  23  1   
 42  21  24  1   
 43  21  43  1   
 44  21  44  1   
 45  22  45  1   
 46  22  46  1   
 47  22  47  1   
 48  23  48  1   
 49  23  49  1   
 50  23  50  1   
 51  24  25  1   
 52  25  51  1   
 53  25  52  1   
 54  25  53  1   
@<TRIPOS>SUBSTRUCTURE
  1 ****  12 GROUP 4 **** **** 0

# MOE 2024.06 (io_trps.svl 2023.06)
