@<TRIPOS>MOLECULE
NONAME
46 48 1 0 0 
SMALL
USER_CHARGES


@<TRIPOS>ATOM
  1 F       -1.2350    -1.6710     2.4580 F     1 <1>  -0.1900 
  2 C       -1.5740    -2.6370     1.6420 C.ar  1 <1>   0.1900 
  3 C       -0.7340    -3.7270     1.3930 C.ar  1 <1>   0.0820 
  4 C       -2.8090    -2.5220     1.0330 C.ar  1 <1>  -0.1500 
  5 O        0.5000    -3.9530     1.9320 O.3   1 <1>  -0.3630 
  6 C       -1.1820    -4.6930     0.5060 C.ar  1 <1>  -0.1500 
  7 C       -3.2220    -3.5050     0.1530 C.ar  1 <1>  -0.1500 
  8 C        1.0630    -3.1320     2.9310 C.3   1 <1>   0.0400 
  9 C       -2.4230    -4.6140    -0.1310 C.ar  1 <1>   0.0530 
 10 C       -2.8420    -5.6380    -1.0600 C.2   1 <1>   0.0870 
 11 O       -1.9320    -6.3370    -1.7010 O.3   1 <1>  -0.0190 
 12 C       -4.0520    -6.0980    -1.4790 C.2   1 <1>  -0.2330 
 13 N       -2.4450    -7.2160    -2.5220 N.2   1 <1>  -0.4100 
 14 C       -3.7170    -7.0760    -2.4130 C.2   1 <1>   0.3720 
 15 C       -5.3970    -5.7950    -1.0930 C.2   1 <1>   1.0330 
 16 N       -4.6460    -7.8200    -3.1230 N.pl3 1 <1>  -0.8520 
 17 O       -5.6550    -5.3580     0.0390 O.co2 1 <1>  -0.9000 
 18 O       -6.3480    -6.0270    -1.8630 O.co2 1 <1>  -0.9000 
 19 C       -4.8600    -9.1920    -2.6080 C.3   1 <1>   0.2090 
 20 C       -5.8360    -9.1290    -1.4340 C.3   1 <1>  -0.0990 
 21 C       -6.1940   -10.4800    -0.8540 C.2   1 <1>   0.5690 
 22 O       -5.7860   -11.4890    -1.3820 O.2   1 <1>  -0.5700 
 23 N       -6.9820   -10.5210     0.2620 N.am  1 <1>  -0.6600 
 24 C       -7.5510    -9.3400     0.9560 C.3   1 <1>   0.1400 
 25 C       -7.4290   -11.7800     0.8880 C.3   1 <1>   0.1400 
 26 C       -8.2320    -9.9130     2.1950 C.3   1 <1>  -0.1600 
 27 C       -8.5500   -11.3620     1.8320 C.3   1 <1>  -0.1600 
 28 H       -3.4400    -1.6790     1.2440 H     1 <1>   0.1500 
 29 H       -0.5460    -5.5370     0.3080 H     1 <1>   0.1500 
 30 H       -4.1860    -3.4140    -0.3180 H     1 <1>   0.1500 
 31 H        2.0040    -3.5610     3.2230 H     1 <1>   0.0800 
 32 H        0.3980    -3.1020     3.7760 H     1 <1>   0.0800 
 33 H        1.2210    -2.1480     2.5270 H     1 <1>   0.0800 
 34 H       -5.5420    -7.2970    -3.0220 H     1 <1>   0.4000 
 35 H       -3.9230    -9.6200    -2.2930 H     1 <1>   0.0800 
 36 H       -5.2680    -9.8030    -3.3940 H     1 <1>   0.0800 
 37 H       -6.7430    -8.6530    -1.7550 H     1 <1>   0.0800 
 38 H       -5.3930    -8.5440    -0.6510 H     1 <1>   0.0800 
 39 H       -8.2730    -8.8630     0.3140 H     1 <1>   0.0800 
 40 H       -6.7840    -8.6320     1.2220 H     1 <1>   0.0800 
 41 H       -6.6060   -12.2060     1.4370 H     1 <1>   0.0800 
 42 H       -7.7680   -12.4800     0.1430 H     1 <1>   0.0800 
 43 H       -9.1090    -9.3510     2.4610 H     1 <1>   0.0800 
 44 H       -7.5360    -9.8850     3.0150 H     1 <1>   0.0800 
 45 H       -8.6050   -12.0000     2.6960 H     1 <1>   0.0800 
 46 H       -9.4850   -11.4080     1.3020 H     1 <1>   0.0800 
@<TRIPOS>BOND
  1   1   2  1   
  2   2   3  ar  
  3   2   4  ar  
  4   3   5  1   
  5   3   6  ar  
  6   4   7  ar  
  7   4  28  1   
  8   5   8  1   
  9   6   9  ar  
 10   6  29  1   
 11   7   9  ar  
 12   7  30  1   
 13   8  31  1   
 14   8  32  1   
 15   8  33  1   
 16   9  10  1   
 17  10  11  1   
 18  10  12  2   
 19  11  13  1   
 20  12  14  1   
 21  12  15  1   
 22  13  14  2   
 23  14  16  1   
 24  15  17  ar  
 25  15  18  ar  
 26  16  19  1   
 27  16  34  1   
 28  19  20  1   
 29  19  35  1   
 30  19  36  1   
 31  20  21  1   
 32  20  37  1   
 33  20  38  1   
 34  21  22  2   
 35  21  23  am  
 36  23  24  1   
 37  23  25  1   
 38  24  26  1   
 39  24  39  1   
 40  24  40  1   
 41  25  27  1   
 42  25  41  1   
 43  25  42  1   
 44  26  27  1   
 45  26  43  1   
 46  26  44  1   
 47  27  45  1   
 48  27  46  1   
@<TRIPOS>SUBSTRUCTURE
  1 ****  12 GROUP 4 **** **** 0

# MOE 2024.06 (io_trps.svl 2023.06)
