@<TRIPOS>MOLECULE
NONAME
41 43 1 0 0 
SMALL
USER_CHARGES


@<TRIPOS>ATOM
  1 O        4.1200    -1.8400    -1.6330 O.2   1 <1>  -0.5700 
  2 C        3.1700    -1.5960    -0.9110 C.2   1 <1>   0.5440 
  3 N        3.0740    -0.3040    -0.4610 N.am  1 <1>  -0.6600 
  4 C        2.2490    -2.6320    -0.4740 C.ar  1 <1>   0.0860 
  5 C        3.6010    -0.0300     0.9220 C.3   1 <1>   0.2200 
  6 C        3.0810     0.8000    -1.4730 C.3   1 <1>   0.1400 
  7 C        0.9980    -2.3220     0.0630 C.ar  1 <1>  -0.1500 
  8 C        2.5900    -3.9840    -0.5710 C.ar  1 <1>  -0.1500 
  9 C        3.0520     1.2700     1.5310 C.3   1 <1>   0.1200 
 10 C        5.1540    -0.0340     0.9400 C.3   1 <1>   0.3430 
 11 C        4.0890     1.9330    -1.2010 C.3   1 <1>  -0.0800 
 12 C        0.1440    -3.3200     0.4970 C.ar  1 <1>   0.0820 
 13 C        1.7360    -4.9820    -0.1370 C.ar  1 <1>  -0.1500 
 14 O        3.8460     2.3580     1.1660 O.3   1 <1>  -0.5600 
 15 N        5.7580     0.1400    -0.4280 N.4   1 <1>  -0.9590 
 16 C        3.6090     2.8860    -0.0950 C.3   1 <1>   0.1200 
 17 C        5.5600     1.5040    -1.0120 C.3   1 <1>   0.3430 
 18 O       -1.0560    -3.0140     1.0130 O.3   1 <1>  -0.5330 
 19 C        0.5090    -4.6500     0.4030 C.ar  1 <1>  -0.1500 
 20 C        7.1880    -0.2720    -0.4580 C.3   1 <1>   0.2630 
 21 H        3.2660    -0.8270     1.5630 H     1 <1>   0.0800 
 22 H        3.2900     0.3820    -2.4450 H     1 <1>   0.0800 
 23 H        2.0880     1.2150    -1.5250 H     1 <1>   0.0800 
 24 H        0.6920    -1.2950     0.1380 H     1 <1>   0.1500 
 25 H        3.5410    -4.2580    -0.9960 H     1 <1>   0.1500 
 26 H        3.1020     1.2050     2.6040 H     1 <1>   0.0800 
 27 H        2.0260     1.4450     1.2520 H     1 <1>   0.0800 
 28 H        5.4730    -0.9800     1.3420 H     1 <1>   0.0800 
 29 H        5.5100     0.7360     1.6040 H     1 <1>   0.0800 
 30 H        4.0780     2.5390    -2.0890 H     1 <1>   0.0800 
 31 H        2.0240    -6.0170    -0.2210 H     1 <1>   0.1500 
 32 H        5.2150    -0.5210    -1.0320 H     1 <1>   0.4500 
 33 H        2.5600     3.1150    -0.1890 H     1 <1>   0.0800 
 34 H        4.1550     3.8120    -0.1500 H     1 <1>   0.0800 
 35 H        6.0590     2.2340    -0.3960 H     1 <1>   0.0800 
 36 H        6.0320     1.5220    -1.9810 H     1 <1>   0.0800 
 37 H       -1.2770    -2.0670     0.9820 H     1 <1>   0.4500 
 38 H       -0.1680    -5.4130     0.7460 H     1 <1>   0.1500 
 39 H        7.7780     0.3730     0.1710 H     1 <1>   0.0800 
 40 H        7.5680    -0.2210    -1.4650 H     1 <1>   0.0800 
 41 H        7.2890    -1.2870    -0.1090 H     1 <1>   0.0800 
@<TRIPOS>BOND
  1   1   2  2   
  2   2   3  am  
  3   2   4  1   
  4   3   5  1   
  5   3   6  1   
  6   4   7  ar  
  7   4   8  ar  
  8   5   9  1   
  9   5  10  1   
 10   5  21  1   
 11   6  11  1   
 12   6  22  1   
 13   6  23  1   
 14   7  12  ar  
 15   7  24  1   
 16   8  13  ar  
 17   8  25  1   
 18   9  14  1   
 19   9  26  1   
 20   9  27  1   
 21  10  15  1   
 22  10  28  1   
 23  10  29  1   
 24  11  16  1   
 25  11  17  1   
 26  11  30  1   
 27  12  18  1   
 28  12  19  ar  
 29  13  19  ar  
 30  13  31  1   
 31  14  16  1   
 32  15  17  1   
 33  15  20  1   
 34  15  32  1   
 35  16  33  1   
 36  16  34  1   
 37  17  35  1   
 38  17  36  1   
 39  18  37  1   
 40  19  38  1   
 41  20  39  1   
 42  20  40  1   
 43  20  41  1   
@<TRIPOS>SUBSTRUCTURE
  1 ****   3 GROUP 4 **** **** 0

# MOE 2024.06 (io_trps.svl 2023.06)
