@<TRIPOS>MOLECULE
NONAME
59 61 1 0 0 
SMALL
USER_CHARGES


@<TRIPOS>ATOM
  1 O       -0.8040     0.4500    -0.1720 O.3   1 <1>  -0.3630 
  2 C       -1.9160     1.2130     0.0180 C.ar  1 <1>   0.0820 
  3 C        0.4850     0.9920     0.0550 C.3   1 <1>   0.1200 
  4 C       -3.1290     0.7180    -0.4560 C.ar  1 <1>  -0.1440 
  5 C       -1.8860     2.4470     0.6630 C.ar  1 <1>  -0.1500 
  6 C        1.5390    -0.0170    -0.4110 C.3   1 <1>   0.1100 
  7 C       -4.2900     1.4590    -0.2940 C.ar  1 <1>  -0.1500 
  8 C       -3.1830    -0.6300    -1.1420 C.3   1 <1>   0.4870 
  9 C       -3.0500     3.1770     0.8230 C.ar  1 <1>  -0.1500 
 10 N        2.9090     0.4620    -0.1290 N.3   1 <1>  -0.8100 
 11 C       -4.2500     2.6850     0.3440 C.ar  1 <1>  -0.1500 
 12 N       -2.8040    -1.6630    -0.1490 N.4   1 <1>  -0.9590 
 13 C        3.8860    -0.6530    -0.1830 C.3   1 <1>   0.1100 
 14 C        3.3320     1.5540    -1.0480 C.3   1 <1>   0.1100 
 15 C       -2.5990    -3.0110    -0.6870 C.3   1 <1>   0.4230 
 16 C       -3.7540    -1.7720     0.9850 C.3   1 <1>   0.3430 
 17 C        5.3260    -0.2040     0.1700 C.3   1 <1>   0.3430 
 18 C        4.8100     1.9780    -0.8460 C.3   1 <1>   0.3430 
 19 C       -2.6310    -3.8960     0.5520 C.3   1 <1>  -0.1600 
 20 C       -1.2750    -3.0850    -1.4390 C.3   1 <1>  -0.2400 
 21 C       -3.5520    -3.1770     1.5400 C.3   1 <1>  -0.1600 
 22 N        5.4200     1.2870     0.3350 N.4   1 <1>  -0.9590 
 23 C        6.7790     1.7870     0.6580 C.3   1 <1>   0.3430 
 24 C        7.1780     1.3320     2.0560 C.3   1 <1>  -0.2400 
 25 H        0.5930     1.1800     1.1090 H     1 <1>   0.0800 
 26 H        0.5630     1.9090    -0.5020 H     1 <1>   0.0800 
 27 H       -0.9750     2.8620     1.0530 H     1 <1>   0.1500 
 28 H        1.4250    -0.2080    -1.4650 H     1 <1>   0.0800 
 29 H        1.3730    -0.9350     0.1270 H     1 <1>   0.0800 
 30 H       -5.2360     1.0970    -0.6610 H     1 <1>   0.1500 
 31 H       -2.4860    -0.6320    -1.9640 H     1 <1>   0.0800 
 32 H       -4.1720    -0.8190    -1.5240 H     1 <1>   0.0800 
 33 H       -3.0240     4.1320     1.3210 H     1 <1>   0.1500 
 34 H       -5.1520     3.2620     0.4680 H     1 <1>   0.1500 
 35 H       -1.9070    -1.3350     0.2370 H     1 <1>   0.4500 
 36 H        3.8860    -1.0890    -1.1690 H     1 <1>   0.0800 
 37 H        3.5910    -1.4250     0.5080 H     1 <1>   0.0800 
 38 H        2.7110     2.4180    -0.8880 H     1 <1>   0.0800 
 39 H        3.1980     1.2470    -2.0720 H     1 <1>   0.0800 
 40 H       -3.4210    -3.2740    -1.3350 H     1 <1>   0.0800 
 41 H       -4.7670    -1.6660     0.6300 H     1 <1>   0.0800 
 42 H       -3.5580    -1.0160     1.7290 H     1 <1>   0.0800 
 43 H        5.9980    -0.5340    -0.6040 H     1 <1>   0.0800 
 44 H        5.6210    -0.6900     1.0850 H     1 <1>   0.0800 
 45 H        4.8510     3.0460    -0.7130 H     1 <1>   0.0800 
 46 H        5.3690     1.7380    -1.7360 H     1 <1>   0.0800 
 47 H       -1.6440    -3.9840     0.9740 H     1 <1>   0.0800 
 48 H       -2.9870    -4.8830     0.3120 H     1 <1>   0.0800 
 49 H       -0.4560    -2.7840    -0.8110 H     1 <1>   0.0800 
 50 H       -1.2980    -2.4680    -2.3190 H     1 <1>   0.0800 
 51 H       -1.1010    -4.0990    -1.7550 H     1 <1>   0.0800 
 52 H       -4.5040    -3.6730     1.6160 H     1 <1>   0.0800 
 53 H       -3.1110    -3.1360     2.5210 H     1 <1>   0.0800 
 54 H        4.7760     1.4970     1.1140 H     1 <1>   0.4500 
 55 H        6.7820     2.8660     0.6290 H     1 <1>   0.0800 
 56 H        7.4910     1.4270    -0.0680 H     1 <1>   0.0800 
 57 H        6.4590     1.6610     2.7850 H     1 <1>   0.0800 
 58 H        8.1290     1.7670     2.3090 H     1 <1>   0.0800 
 59 H        7.2860     0.2640     2.1070 H     1 <1>   0.0800 
@<TRIPOS>BOND
  1   1   2  1   
  2   1   3  1   
  3   2   4  ar  
  4   2   5  ar  
  5   3   6  1   
  6   3  25  1   
  7   3  26  1   
  8   4   7  ar  
  9   4   8  1   
 10   5   9  ar  
 11   5  27  1   
 12   6  10  1   
 13   6  28  1   
 14   6  29  1   
 15   7  11  ar  
 16   7  30  1   
 17   8  12  1   
 18   8  31  1   
 19   8  32  1   
 20   9  11  ar  
 21   9  33  1   
 22  10  13  1   
 23  10  14  1   
 24  11  34  1   
 25  12  15  1   
 26  12  16  1   
 27  12  35  1   
 28  13  17  1   
 29  13  36  1   
 30  13  37  1   
 31  14  18  1   
 32  14  38  1   
 33  14  39  1   
 34  15  19  1   
 35  15  20  1   
 36  15  40  1   
 37  16  21  1   
 38  16  41  1   
 39  16  42  1   
 40  17  22  1   
 41  17  43  1   
 42  17  44  1   
 43  18  22  1   
 44  18  45  1   
 45  18  46  1   
 46  19  21  1   
 47  19  47  1   
 48  19  48  1   
 49  20  49  1   
 50  20  50  1   
 51  20  51  1   
 52  21  52  1   
 53  21  53  1   
 54  22  23  1   
 55  22  54  1   
 56  23  24  1   
 57  23  55  1   
 58  23  56  1   
 59  24  57  1   
 60  24  58  1   
 61  24  59  1   
@<TRIPOS>SUBSTRUCTURE
  1 ****   3 GROUP 4 **** **** 0

# MOE 2024.06 (io_trps.svl 2023.06)
