@<TRIPOS>MOLECULE
Untitled Document
40 42 1 0 0 
SMALL
USER_CHARGES


@<TRIPOS>ATOM
  1 S       -0.0010     0.1620     0.6550 S.3   1 <1>  -0.0800 
  2 C        1.7330     0.2220     0.3400 C.2   1 <1>   0.4420 
  3 C       -0.0700    -1.4250    -0.0740 C.ar  1 <1>   0.0400 
  4 N        2.1970    -0.8220    -0.2370 N.2   1 <1>  -0.5650 
  5 N        2.3710     1.3670     0.7550 N.am  1 <1>  -0.4940 
  6 C       -1.1620    -2.2630    -0.2500 C.ar  1 <1>   0.2270 
  7 C        1.2070    -1.7610    -0.4820 C.ar  1 <1>   0.2270 
  8 C        3.6750     1.7280     0.6150 C.2   1 <1>   0.6900 
  9 N       -2.4880    -2.0350     0.1190 N.2   1 <1>  -0.5650 
 10 C       -0.9010    -3.4730    -0.8670 C.ar  1 <1>   0.0400 
 11 C        1.4210    -2.9950    -1.1020 C.ar  1 <1>  -0.1500 
 12 O        4.4690     1.0770    -0.0300 O.2   1 <1>  -0.5700 
 13 N        4.0960     2.8740     1.2130 N.am  1 <1>  -0.7300 
 14 C       -3.2340    -3.0140    -0.1910 C.2   1 <1>   0.1980 
 15 S       -2.4090    -4.3540    -0.9820 S.3   1 <1>  -0.0800 
 16 C        0.3610    -3.8650    -1.3000 C.ar  1 <1>  -0.1500 
 17 C        5.5150     3.3300     1.2620 C.3   1 <1>   0.1400 
 18 C       -4.7210    -3.1630     0.0320 C.3   1 <1>  -0.0600 
 19 C        6.1250     3.4930    -0.1500 C.3   1 <1>   0.3430 
 20 N        7.4620     2.8190    -0.3110 N.4   1 <1>  -0.9590 
 21 C        8.0910     3.2280    -1.6030 C.3   1 <1>   0.2630 
 22 C        7.3150     1.3250    -0.2810 C.3   1 <1>   0.2630 
 23 H        1.7710     2.0400     1.2130 H     1 <1>   0.3700 
 24 H        2.4170    -3.2480    -1.4160 H     1 <1>   0.1500 
 25 H        3.4690     3.3260     1.8820 H     1 <1>   0.3700 
 26 H        0.5000    -4.8210    -1.7740 H     1 <1>   0.1500 
 27 H        6.0800     2.6170     1.8380 H     1 <1>   0.0800 
 28 H        5.5560     4.2780     1.7700 H     1 <1>   0.0800 
 29 H       -5.1040    -2.2850     0.5190 H     1 <1>   0.0800 
 30 H       -4.9120    -4.0190     0.6530 H     1 <1>   0.0800 
 31 H       -5.2210    -3.2870    -0.9100 H     1 <1>   0.0800 
 32 H        6.2290     4.5450    -0.3550 H     1 <1>   0.0800 
 33 H        5.4380     3.0830    -0.8730 H     1 <1>   0.0800 
 34 H        8.0800     3.1050     0.4630 H     1 <1>   0.4500 
 35 H        7.4670     2.9340    -2.4310 H     1 <1>   0.0800 
 36 H        9.0550     2.7580    -1.7150 H     1 <1>   0.0800 
 37 H        8.2250     4.2980    -1.6340 H     1 <1>   0.0800 
 38 H        6.6680     0.9970    -1.0800 H     1 <1>   0.0800 
 39 H        6.8750     1.0050     0.6500 H     1 <1>   0.0800 
 40 H        8.2730     0.8460    -0.3930 H     1 <1>   0.0800 
@<TRIPOS>BOND
  1   1   2  1   
  2   1   3  1   
  3   2   4  2   
  4   2   5  1   
  5   3   6  ar  
  6   3   7  ar  
  7   4   7  1   
  8   5   8  am  
  9   5  23  1   
 10   6   9  1   
 11   6  10  ar  
 12   7  11  ar  
 13   8  12  2   
 14   8  13  am  
 15   9  14  2   
 16  10  15  1   
 17  10  16  ar  
 18  11  16  ar  
 19  11  24  1   
 20  13  17  1   
 21  13  25  1   
 22  14  15  1   
 23  14  18  1   
 24  16  26  1   
 25  17  19  1   
 26  17  27  1   
 27  17  28  1   
 28  18  29  1   
 29  18  30  1   
 30  18  31  1   
 31  19  20  1   
 32  19  32  1   
 33  19  33  1   
 34  20  21  1   
 35  20  22  1   
 36  20  34  1   
 37  21  35  1   
 38  21  36  1   
 39  21  37  1   
 40  22  38  1   
 41  22  39  1   
 42  22  40  1   
@<TRIPOS>SUBSTRUCTURE
  1 ****   4 GROUP 4 **** **** 0

# MOE 2024.06 (io_trps.svl 2023.06)
