@<TRIPOS>MOLECULE
NONAME
48 51 1 0 0 
SMALL
USER_CHARGES


@<TRIPOS>ATOM
  1 O        0.3740    -0.7340     1.6970 O.3   1 <1>  -0.5600 
  2 C        0.4270    -1.5370     0.5540 C.3   1 <1>   0.2000 
  3 C       -0.8940    -0.5870     2.2530 C.3   1 <1>   0.0400 
  4 C        1.7620    -1.3770    -0.1950 C.3   1 <1>   0.0000 
  5 C        0.3260    -3.0240     0.9100 C.3   1 <1>  -0.1600 
  6 C        2.9550    -1.3050     0.7970 C.3   1 <1>   0.2090 
  7 C        1.7600    -0.1280    -1.1010 C.3   1 <1>  -0.1600 
  8 C        1.7990    -2.6790    -1.0150 C.3   1 <1>  -0.1600 
  9 C        1.2200    -3.7600    -0.0980 C.3   1 <1>  -0.1600 
 10 N        4.2570    -1.0270     0.1120 N.pl3 1 <1>  -0.8380 
 11 C        3.1130     0.0470    -1.8100 C.3   1 <1>  -0.1600 
 12 C        5.3150    -1.9260     0.1780 C.ar  1 <1>   0.4100 
 13 C        4.2720     0.1350    -0.8140 C.3   1 <1>   0.2090 
 14 N        5.0370    -3.1960    -0.0390 N.ar  1 <1>  -0.3100 
 15 C        6.6350    -1.4770     0.4530 C.ar  1 <1>   0.0000 
 16 N        6.0050    -4.1000    -0.1040 N.ar  1 <1>  -0.3100 
 17 C        7.6590    -2.4290     0.3420 C.ar  1 <1>   0.0000 
 18 C        6.9820    -0.1660     0.8500 C.ar  1 <1>  -0.1500 
 19 C        7.2480    -3.7450     0.0580 C.ar  1 <1>   0.1670 
 20 C        8.9980    -2.0160     0.5400 C.ar  1 <1>  -0.1500 
 21 C        8.2820     0.2070     1.0540 C.ar  1 <1>  -0.1500 
 22 C        8.2790    -4.8550    -0.0640 C.3   1 <1>  -0.0970 
 23 C        9.3050    -0.7290     0.8850 C.ar  1 <1>  -0.1500 
 24 H       -0.3800    -1.2630    -0.1050 H     1 <1>   0.0800 
 25 H       -0.8100     0.0630     3.1060 H     1 <1>   0.0800 
 26 H       -1.2620    -1.5480     2.5670 H     1 <1>   0.0800 
 27 H       -1.5530    -0.1460     1.5250 H     1 <1>   0.0800 
 28 H        0.6940    -3.1950     1.9070 H     1 <1>   0.0800 
 29 H       -0.6920    -3.3610     0.8350 H     1 <1>   0.0800 
 30 H        3.0260    -2.2190     1.3600 H     1 <1>   0.0800 
 31 H        2.7840    -0.5100     1.5010 H     1 <1>   0.0800 
 32 H        0.9750    -0.1980    -1.8330 H     1 <1>   0.0800 
 33 H        1.5670     0.7400    -0.4940 H     1 <1>   0.0800 
 34 H        1.1630    -2.5820    -1.8770 H     1 <1>   0.0800 
 35 H        2.7870    -2.9300    -1.3550 H     1 <1>   0.0800 
 36 H        2.0230    -4.2560     0.4230 H     1 <1>   0.0800 
 37 H        0.6690    -4.4920    -0.6630 H     1 <1>   0.0800 
 38 H        3.0940     0.9430    -2.4040 H     1 <1>   0.0800 
 39 H        3.2920    -0.7790    -2.4750 H     1 <1>   0.0800 
 40 H        4.1830     1.0390    -0.2370 H     1 <1>   0.0800 
 41 H        5.2050     0.1630    -1.3520 H     1 <1>   0.0800 
 42 H        6.1950     0.5490     1.0030 H     1 <1>   0.1500 
 43 H        9.7930    -2.7290     0.4230 H     1 <1>   0.1500 
 44 H        8.5300     1.2120     1.3480 H     1 <1>   0.1500 
 45 H        8.9580    -4.6380    -0.8680 H     1 <1>   0.0800 
 46 H        7.7990    -5.7950    -0.2710 H     1 <1>   0.0800 
 47 H        8.8270    -4.9490     0.8550 H     1 <1>   0.0800 
 48 H       10.3250    -0.4220     1.0370 H     1 <1>   0.1500 
@<TRIPOS>BOND
  1   1   2  1   
  2   1   3  1   
  3   2   4  1   
  4   2   5  1   
  5   2  24  1   
  6   3  25  1   
  7   3  26  1   
  8   3  27  1   
  9   4   6  1   
 10   4   7  1   
 11   4   8  1   
 12   5   9  1   
 13   5  28  1   
 14   5  29  1   
 15   6  10  1   
 16   6  30  1   
 17   6  31  1   
 18   7  11  1   
 19   7  32  1   
 20   7  33  1   
 21   8   9  1   
 22   8  34  1   
 23   8  35  1   
 24   9  36  1   
 25   9  37  1   
 26  10  12  1   
 27  10  13  1   
 28  11  13  1   
 29  11  38  1   
 30  11  39  1   
 31  12  14  ar  
 32  12  15  ar  
 33  13  40  1   
 34  13  41  1   
 35  14  16  ar  
 36  15  17  ar  
 37  15  18  ar  
 38  16  19  ar  
 39  17  19  ar  
 40  17  20  ar  
 41  18  21  ar  
 42  18  42  1   
 43  19  22  1   
 44  20  23  ar  
 45  20  43  1   
 46  21  23  ar  
 47  21  44  1   
 48  22  45  1   
 49  22  46  1   
 50  22  47  1   
 51  23  48  1   
@<TRIPOS>SUBSTRUCTURE
  1 ****  10 GROUP 4 **** **** 0

# MOE 2024.06 (io_trps.svl 2023.06)
