@<TRIPOS>MOLECULE
NONAME
52 54 1 0 0 
SMALL
USER_CHARGES


@<TRIPOS>ATOM
  1 O        1.9480    -1.5810     1.9550 O.2   1 <1>  -0.5700 
  2 C        1.9730    -0.6440     1.1700 C.2   1 <1>   0.5440 
  3 N        0.9350     0.2550     1.2050 N.am  1 <1>  -0.6600 
  4 C        3.0420    -0.5070     0.2140 C.ar  1 <1>   0.0860 
  5 C        0.1220     0.5100     2.4160 C.3   1 <1>   0.1400 
  6 C        0.7680     1.3460     0.2160 C.3   1 <1>   0.1400 
  7 C        2.9360    -0.9960    -1.1060 C.ar  1 <1>   0.4100 
  8 C        4.2050     0.1550     0.5770 C.ar  1 <1>  -0.1500 
  9 C       -0.3810     1.9390     2.2530 C.3   1 <1>  -0.1600 
 10 C       -0.3970     2.1740     0.7450 C.3   1 <1>  -0.1600 
 11 N        3.8790    -0.8060    -2.0270 N.ar  1 <1>  -0.6200 
 12 N        1.8410    -1.7360    -1.5370 N.pl3 1 <1>  -0.8380 
 13 C        5.1820     0.3260    -0.3760 C.ar  1 <1>  -0.1500 
 14 C        4.9660    -0.1640    -1.6510 C.ar  1 <1>   0.1600 
 15 C        1.5230    -2.9900    -0.8080 C.3   1 <1>   0.2090 
 16 C        1.4040    -1.6480    -2.9660 C.3   1 <1>   0.2090 
 17 C        0.1280    -2.8500    -0.1650 C.3   1 <1>   0.4230 
 18 C        0.1630    -2.4930    -3.3200 C.3   1 <1>  -0.1600 
 19 N        0.0650    -3.5370     1.1700 N.4   1 <1>  -0.9590 
 20 C       -0.9880    -3.2710    -1.1330 C.3   1 <1>  -0.1600 
 21 C       -1.0500    -2.3620    -2.3770 C.3   1 <1>  -0.1600 
 22 C        0.3180    -5.0080     1.1280 C.3   1 <1>   0.2630 
 23 C       -1.1780    -3.2090     1.9260 C.3   1 <1>   0.2630 
 24 H        0.7120     0.3970     3.3100 H     1 <1>   0.0800 
 25 H       -0.7060    -0.1750     2.4370 H     1 <1>   0.0800 
 26 H        0.5620     0.9500    -0.7650 H     1 <1>   0.0800 
 27 H        1.6640     1.9440     0.1850 H     1 <1>   0.0800 
 28 H        4.3330     0.5290     1.5790 H     1 <1>   0.1500 
 29 H        0.3190     2.6110     2.7190 H     1 <1>   0.0800 
 30 H       -1.3490     2.0790     2.7010 H     1 <1>   0.0800 
 31 H       -1.3140     1.8000     0.3240 H     1 <1>   0.0800 
 32 H       -0.2960     3.2140     0.4910 H     1 <1>   0.0800 
 33 H        6.1000     0.8350    -0.1410 H     1 <1>   0.1500 
 34 H        5.7310    -0.0200    -2.3960 H     1 <1>   0.1500 
 35 H        2.2660    -3.1480    -0.0470 H     1 <1>   0.0800 
 36 H        1.5640    -3.8320    -1.4760 H     1 <1>   0.0800 
 37 H        2.2170    -1.9530    -3.6040 H     1 <1>   0.0800 
 38 H        1.1980    -0.6140    -3.1870 H     1 <1>   0.0800 
 39 H       -0.0040    -1.7970     0.0240 H     1 <1>   0.0800 
 40 H        0.4450    -3.5250    -3.4270 H     1 <1>   0.0800 
 41 H       -0.1490    -2.1720    -4.2990 H     1 <1>   0.0800 
 42 H        0.8430    -3.0770     1.7000 H     1 <1>   0.4500 
 43 H       -1.9400    -3.1990    -0.6420 H     1 <1>   0.0800 
 44 H       -0.8470    -4.2910    -1.4450 H     1 <1>   0.0800 
 45 H       -1.9310    -2.6340    -2.9350 H     1 <1>   0.0800 
 46 H       -1.1690    -1.3330    -2.0820 H     1 <1>   0.0800 
 47 H       -0.4580    -5.5060     0.5690 H     1 <1>   0.0800 
 48 H        0.3350    -5.4100     2.1280 H     1 <1>   0.0800 
 49 H        1.2680    -5.2140     0.6630 H     1 <1>   0.0800 
 50 H       -2.0350    -3.6680     1.4620 H     1 <1>   0.0800 
 51 H       -1.3250    -2.1420     1.9480 H     1 <1>   0.0800 
 52 H       -1.1000    -3.5660     2.9400 H     1 <1>   0.0800 
@<TRIPOS>BOND
  1   1   2  2   
  2   2   3  am  
  3   2   4  1   
  4   3   5  1   
  5   3   6  1   
  6   4   7  ar  
  7   4   8  ar  
  8   5   9  1   
  9   5  24  1   
 10   5  25  1   
 11   6  10  1   
 12   6  26  1   
 13   6  27  1   
 14   7  11  ar  
 15   7  12  1   
 16   8  13  ar  
 17   8  28  1   
 18   9  10  1   
 19   9  29  1   
 20   9  30  1   
 21  10  31  1   
 22  10  32  1   
 23  11  14  ar  
 24  12  15  1   
 25  12  16  1   
 26  13  14  ar  
 27  13  33  1   
 28  14  34  1   
 29  15  17  1   
 30  15  35  1   
 31  15  36  1   
 32  16  18  1   
 33  16  37  1   
 34  16  38  1   
 35  17  19  1   
 36  17  20  1   
 37  17  39  1   
 38  18  21  1   
 39  18  40  1   
 40  18  41  1   
 41  19  22  1   
 42  19  23  1   
 43  19  42  1   
 44  20  21  1   
 45  20  43  1   
 46  20  44  1   
 47  21  45  1   
 48  21  46  1   
 49  22  47  1   
 50  22  48  1   
 51  22  49  1   
 52  23  50  1   
 53  23  51  1   
 54  23  52  1   
@<TRIPOS>SUBSTRUCTURE
  1 ****   2 GROUP 4 **** **** 0

# MOE 2024.06 (io_trps.svl 2023.06)
