@<TRIPOS>MOLECULE
NONAME
52 55 1 0 0 
SMALL
USER_CHARGES


@<TRIPOS>ATOM
  1 O        0.5430     0.2200    -0.8550 O.2   1 <1>  -0.5700 
  2 C        1.7190    -0.0320    -0.7360 C.2   1 <1>   0.5690 
  3 N        2.1630    -1.1540    -0.0890 N.am  1 <1>  -0.6600 
  4 C        2.7140     0.9460    -1.3320 C.3   1 <1>  -0.0990 
  5 C        3.5980    -1.5040     0.0160 C.3   1 <1>   0.1400 
  6 C        1.2200    -2.1090     0.5570 C.3   1 <1>   0.0600 
  7 C        3.5830     1.6390    -0.2650 C.3   1 <1>  -0.1600 
  8 C        4.3400    -0.5130     0.9250 C.3   1 <1>  -0.1600 
  9 C        4.7860     0.8290     0.2870 C.3   1 <1>   0.0000 
 10 C        5.8310     0.5860    -0.8450 C.3   1 <1>  -0.1600 
 11 C        5.4310     1.6630     1.4240 C.3   1 <1>  -0.1600 
 12 C        7.2380     1.1050    -0.5350 C.3   1 <1>   0.2090 
 13 C        6.2050     2.8900     0.9230 C.3   1 <1>   0.2090 
 14 N        7.1580     2.5390    -0.1710 N.pl3 1 <1>  -0.8210 
 15 C        8.3460     3.2880    -0.2200 C.2   1 <1>   0.3720 
 16 N        9.5050     2.7440    -0.3820 N.2   1 <1>  -0.4100 
 17 C        8.4630     4.6760    -0.1110 C.2   1 <1>  -0.2330 
 18 O       10.3640     3.7280    -0.3810 O.3   1 <1>  -0.0190 
 19 C        9.7980     4.9020    -0.2240 C.2   1 <1>   0.0870 
 20 C        7.3980     5.6050     0.0840 C.2   1 <1>   1.0330 
 21 C       10.6170     6.0920    -0.1930 C.ar  1 <1>   0.0530 
 22 O        6.9310     5.8010     1.2210 O.co2 1 <1>  -0.9000 
 23 O        6.9450     6.2680    -0.8660 O.co2 1 <1>  -0.9000 
 24 C       10.1170     7.3530    -0.5190 C.ar  1 <1>  -0.1500 
 25 C       11.9650     6.0200     0.1650 C.ar  1 <1>  -0.1500 
 26 C       10.9150     8.4820    -0.4860 C.ar  1 <1>  -0.1500 
 27 C       12.7710     7.1430     0.1990 C.ar  1 <1>  -0.1500 
 28 C       12.2460     8.3810    -0.1260 C.ar  1 <1>  -0.1500 
 29 H        2.1510     1.7040    -1.8470 H     1 <1>   0.0800 
 30 H        3.3130     0.4470    -2.0680 H     1 <1>   0.0800 
 31 H        4.0320    -1.5380    -0.9670 H     1 <1>   0.0800 
 32 H        3.6850    -2.4910     0.4380 H     1 <1>   0.0800 
 33 H        0.2050    -1.7600     0.4760 H     1 <1>   0.0800 
 34 H        1.4640    -2.2110     1.6000 H     1 <1>   0.0800 
 35 H        1.2910    -3.0700     0.0780 H     1 <1>   0.0800 
 36 H        2.9400     1.9320     0.5480 H     1 <1>   0.0800 
 37 H        3.9590     2.5500    -0.7010 H     1 <1>   0.0800 
 38 H        5.2230    -1.0140     1.2810 H     1 <1>   0.0800 
 39 H        3.7250    -0.3200     1.7870 H     1 <1>   0.0800 
 40 H        5.5250     1.0810    -1.7480 H     1 <1>   0.0800 
 41 H        5.9200    -0.4570    -1.0780 H     1 <1>   0.0800 
 42 H        6.1200     1.0590     1.9860 H     1 <1>   0.0800 
 43 H        4.6800     1.9960     2.1180 H     1 <1>   0.0800 
 44 H        7.8620     0.9910    -1.4060 H     1 <1>   0.0800 
 45 H        7.6830     0.5530     0.2740 H     1 <1>   0.0800 
 46 H        6.7440     3.3280     1.7470 H     1 <1>   0.0800 
 47 H        5.5190     3.6330     0.5550 H     1 <1>   0.0800 
 48 H        9.0860     7.4570    -0.8090 H     1 <1>   0.1500 
 49 H       12.3850     5.0650     0.4250 H     1 <1>   0.1500 
 50 H       10.4910     9.4370    -0.7410 H     1 <1>   0.1500 
 51 H       13.8060     7.0550     0.4810 H     1 <1>   0.1500 
 52 H       12.8670     9.2590    -0.1000 H     1 <1>   0.1500 
@<TRIPOS>BOND
  1   1   2  2   
  2   2   3  am  
  3   2   4  1   
  4   3   5  1   
  5   3   6  1   
  6   4   7  1   
  7   4  29  1   
  8   4  30  1   
  9   5   8  1   
 10   5  31  1   
 11   5  32  1   
 12   6  33  1   
 13   6  34  1   
 14   6  35  1   
 15   7   9  1   
 16   7  36  1   
 17   7  37  1   
 18   8   9  1   
 19   8  38  1   
 20   8  39  1   
 21   9  10  1   
 22   9  11  1   
 23  10  12  1   
 24  10  40  1   
 25  10  41  1   
 26  11  13  1   
 27  11  42  1   
 28  11  43  1   
 29  12  14  1   
 30  12  44  1   
 31  12  45  1   
 32  13  14  1   
 33  13  46  1   
 34  13  47  1   
 35  14  15  1   
 36  15  16  2   
 37  15  17  1   
 38  16  18  1   
 39  17  19  2   
 40  17  20  1   
 41  18  19  1   
 42  19  21  1   
 43  20  22  ar  
 44  20  23  ar  
 45  21  24  ar  
 46  21  25  ar  
 47  24  26  ar  
 48  24  48  1   
 49  25  27  ar  
 50  25  49  1   
 51  26  28  ar  
 52  26  50  1   
 53  27  28  ar  
 54  27  51  1   
 55  28  52  1   
@<TRIPOS>SUBSTRUCTURE
  1 ****  14 GROUP 4 **** **** 0

# MOE 2024.06 (io_trps.svl 2023.06)
