@<TRIPOS>MOLECULE
NONAME
48 50 1 0 0 
SMALL
USER_CHARGES


@<TRIPOS>ATOM
  1 O       -1.0930    -0.9070     0.3740 O.3   1 <1>  -0.5600 
  2 C       -1.5630    -0.1240     1.4260 C.3   1 <1>   0.1200 
  3 C       -1.0660    -0.3300    -0.8910 C.3   1 <1>   0.1200 
  4 C       -3.0600     0.2410     1.3090 C.3   1 <1>   0.4230 
  5 C       -2.4730    -0.2980    -1.5090 C.3   1 <1>  -0.0800 
  6 N       -3.2750     1.3590     0.3020 N.4   1 <1>  -0.9590 
  7 C       -3.9600    -1.0220     1.1480 C.3   1 <1>   0.2090 
  8 C       -3.2750    -1.5900    -1.2670 C.3   1 <1>   0.2090 
  9 C       -3.2870     0.9530    -1.1480 C.3   1 <1>   0.3430 
 10 C       -4.5610     2.0590     0.5960 C.3   1 <1>   0.2630 
 11 N       -4.3400    -1.3920    -0.2480 N.pl3 1 <1>  -0.8380 
 12 C       -5.6670    -1.4840    -0.5990 C.ar  1 <1>   0.4100 
 13 N       -6.2870    -0.3360    -0.7860 N.ar  1 <1>  -0.6200 
 14 C       -6.3210    -2.7010    -0.7480 C.ar  1 <1>  -0.1430 
 15 C       -7.5550    -0.4240    -1.1410 C.ar  1 <1>   0.4770 
 16 C       -7.6400    -2.6480    -1.1130 C.ar  1 <1>   0.1600 
 17 C       -5.6480    -4.0490    -0.5110 C.3   1 <1>  -0.0170 
 18 N       -8.2750    -1.5120    -1.3170 N.ar  1 <1>  -0.6200 
 19 C       -8.2800     0.8800    -1.3690 C.3   1 <1>  -0.0970 
 20 C       -5.7550    -4.4570     0.9630 C.3   1 <1>  -0.1600 
 21 C       -5.0680    -5.8000     1.2250 C.3   1 <1>  -0.2400 
 22 H       -1.4170    -0.7040     2.3200 H     1 <1>   0.0800 
 23 H       -0.9510     0.7570     1.5040 H     1 <1>   0.0800 
 24 H       -0.6170     0.6470    -0.8360 H     1 <1>   0.0800 
 25 H       -0.4300    -0.9570    -1.4940 H     1 <1>   0.0800 
 26 H       -3.3090     0.6450     2.2750 H     1 <1>   0.0800 
 27 H       -2.3200    -0.2460    -2.5720 H     1 <1>   0.0800 
 28 H       -2.5040     2.0250     0.4230 H     1 <1>   0.4500 
 29 H       -4.8640    -0.8550     1.7080 H     1 <1>   0.0800 
 30 H       -3.4690    -1.8650     1.6040 H     1 <1>   0.0800 
 31 H       -2.6270    -2.3960    -0.9630 H     1 <1>   0.0800 
 32 H       -3.7430    -1.8870    -2.1910 H     1 <1>   0.0800 
 33 H       -4.3040     0.7720    -1.4550 H     1 <1>   0.0800 
 34 H       -2.9270     1.7790    -1.7380 H     1 <1>   0.0800 
 35 H       -5.3840     1.3680     0.5250 H     1 <1>   0.0800 
 36 H       -4.7240     2.8580    -0.1090 H     1 <1>   0.0800 
 37 H       -4.5470     2.4740     1.5900 H     1 <1>   0.0800 
 38 H       -8.2040    -3.5570    -1.2420 H     1 <1>   0.1500 
 39 H       -6.1180    -4.7980    -1.1240 H     1 <1>   0.0800 
 40 H       -4.6140    -4.0050    -0.8000 H     1 <1>   0.0800 
 41 H       -8.9950     0.7660    -2.1640 H     1 <1>   0.0800 
 42 H       -7.5870     1.6550    -1.6380 H     1 <1>   0.0800 
 43 H       -8.7990     1.1600    -0.4720 H     1 <1>   0.0800 
 44 H       -5.3000    -3.7000     1.5780 H     1 <1>   0.0800 
 45 H       -6.7930    -4.5280     1.2400 H     1 <1>   0.0800 
 46 H       -4.0210    -5.7440     0.9800 H     1 <1>   0.0800 
 47 H       -5.5210    -6.5780     0.6360 H     1 <1>   0.0800 
 48 H       -5.1600    -6.0640     2.2640 H     1 <1>   0.0800 
@<TRIPOS>BOND
  1   1   2  1   
  2   1   3  1   
  3   2   4  1   
  4   2  22  1   
  5   2  23  1   
  6   3   5  1   
  7   3  24  1   
  8   3  25  1   
  9   4   6  1   
 10   4   7  1   
 11   4  26  1   
 12   5   8  1   
 13   5   9  1   
 14   5  27  1   
 15   6   9  1   
 16   6  10  1   
 17   6  28  1   
 18   7  11  1   
 19   7  29  1   
 20   7  30  1   
 21   8  11  1   
 22   8  31  1   
 23   8  32  1   
 24   9  33  1   
 25   9  34  1   
 26  10  35  1   
 27  10  36  1   
 28  10  37  1   
 29  11  12  1   
 30  12  13  ar  
 31  12  14  ar  
 32  13  15  ar  
 33  14  16  ar  
 34  14  17  1   
 35  15  18  ar  
 36  15  19  1   
 37  16  18  ar  
 38  16  38  1   
 39  17  20  1   
 40  17  39  1   
 41  17  40  1   
 42  19  41  1   
 43  19  42  1   
 44  19  43  1   
 45  20  21  1   
 46  20  44  1   
 47  20  45  1   
 48  21  46  1   
 49  21  47  1   
 50  21  48  1   
@<TRIPOS>SUBSTRUCTURE
  1 ****  11 GROUP 4 **** **** 0

# MOE 2024.06 (io_trps.svl 2023.06)
