@<TRIPOS>MOLECULE
NONAME
53 54 1 0 0 
SMALL
USER_CHARGES


@<TRIPOS>ATOM
  1 O        0.5140    -0.0660     0.7560 O.2   1 <1>  -0.5700 
  2 C        1.5010    -0.4790     0.1870 C.2   1 <1>   0.5690 
  3 N        2.5890     0.2940    -0.1040 N.am  1 <1>  -0.4930 
  4 C        1.4700    -1.9580    -0.2320 C.3   1 <1>   0.4040 
  5 C        2.7500     1.6780     0.1610 C.2   1 <1>   0.0630 
  6 N        0.0610    -2.5080    -0.3310 N.4   1 <1>  -0.9590 
  7 C        3.1430     2.6510    -0.7600 C.2   1 <1>   0.1080 
  8 C        2.5900     2.3480     1.3240 C.2   1 <1>  -0.3320 
  9 C        0.0370    -4.0020    -0.2370 C.3   1 <1>   0.3430 
 10 C       -0.6500    -1.9670    -1.5340 C.3   1 <1>   0.2630 
 11 N        3.2170     3.8270    -0.2290 N.2   1 <1>  -0.7070 
 12 C        3.4580     2.4240    -2.2220 C.3   1 <1>  -0.0590 
 13 N        2.8660     3.6520     1.0570 N.pl3 1 <1>   0.3140 
 14 C        2.1920     1.8350     2.7010 C.3   1 <1>  -0.0600 
 15 C       -1.3720    -4.5550    -0.0170 C.3   1 <1>   0.0210 
 16 C        2.8160     4.8000     1.9890 C.3   1 <1>   0.0960 
 17 C       -1.2510    -6.0470     0.2030 C.2   1 <1>  -0.1810 
 18 C        1.4020     5.3900     2.0690 C.3   1 <1>  -0.2400 
 19 C       -1.0430    -6.6910     1.4220 C.2   1 <1>   0.1080 
 20 C       -1.3010    -7.0420    -0.7110 C.2   1 <1>  -0.3320 
 21 N       -0.9560    -7.9730     1.2850 N.2   1 <1>  -0.7070 
 22 C       -0.9300    -6.0370     2.7820 C.3   1 <1>  -0.0590 
 23 N       -1.1250    -8.1950    -0.0290 N.pl3 1 <1>   0.3000 
 24 C       -1.5120    -7.0150    -2.2160 C.3   1 <1>  -0.0600 
 25 H        3.3790    -0.1050    -0.6100 H     1 <1>   0.3700 
 26 H        2.0170    -2.5120     0.5110 H     1 <1>   0.0800 
 27 H        1.9740    -2.0710    -1.1760 H     1 <1>   0.0800 
 28 H       -0.4210    -2.1040     0.4960 H     1 <1>   0.4500 
 29 H        0.6490    -4.3200     0.5910 H     1 <1>   0.0800 
 30 H        0.4470    -4.4380    -1.1330 H     1 <1>   0.0800 
 31 H       -0.1820    -2.3160    -2.4400 H     1 <1>   0.0800 
 32 H       -0.6290    -0.8880    -1.5250 H     1 <1>   0.0800 
 33 H       -1.6810    -2.2810    -1.5350 H     1 <1>   0.0800 
 34 H        2.7690     1.7200    -2.6480 H     1 <1>   0.0800 
 35 H        4.4630     2.0590    -2.3240 H     1 <1>   0.0800 
 36 H        3.3730     3.3540    -2.7560 H     1 <1>   0.0800 
 37 H        2.1450     0.7620     2.7090 H     1 <1>   0.0800 
 38 H        1.2250     2.2190     2.9720 H     1 <1>   0.0800 
 39 H        2.9120     2.1420     3.4380 H     1 <1>   0.0800 
 40 H       -1.9940    -4.3750    -0.8740 H     1 <1>   0.0800 
 41 H       -1.8290    -4.1040     0.8460 H     1 <1>   0.0800 
 42 H        3.5020     5.5470     1.6310 H     1 <1>   0.0800 
 43 H        3.1440     4.4760     2.9580 H     1 <1>   0.0800 
 44 H        1.0890     5.7200     1.0940 H     1 <1>   0.0800 
 45 H        1.3950     6.2340     2.7350 H     1 <1>   0.0800 
 46 H        0.7070     4.6560     2.4350 H     1 <1>   0.0800 
 47 H       -0.1820    -5.2680     2.7690 H     1 <1>   0.0800 
 48 H       -0.6540    -6.7730     3.5150 H     1 <1>   0.0800 
 49 H       -1.8780    -5.6160     3.0620 H     1 <1>   0.0800 
 50 H       -1.1180    -9.1440    -0.4240 H     1 <1>   0.2700 
 51 H       -1.6250    -6.0080    -2.5740 H     1 <1>   0.0800 
 52 H       -2.3990    -7.5670    -2.4730 H     1 <1>   0.0800 
 53 H       -0.6710    -7.4630    -2.7170 H     1 <1>   0.0800 
@<TRIPOS>BOND
  1   1   2  2   
  2   2   3  am  
  3   2   4  1   
  4   3   5  1   
  5   3  25  1   
  6   4   6  1   
  7   4  26  1   
  8   4  27  1   
  9   5   7  1   
 10   5   8  2   
 11   6   9  1   
 12   6  10  1   
 13   6  28  1   
 14   7  11  2   
 15   7  12  1   
 16   8  13  1   
 17   8  14  1   
 18   9  15  1   
 19   9  29  1   
 20   9  30  1   
 21  10  31  1   
 22  10  32  1   
 23  10  33  1   
 24  11  13  1   
 25  12  34  1   
 26  12  35  1   
 27  12  36  1   
 28  13  16  1   
 29  14  37  1   
 30  14  38  1   
 31  14  39  1   
 32  15  17  1   
 33  15  40  1   
 34  15  41  1   
 35  16  18  1   
 36  16  42  1   
 37  16  43  1   
 38  17  19  1   
 39  17  20  2   
 40  18  44  1   
 41  18  45  1   
 42  18  46  1   
 43  19  21  2   
 44  19  22  1   
 45  20  23  1   
 46  20  24  1   
 47  21  23  1   
 48  22  47  1   
 49  22  48  1   
 50  22  49  1   
 51  23  50  1   
 52  24  51  1   
 53  24  52  1   
 54  24  53  1   
@<TRIPOS>SUBSTRUCTURE
  1 ****   4 GROUP 4 **** **** 0

# MOE 2024.06 (io_trps.svl 2023.06)
