@<TRIPOS>MOLECULE
NONAME
51 53 1 0 0 
SMALL
USER_CHARGES


@<TRIPOS>ATOM
  1 O       -1.9500     2.5090    -3.5120 O.2   1 <1>  -0.5700 
  2 C       -1.2050     2.6510    -2.5630 C.2   1 <1>   0.5440 
  3 N        0.0900     2.8810    -2.8700 N.am  1 <1>  -0.8000 
  4 C       -1.6830     2.5620    -1.1980 C.ar  1 <1>   0.0860 
  5 C       -1.0160     3.1410    -0.0960 C.ar  1 <1>   0.4100 
  6 C       -2.8580     1.8710    -0.9330 C.ar  1 <1>  -0.1500 
  7 N       -1.4470     3.0370     1.1600 N.ar  1 <1>  -0.6200 
  8 N        0.1290     3.9110    -0.2460 N.pl3 1 <1>  -0.8380 
  9 C       -3.3080     1.7680     0.3650 C.ar  1 <1>  -0.1430 
 10 C       -2.5590     2.3650     1.3720 C.ar  1 <1>   0.1670 
 11 C       -0.0900     5.3540    -0.5520 C.3   1 <1>   0.2090 
 12 C        1.2440     3.7950     0.7340 C.3   1 <1>   0.2090 
 13 C       -4.6000     1.0100     0.6450 C.3   1 <1>  -0.0970 
 14 C       -2.9950     2.2850     2.8240 C.3   1 <1>  -0.0970 
 15 C        1.0750     6.1010     0.0920 C.3   1 <1>   0.0630 
 16 C        1.4390     5.2040     1.2750 C.3   1 <1>  -0.1600 
 17 C        0.7510     7.5770     0.3710 C.ar  1 <1>  -0.1430 
 18 C        0.6280     8.4590    -0.7050 C.ar  1 <1>   0.0830 
 19 C        0.5760     8.0650     1.6600 C.ar  1 <1>  -0.1500 
 20 O        0.7920     7.9450    -1.9580 O.3   1 <1>  -0.3620 
 21 C        0.3610     9.8190    -0.4860 C.ar  1 <1>   0.0830 
 22 C        0.2900     9.3990     1.8800 C.ar  1 <1>  -0.1500 
 23 C       -0.1990     8.1940    -2.9320 C.3   1 <1>   0.0400 
 24 O        0.3000    10.6710    -1.5520 O.3   1 <1>  -0.3630 
 25 C        0.1830    10.2740     0.8160 C.ar  1 <1>  -0.1500 
 26 C        0.3320    12.0710    -1.3850 C.3   1 <1>   0.0400 
 27 H        0.3660     3.0380    -3.8370 H     1 <1>   0.3700 
 28 H        0.7060     3.2280    -2.1240 H     1 <1>   0.3700 
 29 H       -3.4020     1.4210    -1.7450 H     1 <1>   0.1500 
 30 H       -1.0190     5.6790    -0.1150 H     1 <1>   0.0800 
 31 H       -0.1180     5.5190    -1.6150 H     1 <1>   0.0800 
 32 H        2.1290     3.4690     0.2160 H     1 <1>   0.0800 
 33 H        1.0240     3.0960     1.5240 H     1 <1>   0.0800 
 34 H       -5.0870     0.7290    -0.2710 H     1 <1>   0.0800 
 35 H       -5.2770     1.6250     1.2090 H     1 <1>   0.0800 
 36 H       -4.3880     0.1160     1.2030 H     1 <1>   0.0800 
 37 H       -2.2000     2.6100     3.4710 H     1 <1>   0.0800 
 38 H       -3.2490     1.2750     3.0850 H     1 <1>   0.0800 
 39 H       -3.8450     2.9220     2.9810 H     1 <1>   0.0800 
 40 H        1.8990     6.0700    -0.6000 H     1 <1>   0.0800 
 41 H        2.4410     5.3700     1.6270 H     1 <1>   0.0800 
 42 H        0.7440     5.3270     2.0850 H     1 <1>   0.0800 
 43 H        0.6580     7.4250     2.5180 H     1 <1>   0.1500 
 44 H        0.1520     9.7570     2.8860 H     1 <1>   0.1500 
 45 H       -0.1830     7.3880    -3.6420 H     1 <1>   0.0800 
 46 H        0.0270     9.1190    -3.4310 H     1 <1>   0.0800 
 47 H       -1.1620     8.2470    -2.4540 H     1 <1>   0.0800 
 48 H       -0.0390    11.3020     1.0270 H     1 <1>   0.1500 
 49 H        0.3980    12.5210    -2.3590 H     1 <1>   0.0800 
 50 H        1.1960    12.3340    -0.8020 H     1 <1>   0.0800 
 51 H       -0.5740    12.3870    -0.8990 H     1 <1>   0.0800 
@<TRIPOS>BOND
  1   1   2  2   
  2   2   3  am  
  3   2   4  1   
  4   3  27  1   
  5   3  28  1   
  6   4   5  ar  
  7   4   6  ar  
  8   5   7  ar  
  9   5   8  1   
 10   6   9  ar  
 11   6  29  1   
 12   7  10  ar  
 13   8  11  1   
 14   8  12  1   
 15   9  10  ar  
 16   9  13  1   
 17  10  14  1   
 18  11  15  1   
 19  11  30  1   
 20  11  31  1   
 21  12  16  1   
 22  12  32  1   
 23  12  33  1   
 24  13  34  1   
 25  13  35  1   
 26  13  36  1   
 27  14  37  1   
 28  14  38  1   
 29  14  39  1   
 30  15  16  1   
 31  15  17  1   
 32  15  40  1   
 33  16  41  1   
 34  16  42  1   
 35  17  18  ar  
 36  17  19  ar  
 37  18  20  1   
 38  18  21  ar  
 39  19  22  ar  
 40  19  43  1   
 41  20  23  1   
 42  21  24  1   
 43  21  25  ar  
 44  22  25  ar  
 45  22  44  1   
 46  23  45  1   
 47  23  46  1   
 48  23  47  1   
 49  24  26  1   
 50  25  48  1   
 51  26  49  1   
 52  26  50  1   
 53  26  51  1   
@<TRIPOS>SUBSTRUCTURE
  1 ****  11 GROUP 4 **** **** 0

# MOE 2024.06 (io_trps.svl 2023.06)
