@<TRIPOS>MOLECULE
NONAME
45 46 1 0 0 
SMALL
USER_CHARGES


@<TRIPOS>ATOM
  1 S        0.0430    -0.5490    -0.3580 S.o2  1 <1>   1.5760 
  2 O        1.2310    -1.3680    -0.2640 O.2   1 <1>  -0.6500 
  3 O       -0.6110    -0.3670    -1.6330 O.2   1 <1>  -0.6500 
  4 N       -1.0870    -1.1080     0.7660 N.am  1 <1>  -0.8490 
  5 N        0.3950     0.9690     0.3000 N.am  1 <1>  -0.8490 
  6 C       -1.3440    -2.5550     0.6410 C.3   1 <1>   0.1960 
  7 C       -2.3640    -0.3670     0.7570 C.3   1 <1>   0.1960 
  8 C        1.1390     1.8030    -0.6430 C.3   1 <1>   0.1160 
  9 C        1.1220     0.8720     1.5690 C.3   1 <1>   0.1160 
 10 C       -2.3050    -2.9070    -0.5160 C.3   1 <1>   0.3440 
 11 C       -3.3570    -0.8080    -0.3570 C.3   1 <1>   0.2000 
 12 O       -3.5060    -2.2020    -0.3520 O.3   1 <1>  -0.5600 
 13 C       -2.5920    -4.4060    -0.5340 C.ar  1 <1>  -0.1440 
 14 C       -4.7650    -0.1810    -0.2330 C.3   1 <1>  -0.0800 
 15 C       -1.8100    -5.2410    -1.3200 C.ar  1 <1>  -0.1500 
 16 C       -3.6100    -4.9600     0.2310 C.ar  1 <1>  -0.1500 
 17 C       -4.7220     1.3500    -0.3550 C.3   1 <1>  -0.2400 
 18 C       -5.5150    -0.5760     1.0520 C.3   1 <1>  -0.2400 
 19 C       -2.0400    -6.6060    -1.3390 C.ar  1 <1>  -0.1500 
 20 C       -3.8410    -6.3250     0.2120 C.ar  1 <1>  -0.1500 
 21 C       -3.0550    -7.1490    -0.5730 C.ar  1 <1>  -0.1500 
 22 H       -0.4180    -3.0880     0.5120 H     1 <1>   0.0800 
 23 H       -1.7850    -2.9090     1.5570 H     1 <1>   0.0800 
 24 H       -2.8360    -0.5160     1.7100 H     1 <1>   0.0800 
 25 H       -2.1690     0.6880     0.6650 H     1 <1>   0.0800 
 26 H        1.3230     2.7740    -0.2160 H     1 <1>   0.0800 
 27 H        0.5680     1.9350    -1.5470 H     1 <1>   0.0800 
 28 H        2.0810     1.3410    -0.8920 H     1 <1>   0.0800 
 29 H        1.2740     1.8530     1.9840 H     1 <1>   0.0800 
 30 H        2.0800     0.3990     1.4220 H     1 <1>   0.0800 
 31 H        0.5560     0.2890     2.2760 H     1 <1>   0.0800 
 32 H       -1.8770    -2.6200    -1.4610 H     1 <1>   0.0800 
 33 H       -2.9680    -0.5300    -1.3200 H     1 <1>   0.0800 
 34 H       -5.3360    -0.5490    -1.0700 H     1 <1>   0.0800 
 35 H       -1.0160    -4.8330    -1.9220 H     1 <1>   0.1500 
 36 H       -4.2290    -4.3250     0.8420 H     1 <1>   0.1500 
 37 H       -4.2280     1.7960     0.4900 H     1 <1>   0.0800 
 38 H       -5.7220     1.7440    -0.4060 H     1 <1>   0.0800 
 39 H       -4.2020     1.6390    -1.2520 H     1 <1>   0.0800 
 40 H       -5.0380    -0.1720     1.9260 H     1 <1>   0.0800 
 41 H       -5.5570    -1.6470     1.1450 H     1 <1>   0.0800 
 42 H       -6.5240    -0.2060     1.0170 H     1 <1>   0.0800 
 43 H       -1.4280    -7.2450    -1.9520 H     1 <1>   0.1500 
 44 H       -4.6340    -6.7430     0.8080 H     1 <1>   0.1500 
 45 H       -3.2350    -8.2100    -0.5890 H     1 <1>   0.1500 
@<TRIPOS>BOND
  1   1   2  2   
  2   1   3  2   
  3   1   4  am  
  4   1   5  am  
  5   4   6  1   
  6   4   7  1   
  7   5   8  1   
  8   5   9  1   
  9   6  10  1   
 10   6  22  1   
 11   6  23  1   
 12   7  11  1   
 13   7  24  1   
 14   7  25  1   
 15   8  26  1   
 16   8  27  1   
 17   8  28  1   
 18   9  29  1   
 19   9  30  1   
 20   9  31  1   
 21  10  12  1   
 22  10  13  1   
 23  10  32  1   
 24  11  12  1   
 25  11  14  1   
 26  11  33  1   
 27  13  15  ar  
 28  13  16  ar  
 29  14  17  1   
 30  14  18  1   
 31  14  34  1   
 32  15  19  ar  
 33  15  35  1   
 34  16  20  ar  
 35  16  36  1   
 36  17  37  1   
 37  17  38  1   
 38  17  39  1   
 39  18  40  1   
 40  18  41  1   
 41  18  42  1   
 42  19  21  ar  
 43  19  43  1   
 44  20  21  ar  
 45  20  44  1   
 46  21  45  1   
@<TRIPOS>SUBSTRUCTURE
  1 ****  10 GROUP 4 **** **** 0

# MOE 2024.06 (io_trps.svl 2023.06)
