@<TRIPOS>MOLECULE
NONAME
44 45 1 0 0 
SMALL
USER_CHARGES


@<TRIPOS>ATOM
  1 O        0.1390    -0.6500    -0.5460 O.3   1 <1>  -0.3630 
  2 C        0.0140    -1.9930    -0.4020 C.ar  1 <1>   0.0830 
  3 C        1.2810     0.0320    -0.0820 C.3   1 <1>   0.1200 
  4 C        0.9660    -2.8000     0.2130 C.ar  1 <1>  -0.1500 
  5 C       -1.1400    -2.5680    -0.9070 C.ar  1 <1>  -0.1500 
  6 C        1.1120     1.5190    -0.4020 C.3   1 <1>  -0.1600 
  7 C        0.7530    -4.1640     0.3190 C.ar  1 <1>  -0.1500 
  8 C       -1.3500    -3.9310    -0.8000 C.ar  1 <1>  -0.1500 
  9 C        2.2480     2.3900     0.1660 C.3   1 <1>  -0.0800 
 10 C       -0.4050    -4.7360    -0.1850 C.ar  1 <1>  -0.1430 
 11 C        1.9380     3.8700    -0.0820 C.3   1 <1>  -0.2400 
 12 C        3.6070     2.0410    -0.4560 C.3   1 <1>  -0.2400 
 13 C       -0.6440    -6.2310    -0.0570 C.3   1 <1>  -0.0170 
 14 C       -1.3930    -6.5290     1.2430 C.3   1 <1>   0.2090 
 15 N       -1.6820    -7.9790     1.3470 N.pl3 1 <1>  -0.8690 
 16 C       -2.6790    -8.5460     0.5980 C.ar  1 <1>   0.4100 
 17 N       -2.2720    -9.5800    -0.1140 N.ar  1 <1>  -0.6200 
 18 C       -4.0040    -8.0750     0.5780 C.ar  1 <1>   0.1600 
 19 C       -3.2480   -10.1020    -0.8400 C.ar  1 <1>   0.1600 
 20 N       -4.9760    -8.5880    -0.1530 N.ar  1 <1>  -0.6200 
 21 C       -4.5530    -9.6250    -0.8630 C.ar  1 <1>   0.1600 
 22 H        2.1410    -0.3750    -0.5840 H     1 <1>   0.0800 
 23 H        1.3580    -0.1220     0.9800 H     1 <1>   0.0800 
 24 H        1.8730    -2.3890     0.6130 H     1 <1>   0.1500 
 25 H       -1.8710    -1.9400    -1.3830 H     1 <1>   0.1500 
 26 H        0.1790     1.8480     0.0220 H     1 <1>   0.0800 
 27 H        1.0600     1.6440    -1.4690 H     1 <1>   0.0800 
 28 H        1.4970    -4.7780     0.7970 H     1 <1>   0.1500 
 29 H       -2.2540    -4.3590    -1.1990 H     1 <1>   0.1500 
 30 H        2.3060     2.2340     1.2310 H     1 <1>   0.0800 
 31 H        1.8730     4.0730    -1.1360 H     1 <1>   0.0800 
 32 H        2.7090     4.4900     0.3400 H     1 <1>   0.0800 
 33 H        1.0030     4.1390     0.3770 H     1 <1>   0.0800 
 34 H        3.5690     2.1360    -1.5270 H     1 <1>   0.0800 
 35 H        3.8990     1.0370    -0.2080 H     1 <1>   0.0800 
 36 H        4.3670     2.7050    -0.0820 H     1 <1>   0.0800 
 37 H        0.2950    -6.7530    -0.0630 H     1 <1>   0.0800 
 38 H       -1.2240    -6.5730    -0.8960 H     1 <1>   0.0800 
 39 H       -2.3100    -5.9670     1.2700 H     1 <1>   0.0800 
 40 H       -0.7930    -6.2270     2.0850 H     1 <1>   0.0800 
 41 H       -0.8380    -8.5560     1.2820 H     1 <1>   0.4000 
 42 H       -4.2430    -7.2390     1.2060 H     1 <1>   0.1500 
 43 H       -3.0020   -10.9520    -1.4500 H     1 <1>   0.1500 
 44 H       -5.2750   -10.1170    -1.4900 H     1 <1>   0.1500 
@<TRIPOS>BOND
  1   1   2  1   
  2   1   3  1   
  3   2   4  ar  
  4   2   5  ar  
  5   3   6  1   
  6   3  22  1   
  7   3  23  1   
  8   4   7  ar  
  9   4  24  1   
 10   5   8  ar  
 11   5  25  1   
 12   6   9  1   
 13   6  26  1   
 14   6  27  1   
 15   7  10  ar  
 16   7  28  1   
 17   8  10  ar  
 18   8  29  1   
 19   9  11  1   
 20   9  12  1   
 21   9  30  1   
 22  10  13  1   
 23  11  31  1   
 24  11  32  1   
 25  11  33  1   
 26  12  34  1   
 27  12  35  1   
 28  12  36  1   
 29  13  14  1   
 30  13  37  1   
 31  13  38  1   
 32  14  15  1   
 33  14  39  1   
 34  14  40  1   
 35  15  16  1   
 36  15  41  1   
 37  16  17  ar  
 38  16  18  ar  
 39  17  19  ar  
 40  18  20  ar  
 41  18  42  1   
 42  19  21  ar  
 43  19  43  1   
 44  20  21  ar  
 45  21  44  1   
@<TRIPOS>SUBSTRUCTURE
  1 ****  10 GROUP 4 **** **** 0

# MOE 2024.06 (io_trps.svl 2023.06)
