@<TRIPOS>MOLECULE
NONAME
48 50 1 0 0 
SMALL
USER_CHARGES


@<TRIPOS>ATOM
  1 O       -1.3330    -1.0650    -2.6420 O.2   1 <1>  -0.5700 
  2 C       -1.7290    -1.3370    -1.5370 C.2   1 <1>   0.5690 
  3 N       -1.6800    -0.4460    -0.5030 N.am  1 <1>  -0.6600 
  4 C       -2.3360    -2.7020    -1.3390 C.3   1 <1>  -0.0190 
  5 C       -2.2430    -0.7370     0.8460 C.3   1 <1>   0.2200 
  6 C       -1.0100     0.8830    -0.6570 C.3   1 <1>   0.0600 
  7 C       -1.5890    -3.5250    -0.2680 C.3   1 <1>   0.1200 
  8 C       -3.8510    -2.5430    -1.1680 C.3   1 <1>   0.3430 
  9 C       -1.5080    -1.9290     1.5070 C.3   1 <1>   0.1200 
 10 C       -3.7870    -0.8990     0.7790 C.3   1 <1>   0.3430 
 11 O       -1.9500    -3.1790     1.0410 O.3   1 <1>  -0.5600 
 12 N       -4.2670    -2.2170     0.2350 N.4   1 <1>  -0.9590 
 13 C       -5.7120    -2.4590     0.4750 C.3   1 <1>   0.4860 
 14 C       -5.9570    -3.9460     0.3170 C.ar  1 <1>  -0.1430 
 15 C       -6.6910    -4.4240    -0.7590 C.ar  1 <1>  -0.1500 
 16 C       -5.4280    -4.8420     1.2370 C.ar  1 <1>  -0.1500 
 17 C       -6.8770    -5.7850    -0.9200 C.ar  1 <1>  -0.1500 
 18 C       -5.6150    -6.2030     1.0760 C.ar  1 <1>  -0.1500 
 19 C       -6.3380    -6.6810    -0.0120 C.ar  1 <1>   0.0820 
 20 O       -6.5560    -7.9960    -0.2530 O.3   1 <1>  -0.3630 
 21 C       -6.0680    -9.0010     0.6290 C.3   1 <1>   0.1810 
 22 C       -6.4040   -10.3980     0.1240 C.2   1 <1>   0.5690 
 23 O       -6.0410   -11.3560     0.7570 O.2   1 <1>  -0.5700 
 24 N       -7.0980   -10.5690    -1.0200 N.am  1 <1>  -0.8000 
 25 H       -2.1900    -3.2210    -2.2700 H     1 <1>   0.0800 
 26 H       -2.0470     0.1240     1.4610 H     1 <1>   0.0800 
 27 H       -0.2040     0.9720     0.0510 H     1 <1>   0.0800 
 28 H       -1.7180     1.6770    -0.4910 H     1 <1>   0.0800 
 29 H       -0.6010     0.9980    -1.6470 H     1 <1>   0.0800 
 30 H       -0.5220    -3.4180    -0.3760 H     1 <1>   0.0800 
 31 H       -1.8300    -4.5680    -0.3890 H     1 <1>   0.0800 
 32 H       -4.3060    -3.4770    -1.4560 H     1 <1>   0.0800 
 33 H       -4.2090    -1.7840    -1.8460 H     1 <1>   0.0800 
 34 H       -1.6940    -1.9150     2.5660 H     1 <1>   0.0800 
 35 H       -0.4430    -1.8540     1.3590 H     1 <1>   0.0800 
 36 H       -4.1920    -0.0910     0.1930 H     1 <1>   0.0800 
 37 H       -4.1640    -0.7910     1.7830 H     1 <1>   0.0800 
 38 H       -3.7560    -2.9300     0.7940 H     1 <1>   0.4500 
 39 H       -5.9810    -2.1610     1.4750 H     1 <1>   0.0800 
 40 H       -6.3100    -1.9010    -0.2270 H     1 <1>   0.0800 
 41 H       -7.1240    -3.7520    -1.4810 H     1 <1>   0.1500 
 42 H       -4.8650    -4.4970     2.0880 H     1 <1>   0.1500 
 43 H       -7.4430    -6.1620    -1.7530 H     1 <1>   0.1500 
 44 H       -5.1930    -6.8690     1.8050 H     1 <1>   0.1500 
 45 H       -5.0010    -8.9050     0.7000 H     1 <1>   0.0800 
 46 H       -6.5180    -8.8560     1.5940 H     1 <1>   0.0800 
 47 H       -7.3210   -11.5070    -1.3540 H     1 <1>   0.3700 
 48 H       -7.4210    -9.7770    -1.5770 H     1 <1>   0.3700 
@<TRIPOS>BOND
  1   1   2  2   
  2   2   3  am  
  3   2   4  1   
  4   3   5  1   
  5   3   6  1   
  6   4   7  1   
  7   4   8  1   
  8   4  25  1   
  9   5   9  1   
 10   5  10  1   
 11   5  26  1   
 12   6  27  1   
 13   6  28  1   
 14   6  29  1   
 15   7  11  1   
 16   7  30  1   
 17   7  31  1   
 18   8  12  1   
 19   8  32  1   
 20   8  33  1   
 21   9  11  1   
 22   9  34  1   
 23   9  35  1   
 24  10  12  1   
 25  10  36  1   
 26  10  37  1   
 27  12  13  1   
 28  12  38  1   
 29  13  14  1   
 30  13  39  1   
 31  13  40  1   
 32  14  15  ar  
 33  14  16  ar  
 34  15  17  ar  
 35  15  41  1   
 36  16  18  ar  
 37  16  42  1   
 38  17  19  ar  
 39  17  43  1   
 40  18  19  ar  
 41  18  44  1   
 42  19  20  1   
 43  20  21  1   
 44  21  22  1   
 45  21  45  1   
 46  21  46  1   
 47  22  23  2   
 48  22  24  am  
 49  24  47  1   
 50  24  48  1   
@<TRIPOS>SUBSTRUCTURE
  1 ****  14 GROUP 4 **** **** 0

# MOE 2024.06 (io_trps.svl 2023.06)
