@<TRIPOS>MOLECULE
NONAME
45 47 1 0 0 
SMALL
USER_CHARGES


@<TRIPOS>ATOM
  1 O        0.2820     0.7450    -0.3500 O.2   1 <1>  -0.5700 
  2 C        0.8540     1.7900    -0.1750 C.2   1 <1>   0.5690 
  3 N        0.4810     2.5890     0.8480 N.am  1 <1>  -0.7300 
  4 C        1.9770     2.1750    -1.1080 C.3   1 <1>  -0.0990 
  5 C        1.0700     3.8860     1.2670 C.3   1 <1>   0.1400 
  6 C        3.3000     2.3100    -0.3640 C.3   1 <1>   0.2090 
  7 C        2.5800     3.7940     1.5470 C.3   1 <1>   0.2090 
  8 N        3.3990     3.6420     0.3040 N.pl3 1 <1>  -0.8380 
  9 C        4.5040     4.4100     0.1270 C.ar  1 <1>   0.4100 
 10 N        5.6590     3.7990     0.2870 N.ar  1 <1>  -0.6200 
 11 C        4.4130     5.7910    -0.1920 C.ar  1 <1>  -0.1440 
 12 C        6.7630     4.5170     0.1860 C.ar  1 <1>   0.7710 
 13 C        5.5720     6.5060    -0.2620 C.ar  1 <1>   0.2180 
 14 C        3.0370     6.4060    -0.4710 C.3   1 <1>  -0.0960 
 15 N        6.7300     5.8330    -0.0670 N.ar  1 <1>  -0.1790 
 16 N        7.9650     3.9120     0.3490 N.pl3 1 <1>  -0.8380 
 17 C        5.6940     7.9980    -0.5460 C.3   1 <1>  -0.0970 
 18 C        9.3290     4.4960     0.2190 C.3   1 <1>   0.2090 
 19 C        8.0650     2.4610     0.6760 C.3   1 <1>   0.2090 
 20 C       10.2700     3.3000     0.1920 C.3   1 <1>  -0.1600 
 21 C        9.5370     2.2180     0.9750 C.3   1 <1>  -0.1600 
 22 H       -0.3050     2.2400     1.4020 H     1 <1>   0.3700 
 23 H        1.7370     3.0850    -1.6240 H     1 <1>   0.0800 
 24 H        2.0760     1.3960    -1.8410 H     1 <1>   0.0800 
 25 H        0.5750     4.2020     2.1680 H     1 <1>   0.0800 
 26 H        0.8820     4.6270     0.5100 H     1 <1>   0.0800 
 27 H        4.1020     2.2110    -1.0760 H     1 <1>   0.0800 
 28 H        3.4070     1.5210     0.3630 H     1 <1>   0.0800 
 29 H        2.7710     2.9670     2.2100 H     1 <1>   0.0800 
 30 H        2.8870     4.6900     2.0580 H     1 <1>   0.0800 
 31 H        2.4180     5.7040    -1.0030 H     1 <1>   0.0800 
 32 H        3.0990     7.2840    -1.0860 H     1 <1>   0.0800 
 33 H        2.5500     6.6620     0.4520 H     1 <1>   0.0800 
 34 H        7.6330     6.2850    -0.1040 H     1 <1>   0.4570 
 35 H        4.7720     8.5160    -0.3560 H     1 <1>   0.0800 
 36 H        5.9710     8.1580    -1.5730 H     1 <1>   0.0800 
 37 H        6.4410     8.4440     0.0880 H     1 <1>   0.0800 
 38 H        9.5440     5.1040     1.0840 H     1 <1>   0.0800 
 39 H        9.4330     5.0770    -0.6820 H     1 <1>   0.0800 
 40 H        7.7570     1.8820    -0.1800 H     1 <1>   0.0800 
 41 H        7.4460     2.2050     1.5210 H     1 <1>   0.0800 
 42 H       11.2300     3.5330     0.6180 H     1 <1>   0.0800 
 43 H       10.4090     2.9820    -0.8270 H     1 <1>   0.0800 
 44 H        9.8430     1.2260     0.6910 H     1 <1>   0.0800 
 45 H        9.7060     2.3460     2.0300 H     1 <1>   0.0800 
@<TRIPOS>BOND
  1   1   2  2   
  2   2   3  am  
  3   2   4  1   
  4   3   5  1   
  5   3  22  1   
  6   4   6  1   
  7   4  23  1   
  8   4  24  1   
  9   5   7  1   
 10   5  25  1   
 11   5  26  1   
 12   6   8  1   
 13   6  27  1   
 14   6  28  1   
 15   7   8  1   
 16   7  29  1   
 17   7  30  1   
 18   8   9  1   
 19   9  10  ar  
 20   9  11  ar  
 21  10  12  ar  
 22  11  13  ar  
 23  11  14  1   
 24  12  15  ar  
 25  12  16  1   
 26  13  15  ar  
 27  13  17  1   
 28  14  31  1   
 29  14  32  1   
 30  14  33  1   
 31  15  34  1   
 32  16  18  1   
 33  16  19  1   
 34  17  35  1   
 35  17  36  1   
 36  17  37  1   
 37  18  20  1   
 38  18  38  1   
 39  18  39  1   
 40  19  21  1   
 41  19  40  1   
 42  19  41  1   
 43  20  21  1   
 44  20  42  1   
 45  20  43  1   
 46  21  44  1   
 47  21  45  1   
@<TRIPOS>SUBSTRUCTURE
  1 ****   9 GROUP 4 **** **** 0

# MOE 2024.06 (io_trps.svl 2023.06)
