@<TRIPOS>MOLECULE
NONAME
37 39 1 0 0 
SMALL
USER_CHARGES


@<TRIPOS>ATOM
  1 O        0.5700     0.0520     0.7530 O.3   1 <1>  -0.6800 
  2 C        1.2820    -0.4460    -0.3320 C.3   1 <1>   0.2000 
  3 C        1.7460    -1.8630     0.0170 C.3   1 <1>  -0.0800 
  4 C        2.5900     0.3400    -0.4260 C.3   1 <1>   0.3430 
  5 C        3.0960    -1.6730     0.7320 C.3   1 <1>   0.3430 
  6 C        1.8790    -2.7460    -1.2430 C.3   1 <1>  -0.0170 
  7 N        3.4040    -0.2130     0.6880 N.4   1 <1>  -0.9590 
  8 C        2.6170    -4.0470    -0.9390 C.ar  1 <1>  -0.1440 
  9 C        4.8590     0.1130     0.6270 C.3   1 <1>   0.2630 
 10 C        2.0420    -5.0880    -0.1700 C.ar  1 <1>   0.0000 
 11 C        3.8880    -4.2340    -1.4030 C.ar  1 <1>  -0.1500 
 12 C        2.8530    -6.2100     0.1260 C.ar  1 <1>   0.3100 
 13 C        0.7130    -5.0890     0.3140 C.ar  1 <1>  -0.1500 
 14 C        4.5940    -5.3980    -1.0760 C.ar  1 <1>   0.1600 
 15 N        4.1230    -6.3440    -0.3300 N.ar  1 <1>  -0.6200 
 16 C        2.3290    -7.2390     0.9240 C.ar  1 <1>  -0.1500 
 17 C        0.2290    -6.1110     1.0850 C.ar  1 <1>  -0.1500 
 18 C        1.0480    -7.1970     1.4010 C.ar  1 <1>  -0.1500 
 19 H       -0.3480    -0.2960     0.7720 H     1 <1>   0.4000 
 20 H        0.6750    -0.3710    -1.2190 H     1 <1>   0.0800 
 21 H        1.0550    -2.3310     0.6950 H     1 <1>   0.0800 
 22 H        2.4180     1.3990    -0.3180 H     1 <1>   0.0800 
 23 H        3.0680     0.1410    -1.3700 H     1 <1>   0.0800 
 24 H        3.8660    -2.2320     0.2260 H     1 <1>   0.0800 
 25 H        3.0360    -2.0160     1.7530 H     1 <1>   0.0800 
 26 H        2.4160    -2.2110    -2.0070 H     1 <1>   0.0800 
 27 H        0.9060    -2.9700    -1.6450 H     1 <1>   0.0800 
 28 H        2.9820     0.1930     1.5410 H     1 <1>   0.4500 
 29 H        5.2990    -0.2990    -0.2660 H     1 <1>   0.0800 
 30 H        5.3680    -0.2970     1.4840 H     1 <1>   0.0800 
 31 H        5.0010     1.1810     0.6230 H     1 <1>   0.0800 
 32 H        4.3860    -3.5090    -2.0210 H     1 <1>   0.1500 
 33 H        0.0540    -4.2790     0.0690 H     1 <1>   0.1500 
 34 H        5.5930    -5.5120    -1.4630 H     1 <1>   0.1500 
 35 H        2.9730    -8.0700     1.1460 H     1 <1>   0.1500 
 36 H       -0.7830    -6.1000     1.4520 H     1 <1>   0.1500 
 37 H        0.6580    -7.9940     2.0120 H     1 <1>   0.1500 
@<TRIPOS>BOND
  1   1   2  1   
  2   1  19  1   
  3   2   3  1   
  4   2   4  1   
  5   2  20  1   
  6   3   5  1   
  7   3   6  1   
  8   3  21  1   
  9   4   7  1   
 10   4  22  1   
 11   4  23  1   
 12   5   7  1   
 13   5  24  1   
 14   5  25  1   
 15   6   8  1   
 16   6  26  1   
 17   6  27  1   
 18   7   9  1   
 19   7  28  1   
 20   8  10  ar  
 21   8  11  ar  
 22   9  29  1   
 23   9  30  1   
 24   9  31  1   
 25  10  12  ar  
 26  10  13  ar  
 27  11  14  ar  
 28  11  32  1   
 29  12  15  ar  
 30  12  16  ar  
 31  13  17  ar  
 32  13  33  1   
 33  14  15  ar  
 34  14  34  1   
 35  16  18  ar  
 36  16  35  1   
 37  17  18  ar  
 38  17  36  1   
 39  18  37  1   
@<TRIPOS>SUBSTRUCTURE
  1 ****   8 GROUP 4 **** **** 0

# MOE 2024.06 (io_trps.svl 2023.06)
