@<TRIPOS>MOLECULE
NONAME
46 48 1 0 0 
SMALL
USER_CHARGES


@<TRIPOS>ATOM
  1 CL       0.4970    -4.8840     4.0340 Cl    1 <1>  -0.1770 
  2 C       -0.1530    -5.0420     2.4220 C.ar  1 <1>   0.1770 
  3 C       -1.3420    -4.4130     2.1070 C.ar  1 <1>  -0.1500 
  4 C        0.5310    -5.7940     1.4870 C.ar  1 <1>  -0.1500 
  5 C       -1.8690    -4.5380     0.8300 C.ar  1 <1>  -0.1440 
  6 C        0.0120    -5.9220     0.2110 C.ar  1 <1>  -0.1500 
  7 C       -1.1930    -5.3020    -0.1220 C.ar  1 <1>   0.0830 
  8 C       -3.1740    -3.8340     0.4850 C.3   1 <1>  -0.0960 
  9 O       -1.7640    -5.4070    -1.3530 O.3   1 <1>  -0.3630 
 10 C       -1.2730    -6.2890    -2.3570 C.3   1 <1>   0.1810 
 11 C       -1.3440    -7.7680    -1.9660 C.2   1 <1>   0.5690 
 12 O       -0.3430    -8.4280    -2.1240 O.2   1 <1>  -0.5700 
 13 N       -2.4910    -8.3380    -1.4770 N.am  1 <1>  -0.6600 
 14 C       -3.7630    -7.6370    -1.1720 C.3   1 <1>   0.1400 
 15 C       -2.5490    -9.7480    -1.0270 C.3   1 <1>   0.1400 
 16 C       -4.6870    -8.7180    -0.6110 C.3   1 <1>   0.2000 
 17 C       -3.7610    -9.8200    -0.0980 C.3   1 <1>  -0.0800 
 18 O       -5.4660    -8.2300     0.4260 O.3   1 <1>  -0.6800 
 19 C       -4.4330   -11.2010    -0.0620 C.3   1 <1>  -0.0170 
 20 C       -3.4700   -12.2630     0.4440 C.ar  1 <1>  -0.1430 
 21 C       -2.7820   -13.1010    -0.4110 C.ar  1 <1>  -0.1500 
 22 C       -3.2330   -12.4400     1.7910 C.ar  1 <1>  -0.1500 
 23 C       -1.9120   -14.0450     0.1090 C.ar  1 <1>   0.1600 
 24 C       -2.3420   -13.4150     2.2080 C.ar  1 <1>   0.1600 
 25 N       -1.6750   -14.2210     1.3980 N.ar  1 <1>  -0.6200 
 26 H       -1.8420    -3.8330     2.8610 H     1 <1>   0.1500 
 27 H        1.4560    -6.2710     1.7560 H     1 <1>   0.1500 
 28 H        0.5630    -6.5070    -0.5020 H     1 <1>   0.1500 
 29 H       -3.5190    -3.2300     1.3050 H     1 <1>   0.0800 
 30 H       -3.9330    -4.5590     0.2510 H     1 <1>   0.0800 
 31 H       -3.0300    -3.1970    -0.3690 H     1 <1>   0.0800 
 32 H       -1.8670    -6.1340    -3.2370 H     1 <1>   0.0800 
 33 H       -0.2580    -6.0130    -2.5790 H     1 <1>   0.0800 
 34 H       -3.5830    -6.8790    -0.4300 H     1 <1>   0.0800 
 35 H       -4.1780    -7.1990    -2.0630 H     1 <1>   0.0800 
 36 H       -2.6830   -10.3800    -1.8880 H     1 <1>   0.0800 
 37 H       -1.6440   -10.0300    -0.5160 H     1 <1>   0.0800 
 38 H       -5.3400    -9.0800    -1.3870 H     1 <1>   0.0800 
 39 H       -3.4160    -9.5650     0.8890 H     1 <1>   0.0800 
 40 H       -4.8980    -7.9130     1.1550 H     1 <1>   0.4000 
 41 H       -4.7840   -11.4660    -1.0450 H     1 <1>   0.0800 
 42 H       -5.2910   -11.1620     0.5870 H     1 <1>   0.0800 
 43 H       -2.9120   -13.0310    -1.4760 H     1 <1>   0.1500 
 44 H       -3.7310   -11.8290     2.5220 H     1 <1>   0.1500 
 45 H       -1.3830   -14.6890    -0.5730 H     1 <1>   0.1500 
 46 H       -2.1690   -13.5390     3.2630 H     1 <1>   0.1500 
@<TRIPOS>BOND
  1   1   2  1   
  2   2   3  ar  
  3   2   4  ar  
  4   3   5  ar  
  5   3  26  1   
  6   4   6  ar  
  7   4  27  1   
  8   5   7  ar  
  9   5   8  1   
 10   6   7  ar  
 11   6  28  1   
 12   7   9  1   
 13   8  29  1   
 14   8  30  1   
 15   8  31  1   
 16   9  10  1   
 17  10  11  1   
 18  10  32  1   
 19  10  33  1   
 20  11  12  2   
 21  11  13  am  
 22  13  14  1   
 23  13  15  1   
 24  14  16  1   
 25  14  34  1   
 26  14  35  1   
 27  15  17  1   
 28  15  36  1   
 29  15  37  1   
 30  16  17  1   
 31  16  18  1   
 32  16  38  1   
 33  17  19  1   
 34  17  39  1   
 35  18  40  1   
 36  19  20  1   
 37  19  41  1   
 38  19  42  1   
 39  20  21  ar  
 40  20  22  ar  
 41  21  23  ar  
 42  21  43  1   
 43  22  24  ar  
 44  22  44  1   
 45  23  25  ar  
 46  23  45  1   
 47  24  25  ar  
 48  24  46  1   
@<TRIPOS>SUBSTRUCTURE
  1 ****  13 GROUP 4 **** **** 0

# MOE 2024.06 (io_trps.svl 2023.06)
