@<TRIPOS>MOLECULE
NONAME
54 56 1 0 0 
SMALL
USER_CHARGES


@<TRIPOS>ATOM
  1 O       -1.1310     0.8600    -1.9260 O.2   1 <1>  -0.5700 
  2 C       -1.6190     1.1580    -0.8470 C.2   1 <1>   0.5440 
  3 N       -1.1870     2.3350    -0.2470 N.am  1 <1>  -0.6600 
  4 C       -2.6400     0.2720    -0.2730 C.ar  1 <1>   0.3960 
  5 C        0.0470     3.0340    -0.7030 C.3   1 <1>   0.1400 
  6 C       -1.8780     2.9700     0.9110 C.3   1 <1>   0.1400 
  7 N       -2.6260    -0.0330     1.0390 N.ar  1 <1>  -0.6200 
  8 C       -3.6140    -0.2540    -1.1240 C.ar  1 <1>  -0.1500 
  9 C       -0.2650     4.4970    -1.0260 C.3   1 <1>  -0.1600 
 10 C       -2.1820     4.4390     0.6020 C.3   1 <1>  -0.1600 
 11 C       -3.5690    -0.8460     1.4780 C.ar  1 <1>   0.1600 
 12 C       -4.5960    -1.0970    -0.6530 C.ar  1 <1>  -0.1500 
 13 C       -0.9200     5.2090     0.1700 C.3   1 <1>  -0.0190 
 14 C       -4.5640    -1.3960     0.6900 C.ar  1 <1>  -0.1500 
 15 C       -1.2190     6.6720    -0.1590 C.2   1 <1>   0.5690 
 16 O       -2.1710     6.9370    -0.8530 O.2   1 <1>  -0.5700 
 17 N       -0.3690     7.6180     0.3450 N.am  1 <1>  -0.4940 
 18 C       -0.3330     9.0270     0.2020 C.2   1 <1>  -0.0880 
 19 N       -1.3790     9.8900     0.0540 N.pl3 1 <1>   0.3140 
 20 C        0.7860     9.7910     0.2220 C.2   1 <1>  -0.1810 
 21 N       -0.9540    11.1700    -0.0130 N.2   1 <1>  -0.7070 
 22 C       -2.8210     9.6090     0.0500 C.3   1 <1>   0.0160 
 23 C        0.3350    11.1020     0.0830 C.2   1 <1>   0.1080 
 24 C        2.2290     9.3310     0.3570 C.3   1 <1>   0.0210 
 25 C        1.2010    12.3490     0.0400 C.3   1 <1>   0.0210 
 26 C        2.6510     9.3120     1.8270 C.3   1 <1>  -0.2400 
 27 C        1.6230    12.6810    -1.3950 C.3   1 <1>  -0.2400 
 28 H        0.4600     2.5570    -1.5760 H     1 <1>   0.0800 
 29 H        0.7850     2.9780     0.0790 H     1 <1>   0.0800 
 30 H       -1.2450     2.8940     1.7790 H     1 <1>   0.0800 
 31 H       -2.8050     2.4710     1.1280 H     1 <1>   0.0800 
 32 H       -3.5860     0.0090    -2.1670 H     1 <1>   0.1500 
 33 H       -0.9240     4.5310    -1.8770 H     1 <1>   0.0800 
 34 H        0.6450     5.0000    -1.2990 H     1 <1>   0.0800 
 35 H       -2.6100     4.9030     1.4730 H     1 <1>   0.0800 
 36 H       -2.9190     4.4780    -0.1820 H     1 <1>   0.0800 
 37 H       -3.5520    -1.0910     2.5270 H     1 <1>   0.1500 
 38 H       -5.3500    -1.5040    -1.3050 H     1 <1>   0.1500 
 39 H       -0.2280     5.1850     0.9930 H     1 <1>   0.0800 
 40 H       -5.2990    -2.0500     1.1240 H     1 <1>   0.1500 
 41 H        0.4420     7.2460     0.8350 H     1 <1>   0.3700 
 42 H       -3.0330     8.8190     0.7440 H     1 <1>   0.0800 
 43 H       -3.1160     9.3180    -0.9400 H     1 <1>   0.0800 
 44 H       -3.3530    10.4960     0.3380 H     1 <1>   0.0800 
 45 H        2.8720     9.9890    -0.2000 H     1 <1>   0.0800 
 46 H        2.3320     8.3470    -0.0640 H     1 <1>   0.0800 
 47 H        2.0700    12.2090     0.6560 H     1 <1>   0.0800 
 48 H        0.6380    13.1710     0.4460 H     1 <1>   0.0800 
 49 H        2.5730    10.2980     2.2480 H     1 <1>   0.0800 
 50 H        3.6690     8.9770     1.9160 H     1 <1>   0.0800 
 51 H        2.0160     8.6500     2.3890 H     1 <1>   0.0800 
 52 H        2.1900    11.8690    -1.8140 H     1 <1>   0.0800 
 53 H        2.2210    13.5730    -1.4100 H     1 <1>   0.0800 
 54 H        0.7480    12.8370    -2.0000 H     1 <1>   0.0800 
@<TRIPOS>BOND
  1   1   2  2   
  2   2   3  am  
  3   2   4  1   
  4   3   5  1   
  5   3   6  1   
  6   4   7  ar  
  7   4   8  ar  
  8   5   9  1   
  9   5  28  1   
 10   5  29  1   
 11   6  10  1   
 12   6  30  1   
 13   6  31  1   
 14   7  11  ar  
 15   8  12  ar  
 16   8  32  1   
 17   9  13  1   
 18   9  33  1   
 19   9  34  1   
 20  10  13  1   
 21  10  35  1   
 22  10  36  1   
 23  11  14  ar  
 24  11  37  1   
 25  12  14  ar  
 26  12  38  1   
 27  13  15  1   
 28  13  39  1   
 29  14  40  1   
 30  15  16  2   
 31  15  17  am  
 32  17  18  1   
 33  17  41  1   
 34  18  19  1   
 35  18  20  2   
 36  19  21  1   
 37  19  22  1   
 38  20  23  1   
 39  20  24  1   
 40  21  23  2   
 41  22  42  1   
 42  22  43  1   
 43  22  44  1   
 44  23  25  1   
 45  24  26  1   
 46  24  45  1   
 47  24  46  1   
 48  25  27  1   
 49  25  47  1   
 50  25  48  1   
 51  26  49  1   
 52  26  50  1   
 53  26  51  1   
 54  27  52  1   
 55  27  53  1   
 56  27  54  1   
@<TRIPOS>SUBSTRUCTURE
  1 ****  13 GROUP 4 **** **** 0

# MOE 2024.06 (io_trps.svl 2023.06)
