@<TRIPOS>MOLECULE
NONAME
49 52 1 0 0 
SMALL
USER_CHARGES


@<TRIPOS>ATOM
  1 O       -0.1810    -0.3560    -0.4470 O.3   1 <1>  -0.5600 
  2 C        0.0190    -1.7160    -0.1660 C.3   1 <1>   0.1200 
  3 C        0.9160     0.2970    -1.0240 C.3   1 <1>   0.1200 
  4 C        1.2050    -1.9020     0.8110 C.3   1 <1>   0.5660 
  5 C        2.1560     0.2030    -0.1040 C.3   1 <1>   0.4230 
  6 N        2.4370    -1.2260     0.2990 N.4   1 <1>  -0.9590 
  7 C        1.5360    -3.3520     1.1540 C.ar  1 <1>  -0.1430 
  8 C        3.3990     0.8650    -0.7550 C.3   1 <1>   0.1100 
  9 C        3.1740    -1.9780    -0.7730 C.3   1 <1>   0.3430 
 10 C        2.1380    -3.6110     2.3790 C.ar  1 <1>  -0.1500 
 11 C        1.2770    -4.4180     0.2960 C.ar  1 <1>  -0.1500 
 12 N        4.6340     0.0680    -0.5320 N.3   1 <1>  -0.8100 
 13 C        4.5040    -1.2750    -1.1450 C.3   1 <1>   0.1100 
 14 C        2.4820    -4.9020     2.7380 C.ar  1 <1>  -0.1500 
 15 C        1.6220    -5.7080     0.6570 C.ar  1 <1>  -0.1500 
 16 C        5.8570     0.7640    -0.9770 C.3   1 <1>   0.2530 
 17 C        2.2260    -5.9510     1.8760 C.ar  1 <1>  -0.1500 
 18 C        6.0570     2.0210    -0.1530 C.ar  1 <1>  -0.1430 
 19 C        6.1500     3.2660    -0.7310 C.ar  1 <1>   0.1600 
 20 C        6.1370     1.9660     1.2190 C.ar  1 <1>   0.1600 
 21 N        6.2930     4.3590    -0.0170 N.ar  1 <1>  -0.6200 
 22 N        6.2790     3.0430     1.9580 N.ar  1 <1>  -0.6200 
 23 C        6.3540     4.1840     1.2930 C.ar  1 <1>   0.4770 
 24 C        6.5220     5.4340     2.1210 C.3   1 <1>  -0.0970 
 25 H       -0.8840    -2.0950     0.2800 H     1 <1>   0.0800 
 26 H        0.1850    -2.2300    -1.0950 H     1 <1>   0.0800 
 27 H        1.1090    -0.1420    -1.9870 H     1 <1>   0.0800 
 28 H        0.6400     1.3270    -1.1670 H     1 <1>   0.0800 
 29 H        0.9120    -1.4210     1.7300 H     1 <1>   0.0800 
 30 H        1.9260     0.7670     0.7850 H     1 <1>   0.0800 
 31 H        3.1150    -1.1580     1.0680 H     1 <1>   0.4500 
 32 H        3.5060     1.8500    -0.3310 H     1 <1>   0.0800 
 33 H        3.2420     0.9910    -1.8130 H     1 <1>   0.0800 
 34 H        3.3950    -2.9800    -0.4420 H     1 <1>   0.0800 
 35 H        2.5580    -2.0550    -1.6530 H     1 <1>   0.0800 
 36 H        2.3460    -2.8150     3.0740 H     1 <1>   0.1500 
 37 H        0.8070    -4.2800    -0.6620 H     1 <1>   0.1500 
 38 H        4.5720    -1.2020    -2.2180 H     1 <1>   0.0800 
 39 H        5.3230    -1.8920    -0.8130 H     1 <1>   0.0800 
 40 H        2.9480    -5.0950     3.6900 H     1 <1>   0.1500 
 41 H        1.4190    -6.5310    -0.0090 H     1 <1>   0.1500 
 42 H        6.7110     0.1210    -0.8340 H     1 <1>   0.0800 
 43 H        5.7880     1.0060    -2.0240 H     1 <1>   0.0800 
 44 H        2.4930    -6.9570     2.1560 H     1 <1>   0.1500 
 45 H        6.1030     3.3780    -1.8000 H     1 <1>   0.1500 
 46 H        6.0760     1.0160     1.7220 H     1 <1>   0.1500 
 47 H        7.2560     6.0730     1.6670 H     1 <1>   0.0800 
 48 H        6.8440     5.1860     3.1150 H     1 <1>   0.0800 
 49 H        5.5850     5.9550     2.1730 H     1 <1>   0.0800 
@<TRIPOS>BOND
  1   1   2  1   
  2   1   3  1   
  3   2   4  1   
  4   2  25  1   
  5   2  26  1   
  6   3   5  1   
  7   3  27  1   
  8   3  28  1   
  9   4   6  1   
 10   4   7  1   
 11   4  29  1   
 12   5   6  1   
 13   5   8  1   
 14   5  30  1   
 15   6   9  1   
 16   6  31  1   
 17   7  10  ar  
 18   7  11  ar  
 19   8  12  1   
 20   8  32  1   
 21   8  33  1   
 22   9  13  1   
 23   9  34  1   
 24   9  35  1   
 25  10  14  ar  
 26  10  36  1   
 27  11  15  ar  
 28  11  37  1   
 29  12  13  1   
 30  12  16  1   
 31  13  38  1   
 32  13  39  1   
 33  14  17  ar  
 34  14  40  1   
 35  15  17  ar  
 36  15  41  1   
 37  16  18  1   
 38  16  42  1   
 39  16  43  1   
 40  17  44  1   
 41  18  19  ar  
 42  18  20  ar  
 43  19  21  ar  
 44  19  45  1   
 45  20  22  ar  
 46  20  46  1   
 47  21  23  ar  
 48  22  23  ar  
 49  23  24  1   
 50  24  47  1   
 51  24  48  1   
 52  24  49  1   
@<TRIPOS>SUBSTRUCTURE
  1 ****   6 GROUP 4 **** **** 0

# MOE 2024.06 (io_trps.svl 2023.06)
