@<TRIPOS>MOLECULE
NONAME
40 41 1 0 0 
SMALL
USER_CHARGES


@<TRIPOS>ATOM
  1 O        0.4640    -0.5480    -1.2250 O.2   1 <1>  -0.5700 
  2 C        1.2550    -0.7370    -0.3330 C.2   1 <1>   0.5690 
  3 N        2.0270     0.2400     0.2180 N.am  1 <1>  -0.4930 
  4 C        1.4170    -2.1420     0.2100 C.3   1 <1>  -0.0990 
  5 C        2.1000     1.6190    -0.1030 C.2   1 <1>   0.0630 
  6 C        0.3560    -3.1030    -0.3450 C.3   1 <1>   0.0960 
  7 C        1.0790     2.5310    -0.3910 C.2   1 <1>   0.1080 
  8 C        3.2370     2.3470    -0.1600 C.2   1 <1>  -0.3320 
  9 N        0.5360    -4.4470     0.2310 N.pl3 1 <1>   0.0480 
 10 N        1.5370     3.7230    -0.6100 N.2   1 <1>  -0.7070 
 11 C       -0.4050     2.2450    -0.4420 C.3   1 <1>  -0.0590 
 12 N        2.8690     3.6160    -0.4730 N.pl3 1 <1>   0.3140 
 13 C        4.6790     1.9090     0.0570 C.3   1 <1>  -0.0600 
 14 C        0.0290    -4.9440     1.3590 C.2   1 <1>   0.0360 
 15 C        1.2700    -5.4600    -0.2300 C.2   1 <1>   0.0370 
 16 C        3.7430     4.7920    -0.6640 C.3   1 <1>   0.0960 
 17 N        0.4230    -6.1510     1.5710 N.2   1 <1>  -0.3380 
 18 N        1.2190    -6.4820     0.5520 N.2   1 <1>  -0.3380 
 19 C        3.9910     5.5160     0.6670 C.3   1 <1>  -0.1600 
 20 C        4.9070     6.7310     0.4810 C.3   1 <1>  -0.2400 
 21 H        2.7160    -0.0470     0.9090 H     1 <1>   0.3700 
 22 H        1.3390    -2.1050     1.2820 H     1 <1>   0.0800 
 23 H        2.3960    -2.4960    -0.0590 H     1 <1>   0.0800 
 24 H        0.4360    -3.1680    -1.4170 H     1 <1>   0.0800 
 25 H       -0.6310    -2.7480    -0.1020 H     1 <1>   0.0800 
 26 H       -0.6660     1.4960     0.2810 H     1 <1>   0.0800 
 27 H       -0.6680     1.8970    -1.4240 H     1 <1>   0.0800 
 28 H       -0.9570     3.1420    -0.2310 H     1 <1>   0.0800 
 29 H        4.7310     0.8570     0.2680 H     1 <1>   0.0800 
 30 H        5.1110     2.4450     0.8820 H     1 <1>   0.0800 
 31 H        5.2600     2.1020    -0.8280 H     1 <1>   0.0800 
 32 H       -0.6280    -4.3920     2.0070 H     1 <1>   0.1500 
 33 H        1.8340    -5.4160    -1.1440 H     1 <1>   0.1500 
 34 H        3.2580     5.4560    -1.3570 H     1 <1>   0.0800 
 35 H        4.6700     4.4680    -1.0980 H     1 <1>   0.0800 
 36 H        4.4420     4.8380     1.3700 H     1 <1>   0.0800 
 37 H        3.0460     5.8430     1.0680 H     1 <1>   0.0800 
 38 H        5.8650     6.4290     0.0950 H     1 <1>   0.0800 
 39 H        5.0590     7.2240     1.4250 H     1 <1>   0.0800 
 40 H        4.4640     7.4350    -0.2020 H     1 <1>   0.0800 
@<TRIPOS>BOND
  1   1   2  2   
  2   2   3  am  
  3   2   4  1   
  4   3   5  1   
  5   3  21  1   
  6   4   6  1   
  7   4  22  1   
  8   4  23  1   
  9   5   7  1   
 10   5   8  2   
 11   6   9  1   
 12   6  24  1   
 13   6  25  1   
 14   7  10  2   
 15   7  11  1   
 16   8  12  1   
 17   8  13  1   
 18   9  14  1   
 19   9  15  1   
 20  10  12  1   
 21  11  26  1   
 22  11  27  1   
 23  11  28  1   
 24  12  16  1   
 25  13  29  1   
 26  13  30  1   
 27  13  31  1   
 28  14  17  2   
 29  14  32  1   
 30  15  18  2   
 31  15  33  1   
 32  16  19  1   
 33  16  34  1   
 34  16  35  1   
 35  17  18  1   
 36  19  20  1   
 37  19  36  1   
 38  19  37  1   
 39  20  38  1   
 40  20  39  1   
 41  20  40  1   
@<TRIPOS>SUBSTRUCTURE
  1 ****   3 GROUP 4 **** **** 0

# MOE 2024.06 (io_trps.svl 2023.06)
