@<TRIPOS>MOLECULE
NONAME
37 38 1 0 0 
SMALL
USER_CHARGES


@<TRIPOS>ATOM
  1 O        0.9640    -1.2550     1.5030 O.co2 1 <1>  -0.9000 
  2 C        1.4420    -0.6850     0.5260 C.2   1 <1>   0.9060 
  3 O        0.9380    -0.7030    -0.6030 O.co2 1 <1>  -0.9000 
  4 C        2.7430     0.0630     0.7030 C.3   1 <1>  -0.1860 
  5 C        3.7690    -0.4410    -0.3170 C.3   1 <1>   0.2000 
  6 C        2.5560     1.6010     0.6220 C.3   1 <1>  -0.1600 
  7 O        3.3010    -0.1410    -1.5850 O.3   1 <1>  -0.6800 
  8 C        5.1260     0.2670    -0.1210 C.3   1 <1>   0.3430 
  9 C        3.7360     2.3190    -0.0410 C.3   1 <1>   0.3430 
 10 N        5.0150     1.6860     0.4080 N.4   1 <1>  -0.9590 
 11 C        6.2220     2.4710     0.0210 C.3   1 <1>   0.3430 
 12 C        6.3150     3.7990     0.7750 C.3   1 <1>  -0.0170 
 13 C        7.6210     4.4760     0.4080 C.ar  1 <1>  -0.1430 
 14 C        7.7080     5.2420    -0.7450 C.ar  1 <1>  -0.1500 
 15 C        8.7410     4.3270     1.2130 C.ar  1 <1>  -0.1500 
 16 C        8.9020     5.8480    -1.0920 C.ar  1 <1>  -0.1500 
 17 C        9.9350     4.9340     0.8650 C.ar  1 <1>  -0.1500 
 18 C       10.0170     5.6940    -0.2880 C.ar  1 <1>  -0.1500 
 19 H        3.1060    -0.1860     1.6830 H     1 <1>   0.0800 
 20 H        3.8790    -1.5110    -0.2590 H     1 <1>   0.0800 
 21 H        2.3820     1.9950     1.6070 H     1 <1>   0.0800 
 22 H        1.6770     1.8210     0.0390 H     1 <1>   0.0800 
 23 H        2.3210    -0.3800    -1.5750 H     1 <1>   0.4000 
 24 H        5.6330     0.2620    -1.0710 H     1 <1>   0.0800 
 25 H        5.7130    -0.3130     0.5700 H     1 <1>   0.0800 
 26 H        3.7070     3.3650     0.2130 H     1 <1>   0.0800 
 27 H        3.6480     2.2240    -1.1130 H     1 <1>   0.0800 
 28 H        4.9530     1.6170     1.4300 H     1 <1>   0.4500 
 29 H        7.1080     1.8980     0.2400 H     1 <1>   0.0800 
 30 H        6.2090     2.6630    -1.0400 H     1 <1>   0.0800 
 31 H        5.5000     4.4490     0.5100 H     1 <1>   0.0800 
 32 H        6.2870     3.6260     1.8360 H     1 <1>   0.0800 
 33 H        6.8520     5.3800    -1.3830 H     1 <1>   0.1500 
 34 H        8.7000     3.7450     2.1170 H     1 <1>   0.1500 
 35 H        8.9670     6.4420    -1.9870 H     1 <1>   0.1500 
 36 H       10.8030     4.8190     1.4930 H     1 <1>   0.1500 
 37 H       10.9460     6.1660    -0.5570 H     1 <1>   0.1500 
@<TRIPOS>BOND
  1   1   2  ar  
  2   2   3  ar  
  3   2   4  1   
  4   4   5  1   
  5   4   6  1   
  6   4  19  1   
  7   5   7  1   
  8   5   8  1   
  9   5  20  1   
 10   6   9  1   
 11   6  21  1   
 12   6  22  1   
 13   7  23  1   
 14   8  10  1   
 15   8  24  1   
 16   8  25  1   
 17   9  10  1   
 18   9  26  1   
 19   9  27  1   
 20  10  11  1   
 21  10  28  1   
 22  11  12  1   
 23  11  29  1   
 24  11  30  1   
 25  12  13  1   
 26  12  31  1   
 27  12  32  1   
 28  13  14  ar  
 29  13  15  ar  
 30  14  16  ar  
 31  14  33  1   
 32  15  17  ar  
 33  15  34  1   
 34  16  18  ar  
 35  16  35  1   
 36  17  18  ar  
 37  17  36  1   
 38  18  37  1   
@<TRIPOS>SUBSTRUCTURE
  1 ****  10 GROUP 4 **** **** 0

# MOE 2024.06 (io_trps.svl 2023.06)
