@<TRIPOS>MOLECULE
NONAME
46 48 1 0 0 
SMALL
USER_CHARGES


@<TRIPOS>ATOM
  1 F        4.2400     0.6900     0.4850 F     1 <1>  -0.3400 
  2 C        4.1430    -0.3670     1.2790 C.3   1 <1>   1.1640 
  3 F        5.3680    -0.8670     1.3890 F     1 <1>  -0.3400 
  4 F        3.8240     0.0970     2.4820 F     1 <1>  -0.3400 
  5 C        3.1230    -1.3910     0.7530 C.ar  1 <1>  -0.1440 
  6 C        1.7710    -1.2690     1.0580 C.ar  1 <1>  -0.1500 
  7 C        3.5210    -2.4550    -0.0510 C.ar  1 <1>  -0.1500 
  8 C        0.8530    -2.1870     0.5820 C.ar  1 <1>  -0.1500 
  9 C        2.5960    -3.3690    -0.5230 C.ar  1 <1>  -0.1500 
 10 C        1.2420    -3.2640    -0.2130 C.ar  1 <1>   0.0860 
 11 C        0.2820    -4.2350    -0.7100 C.2   1 <1>   0.5440 
 12 O        0.3730    -4.6220    -1.8610 O.2   1 <1>  -0.5700 
 13 N       -0.7290    -4.7360     0.0880 N.am  1 <1>  -0.6600 
 14 C       -1.9090    -5.3950    -0.5570 C.3   1 <1>   0.2200 
 15 C       -0.5090    -4.9460     1.5520 C.3   1 <1>   0.0600 
 16 C       -2.9700    -5.9360     0.4050 C.3   1 <1>  -0.1600 
 17 C       -2.6970    -4.3990    -1.4050 C.3   1 <1>  -0.1600 
 18 C       -4.2390    -6.0660    -0.4470 C.3   1 <1>  -0.0800 
 19 C       -4.0790    -5.0380    -1.5890 C.3   1 <1>  -0.0800 
 20 C       -5.5310    -5.9300     0.3810 C.3   1 <1>   0.1400 
 21 C       -5.2190    -4.0060    -1.6590 C.3   1 <1>  -0.0990 
 22 N       -6.6820    -5.6250    -0.5060 N.am  1 <1>  -0.6600 
 23 C       -6.5630    -4.6880    -1.4960 C.2   1 <1>   0.5690 
 24 C       -7.9550    -6.3400    -0.2260 C.3   1 <1>   0.0600 
 25 O       -7.4710    -4.3790    -2.2300 O.2   1 <1>  -0.5700 
 26 H        1.4240    -0.4510     1.6690 H     1 <1>   0.1500 
 27 H        4.5580    -2.5790    -0.3200 H     1 <1>   0.1500 
 28 H       -0.1900    -2.0710     0.8220 H     1 <1>   0.1500 
 29 H        2.9200    -4.1830    -1.1500 H     1 <1>   0.1500 
 30 H       -1.5640    -6.1980    -1.1880 H     1 <1>   0.0800 
 31 H       -1.2040    -4.3480     2.1150 H     1 <1>   0.0800 
 32 H        0.4920    -4.6700     1.8350 H     1 <1>   0.0800 
 33 H       -0.6460    -5.9840     1.7990 H     1 <1>   0.0800 
 34 H       -2.6810    -6.8830     0.8250 H     1 <1>   0.0800 
 35 H       -3.1470    -5.2210     1.1870 H     1 <1>   0.0800 
 36 H       -2.7810    -3.4710    -0.8690 H     1 <1>   0.0800 
 37 H       -2.2200    -4.2240    -2.3530 H     1 <1>   0.0800 
 38 H       -4.2400    -7.0470    -0.8940 H     1 <1>   0.0800 
 39 H       -4.0770    -5.5880    -2.5160 H     1 <1>   0.0800 
 40 H       -5.4350    -5.1260     1.0910 H     1 <1>   0.0800 
 41 H       -5.7100    -6.8420     0.9240 H     1 <1>   0.0800 
 42 H       -5.1900    -3.4880    -2.6000 H     1 <1>   0.0800 
 43 H       -5.1230    -3.2820    -0.8720 H     1 <1>   0.0800 
 44 H       -8.2780    -6.1290     0.7780 H     1 <1>   0.0800 
 45 H       -7.8090    -7.4000    -0.3400 H     1 <1>   0.0800 
 46 H       -8.7240    -6.0230    -0.9090 H     1 <1>   0.0800 
@<TRIPOS>BOND
  1   1   2  1   
  2   2   3  1   
  3   2   4  1   
  4   2   5  1   
  5   5   6  ar  
  6   5   7  ar  
  7   6   8  ar  
  8   6  26  1   
  9   7   9  ar  
 10   7  27  1   
 11   8  10  ar  
 12   8  28  1   
 13   9  10  ar  
 14   9  29  1   
 15  10  11  1   
 16  11  12  2   
 17  11  13  am  
 18  13  14  1   
 19  13  15  1   
 20  14  16  1   
 21  14  17  1   
 22  14  30  1   
 23  15  31  1   
 24  15  32  1   
 25  15  33  1   
 26  16  18  1   
 27  16  34  1   
 28  16  35  1   
 29  17  19  1   
 30  17  36  1   
 31  17  37  1   
 32  18  19  1   
 33  18  20  1   
 34  18  38  1   
 35  19  21  1   
 36  19  39  1   
 37  20  22  1   
 38  20  40  1   
 39  20  41  1   
 40  21  23  1   
 41  21  42  1   
 42  21  43  1   
 43  22  23  am  
 44  22  24  1   
 45  23  25  2   
 46  24  44  1   
 47  24  45  1   
 48  24  46  1   
@<TRIPOS>SUBSTRUCTURE
  1 ****  13 GROUP 4 **** **** 0

# MOE 2024.06 (io_trps.svl 2023.06)
