@<TRIPOS>MOLECULE
NONAME
42 43 1 0 0 
SMALL
USER_CHARGES


@<TRIPOS>ATOM
  1 O       -0.5890    -0.8900     1.1610 O.2   1 <1>  -0.5700 
  2 C       -1.2400    -0.0220     0.6250 C.2   1 <1>   0.5690 
  3 N       -2.1000    -0.3120    -0.4060 N.am  1 <1>  -0.6600 
  4 C       -1.0820     1.3940     1.1730 C.3   1 <1>   0.0440 
  5 C       -2.2950    -1.7250    -0.8600 C.3   1 <1>   0.3210 
  6 C       -2.8500     0.7240    -1.1960 C.3   1 <1>   0.1400 
  7 C       -0.3260     2.3470     0.2400 C.ar  1 <1>  -0.1440 
  8 C       -3.7200    -2.1900    -0.5870 C.2   1 <1>   0.0460 
  9 C       -4.2910     0.9640    -0.7060 C.3   1 <1>   0.1200 
 10 C       -0.7660     3.6440    -0.0260 C.ar  1 <1>  -0.1440 
 11 C        0.8430     1.8920    -0.3550 C.ar  1 <1>  -0.1500 
 12 N       -4.6190    -2.2870    -1.5890 N.2   1 <1>  -0.5650 
 13 C       -4.2800    -2.5370     0.5970 C.2   1 <1>  -0.3320 
 14 O       -4.3920     0.7640     0.6630 O.3   1 <1>  -0.6800 
 15 C       -0.0350     4.4470    -0.8900 C.ar  1 <1>  -0.1500 
 16 C       -2.0260     4.2220     0.6050 C.3   1 <1>  -0.0970 
 17 C        1.5640     2.7000    -1.2130 C.ar  1 <1>  -0.1500 
 18 C       -5.6980    -2.6870    -1.0000 C.2   1 <1>   0.0360 
 19 N       -5.5600    -2.8570     0.3300 N.pl3 1 <1>   0.0330 
 20 C       -3.6910    -2.5910     1.9970 C.3   1 <1>  -0.0600 
 21 C        1.1230     3.9810    -1.4830 C.ar  1 <1>  -0.1500 
 22 H       -0.5380     1.3380     2.0980 H     1 <1>   0.0800 
 23 H       -2.0590     1.7590     1.4130 H     1 <1>   0.0800 
 24 H       -1.6150    -2.3870    -0.3540 H     1 <1>   0.0800 
 25 H       -2.0910    -1.7950    -1.9130 H     1 <1>   0.0800 
 26 H       -2.8830     0.4280    -2.2300 H     1 <1>   0.0800 
 27 H       -2.3230     1.6580    -1.1720 H     1 <1>   0.0800 
 28 H       -4.9680     0.2820    -1.1900 H     1 <1>   0.0800 
 29 H       -4.6040     1.9690    -0.9280 H     1 <1>   0.0800 
 30 H        1.2030     0.8970    -0.1510 H     1 <1>   0.1500 
 31 H       -4.0920    -0.1560     0.8400 H     1 <1>   0.4000 
 32 H       -0.3630     5.4490    -1.1060 H     1 <1>   0.1500 
 33 H       -1.9550     4.1750     1.6770 H     1 <1>   0.0800 
 34 H       -2.8910     3.6690     0.2860 H     1 <1>   0.0800 
 35 H       -2.1630     5.2500     0.3250 H     1 <1>   0.0800 
 36 H        2.4660     2.3320    -1.6680 H     1 <1>   0.1500 
 37 H       -6.6300    -2.8730    -1.5060 H     1 <1>   0.1500 
 38 H       -6.2790    -3.1640     0.9910 H     1 <1>   0.2700 
 39 H       -2.6440    -2.3480     1.9770 H     1 <1>   0.0800 
 40 H       -3.7970    -3.5790     2.4070 H     1 <1>   0.0800 
 41 H       -4.1910    -1.8890     2.6400 H     1 <1>   0.0800 
 42 H        1.6810     4.6140    -2.1500 H     1 <1>   0.1500 
@<TRIPOS>BOND
  1   1   2  2   
  2   2   3  am  
  3   2   4  1   
  4   3   5  1   
  5   3   6  1   
  6   4   7  1   
  7   4  22  1   
  8   4  23  1   
  9   5   8  1   
 10   5  24  1   
 11   5  25  1   
 12   6   9  1   
 13   6  26  1   
 14   6  27  1   
 15   7  10  ar  
 16   7  11  ar  
 17   8  12  1   
 18   8  13  2   
 19   9  14  1   
 20   9  28  1   
 21   9  29  1   
 22  10  15  ar  
 23  10  16  1   
 24  11  17  ar  
 25  11  30  1   
 26  12  18  2   
 27  13  19  1   
 28  13  20  1   
 29  14  31  1   
 30  15  21  ar  
 31  15  32  1   
 32  16  33  1   
 33  16  34  1   
 34  16  35  1   
 35  17  21  ar  
 36  17  36  1   
 37  18  19  1   
 38  18  37  1   
 39  19  38  1   
 40  20  39  1   
 41  20  40  1   
 42  20  41  1   
 43  21  42  1   
@<TRIPOS>SUBSTRUCTURE
  1 ****   3 GROUP 4 **** **** 0

# MOE 2024.06 (io_trps.svl 2023.06)
