@<TRIPOS>MOLECULE
NONAME
52 54 1 0 0 
SMALL
USER_CHARGES


@<TRIPOS>ATOM
  1 O       -0.1830     0.6700    -0.4700 O.2   1 <1>  -0.5700 
  2 C       -0.2590     1.8770    -0.4620 C.2   1 <1>   0.5690 
  3 N       -1.2790     2.5690     0.1450 N.am  1 <1>  -0.5090 
  4 C        0.8570     2.6490    -1.1630 C.3   1 <1>   0.1810 
  5 C       -1.2660     4.0710     0.1920 C.3   1 <1>   0.3640 
  6 C       -2.1590     1.9090     1.1480 C.3   1 <1>   0.0490 
  7 O        1.0540     3.9250    -0.6120 O.3   1 <1>  -0.5600 
  8 C       -2.5810     4.6440    -0.3410 C.ar  1 <1>  -0.1440 
  9 C       -0.1120     4.7230    -0.6140 C.3   1 <1>   0.2610 
 10 C       -2.9290     0.6850     0.7580 C.3   1 <1>  -0.2000 
 11 C       -3.6530     1.9620     1.0290 C.3   1 <1>  -0.2000 
 12 C       -3.1150     4.2150    -1.5500 C.ar  1 <1>  -0.1500 
 13 C       -3.2480     5.6260     0.3780 C.ar  1 <1>  -0.1500 
 14 C        0.1900     6.1520    -0.1250 C.2   1 <1>   0.5690 
 15 C       -4.2930     4.7600    -2.0280 C.ar  1 <1>  -0.1500 
 16 C       -4.4280     6.1720    -0.0970 C.ar  1 <1>  -0.1500 
 17 O       -0.1200     6.4610     1.0070 O.2   1 <1>  -0.5700 
 18 N        0.7840     7.0730    -0.9620 N.am  1 <1>  -0.6600 
 19 C       -4.9580     5.7390    -1.3090 C.ar  1 <1>   0.0830 
 20 C        0.9610     8.4850    -0.5310 C.3   1 <1>   0.1400 
 21 C        1.3270     6.7530    -2.3140 C.3   1 <1>   0.0600 
 22 O       -6.1050     6.2210    -1.8480 O.3   1 <1>  -0.3630 
 23 C        2.3220     8.6520     0.1460 C.3   1 <1>  -0.1600 
 24 C       -6.8620     7.2140    -1.1930 C.3   1 <1>   0.0400 
 25 C        2.4890    10.0750     0.6710 C.3   1 <1>   0.1200 
 26 O        3.7510    10.1900     1.2190 O.3   1 <1>  -0.6800 
 27 H        0.6280     2.7520    -2.2080 H     1 <1>   0.0800 
 28 H        1.7790     2.1060    -1.0620 H     1 <1>   0.0800 
 29 H       -1.1630     4.3430     1.2280 H     1 <1>   0.0800 
 30 H       -1.7290     1.9290     2.1360 H     1 <1>   0.1000 
 31 H       -0.4300     4.8040    -1.6370 H     1 <1>   0.0800 
 32 H       -2.8570     0.3330    -0.2560 H     1 <1>   0.1000 
 33 H       -3.0100    -0.1170     1.4690 H     1 <1>   0.1000 
 34 H       -4.2400     2.0310     1.9270 H     1 <1>   0.1000 
 35 H       -4.1290     2.4410     0.1930 H     1 <1>   0.1000 
 36 H       -2.6220     3.4480    -2.1220 H     1 <1>   0.1500 
 37 H       -2.8470     5.9770     1.3150 H     1 <1>   0.1500 
 38 H       -4.7090     4.4270    -2.9610 H     1 <1>   0.1500 
 39 H       -4.9160     6.9290     0.4860 H     1 <1>   0.1500 
 40 H        0.8830     9.1380    -1.3840 H     1 <1>   0.0800 
 41 H        0.1780     8.7510     0.1600 H     1 <1>   0.0800 
 42 H        2.1950     7.3570    -2.5150 H     1 <1>   0.0800 
 43 H        0.5810     6.9560    -3.0620 H     1 <1>   0.0800 
 44 H        1.6230     5.7210    -2.3740 H     1 <1>   0.0800 
 45 H        3.1030     8.4420    -0.5630 H     1 <1>   0.0800 
 46 H        2.3870     7.9600     0.9670 H     1 <1>   0.0800 
 47 H       -7.7210     7.4330    -1.8000 H     1 <1>   0.0800 
 48 H       -6.2580     8.0970    -1.0810 H     1 <1>   0.0800 
 49 H       -7.1770     6.8370    -0.2360 H     1 <1>   0.0800 
 50 H        1.7640    10.3000     1.4350 H     1 <1>   0.0800 
 51 H        2.4080    10.7960    -0.1250 H     1 <1>   0.0800 
 52 H        3.8700     9.5390     1.9370 H     1 <1>   0.4000 
@<TRIPOS>BOND
  1   1   2  2   
  2   2   3  am  
  3   2   4  1   
  4   3   5  1   
  5   3   6  1   
  6   4   7  1   
  7   4  27  1   
  8   4  28  1   
  9   5   8  1   
 10   5   9  1   
 11   5  29  1   
 12   6  10  1   
 13   6  11  1   
 14   6  30  1   
 15   7   9  1   
 16   8  12  ar  
 17   8  13  ar  
 18   9  14  1   
 19   9  31  1   
 20  10  11  1   
 21  10  32  1   
 22  10  33  1   
 23  11  34  1   
 24  11  35  1   
 25  12  15  ar  
 26  12  36  1   
 27  13  16  ar  
 28  13  37  1   
 29  14  17  2   
 30  14  18  am  
 31  15  19  ar  
 32  15  38  1   
 33  16  19  ar  
 34  16  39  1   
 35  18  20  1   
 36  18  21  1   
 37  19  22  1   
 38  20  23  1   
 39  20  40  1   
 40  20  41  1   
 41  21  42  1   
 42  21  43  1   
 43  21  44  1   
 44  22  24  1   
 45  23  25  1   
 46  23  45  1   
 47  23  46  1   
 48  24  47  1   
 49  24  48  1   
 50  24  49  1   
 51  25  26  1   
 52  25  50  1   
 53  25  51  1   
 54  26  52  1   
@<TRIPOS>SUBSTRUCTURE
  1 ****   5 GROUP 4 **** **** 0

# MOE 2024.06 (io_trps.svl 2023.06)
