@<TRIPOS>MOLECULE
NONAME
42 44 1 0 0 
SMALL
USER_CHARGES


@<TRIPOS>ATOM
  1 S       -0.1790     0.0600     0.6000 S.3   1 <1>  -0.0800 
  2 C       -1.5210    -0.7040    -0.1860 C.2   1 <1>   0.4420 
  3 C       -0.5810     1.4990    -0.2730 C.2   1 <1>   0.1980 
  4 N       -2.1410     0.0970    -0.9750 N.2   1 <1>  -0.3380 
  5 N       -1.7440    -2.0240     0.1250 N.am  1 <1>  -0.4940 
  6 N       -1.5990     1.3520    -1.0200 N.2   1 <1>  -0.3380 
  7 C        0.2790     2.7310    -0.0670 C.3   1 <1>   0.1640 
  8 C       -2.7100    -2.8920    -0.3140 C.2   1 <1>   0.7160 
  9 C        1.7310     2.4580    -0.4360 C.ar  1 <1>  -0.1440 
 10 O       -3.5640    -2.5300    -1.0990 O.2   1 <1>  -0.5700 
 11 C       -2.6830    -4.2490     0.1880 C.2   1 <1>   0.2030 
 12 C        2.7250     2.4760     0.5320 C.ar  1 <1>  -0.1500 
 13 C        2.0680     2.1830    -1.7520 C.ar  1 <1>  -0.1500 
 14 N       -1.8170    -4.7280     1.0320 N.2   1 <1>  -0.4100 
 15 C       -3.5700    -5.2600    -0.1460 C.2   1 <1>  -0.1500 
 16 C        4.0450     2.2220     0.1920 C.ar  1 <1>  -0.1430 
 17 C        3.3830     1.9290    -2.0960 C.ar  1 <1>  -0.1500 
 18 O       -2.0750    -5.9890     1.2780 O.3   1 <1>  -0.0190 
 19 C       -3.1350    -6.3060     0.5640 C.2   1 <1>  -0.0400 
 20 C        4.3680     1.9490    -1.1260 C.ar  1 <1>  -0.1500 
 21 C        5.1370     2.2400     1.2460 C.3   1 <1>  -0.0970 
 22 C       -3.6540    -7.7320     0.6650 C.3   1 <1>   0.0200 
 23 C       -4.8900    -7.9770    -0.2110 C.3   1 <1>  -0.1600 
 24 C       -5.3890    -9.4210    -0.0890 C.3   1 <1>  -0.2400 
 25 H       -1.0900    -2.4500     0.7790 H     1 <1>   0.3700 
 26 H        0.2020     3.0420     0.9580 H     1 <1>   0.0800 
 27 H       -0.0980     3.5280    -0.6830 H     1 <1>   0.0800 
 28 H        2.4750     2.6870     1.5560 H     1 <1>   0.1500 
 29 H        1.3070     2.1610    -2.5140 H     1 <1>   0.1500 
 30 H       -4.3980    -5.1640    -0.8250 H     1 <1>   0.1500 
 31 H        3.6400     1.7160    -3.1190 H     1 <1>   0.1500 
 32 H        5.3890     1.7510    -1.4010 H     1 <1>   0.1500 
 33 H        4.7340     2.4630     2.2170 H     1 <1>   0.0800 
 34 H        5.8700     2.9870     0.9990 H     1 <1>   0.0800 
 35 H        5.6200     1.2800     1.2880 H     1 <1>   0.0800 
 36 H       -3.8970    -7.9360     1.6940 H     1 <1>   0.0800 
 37 H       -2.8670    -8.4040     0.3720 H     1 <1>   0.0800 
 38 H       -4.6450    -7.7750    -1.2400 H     1 <1>   0.0800 
 39 H       -5.6780    -7.3050     0.0850 H     1 <1>   0.0800 
 40 H       -4.6260   -10.1120    -0.4010 H     1 <1>   0.0800 
 41 H       -6.2540    -9.5650    -0.7120 H     1 <1>   0.0800 
 42 H       -5.6620    -9.6410     0.9290 H     1 <1>   0.0800 
@<TRIPOS>BOND
  1   1   2  1   
  2   1   3  1   
  3   2   4  2   
  4   2   5  1   
  5   3   6  2   
  6   3   7  1   
  7   4   6  1   
  8   5   8  am  
  9   5  25  1   
 10   7   9  1   
 11   7  26  1   
 12   7  27  1   
 13   8  10  2   
 14   8  11  1   
 15   9  12  ar  
 16   9  13  ar  
 17  11  14  2   
 18  11  15  1   
 19  12  16  ar  
 20  12  28  1   
 21  13  17  ar  
 22  13  29  1   
 23  14  18  1   
 24  15  19  2   
 25  15  30  1   
 26  16  20  ar  
 27  16  21  1   
 28  17  20  ar  
 29  17  31  1   
 30  18  19  1   
 31  19  22  1   
 32  20  32  1   
 33  21  33  1   
 34  21  34  1   
 35  21  35  1   
 36  22  23  1   
 37  22  36  1   
 38  22  37  1   
 39  23  24  1   
 40  23  38  1   
 41  23  39  1   
 42  24  40  1   
 43  24  41  1   
 44  24  42  1   
@<TRIPOS>SUBSTRUCTURE
  1 ****   5 GROUP 4 **** **** 0

# MOE 2024.06 (io_trps.svl 2023.06)
