@<TRIPOS>MOLECULE
NONAME
49 51 1 0 0 
SMALL
USER_CHARGES


@<TRIPOS>ATOM
  1 O       -0.0960     0.0170    -0.8650 O.2   1 <1>  -0.5700 
  2 C       -1.0860     0.6990    -0.7530 C.2   1 <1>   0.5690 
  3 N       -2.3250     0.1390    -0.6010 N.am  1 <1>  -0.6600 
  4 C       -0.9140     2.2050    -0.7690 C.3   1 <1>  -0.0990 
  5 C       -3.6190     0.8540    -0.4720 C.3   1 <1>   0.1400 
  6 C       -2.5250    -1.3270    -0.5400 C.3   1 <1>   0.1400 
  7 C       -0.7130     2.7530     0.6480 C.3   1 <1>  -0.0160 
  8 C       -4.6770    -0.2490    -0.4050 C.3   1 <1>   0.2000 
  9 C       -3.9350    -1.5150     0.0210 C.3   1 <1>  -0.0800 
 10 C       -0.6560     4.2710     0.6260 C.ar  1 <1>  -0.1440 
 11 O       -5.6680     0.0550     0.5140 O.3   1 <1>  -0.6800 
 12 C       -4.6240    -2.8010    -0.4570 C.3   1 <1>  -0.0170 
 13 C        0.5440     4.9200     0.3840 C.ar  1 <1>  -0.1500 
 14 C       -1.8010     5.0220     0.8440 C.ar  1 <1>  -0.1500 
 15 C       -3.8590    -4.0350    -0.0050 C.ar  1 <1>  -0.1440 
 16 C        0.6110     6.3040     0.3570 C.ar  1 <1>   0.0820 
 17 C       -1.7450     6.4050     0.8200 C.ar  1 <1>  -0.1500 
 18 C       -4.0320    -4.5720     1.2550 C.ar  1 <1>  -0.1500 
 19 C       -2.9530    -4.6800    -0.8230 C.ar  1 <1>  -0.1500 
 20 O        1.8280     6.8530     0.1130 O.3   1 <1>  -0.3620 
 21 C       -0.5440     7.0490     0.5770 C.ar  1 <1>  -0.1500 
 22 C       -3.3110    -5.6940     1.6260 C.ar  1 <1>   0.1600 
 23 C       -2.2810    -5.7970    -0.3530 C.ar  1 <1>   0.1600 
 24 C        2.0080     8.2510     0.0770 C.3   1 <1>   0.0400 
 25 N       -2.4380    -6.3200     0.8520 N.ar  1 <1>  -0.6200 
 26 H       -0.0520     2.4450    -1.3650 H     1 <1>   0.0800 
 27 H       -1.7620     2.6720    -1.2310 H     1 <1>   0.0800 
 28 H       -3.6160     1.4400     0.4310 H     1 <1>   0.0800 
 29 H       -3.7880     1.4840    -1.3270 H     1 <1>   0.0800 
 30 H       -2.4470    -1.7280    -1.5360 H     1 <1>   0.0800 
 31 H       -1.7830    -1.7920     0.0890 H     1 <1>   0.0800 
 32 H        0.2010     2.3590     1.0570 H     1 <1>   0.0800 
 33 H       -1.5180     2.4310     1.2840 H     1 <1>   0.0800 
 34 H       -5.1370    -0.3690    -1.3720 H     1 <1>   0.0800 
 35 H       -3.8470    -1.5350     1.0940 H     1 <1>   0.0800 
 36 H       -5.2960     0.0990     1.4160 H     1 <1>   0.4000 
 37 H       -4.7060    -2.7990    -1.5300 H     1 <1>   0.0800 
 38 H       -5.6240    -2.8390    -0.0580 H     1 <1>   0.0800 
 39 H        1.4440     4.3580     0.2110 H     1 <1>   0.1500 
 40 H       -2.7410     4.5350     1.0340 H     1 <1>   0.1500 
 41 H       -2.6370     6.9810     0.9910 H     1 <1>   0.1500 
 42 H       -4.7220    -4.1300     1.9500 H     1 <1>   0.1500 
 43 H       -2.7600    -4.3280    -1.8190 H     1 <1>   0.1500 
 44 H       -0.5280     8.1210     0.5640 H     1 <1>   0.1500 
 45 H       -3.4600    -6.1000     2.6120 H     1 <1>   0.1500 
 46 H       -1.5770    -6.2860    -1.0040 H     1 <1>   0.1500 
 47 H        3.0440     8.4490    -0.1260 H     1 <1>   0.0800 
 48 H        1.7370     8.6620     1.0340 H     1 <1>   0.0800 
 49 H        1.3960     8.6620    -0.7070 H     1 <1>   0.0800 
@<TRIPOS>BOND
  1   1   2  2   
  2   2   3  am  
  3   2   4  1   
  4   3   5  1   
  5   3   6  1   
  6   4   7  1   
  7   4  26  1   
  8   4  27  1   
  9   5   8  1   
 10   5  28  1   
 11   5  29  1   
 12   6   9  1   
 13   6  30  1   
 14   6  31  1   
 15   7  10  1   
 16   7  32  1   
 17   7  33  1   
 18   8   9  1   
 19   8  11  1   
 20   8  34  1   
 21   9  12  1   
 22   9  35  1   
 23  10  13  ar  
 24  10  14  ar  
 25  11  36  1   
 26  12  15  1   
 27  12  37  1   
 28  12  38  1   
 29  13  16  ar  
 30  13  39  1   
 31  14  17  ar  
 32  14  40  1   
 33  15  18  ar  
 34  15  19  ar  
 35  16  20  1   
 36  16  21  ar  
 37  17  21  ar  
 38  17  41  1   
 39  18  22  ar  
 40  18  42  1   
 41  19  23  ar  
 42  19  43  1   
 43  20  24  1   
 44  21  44  1   
 45  22  25  ar  
 46  22  45  1   
 47  23  25  ar  
 48  23  46  1   
 49  24  47  1   
 50  24  48  1   
 51  24  49  1   
@<TRIPOS>SUBSTRUCTURE
  1 ****   3 GROUP 4 **** **** 0

# MOE 2024.06 (io_trps.svl 2023.06)
