@<TRIPOS>MOLECULE
NONAME
46 48 1 0 0 
SMALL
USER_CHARGES


@<TRIPOS>ATOM
  1 CL      -1.0580    -0.2040    -2.3110 Cl    1 <1>  -0.1770 
  2 C       -2.0610     0.8510    -1.3520 C.ar  1 <1>   0.1770 
  3 C       -1.7450     2.1760    -1.2370 C.ar  1 <1>  -0.1500 
  4 C       -3.1790     0.3150    -0.7200 C.ar  1 <1>  -0.1500 
  5 C       -2.5230     3.0430    -0.4450 C.ar  1 <1>   0.0000 
  6 C       -4.0060     1.1360     0.0100 C.ar  1 <1>  -0.1440 
  7 C       -3.7060     2.5110     0.1200 C.ar  1 <1>   0.3610 
  8 C       -2.2070     4.4290    -0.2420 C.ar  1 <1>   0.1000 
  9 C       -5.2390     0.5230     0.6720 C.3   1 <1>  -0.0960 
 10 N       -4.5830     3.3710     0.7430 N.ar  1 <1>  -0.1790 
 11 N       -1.0060     4.9800    -0.5570 N.pl3 1 <1>  -0.8380 
 12 C       -3.1910     5.2240     0.3500 C.ar  1 <1>  -0.1500 
 13 C       -4.3540     4.6920     0.8340 C.ar  1 <1>   0.2110 
 14 C       -0.8390     6.3830    -1.0790 C.3   1 <1>   0.2090 
 15 C        0.3140     4.3170    -0.3110 C.3   1 <1>   0.2090 
 16 C       -0.0360     7.2520    -0.0980 C.3   1 <1>   0.2000 
 17 C        1.1380     5.1520     0.6770 C.3   1 <1>  -0.1600 
 18 O        0.1600     8.4950    -0.6990 O.3   1 <1>  -0.5600 
 19 C        1.3240     6.6050     0.2090 C.3   1 <1>  -0.1600 
 20 C        0.4640     9.5440     0.1660 C.3   1 <1>   0.1200 
 21 C        0.5520    10.8210    -0.6670 C.3   1 <1>  -0.1600 
 22 C        0.8820    12.0360     0.2070 C.3   1 <1>  -0.2400 
 23 H       -0.8940     2.5520    -1.7730 H     1 <1>   0.1500 
 24 H       -3.3680    -0.7390    -0.8350 H     1 <1>   0.1500 
 25 H       -5.2610    -0.5430     0.5200 H     1 <1>   0.0800 
 26 H       -6.1420     0.9270     0.2480 H     1 <1>   0.0800 
 27 H       -5.2290     0.6950     1.7340 H     1 <1>   0.0800 
 28 H       -5.4420     2.9630     1.1170 H     1 <1>   0.4570 
 29 H       -3.0150     6.2780     0.4640 H     1 <1>   0.1500 
 30 H       -5.0940     5.3220     1.3030 H     1 <1>   0.1500 
 31 H       -1.7940     6.8370    -1.2670 H     1 <1>   0.0800 
 32 H       -0.3080     6.3380    -2.0140 H     1 <1>   0.0800 
 33 H        0.8450     4.2200    -1.2430 H     1 <1>   0.0800 
 34 H        0.1730     3.3370     0.1080 H     1 <1>   0.0800 
 35 H       -0.6120     7.3840     0.8010 H     1 <1>   0.0800 
 36 H        2.1030     4.6930     0.8040 H     1 <1>   0.0800 
 37 H        0.6450     5.1400     1.6320 H     1 <1>   0.0800 
 38 H        1.8340     7.1560     0.9780 H     1 <1>   0.0800 
 39 H        1.9270     6.6160    -0.6820 H     1 <1>   0.0800 
 40 H        1.4060     9.3450     0.6450 H     1 <1>   0.0800 
 41 H       -0.3160     9.6280     0.9030 H     1 <1>   0.0800 
 42 H       -0.3890    10.9850    -1.1630 H     1 <1>   0.0800 
 43 H        1.3180    10.7030    -1.4140 H     1 <1>   0.0800 
 44 H        0.1190    12.1840     0.9510 H     1 <1>   0.0800 
 45 H        0.9390    12.9210    -0.4030 H     1 <1>   0.0800 
 46 H        1.8280    11.9000     0.7000 H     1 <1>   0.0800 
@<TRIPOS>BOND
  1   1   2  1   
  2   2   3  ar  
  3   2   4  ar  
  4   3   5  ar  
  5   3  23  1   
  6   4   6  ar  
  7   4  24  1   
  8   5   7  ar  
  9   5   8  ar  
 10   6   7  ar  
 11   6   9  1   
 12   7  10  ar  
 13   8  11  1   
 14   8  12  ar  
 15   9  25  1   
 16   9  26  1   
 17   9  27  1   
 18  10  13  ar  
 19  10  28  1   
 20  11  14  1   
 21  11  15  1   
 22  12  13  ar  
 23  12  29  1   
 24  13  30  1   
 25  14  16  1   
 26  14  31  1   
 27  14  32  1   
 28  15  17  1   
 29  15  33  1   
 30  15  34  1   
 31  16  18  1   
 32  16  19  1   
 33  16  35  1   
 34  17  19  1   
 35  17  36  1   
 36  17  37  1   
 37  18  20  1   
 38  19  38  1   
 39  19  39  1   
 40  20  21  1   
 41  20  40  1   
 42  20  41  1   
 43  21  22  1   
 44  21  42  1   
 45  21  43  1   
 46  22  44  1   
 47  22  45  1   
 48  22  46  1   
@<TRIPOS>SUBSTRUCTURE
  1 ****   8 GROUP 4 **** **** 0

# MOE 2024.06 (io_trps.svl 2023.06)
