@<TRIPOS>MOLECULE
NONAME
53 55 1 0 0 
SMALL
USER_CHARGES


@<TRIPOS>ATOM
  1 CL       4.3580    -1.1480     1.6470 Cl    1 <1>  -0.1770 
  2 C        3.1810    -0.6430     0.4560 C.ar  1 <1>   0.1770 
  3 C        2.9740     0.7050     0.1910 C.ar  1 <1>  -0.1440 
  4 C        2.4740    -1.6270    -0.2110 C.ar  1 <1>  -0.1500 
  5 C        2.0320     1.0510    -0.7680 C.ar  1 <1>  -0.1500 
  6 C        3.7460     1.8010     0.9160 C.3   1 <1>  -0.0160 
  7 C        1.5380    -1.2680    -1.1650 C.ar  1 <1>  -0.1500 
  8 C        1.3200     0.0710    -1.4410 C.ar  1 <1>  -0.1500 
  9 C        5.1250     2.0100     0.2700 C.3   1 <1>  -0.0990 
 10 C        5.9380     3.1350     0.8960 C.2   1 <1>   0.5690 
 11 O        5.4490     3.7640     1.8060 O.2   1 <1>  -0.5700 
 12 N        7.1870     3.4280     0.4140 N.am  1 <1>  -0.6600 
 13 C        7.8700     2.7360    -0.7250 C.3   1 <1>   0.1400 
 14 C        7.9950     4.5230     1.0150 C.3   1 <1>   0.1400 
 15 C        7.8650     3.5910    -2.0000 C.3   1 <1>   0.1400 
 16 C        7.6390     5.8770     0.3920 C.3   1 <1>  -0.1600 
 17 N        8.4990     4.9290    -1.7850 N.am  1 <1>  -0.6600 
 18 C        7.6030     5.9360    -1.1440 C.3   1 <1>   0.1400 
 19 C        9.8140     5.1380    -2.1220 C.2   1 <1>   0.5690 
 20 O       10.5110     4.2230    -2.5020 O.2   1 <1>  -0.5700 
 21 C       10.4560     6.5170    -2.0480 C.3   1 <1>   0.0440 
 22 C       10.7500     6.9700    -0.6170 C.ar  1 <1>  -0.1430 
 23 C       10.3510     8.2140    -0.1360 C.ar  1 <1>   0.0830 
 24 C       11.4410     6.1180     0.2320 C.ar  1 <1>  -0.1500 
 25 O        9.6780     9.0700    -0.9230 O.3   1 <1>  -0.5330 
 26 C       10.6330     8.5940     1.1670 C.ar  1 <1>  -0.1500 
 27 C       11.7210     6.4930     1.5350 C.ar  1 <1>  -0.1500 
 28 C       11.3170     7.7310     2.0040 C.ar  1 <1>  -0.1500 
 29 H        2.6570    -2.6620     0.0180 H     1 <1>   0.1500 
 30 H        1.8460     2.0860    -0.9970 H     1 <1>   0.1500 
 31 H        3.8650     1.5470     1.9550 H     1 <1>   0.0800 
 32 H        3.1900     2.7220     0.8780 H     1 <1>   0.0800 
 33 H        0.9820    -2.0260    -1.6890 H     1 <1>   0.1500 
 34 H        0.5910     0.3520    -2.1830 H     1 <1>   0.1500 
 35 H        4.9890     2.2300    -0.7720 H     1 <1>   0.0800 
 36 H        5.6850     1.0990     0.3570 H     1 <1>   0.0800 
 37 H        7.4010     1.7940    -0.9360 H     1 <1>   0.0800 
 38 H        8.8910     2.5250    -0.4550 H     1 <1>   0.0800 
 39 H        9.0430     4.3250     0.8690 H     1 <1>   0.0800 
 40 H        7.8180     4.5610     2.0770 H     1 <1>   0.0800 
 41 H        6.8530     3.7200    -2.3400 H     1 <1>   0.0800 
 42 H        8.3940     3.0610    -2.7730 H     1 <1>   0.0800 
 43 H        8.3480     6.5970     0.7530 H     1 <1>   0.0800 
 44 H        6.6810     6.1860     0.7680 H     1 <1>   0.0800 
 45 H        7.8590     6.9290    -1.4690 H     1 <1>   0.0800 
 46 H        6.5940     5.7500    -1.4680 H     1 <1>   0.0800 
 47 H        9.8240     7.2110    -2.5660 H     1 <1>   0.0800 
 48 H       11.3860     6.4870    -2.5850 H     1 <1>   0.0800 
 49 H       11.7670     5.1530    -0.1200 H     1 <1>   0.1500 
 50 H        9.5070     9.9270    -0.4930 H     1 <1>   0.4500 
 51 H       10.3230     9.5540     1.5360 H     1 <1>   0.1500 
 52 H       12.2560     5.8210     2.1830 H     1 <1>   0.1500 
 53 H       11.5370     8.0200     3.0170 H     1 <1>   0.1500 
@<TRIPOS>BOND
  1   1   2  1   
  2   2   3  ar  
  3   2   4  ar  
  4   3   5  ar  
  5   3   6  1   
  6   4   7  ar  
  7   4  29  1   
  8   5   8  ar  
  9   5  30  1   
 10   6   9  1   
 11   6  31  1   
 12   6  32  1   
 13   7   8  ar  
 14   7  33  1   
 15   8  34  1   
 16   9  10  1   
 17   9  35  1   
 18   9  36  1   
 19  10  11  2   
 20  10  12  am  
 21  12  13  1   
 22  12  14  1   
 23  13  15  1   
 24  13  37  1   
 25  13  38  1   
 26  14  16  1   
 27  14  39  1   
 28  14  40  1   
 29  15  17  1   
 30  15  41  1   
 31  15  42  1   
 32  16  18  1   
 33  16  43  1   
 34  16  44  1   
 35  17  18  1   
 36  17  19  am  
 37  18  45  1   
 38  18  46  1   
 39  19  20  2   
 40  19  21  1   
 41  21  22  1   
 42  21  47  1   
 43  21  48  1   
 44  22  23  ar  
 45  22  24  ar  
 46  23  25  1   
 47  23  26  ar  
 48  24  27  ar  
 49  24  49  1   
 50  25  50  1   
 51  26  28  ar  
 52  26  51  1   
 53  27  28  ar  
 54  27  52  1   
 55  28  53  1   
@<TRIPOS>SUBSTRUCTURE
  1 ****  12 GROUP 4 **** **** 0

# MOE 2024.06 (io_trps.svl 2023.06)
