@<TRIPOS>MOLECULE
NONAME
44 46 1 0 0 
SMALL
USER_CHARGES


@<TRIPOS>ATOM
  1 O       -0.5940     0.3030     0.9740 O.2   1 <1>  -0.5700 
  2 C       -1.5790     0.8510     0.5180 C.2   1 <1>   0.7160 
  3 N       -2.7060     0.1050     0.2760 N.am  1 <1>  -0.6600 
  4 C       -1.5530     2.2560     0.2080 C.2   1 <1>  -0.0860 
  5 C       -3.7520     0.4650    -0.7160 C.3   1 <1>   0.1400 
  6 C       -2.8570    -1.3110     0.6800 C.3   1 <1>   0.1400 
  7 C       -2.3680     3.2710     0.5670 C.2   1 <1>  -0.0400 
  8 C       -0.6260     2.9220    -0.5760 C.2   1 <1>   0.1080 
  9 C       -4.6680    -0.7610    -0.8150 C.3   1 <1>   0.2000 
 10 C       -3.7710    -1.9260    -0.3820 C.3   1 <1>  -0.0800 
 11 O       -2.0030     4.4130     0.0360 O.3   1 <1>  -0.0190 
 12 C       -3.5820     3.2630     1.4770 C.3   1 <1>  -0.0600 
 13 N       -0.9200     4.1640    -0.6650 N.2   1 <1>  -0.4100 
 14 C        0.5760     2.2880    -1.2450 C.3   1 <1>  -0.0590 
 15 O       -5.7180    -0.6350     0.1020 O.3   1 <1>  -0.5600 
 16 C       -4.5320    -3.1720     0.1080 C.3   1 <1>   0.0200 
 17 C       -6.8420     0.0400    -0.3710 C.3   1 <1>   0.0400 
 18 C       -3.6250    -4.3620     0.3720 C.2   1 <1>  -0.0400 
 19 O       -4.1450    -5.4430     0.8880 O.3   1 <1>  -0.0190 
 20 C       -2.3140    -4.5910     0.1840 C.2   1 <1>  -0.1500 
 21 N       -3.2570    -6.3800     1.0590 N.2   1 <1>  -0.4100 
 22 C       -2.1440    -5.8930     0.6440 C.2   1 <1>   0.1080 
 23 C       -0.8300    -6.6430     0.6580 C.3   1 <1>  -0.0590 
 24 H       -4.2970     1.3390    -0.4120 H     1 <1>   0.0800 
 25 H       -3.2810     0.6480    -1.6660 H     1 <1>   0.0800 
 26 H       -1.9050    -1.8110     0.7300 H     1 <1>   0.0800 
 27 H       -3.3290    -1.3450     1.6480 H     1 <1>   0.0800 
 28 H       -5.0700    -0.9060    -1.8040 H     1 <1>   0.0800 
 29 H       -3.1610    -2.2000    -1.2240 H     1 <1>   0.0800 
 30 H       -3.7560     2.2790     1.8740 H     1 <1>   0.0800 
 31 H       -4.4510     3.5810     0.9320 H     1 <1>   0.0800 
 32 H       -3.4200     3.9400     2.2970 H     1 <1>   0.0800 
 33 H        0.2610     1.4850    -1.8850 H     1 <1>   0.0800 
 34 H        1.2430     1.9010    -0.4970 H     1 <1>   0.0800 
 35 H        1.1000     3.0200    -1.8320 H     1 <1>   0.0800 
 36 H       -5.2590    -3.4590    -0.6310 H     1 <1>   0.0800 
 37 H       -5.0650    -2.9410     1.0150 H     1 <1>   0.0800 
 38 H       -7.5620     0.0870     0.4270 H     1 <1>   0.0800 
 39 H       -7.2600    -0.5030    -1.2010 H     1 <1>   0.0800 
 40 H       -6.5680     1.0370    -0.6680 H     1 <1>   0.0800 
 41 H       -1.5450    -3.9600    -0.2180 H     1 <1>   0.1500 
 42 H       -0.1140    -6.1110     1.2560 H     1 <1>   0.0800 
 43 H       -0.4560    -6.7400    -0.3440 H     1 <1>   0.0800 
 44 H       -0.9720    -7.6240     1.0740 H     1 <1>   0.0800 
@<TRIPOS>BOND
  1   1   2  2   
  2   2   3  am  
  3   2   4  1   
  4   3   5  1   
  5   3   6  1   
  6   4   7  2   
  7   4   8  1   
  8   5   9  1   
  9   5  24  1   
 10   5  25  1   
 11   6  10  1   
 12   6  26  1   
 13   6  27  1   
 14   7  11  1   
 15   7  12  1   
 16   8  13  2   
 17   8  14  1   
 18   9  10  1   
 19   9  15  1   
 20   9  28  1   
 21  10  16  1   
 22  10  29  1   
 23  11  13  1   
 24  12  30  1   
 25  12  31  1   
 26  12  32  1   
 27  14  33  1   
 28  14  34  1   
 29  14  35  1   
 30  15  17  1   
 31  16  18  1   
 32  16  36  1   
 33  16  37  1   
 34  17  38  1   
 35  17  39  1   
 36  17  40  1   
 37  18  19  1   
 38  18  20  2   
 39  19  21  1   
 40  20  22  1   
 41  20  41  1   
 42  21  22  2   
 43  22  23  1   
 44  23  42  1   
 45  23  43  1   
 46  23  44  1   
@<TRIPOS>SUBSTRUCTURE
  1 ****   6 GROUP 4 **** **** 0

# MOE 2024.06 (io_trps.svl 2023.06)
