@<TRIPOS>MOLECULE
NONAME
59 62 1 0 0 
SMALL
USER_CHARGES


@<TRIPOS>ATOM
  1 F        1.9190     1.2430    -2.8560 F     1 <1>  -0.1900 
  2 C        2.2610     2.2220    -2.0610 C.ar  1 <1>   0.1900 
  3 C        3.2790     2.0140    -1.1540 C.ar  1 <1>  -0.1500 
  4 C        1.5880     3.4250    -2.1650 C.ar  1 <1>  -0.1500 
  5 C        3.6610     3.0480    -0.3010 C.ar  1 <1>   0.0860 
  6 C        1.9560     4.4570    -1.3210 C.ar  1 <1>  -0.1500 
  7 C        4.7270     2.8640     0.6560 C.2   1 <1>   0.5440 
  8 C        2.9750     4.2670    -0.3960 C.ar  1 <1>   0.0830 
  9 O        4.4280     2.5590     1.7970 O.2   1 <1>  -0.5700 
 10 N        6.0610     3.0300     0.3300 N.am  1 <1>  -0.6600 
 11 O        3.3300     5.3040     0.3870 O.3   1 <1>  -0.3630 
 12 C        6.5110     3.4500    -1.0480 C.3   1 <1>   0.2200 
 13 C        7.0600     3.1310     1.4560 C.3   1 <1>   0.1400 
 14 C        2.6240     5.4670     1.5900 C.3   1 <1>   0.1200 
 15 C        8.0300     3.2690    -1.3060 C.3   1 <1>   0.1400 
 16 C        6.0620     4.8850    -1.3380 C.3   1 <1>  -0.2400 
 17 C        8.5070     2.7670     1.0800 C.3   1 <1>   0.2200 
 18 C        3.3360     6.5000     2.4730 C.3   1 <1>  -0.1600 
 19 N        8.8930     3.5530    -0.1180 N.am  1 <1>  -0.6600 
 20 C        8.7020     1.2650     0.8460 C.3   1 <1>  -0.2400 
 21 C        3.4500     7.9100     1.8550 C.3   1 <1>   0.0960 
 22 C        9.7690     4.5980     0.0320 C.2   1 <1>   0.5690 
 23 N        4.5410     8.0460     0.8630 N.pl3 1 <1>   0.3140 
 24 O       10.6940     4.5430     0.8060 O.2   1 <1>  -0.5700 
 25 C        9.5330     5.9290    -0.6670 C.3   1 <1>  -0.0990 
 26 N        4.3580     8.5700    -0.3530 N.2   1 <1>  -0.4180 
 27 C        5.8340     7.7590     1.0260 C.2   1 <1>  -0.3020 
 28 C        8.5630     6.7740     0.1830 C.3   1 <1>  -0.1600 
 29 N        5.4920     8.5930    -0.9640 N.2   1 <1>  -0.2270 
 30 C        6.4150     8.0860    -0.1390 C.2   1 <1>   0.0460 
 31 C        7.8590     7.9060    -0.5900 C.3   1 <1>   0.0210 
 32 H        3.7720     1.0600    -1.1020 H     1 <1>   0.1500 
 33 H        0.8030     3.5460    -2.8900 H     1 <1>   0.1500 
 34 H        1.4650     5.4130    -1.3790 H     1 <1>   0.1500 
 35 H        6.0130     2.8200    -1.7660 H     1 <1>   0.0800 
 36 H        7.0490     4.1410     1.8240 H     1 <1>   0.0800 
 37 H        6.7600     2.4940     2.2700 H     1 <1>   0.0800 
 38 H        1.6240     5.7840     1.3510 H     1 <1>   0.0800 
 39 H        2.5870     4.5140     2.0910 H     1 <1>   0.0800 
 40 H        8.3380     3.8610    -2.1470 H     1 <1>   0.0800 
 41 H        8.1950     2.2490    -1.6020 H     1 <1>   0.0800 
 42 H        5.9600     5.4360    -0.4260 H     1 <1>   0.0800 
 43 H        5.1130     4.8840    -1.8380 H     1 <1>   0.0800 
 44 H        6.7460     5.3960    -1.9860 H     1 <1>   0.0800 
 45 H        9.1380     3.0470     1.9070 H     1 <1>   0.0800 
 46 H        2.7610     6.5860     3.3770 H     1 <1>   0.0800 
 47 H        4.3040     6.1260     2.7560 H     1 <1>   0.0800 
 48 H        7.9870     0.8790     0.1450 H     1 <1>   0.0800 
 49 H        8.5670     0.7390     1.7740 H     1 <1>   0.0800 
 50 H        9.7000     1.0750     0.4930 H     1 <1>   0.0800 
 51 H        3.6430     8.6240     2.6340 H     1 <1>   0.0800 
 52 H        2.5250     8.1790     1.3790 H     1 <1>   0.0800 
 53 H       10.4700     6.4460    -0.7690 H     1 <1>   0.0800 
 54 H        9.1440     5.7650    -1.6500 H     1 <1>   0.0800 
 55 H        6.2430     7.3360     1.9230 H     1 <1>   0.1500 
 56 H        7.8220     6.1050     0.5760 H     1 <1>   0.0800 
 57 H        9.0840     7.1830     1.0310 H     1 <1>   0.0800 
 58 H        7.8380     7.6720    -1.6390 H     1 <1>   0.0800 
 59 H        8.3930     8.8320    -0.4740 H     1 <1>   0.0800 
@<TRIPOS>BOND
  1   1   2  1   
  2   2   3  ar  
  3   2   4  ar  
  4   3   5  ar  
  5   3  32  1   
  6   4   6  ar  
  7   4  33  1   
  8   5   7  1   
  9   5   8  ar  
 10   6   8  ar  
 11   6  34  1   
 12   7   9  2   
 13   7  10  am  
 14   8  11  1   
 15  10  12  1   
 16  10  13  1   
 17  11  14  1   
 18  12  15  1   
 19  12  16  1   
 20  12  35  1   
 21  13  17  1   
 22  13  36  1   
 23  13  37  1   
 24  14  18  1   
 25  14  38  1   
 26  14  39  1   
 27  15  19  1   
 28  15  40  1   
 29  15  41  1   
 30  16  42  1   
 31  16  43  1   
 32  16  44  1   
 33  17  19  1   
 34  17  20  1   
 35  17  45  1   
 36  18  21  1   
 37  18  46  1   
 38  18  47  1   
 39  19  22  am  
 40  20  48  1   
 41  20  49  1   
 42  20  50  1   
 43  21  23  1   
 44  21  51  1   
 45  21  52  1   
 46  22  24  2   
 47  22  25  1   
 48  23  26  1   
 49  23  27  1   
 50  25  28  1   
 51  25  53  1   
 52  25  54  1   
 53  26  29  2   
 54  27  30  2   
 55  27  55  1   
 56  28  31  1   
 57  28  56  1   
 58  28  57  1   
 59  29  30  1   
 60  30  31  1   
 61  31  58  1   
 62  31  59  1   
@<TRIPOS>SUBSTRUCTURE
  1 ****  16 GROUP 4 **** **** 0

# MOE 2024.06 (io_trps.svl 2023.06)
