@<TRIPOS>MOLECULE
NONAME
46 48 1 0 0 
SMALL
USER_CHARGES


@<TRIPOS>ATOM
  1 F       -0.5800    -0.8910    -1.5810 F     1 <1>  -0.1900 
  2 C       -0.6860    -2.1280    -1.1740 C.ar  1 <1>   0.1900 
  3 C       -0.8360    -2.3740     0.1780 C.ar  1 <1>  -0.1500 
  4 C       -0.6430    -3.1440    -2.1110 C.ar  1 <1>  -0.1500 
  5 C       -0.9500    -3.6860     0.6090 C.ar  1 <1>  -0.1500 
  6 C       -0.7580    -4.4510    -1.6710 C.ar  1 <1>  -0.1500 
  7 C       -0.9140    -4.7290    -0.3190 C.ar  1 <1>   0.0830 
  8 O       -1.0290    -6.0380     0.0170 O.3   1 <1>  -0.3630 
  9 C       -1.2680    -6.4370     1.3600 C.3   1 <1>   0.1810 
 10 C       -1.4790    -7.9440     1.4740 C.2   1 <1>   0.5690 
 11 O       -0.7650    -8.5590     2.2320 O.2   1 <1>  -0.5700 
 12 N       -2.4700    -8.5720     0.7660 N.am  1 <1>  -0.6600 
 13 C       -3.3430    -7.9590    -0.2680 C.3   1 <1>   0.1400 
 14 C       -2.7600   -10.0160     0.8840 C.3   1 <1>   0.1400 
 15 C       -4.2980    -9.0730    -0.7160 C.3   1 <1>   0.2000 
 16 C       -3.5370   -10.3620    -0.3870 C.3   1 <1>  -0.0800 
 17 O       -5.4690    -9.0310     0.0500 O.3   1 <1>  -0.5600 
 18 C       -4.4240   -11.6120    -0.2460 C.3   1 <1>   0.0200 
 19 C       -6.4600    -8.1750    -0.4250 C.3   1 <1>   0.0400 
 20 C       -3.6270   -12.8980    -0.0970 C.2   1 <1>  -0.0400 
 21 O       -4.2710   -14.0150     0.1130 O.3   1 <1>  -0.0190 
 22 C       -2.3160   -13.1860    -0.1380 C.2   1 <1>  -0.1500 
 23 N       -3.4650   -15.0320     0.2180 N.2   1 <1>  -0.4100 
 24 C       -2.2790   -14.5610     0.0720 C.2   1 <1>   0.1080 
 25 C       -1.0200   -15.3970     0.1230 C.3   1 <1>  -0.0590 
 26 H       -0.8610    -1.5540     0.8720 H     1 <1>   0.1500 
 27 H       -0.5220    -2.9120    -3.1540 H     1 <1>   0.1500 
 28 H       -1.0610    -3.8710     1.6600 H     1 <1>   0.1500 
 29 H       -0.7250    -5.2650    -2.3740 H     1 <1>   0.1500 
 30 H       -0.4180    -6.1500     1.9510 H     1 <1>   0.0800 
 31 H       -2.1480    -5.9340     1.7150 H     1 <1>   0.0800 
 32 H       -3.8730    -7.1100     0.1250 H     1 <1>   0.0800 
 33 H       -2.7320    -7.6530    -1.0990 H     1 <1>   0.0800 
 34 H       -1.8500   -10.5850     0.9750 H     1 <1>   0.0800 
 35 H       -3.3700   -10.1750     1.7570 H     1 <1>   0.0800 
 36 H       -4.5520    -9.0100    -1.7600 H     1 <1>   0.0800 
 37 H       -2.8230   -10.5300    -1.1750 H     1 <1>   0.0800 
 38 H       -5.0520   -11.7030    -1.1140 H     1 <1>   0.0800 
 39 H       -5.0680   -11.5070     0.6110 H     1 <1>   0.0800 
 40 H       -7.2920    -8.2200     0.2550 H     1 <1>   0.0800 
 41 H       -6.7750    -8.5030    -1.4010 H     1 <1>   0.0800 
 42 H       -6.0820    -7.1690    -0.4650 H     1 <1>   0.0800 
 43 H       -1.4650   -12.5500    -0.2930 H     1 <1>   0.1500 
 44 H       -0.4940   -15.3220    -0.8100 H     1 <1>   0.0800 
 45 H       -1.2710   -16.4270     0.3010 H     1 <1>   0.0800 
 46 H       -0.3860   -15.0500     0.9180 H     1 <1>   0.0800 
@<TRIPOS>BOND
  1   1   2  1   
  2   2   3  ar  
  3   2   4  ar  
  4   3   5  ar  
  5   3  26  1   
  6   4   6  ar  
  7   4  27  1   
  8   5   7  ar  
  9   5  28  1   
 10   6   7  ar  
 11   6  29  1   
 12   7   8  1   
 13   8   9  1   
 14   9  10  1   
 15   9  30  1   
 16   9  31  1   
 17  10  11  2   
 18  10  12  am  
 19  12  13  1   
 20  12  14  1   
 21  13  15  1   
 22  13  32  1   
 23  13  33  1   
 24  14  16  1   
 25  14  34  1   
 26  14  35  1   
 27  15  16  1   
 28  15  17  1   
 29  15  36  1   
 30  16  18  1   
 31  16  37  1   
 32  17  19  1   
 33  18  20  1   
 34  18  38  1   
 35  18  39  1   
 36  19  40  1   
 37  19  41  1   
 38  19  42  1   
 39  20  21  1   
 40  20  22  2   
 41  21  23  1   
 42  22  24  1   
 43  22  43  1   
 44  23  24  2   
 45  24  25  1   
 46  25  44  1   
 47  25  45  1   
 48  25  46  1   
@<TRIPOS>SUBSTRUCTURE
  1 ****  12 GROUP 4 **** **** 0

# MOE 2024.06 (io_trps.svl 2023.06)
