@<TRIPOS>MOLECULE
NONAME
48 50 1 0 0 
SMALL
USER_CHARGES


@<TRIPOS>ATOM
  1 F       -1.5200    -0.8750    -0.1170 F     1 <1>  -0.1900 
  2 C       -2.1060     0.2950    -0.0640 C.ar  1 <1>   0.1900 
  3 C       -3.2670     0.4250     0.6830 C.ar  1 <1>  -0.1440 
  4 C       -1.5250     1.3540    -0.7540 C.ar  1 <1>  -0.1440 
  5 C       -3.8310     1.6900     0.7230 C.ar  1 <1>   0.1900 
  6 C       -3.8720    -0.7590     1.4250 C.3   1 <1>   0.2540 
  7 C       -2.1310     2.6020    -0.6890 C.ar  1 <1>  -0.1500 
  8 C       -0.2510     1.1610    -1.5650 C.3   1 <1>  -0.0960 
  9 F       -4.9180     1.8910     1.4200 F     1 <1>  -0.1900 
 10 C       -3.2890     2.7730     0.0530 C.ar  1 <1>  -0.1500 
 11 N       -4.5810    -1.6460     0.4870 N.3   1 <1>  -0.8100 
 12 C       -4.7270    -3.0020     1.0510 C.3   1 <1>   0.1100 
 13 C       -5.8950    -1.0800     0.1200 C.3   1 <1>   0.1100 
 14 C       -5.3800    -3.9500     0.0130 C.3   1 <1>   0.4230 
 15 C       -6.5930    -1.9810    -0.9060 C.3   1 <1>  -0.1600 
 16 N       -5.4690    -5.3850     0.4500 N.4   1 <1>  -0.9590 
 17 C       -6.7760    -3.4270    -0.3750 C.3   1 <1>  -0.1060 
 18 C       -5.9800    -6.2650    -0.6320 C.3   1 <1>   0.3430 
 19 C       -4.2540    -5.9330     1.1060 C.3   1 <1>   0.2630 
 20 C       -7.6900    -3.4500     0.8670 C.2   1 <1>   0.9060 
 21 C       -7.3640    -4.3090    -1.5010 C.3   1 <1>  -0.1600 
 22 C       -7.3590    -5.7940    -1.1040 C.3   1 <1>  -0.1600 
 23 O       -8.6190    -2.6490     0.9540 O.co2 1 <1>  -0.9000 
 24 O       -7.4840    -4.3000     1.7520 O.co2 1 <1>  -0.9000 
 25 H       -4.5430    -0.4300     2.2020 H     1 <1>   0.0800 
 26 H       -3.0700    -1.2990     1.8980 H     1 <1>   0.0800 
 27 H       -1.7070     3.4420    -1.2120 H     1 <1>   0.1500 
 28 H        0.0730     2.0870    -2.0060 H     1 <1>   0.0800 
 29 H       -0.4230     0.4480    -2.3510 H     1 <1>   0.0800 
 30 H        0.5350     0.7920    -0.9300 H     1 <1>   0.0800 
 31 H       -3.7680     3.7330     0.1140 H     1 <1>   0.1500 
 32 H       -3.7460    -3.3650     1.2940 H     1 <1>   0.0800 
 33 H       -5.3190    -2.9610     1.9500 H     1 <1>   0.0800 
 34 H       -6.5150    -0.9740     0.9970 H     1 <1>   0.0800 
 35 H       -5.7630    -0.1030    -0.3130 H     1 <1>   0.0800 
 36 H       -4.7590    -3.9090    -0.8650 H     1 <1>   0.0800 
 37 H       -7.5560    -1.5560    -1.1350 H     1 <1>   0.0800 
 38 H       -6.0130    -1.9770    -1.8120 H     1 <1>   0.0800 
 39 H       -6.2440    -5.3150     1.1650 H     1 <1>   0.4500 
 40 H       -5.2930    -6.2500    -1.4620 H     1 <1>   0.0800 
 41 H       -6.0600    -7.2770    -0.2710 H     1 <1>   0.0800 
 42 H       -3.4180    -5.9060     0.4270 H     1 <1>   0.0800 
 43 H       -4.4280    -6.9520     1.4110 H     1 <1>   0.0800 
 44 H       -4.0150    -5.3550     1.9830 H     1 <1>   0.0800 
 45 H       -8.3750    -3.9960    -1.7060 H     1 <1>   0.0800 
 46 H       -6.7890    -4.1830    -2.4020 H     1 <1>   0.0800 
 47 H       -7.6680    -6.3890    -1.9440 H     1 <1>   0.0800 
 48 H       -8.0730    -5.9610    -0.3150 H     1 <1>   0.0800 
@<TRIPOS>BOND
  1   1   2  1   
  2   2   3  ar  
  3   2   4  ar  
  4   3   5  ar  
  5   3   6  1   
  6   4   7  ar  
  7   4   8  1   
  8   5   9  1   
  9   5  10  ar  
 10   6  11  1   
 11   6  25  1   
 12   6  26  1   
 13   7  10  ar  
 14   7  27  1   
 15   8  28  1   
 16   8  29  1   
 17   8  30  1   
 18  10  31  1   
 19  11  12  1   
 20  11  13  1   
 21  12  14  1   
 22  12  32  1   
 23  12  33  1   
 24  13  15  1   
 25  13  34  1   
 26  13  35  1   
 27  14  16  1   
 28  14  17  1   
 29  14  36  1   
 30  15  17  1   
 31  15  37  1   
 32  15  38  1   
 33  16  18  1   
 34  16  19  1   
 35  16  39  1   
 36  17  20  1   
 37  17  21  1   
 38  18  22  1   
 39  18  40  1   
 40  18  41  1   
 41  19  42  1   
 42  19  43  1   
 43  19  44  1   
 44  20  23  ar  
 45  20  24  ar  
 46  21  22  1   
 47  21  45  1   
 48  21  46  1   
 49  22  47  1   
 50  22  48  1   
@<TRIPOS>SUBSTRUCTURE
  1 ****  11 GROUP 4 **** **** 0

# MOE 2024.06 (io_trps.svl 2023.06)
