@<TRIPOS>MOLECULE
NONAME
56 59 1 0 0 
SMALL
USER_CHARGES


@<TRIPOS>ATOM
  1 O       -0.6000    -0.6410    -0.7440 O.2   1 <1>  -0.5700 
  2 C       -0.4600    -1.5540     0.0390 C.2   1 <1>   0.5690 
  3 N        0.4490    -1.5100     1.0510 N.am  1 <1>  -0.7300 
  4 C       -1.3720    -2.7800    -0.1490 C.3   1 <1>   0.4040 
  5 C        1.3620    -0.3870     1.3100 C.3   1 <1>   0.2200 
  6 N       -2.5810    -2.4720    -1.0010 N.4   1 <1>  -0.9590 
  7 C        2.7920    -0.9020     1.2060 C.3   1 <1>  -0.2400 
  8 C        1.0680     0.1530     2.7040 C.3   1 <1>  -0.2400 
  9 C       -3.5540    -1.5960    -0.2610 C.3   1 <1>   0.3430 
 10 C       -3.2370    -3.6820    -1.5680 C.3   1 <1>   0.3430 
 11 C       -4.6920    -1.1130    -1.1760 C.3   1 <1>   0.1430 
 12 C       -4.3480    -3.2560    -2.5320 C.3   1 <1>  -0.1600 
 13 C       -5.6950    -0.3580    -0.3360 C.ar  1 <1>   0.1670 
 14 C       -5.3700    -2.3150    -1.8670 C.3   1 <1>  -0.1600 
 15 C       -4.2250    -0.0360    -2.1930 C.3   1 <1>  -0.1600 
 16 N       -6.1850    -0.7900     0.7990 N.ar  1 <1>  -0.6200 
 17 C       -6.0250     0.8380    -0.8900 C.ar  1 <1>  -0.1440 
 18 C       -5.2960     1.0730    -2.1900 C.3   1 <1>  -0.0170 
 19 C       -7.0630     0.0310     1.3970 C.ar  1 <1>   0.6200 
 20 C       -6.9260     1.6210    -0.2160 C.ar  1 <1>   0.1600 
 21 N       -7.4450     1.2260     0.9240 N.ar  1 <1>  -0.6200 
 22 C       -7.6360    -0.4070     2.6600 C.ar  1 <1>   0.0000 
 23 C       -7.9440     0.5010     3.6770 C.ar  1 <1>  -0.1500 
 24 C       -7.9030    -1.7550     2.9140 C.ar  1 <1>  -0.1500 
 25 C       -8.4830     0.0880     4.8820 C.ar  1 <1>  -0.1500 
 26 C       -8.4420    -2.1750     4.1170 C.ar  1 <1>  -0.1500 
 27 C       -8.7330    -1.2530     5.1050 C.ar  1 <1>  -0.1500 
 28 H        0.5720    -2.2820     1.7100 H     1 <1>   0.3700 
 29 H       -1.6840    -3.1390     0.8160 H     1 <1>   0.0800 
 30 H       -0.7860    -3.5490    -0.6230 H     1 <1>   0.0800 
 31 H        1.2080     0.3950     0.5810 H     1 <1>   0.0800 
 32 H       -2.2130    -1.8910    -1.7730 H     1 <1>   0.4500 
 33 H        2.9790    -1.6760     1.9280 H     1 <1>   0.0800 
 34 H        3.4820    -0.0970     1.3860 H     1 <1>   0.0800 
 35 H        2.9780    -1.2820     0.2170 H     1 <1>   0.0800 
 36 H        1.2260    -0.6010     3.4540 H     1 <1>   0.0800 
 37 H        0.0530     0.5070     2.7580 H     1 <1>   0.0800 
 38 H        1.7190     0.9820     2.9170 H     1 <1>   0.0800 
 39 H       -3.0470    -0.7340     0.1440 H     1 <1>   0.0800 
 40 H       -3.9860    -2.1440     0.5610 H     1 <1>   0.0800 
 41 H       -3.6600    -4.2740    -0.7720 H     1 <1>   0.0800 
 42 H       -2.5140    -4.2850    -2.0950 H     1 <1>   0.0800 
 43 H       -4.8590    -4.1360    -2.8830 H     1 <1>   0.0800 
 44 H       -3.9090    -2.7840    -3.3930 H     1 <1>   0.0800 
 45 H       -6.0840    -1.9680    -2.5960 H     1 <1>   0.0800 
 46 H       -5.9210    -2.8730    -1.1280 H     1 <1>   0.0800 
 47 H       -4.0790    -0.4260    -3.1840 H     1 <1>   0.0800 
 48 H       -3.2970     0.4010    -1.8610 H     1 <1>   0.0800 
 49 H       -5.9790     0.9490    -3.0140 H     1 <1>   0.0800 
 50 H       -4.8540     2.0540    -2.2280 H     1 <1>   0.0800 
 51 H       -7.2240     2.5780    -0.6100 H     1 <1>   0.1500 
 52 H       -7.7570     1.5490     3.5180 H     1 <1>   0.1500 
 53 H       -7.6880    -2.4860     2.1550 H     1 <1>   0.1500 
 54 H       -8.7100     0.8120     5.6450 H     1 <1>   0.1500 
 55 H       -8.6380    -3.2200     4.2850 H     1 <1>   0.1500 
 56 H       -9.1530    -1.5760     6.0420 H     1 <1>   0.1500 
@<TRIPOS>BOND
  1   1   2  2   
  2   2   3  am  
  3   2   4  1   
  4   3   5  1   
  5   3  28  1   
  6   4   6  1   
  7   4  29  1   
  8   4  30  1   
  9   5   7  1   
 10   5   8  1   
 11   5  31  1   
 12   6   9  1   
 13   6  10  1   
 14   6  32  1   
 15   7  33  1   
 16   7  34  1   
 17   7  35  1   
 18   8  36  1   
 19   8  37  1   
 20   8  38  1   
 21   9  11  1   
 22   9  39  1   
 23   9  40  1   
 24  10  12  1   
 25  10  41  1   
 26  10  42  1   
 27  11  13  1   
 28  11  14  1   
 29  11  15  1   
 30  12  14  1   
 31  12  43  1   
 32  12  44  1   
 33  13  16  ar  
 34  13  17  ar  
 35  14  45  1   
 36  14  46  1   
 37  15  18  1   
 38  15  47  1   
 39  15  48  1   
 40  16  19  ar  
 41  17  18  1   
 42  17  20  ar  
 43  18  49  1   
 44  18  50  1   
 45  19  21  ar  
 46  19  22  1   
 47  20  21  ar  
 48  20  51  1   
 49  22  23  ar  
 50  22  24  ar  
 51  23  25  ar  
 52  23  52  1   
 53  24  26  ar  
 54  24  53  1   
 55  25  27  ar  
 56  25  54  1   
 57  26  27  ar  
 58  26  55  1   
 59  27  56  1   
@<TRIPOS>SUBSTRUCTURE
  1 ****   9 GROUP 4 **** **** 0

# MOE 2024.06 (io_trps.svl 2023.06)
