@<TRIPOS>MOLECULE
NONAME
42 44 1 0 0 
SMALL
USER_CHARGES


@<TRIPOS>ATOM
  1 O        0.6800     0.0830     0.8220 O.2   1 <1>  -0.5700 
  2 C        1.8340     0.1300     0.4580 C.2   1 <1>   0.7150 
  3 N        2.4900    -1.0600     0.4820 N.am  1 <1>  -0.7300 
  4 C        2.4010     1.3790     0.0420 C.2   1 <1>  -0.2370 
  5 C        3.9300    -1.4390     0.4720 C.3   1 <1>   0.1400 
  6 N        3.5510     1.5520    -0.6510 N.pl3 1 <1>   0.3140 
  7 C        1.9130     2.6320     0.2300 C.2   1 <1>  -0.1500 
  8 C        4.9190    -0.3180     0.1130 C.3   1 <1>   0.2000 
  9 N        3.8140     2.8370    -0.8990 N.2   1 <1>  -0.7070 
 10 C        4.4890     0.5130    -1.0930 C.3   1 <1>   0.0960 
 11 C        2.8130     3.5140    -0.3600 C.2   1 <1>   0.2030 
 12 O        6.1480    -0.9020    -0.1680 O.3   1 <1>  -0.6800 
 13 C        2.6780     4.9630    -0.3660 C.2   1 <1>   0.7160 
 14 O        1.7370     5.5290     0.1640 O.2   1 <1>  -0.5700 
 15 N        3.6360     5.7200    -0.9670 N.am  1 <1>  -0.7300 
 16 C        3.8500     7.1790    -0.7690 C.3   1 <1>   0.2840 
 17 C        5.3150     7.5150    -0.4770 C.ar  1 <1>   0.4770 
 18 N        6.2300     6.8590    -1.1830 N.ar  1 <1>  -0.6200 
 19 N        5.5310     8.4340     0.4540 N.ar  1 <1>  -0.6200 
 20 C        7.4800     7.1540    -0.9170 C.ar  1 <1>   0.1670 
 21 C        6.7890     8.7140     0.7040 C.ar  1 <1>   0.1670 
 22 C        7.8130     8.0890     0.0340 C.ar  1 <1>  -0.1500 
 23 C        8.5410     6.4150    -1.7040 C.3   1 <1>  -0.0970 
 24 C        7.0600     9.7560     1.7680 C.3   1 <1>  -0.0970 
 25 H        1.8660    -1.8140     0.7830 H     1 <1>   0.3700 
 26 H        4.0460    -2.2400    -0.2370 H     1 <1>   0.0800 
 27 H        4.1890    -1.8190     1.4460 H     1 <1>   0.0800 
 28 H        1.0060     2.9170     0.7360 H     1 <1>   0.1500 
 29 H        5.0750     0.3240     0.9650 H     1 <1>   0.0800 
 30 H        5.3440     1.0060    -1.5210 H     1 <1>   0.0800 
 31 H        4.0110    -0.0940    -1.8380 H     1 <1>   0.0800 
 32 H        6.1130    -1.4590    -0.9700 H     1 <1>   0.4000 
 33 H        4.4660     5.2210    -1.3070 H     1 <1>   0.3700 
 34 H        3.2390     7.5300     0.0440 H     1 <1>   0.0800 
 35 H        3.5530     7.6990    -1.6610 H     1 <1>   0.0800 
 36 H        8.8380     8.3240     0.2450 H     1 <1>   0.1500 
 37 H        8.4050     6.6030    -2.7540 H     1 <1>   0.0800 
 38 H        8.4490     5.3590    -1.5270 H     1 <1>   0.0800 
 39 H        9.5270     6.7320    -1.4180 H     1 <1>   0.0800 
 40 H        6.6380     9.4330     2.7020 H     1 <1>   0.0800 
 41 H        6.6020    10.6860     1.4840 H     1 <1>   0.0800 
 42 H        8.1150     9.9110     1.8970 H     1 <1>   0.0800 
@<TRIPOS>BOND
  1   1   2  2   
  2   2   3  am  
  3   2   4  1   
  4   3   5  1   
  5   3  25  1   
  6   4   6  1   
  7   4   7  2   
  8   5   8  1   
  9   5  26  1   
 10   5  27  1   
 11   6   9  1   
 12   6  10  1   
 13   7  11  1   
 14   7  28  1   
 15   8  10  1   
 16   8  12  1   
 17   8  29  1   
 18   9  11  2   
 19  10  30  1   
 20  10  31  1   
 21  11  13  1   
 22  12  32  1   
 23  13  14  2   
 24  13  15  am  
 25  15  16  1   
 26  15  33  1   
 27  16  17  1   
 28  16  34  1   
 29  16  35  1   
 30  17  18  ar  
 31  17  19  ar  
 32  18  20  ar  
 33  19  21  ar  
 34  20  22  ar  
 35  20  23  1   
 36  21  22  ar  
 37  21  24  1   
 38  22  36  1   
 39  23  37  1   
 40  23  38  1   
 41  23  39  1   
 42  24  40  1   
 43  24  41  1   
 44  24  42  1   
@<TRIPOS>SUBSTRUCTURE
  1 ****   9 GROUP 4 **** **** 0

# MOE 2024.06 (io_trps.svl 2023.06)
