@<TRIPOS>MOLECULE
NONAME
32 33 1 0 0 
SMALL
USER_CHARGES


@<TRIPOS>ATOM
  1 CL      -0.0190    -1.0290     2.6980 Cl    1 <1>  -0.1770 
  2 C       -1.2570    -1.9990     1.9530 C.ar  1 <1>   0.4870 
  3 N       -1.7450    -1.5500     0.8180 N.ar  1 <1>  -0.6200 
  4 C       -1.6440    -3.1570     2.5920 C.ar  1 <1>  -0.1500 
  5 C       -2.6900    -2.3110     0.2730 C.ar  1 <1>   0.3920 
  6 C       -2.6150    -3.9420     2.0110 C.ar  1 <1>  -0.1500 
  7 O       -3.2490    -1.8460    -0.8630 O.3   1 <1>  -0.3630 
  8 C       -3.1510    -3.5290     0.7990 C.ar  1 <1>  -0.1430 
  9 C       -2.8290    -0.6470    -1.4840 C.3   1 <1>   0.0400 
 10 C       -4.2410    -4.3700     0.0690 C.3   1 <1>   0.2050 
 11 C       -3.9910    -4.4830    -1.4580 C.2   1 <1>   0.5690 
 12 C       -4.2780    -5.8500     0.5370 C.3   1 <1>  -0.1600 
 13 C       -5.6120    -3.7390     0.3900 C.3   1 <1>  -0.2400 
 14 O       -4.7050    -3.9520    -2.2770 O.2   1 <1>  -0.5700 
 15 N       -2.9760    -5.2790    -1.8750 N.am  1 <1>  -0.7300 
 16 C       -2.9840    -6.6400     0.2060 C.3   1 <1>  -0.1600 
 17 C       -2.1420    -6.0840    -0.9620 C.3   1 <1>   0.1400 
 18 H       -1.1890    -3.4290     3.5260 H     1 <1>   0.1500 
 19 H       -2.9190    -4.8380     2.5190 H     1 <1>   0.1500 
 20 H       -3.4150    -0.5100    -2.3750 H     1 <1>   0.0800 
 21 H       -1.7870    -0.7330    -1.7350 H     1 <1>   0.0800 
 22 H       -2.9880     0.1710    -0.8050 H     1 <1>   0.0800 
 23 H       -5.0840    -6.3300     0.0070 H     1 <1>   0.0800 
 24 H       -4.5210    -5.9340     1.5800 H     1 <1>   0.0800 
 25 H       -5.6460    -2.7280     0.0240 H     1 <1>   0.0800 
 26 H       -5.7840    -3.7250     1.4510 H     1 <1>   0.0800 
 27 H       -6.4020    -4.2900    -0.0870 H     1 <1>   0.0800 
 28 H       -2.8040    -5.3310    -2.8800 H     1 <1>   0.3700 
 29 H       -3.2550    -7.6560    -0.0230 H     1 <1>   0.0800 
 30 H       -2.3530    -6.6840     1.0750 H     1 <1>   0.0800 
 31 H       -1.3600    -5.4520    -0.5750 H     1 <1>   0.0800 
 32 H       -1.6840    -6.8930    -1.5050 H     1 <1>   0.0800 
@<TRIPOS>BOND
  1   1   2  1   
  2   2   3  ar  
  3   2   4  ar  
  4   3   5  ar  
  5   4   6  ar  
  6   4  18  1   
  7   5   7  1   
  8   5   8  ar  
  9   6   8  ar  
 10   6  19  1   
 11   7   9  1   
 12   8  10  1   
 13   9  20  1   
 14   9  21  1   
 15   9  22  1   
 16  10  11  1   
 17  10  12  1   
 18  10  13  1   
 19  11  14  2   
 20  11  15  am  
 21  12  16  1   
 22  12  23  1   
 23  12  24  1   
 24  13  25  1   
 25  13  26  1   
 26  13  27  1   
 27  15  17  1   
 28  15  28  1   
 29  16  17  1   
 30  16  29  1   
 31  16  30  1   
 32  17  31  1   
 33  17  32  1   
@<TRIPOS>SUBSTRUCTURE
  1 ****   8 GROUP 4 **** **** 0

# MOE 2024.06 (io_trps.svl 2023.06)
