@<TRIPOS>MOLECULE
NONAME
53 55 1 0 0 
SMALL
USER_CHARGES


@<TRIPOS>ATOM
  1 S       -0.4390    -0.7160    -1.2080 S.o2  1 <1>   1.4470 
  2 O       -0.2180     0.7120    -1.1830 O.2   1 <1>  -0.6500 
  3 O       -0.9270    -1.3550    -2.4090 O.2   1 <1>  -0.6500 
  4 N       -1.5510    -1.0050    -0.0050 N.am  1 <1>  -0.9780 
  5 C        1.0870    -1.5340    -0.6580 C.ar  1 <1>  -0.0090 
  6 C        1.2860    -2.8850    -0.8820 C.ar  1 <1>  -0.1500 
  7 C        2.0870    -0.8430     0.0190 C.ar  1 <1>  -0.1500 
  8 C        2.4110    -3.5700    -0.4310 C.ar  1 <1>   0.0860 
  9 C        3.2310    -1.4850     0.4590 C.ar  1 <1>  -0.1500 
 10 C        3.4000    -2.8500     0.2430 C.ar  1 <1>   0.0830 
 11 C        2.4710    -5.0000    -0.6200 C.2   1 <1>   0.5440 
 12 O        4.4880    -3.5290     0.6760 O.3   1 <1>  -0.3630 
 13 O        2.7330    -5.4580    -1.7180 O.2   1 <1>  -0.5700 
 14 N        2.0970    -5.8760     0.3820 N.am  1 <1>  -0.6600 
 15 C        5.5770    -2.8980     1.3100 C.3   1 <1>   0.0400 
 16 C        1.6400    -7.2330     0.0190 C.3   1 <1>   0.1400 
 17 C        1.4340    -5.4100     1.6300 C.3   1 <1>   0.1400 
 18 C        0.1310    -7.1160    -0.3580 C.3   1 <1>   0.4230 
 19 C        0.0260    -6.0270     1.6940 C.3   1 <1>  -0.1600 
 20 N       -0.6740    -8.3810    -0.2080 N.4   1 <1>  -0.9590 
 21 C       -0.7270    -5.9310     0.2780 C.3   1 <1>  -0.1060 
 22 C       -1.7330    -8.3740    -1.2540 C.3   1 <1>   0.3430 
 23 C        0.0970    -9.6590    -0.2490 C.3   1 <1>   0.2630 
 24 C       -1.5390    -4.7450     0.8330 C.2   1 <1>   0.9060 
 25 C       -1.5590    -5.8250    -1.0920 C.3   1 <1>  -0.1600 
 26 C       -2.4900    -7.0470    -1.2340 C.3   1 <1>  -0.1600 
 27 O       -2.6060    -4.9800     1.4070 O.co2 1 <1>  -0.9000 
 28 O       -1.1030    -3.5920     0.6940 O.co2 1 <1>  -0.9000 
 29 H       -1.1680    -0.6440     0.8560 H     1 <1>   0.4200 
 30 H       -1.5710    -2.0360     0.1410 H     1 <1>   0.4200 
 31 H        0.5230    -3.4370    -1.4040 H     1 <1>   0.1500 
 32 H        1.9640     0.2120     0.2010 H     1 <1>   0.1500 
 33 H        3.9750    -0.9080     0.9730 H     1 <1>   0.1500 
 34 H        6.3180    -3.6480     1.5240 H     1 <1>   0.0800 
 35 H        5.2370    -2.4490     2.2260 H     1 <1>   0.0800 
 36 H        5.9880    -2.1590     0.6450 H     1 <1>   0.0800 
 37 H        2.2070    -7.6110    -0.8150 H     1 <1>   0.0800 
 38 H        1.7980    -7.8810     0.8610 H     1 <1>   0.0800 
 39 H        2.0170    -5.7110     2.4830 H     1 <1>   0.0800 
 40 H        1.3450    -4.3370     1.6520 H     1 <1>   0.0800 
 41 H        0.2290    -6.9540    -1.4150 H     1 <1>   0.0800 
 42 H        0.0880    -7.0420     2.0440 H     1 <1>   0.0800 
 43 H       -0.4520    -5.5540     2.5450 H     1 <1>   0.0800 
 44 H       -1.1580    -8.2770     0.6980 H     1 <1>   0.4500 
 45 H       -1.2750    -8.4970    -2.2220 H     1 <1>   0.0800 
 46 H       -2.4230    -9.1880    -1.0980 H     1 <1>   0.0800 
 47 H        0.6420    -9.7350    -1.1760 H     1 <1>   0.0800 
 48 H       -0.5720   -10.5000    -0.1690 H     1 <1>   0.0800 
 49 H        0.7960    -9.7030     0.5700 H     1 <1>   0.0800 
 50 H       -2.2180    -4.9710    -1.2100 H     1 <1>   0.0800 
 51 H       -0.9320    -5.7090    -1.9620 H     1 <1>   0.0800 
 52 H       -3.0680    -6.9570    -2.1370 H     1 <1>   0.0800 
 53 H       -3.1860    -7.0490    -0.4110 H     1 <1>   0.0800 
@<TRIPOS>BOND
  1   1   2  2   
  2   1   3  2   
  3   1   4  am  
  4   1   5  1   
  5   4  29  1   
  6   4  30  1   
  7   5   6  ar  
  8   5   7  ar  
  9   6   8  ar  
 10   6  31  1   
 11   7   9  ar  
 12   7  32  1   
 13   8  10  ar  
 14   8  11  1   
 15   9  10  ar  
 16   9  33  1   
 17  10  12  1   
 18  11  13  2   
 19  11  14  am  
 20  12  15  1   
 21  14  16  1   
 22  14  17  1   
 23  15  34  1   
 24  15  35  1   
 25  15  36  1   
 26  16  18  1   
 27  16  37  1   
 28  16  38  1   
 29  17  19  1   
 30  17  39  1   
 31  17  40  1   
 32  18  20  1   
 33  18  21  1   
 34  18  41  1   
 35  19  21  1   
 36  19  42  1   
 37  19  43  1   
 38  20  22  1   
 39  20  23  1   
 40  20  44  1   
 41  21  24  1   
 42  21  25  1   
 43  22  26  1   
 44  22  45  1   
 45  22  46  1   
 46  23  47  1   
 47  23  48  1   
 48  23  49  1   
 49  24  27  ar  
 50  24  28  ar  
 51  25  26  1   
 52  25  50  1   
 53  25  51  1   
 54  26  52  1   
 55  26  53  1   
@<TRIPOS>SUBSTRUCTURE
  1 ****   6 GROUP 4 **** **** 0

# MOE 2024.06 (io_trps.svl 2023.06)
