@<TRIPOS>MOLECULE
NONAME
51 53 1 0 0 
SMALL
USER_CHARGES


@<TRIPOS>ATOM
  1 F       -3.3710     1.7050    -2.5400 F     1 <1>  -0.3400 
  2 C       -2.7700     2.2370    -1.4890 C.3   1 <1>   0.8800 
  3 F       -3.1410     1.4960    -0.4520 F     1 <1>  -0.3400 
  4 O       -3.3180     3.5230    -1.3020 O.3   1 <1>  -0.3630 
  5 C       -2.7200     4.2900    -0.3680 C.ar  1 <1>   0.0820 
  6 C       -3.3390     4.4900     0.8620 C.ar  1 <1>  -0.1440 
  7 C       -1.5050     4.8930    -0.6540 C.ar  1 <1>  -0.1500 
  8 C       -2.7160     5.2880     1.8100 C.ar  1 <1>  -0.1500 
  9 C       -4.6780     3.8430     1.1690 C.3   1 <1>   0.4870 
 10 C       -0.8930     5.6880     0.2980 C.ar  1 <1>  -0.1500 
 11 C       -1.4970     5.8830     1.5280 C.ar  1 <1>  -0.1500 
 12 N       -5.6800     4.3200     0.1840 N.4   1 <1>  -0.9590 
 13 C       -5.9360     5.7790     0.3260 C.3   1 <1>   0.3430 
 14 C       -6.9280     3.5160     0.2600 C.3   1 <1>   0.3430 
 15 C       -6.8560     6.2430    -0.7980 C.3   1 <1>  -0.1600 
 16 C       -7.9280     3.9880    -0.7930 C.3   1 <1>  -0.1600 
 17 C       -8.2050     5.5060    -0.7430 C.3   1 <1>   0.2800 
 18 O       -8.8790     5.7820    -1.9420 O.3   1 <1>  -0.5600 
 19 C       -9.0630     5.9870     0.4740 C.3   1 <1>   0.2000 
 20 C       -9.6300     6.9620    -2.0150 C.3   1 <1>   0.1200 
 21 O       -8.7970     5.2910     1.6560 O.3   1 <1>  -0.6800 
 22 C      -10.5830     6.0120     0.1690 C.3   1 <1>   0.2800 
 23 C      -10.8440     6.8860    -1.0720 C.3   1 <1>  -0.1600 
 24 O      -11.2060     6.6000     1.2540 O.3   1 <1>  -0.6800 
 25 C      -11.2410     4.6340     0.0170 C.3   1 <1>  -0.2400 
 26 H       -1.7010     2.2250    -1.6120 H     1 <1>   0.0800 
 27 H       -1.0380     4.7560    -1.6140 H     1 <1>   0.1500 
 28 H       -3.1640     5.4570     2.7750 H     1 <1>   0.1500 
 29 H       -4.9930     4.0910     2.1690 H     1 <1>   0.0800 
 30 H       -4.5740     2.7720     1.0990 H     1 <1>   0.0800 
 31 H        0.0530     6.1580     0.0840 H     1 <1>   0.1500 
 32 H       -1.0140     6.5010     2.2670 H     1 <1>   0.1500 
 33 H       -5.2450     4.1670    -0.7400 H     1 <1>   0.4500 
 34 H       -6.3970     5.9790     1.2800 H     1 <1>   0.0800 
 35 H       -5.0060     6.3230     0.2730 H     1 <1>   0.0800 
 36 H       -6.7050     2.4740     0.0940 H     1 <1>   0.0800 
 37 H       -7.3620     3.6100     1.2420 H     1 <1>   0.0800 
 38 H       -6.3760     6.0620    -1.7440 H     1 <1>   0.0800 
 39 H       -7.0050     7.3020    -0.7010 H     1 <1>   0.0800 
 40 H       -8.8380     3.4390    -0.6530 H     1 <1>   0.0800 
 41 H       -7.5430     3.7290    -1.7630 H     1 <1>   0.0800 
 42 H       -8.7880     7.0070     0.6770 H     1 <1>   0.0800 
 43 H       -8.9940     7.7930    -1.7610 H     1 <1>   0.0800 
 44 H       -9.9560     7.0840    -3.0340 H     1 <1>   0.0800 
 45 H       -9.5160     5.5340     2.2860 H     1 <1>   0.4000 
 46 H      -11.6810     6.5030    -1.6270 H     1 <1>   0.0800 
 47 H      -11.0900     7.8920    -0.7800 H     1 <1>   0.0800 
 48 H      -12.1720     6.6220     1.1060 H     1 <1>   0.4000 
 49 H      -10.9200     4.1670    -0.8960 H     1 <1>   0.0800 
 50 H      -12.3120     4.7260    -0.0320 H     1 <1>   0.0800 
 51 H      -10.9840     3.9920     0.8400 H     1 <1>   0.0800 
@<TRIPOS>BOND
  1   1   2  1   
  2   2   3  1   
  3   2   4  1   
  4   2  26  1   
  5   4   5  1   
  6   5   6  ar  
  7   5   7  ar  
  8   6   8  ar  
  9   6   9  1   
 10   7  10  ar  
 11   7  27  1   
 12   8  11  ar  
 13   8  28  1   
 14   9  12  1   
 15   9  29  1   
 16   9  30  1   
 17  10  11  ar  
 18  10  31  1   
 19  11  32  1   
 20  12  13  1   
 21  12  14  1   
 22  12  33  1   
 23  13  15  1   
 24  13  34  1   
 25  13  35  1   
 26  14  16  1   
 27  14  36  1   
 28  14  37  1   
 29  15  17  1   
 30  15  38  1   
 31  15  39  1   
 32  16  17  1   
 33  16  40  1   
 34  16  41  1   
 35  17  18  1   
 36  17  19  1   
 37  18  20  1   
 38  19  21  1   
 39  19  22  1   
 40  19  42  1   
 41  20  23  1   
 42  20  43  1   
 43  20  44  1   
 44  21  45  1   
 45  22  23  1   
 46  22  24  1   
 47  22  25  1   
 48  23  46  1   
 49  23  47  1   
 50  24  48  1   
 51  25  49  1   
 52  25  50  1   
 53  25  51  1   
@<TRIPOS>SUBSTRUCTURE
  1 ****  12 GROUP 4 **** **** 0

# MOE 2024.06 (io_trps.svl 2023.06)
