@<TRIPOS>MOLECULE
NONAME
64 67 1 0 0 
SMALL
USER_CHARGES


@<TRIPOS>ATOM
  1 O        0.1970     0.3710    -1.1660 O.3   1 <1>  -0.5600 
  2 C        1.5150    -0.0680    -1.3960 C.3   1 <1>   0.2000 
  3 C        0.0700     1.7050    -0.7700 C.3   1 <1>   0.1200 
  4 C        2.4140     0.1660    -0.1500 C.3   1 <1>   0.5660 
  5 C        1.4780    -1.5630    -1.7530 C.3   1 <1>   0.1200 
  6 C        0.8050     1.9310     0.5620 C.3   1 <1>   0.3430 
  7 N        2.2410     1.5210     0.4700 N.4   1 <1>  -0.9590 
  8 C        3.8920     0.0340    -0.4890 C.ar  1 <1>  -0.1430 
  9 O        1.2380    -2.3250    -0.6120 O.3   1 <1>  -0.6800 
 10 C        2.9380     1.6190     1.7760 C.3   1 <1>   0.4870 
 11 C        4.6510    -0.9180     0.1760 C.ar  1 <1>  -0.1500 
 12 C        4.5100     0.8740    -1.4110 C.ar  1 <1>  -0.1500 
 13 C        3.4740     3.0310     1.8760 C.ar  1 <1>  -0.1430 
 14 C        6.0150    -1.0130    -0.0350 C.ar  1 <1>   0.0820 
 15 C        5.8760     0.7970    -1.6150 C.ar  1 <1>  -0.1500 
 16 C        4.5920     3.3790     1.1350 C.ar  1 <1>  -0.1500 
 17 C        2.8760     3.9800     2.6920 C.ar  1 <1>  -0.1500 
 18 O        6.6670    -1.9850     0.6530 O.3   1 <1>  -0.3620 
 19 C        6.6380    -0.1180    -0.9120 C.ar  1 <1>   0.0820 
 20 C        5.1180     4.6660     1.1700 C.ar  1 <1>  -0.0230 
 21 C        3.4010     5.2590     2.7590 C.ar  1 <1>  -0.1500 
 22 C        7.5340    -2.8420    -0.0610 C.3   1 <1>   0.0400 
 23 O        7.9780    -0.0760    -1.0870 O.3   1 <1>  -0.3630 
 24 N        6.2490     4.9860     0.3570 N.pl3 1 <1>   0.5930 
 25 C        4.5140     5.5980     2.0090 C.ar  1 <1>  -0.1500 
 26 C        8.6980     0.5110    -0.0240 C.3   1 <1>   0.0400 
 27 N        7.2690     4.1040     0.1820 N.2   1 <1>  -0.7070 
 28 C        6.4290     6.0610    -0.4660 C.2   1 <1>  -0.3320 
 29 C        8.0510     4.6370    -0.6970 C.2   1 <1>   0.1080 
 30 C        7.5790     5.8640    -1.1420 C.2   1 <1>  -0.1500 
 31 C        5.4900     7.2500    -0.6070 C.3   1 <1>  -0.0600 
 32 C        9.3220     3.9740    -1.1740 C.3   1 <1>  -0.0590 
 33 H        1.8910     0.4780    -2.2420 H     1 <1>   0.0800 
 34 H        0.4570     2.3410    -1.5480 H     1 <1>   0.0800 
 35 H       -0.9810     1.9090    -0.6520 H     1 <1>   0.0800 
 36 H        2.1570    -0.5840     0.5790 H     1 <1>   0.0800 
 37 H        2.4220    -1.8780    -2.1660 H     1 <1>   0.0800 
 38 H        0.6980    -1.7540    -2.4710 H     1 <1>   0.0800 
 39 H        0.3070     1.3530     1.3230 H     1 <1>   0.0800 
 40 H        0.7380     2.9720     0.8360 H     1 <1>   0.0800 
 41 H        2.7370     2.1780    -0.1410 H     1 <1>   0.4500 
 42 H        0.9830    -3.2410    -0.8540 H     1 <1>   0.4000 
 43 H        2.2670     1.4000     2.5910 H     1 <1>   0.0800 
 44 H        3.7690     0.9340     1.8200 H     1 <1>   0.0800 
 45 H        4.2000    -1.6040     0.8730 H     1 <1>   0.1500 
 46 H        3.9560     1.6080    -1.9710 H     1 <1>   0.1500 
 47 H        6.3670     1.4590    -2.3070 H     1 <1>   0.1500 
 48 H        5.0900     2.6490     0.5200 H     1 <1>   0.1500 
 49 H        2.0130     3.7380     3.2880 H     1 <1>   0.1500 
 50 H        2.9470     5.9950     3.4030 H     1 <1>   0.1500 
 51 H        7.6870    -3.7280     0.5270 H     1 <1>   0.0800 
 52 H        8.4740    -2.3460    -0.2180 H     1 <1>   0.0800 
 53 H        7.0810    -3.0980    -1.0020 H     1 <1>   0.0800 
 54 H        4.9180     6.5920     2.0890 H     1 <1>   0.1500 
 55 H        9.7340     0.5620    -0.3050 H     1 <1>   0.0800 
 56 H        8.5840    -0.0960     0.8560 H     1 <1>   0.0800 
 57 H        8.3130     1.5000     0.1550 H     1 <1>   0.0800 
 58 H        8.0510     6.4930    -1.8760 H     1 <1>   0.1500 
 59 H        5.7780     7.8490    -1.4530 H     1 <1>   0.0800 
 60 H        5.5330     7.8700     0.2700 H     1 <1>   0.0800 
 61 H        4.4780     6.9170    -0.7560 H     1 <1>   0.0800 
 62 H        9.8930     4.6510    -1.7820 H     1 <1>   0.0800 
 63 H        9.0790     3.1020    -1.7520 H     1 <1>   0.0800 
 64 H        9.9130     3.6800    -0.3270 H     1 <1>   0.0800 
@<TRIPOS>BOND
  1   1   2  1   
  2   1   3  1   
  3   2   4  1   
  4   2   5  1   
  5   2  33  1   
  6   3   6  1   
  7   3  34  1   
  8   3  35  1   
  9   4   7  1   
 10   4   8  1   
 11   4  36  1   
 12   5   9  1   
 13   5  37  1   
 14   5  38  1   
 15   6   7  1   
 16   6  39  1   
 17   6  40  1   
 18   7  10  1   
 19   7  41  1   
 20   8  11  ar  
 21   8  12  ar  
 22   9  42  1   
 23  10  13  1   
 24  10  43  1   
 25  10  44  1   
 26  11  14  ar  
 27  11  45  1   
 28  12  15  ar  
 29  12  46  1   
 30  13  16  ar  
 31  13  17  ar  
 32  14  18  1   
 33  14  19  ar  
 34  15  19  ar  
 35  15  47  1   
 36  16  20  ar  
 37  16  48  1   
 38  17  21  ar  
 39  17  49  1   
 40  18  22  1   
 41  19  23  1   
 42  20  24  1   
 43  20  25  ar  
 44  21  25  ar  
 45  21  50  1   
 46  22  51  1   
 47  22  52  1   
 48  22  53  1   
 49  23  26  1   
 50  24  27  1   
 51  24  28  1   
 52  25  54  1   
 53  26  55  1   
 54  26  56  1   
 55  26  57  1   
 56  27  29  2   
 57  28  30  2   
 58  28  31  1   
 59  29  30  1   
 60  29  32  1   
 61  30  58  1   
 62  31  59  1   
 63  31  60  1   
 64  31  61  1   
 65  32  62  1   
 66  32  63  1   
 67  32  64  1   
@<TRIPOS>SUBSTRUCTURE
  1 ****  12 GROUP 4 **** **** 0

# MOE 2024.06 (io_trps.svl 2023.06)
