@<TRIPOS>MOLECULE
Untitled Document
46 48 1 0 0 
SMALL
USER_CHARGES


@<TRIPOS>ATOM
  1 O       -0.6560     0.0810    -0.5140 O.2   1 <1>  -0.5700 
  2 C       -1.1390     1.1920    -0.5550 C.2   1 <1>   0.5440 
  3 N       -0.2790     2.1980    -0.8420 N.am  1 <1>  -0.8000 
  4 C       -2.5490     1.4260    -0.2940 C.ar  1 <1>   0.0860 
  5 C       -3.3020     0.5090     0.4420 C.ar  1 <1>  -0.1500 
  6 C       -3.2150     2.5640    -0.7600 C.ar  1 <1>  -0.1500 
  7 C       -4.6410     0.7190     0.7100 C.ar  1 <1>  -0.1500 
  8 C       -4.5560     2.7830    -0.4970 C.ar  1 <1>  -0.1500 
  9 C       -5.2810     1.8560     0.2460 C.ar  1 <1>   0.0830 
 10 O       -6.5920     1.9890     0.5500 O.3   1 <1>  -0.3630 
 11 C       -7.3540     3.0850     0.1130 C.3   1 <1>   0.1200 
 12 C       -8.7780     2.8780     0.6300 C.3   1 <1>  -0.1600 
 13 C       -9.6930     4.0190     0.1890 C.3   1 <1>   0.3430 
 14 N      -11.0570     3.8280     0.7540 N.4   1 <1>  -0.9590 
 15 C      -11.8130     2.6730     0.1340 C.3   1 <1>   0.3430 
 16 C      -11.9040     5.0670     0.5990 C.3   1 <1>   0.3430 
 17 C      -12.9720     3.3490    -0.5780 C.3   1 <1>  -0.0800 
 18 C      -13.2840     4.5000     0.3340 C.3   1 <1>  -0.0800 
 19 C      -14.3480     2.7510    -0.8320 C.3   1 <1>  -0.1600 
 20 C      -14.4220     5.1950    -0.4020 C.3   1 <1>  -0.1600 
 21 C      -15.2420     4.0060    -0.9520 C.3   1 <1>  -0.1600 
 22 H        0.7060     1.9650    -0.9760 H     1 <1>   0.3700 
 23 H       -0.5100     3.1850    -0.7590 H     1 <1>   0.3700 
 24 H       -2.8200    -0.3820     0.8080 H     1 <1>   0.1500 
 25 H       -2.6770     3.2860    -1.3450 H     1 <1>   0.1500 
 26 H       -5.1980    -0.0020     1.2810 H     1 <1>   0.1500 
 27 H       -5.0160     3.6740    -0.8790 H     1 <1>   0.1500 
 28 H       -7.3270     3.1050    -0.9640 H     1 <1>   0.0800 
 29 H       -6.9160     3.9820     0.5170 H     1 <1>   0.0800 
 30 H       -8.7440     2.8360     1.7040 H     1 <1>   0.0800 
 31 H       -9.1390     1.9410     0.2450 H     1 <1>   0.0800 
 32 H       -9.7430     4.0590    -0.8870 H     1 <1>   0.0800 
 33 H       -9.2840     4.9520     0.5440 H     1 <1>   0.0800 
 34 H      -10.9650     3.6320     1.7610 H     1 <1>   0.4500 
 35 H      -12.1890     2.0200     0.9050 H     1 <1>   0.0800 
 36 H      -11.2070     2.1090    -0.5550 H     1 <1>   0.0800 
 37 H      -11.5810     5.6390    -0.2560 H     1 <1>   0.0800 
 38 H      -11.8850     5.6850     1.4820 H     1 <1>   0.0800 
 39 H      -12.6000     3.7210    -1.5210 H     1 <1>   0.0800 
 40 H      -13.6760     4.1320     1.2700 H     1 <1>   0.0800 
 41 H      -14.6640     2.1540     0.0080 H     1 <1>   0.0800 
 42 H      -14.3740     2.1510    -1.7260 H     1 <1>   0.0800 
 43 H      -14.0410     5.7880    -1.2180 H     1 <1>   0.0800 
 44 H      -15.0080     5.8200     0.2510 H     1 <1>   0.0800 
 45 H      -16.1470     3.8700    -0.3820 H     1 <1>   0.0800 
 46 H      -15.5110     4.1880    -1.9790 H     1 <1>   0.0800 
@<TRIPOS>BOND
  1   1   2  2   
  2   2   3  am  
  3   2   4  1   
  4   3  22  1   
  5   3  23  1   
  6   4   5  ar  
  7   4   6  ar  
  8   5   7  ar  
  9   5  24  1   
 10   6   8  ar  
 11   6  25  1   
 12   7   9  ar  
 13   7  26  1   
 14   8   9  ar  
 15   8  27  1   
 16   9  10  1   
 17  10  11  1   
 18  11  12  1   
 19  11  28  1   
 20  11  29  1   
 21  12  13  1   
 22  12  30  1   
 23  12  31  1   
 24  13  14  1   
 25  13  32  1   
 26  13  33  1   
 27  14  15  1   
 28  14  16  1   
 29  14  34  1   
 30  15  17  1   
 31  15  35  1   
 32  15  36  1   
 33  16  18  1   
 34  16  37  1   
 35  16  38  1   
 36  17  18  1   
 37  17  19  1   
 38  17  39  1   
 39  18  20  1   
 40  18  40  1   
 41  19  21  1   
 42  19  41  1   
 43  19  42  1   
 44  20  21  1   
 45  20  43  1   
 46  20  44  1   
 47  21  45  1   
 48  21  46  1   
@<TRIPOS>SUBSTRUCTURE
  1 ****  11 GROUP 4 **** **** 0

# MOE 2024.06 (io_trps.svl 2023.06)
