@<TRIPOS>MOLECULE
NONAME
48 50 1 0 0 
SMALL
USER_CHARGES


@<TRIPOS>ATOM
  1 O       -0.8230     0.0590    -2.6790 O.2   1 <1>  -0.5700 
  2 C       -1.4400     0.8310    -1.9820 C.2   1 <1>   0.5690 
  3 N       -2.4420     0.3920    -1.1530 N.am  1 <1>  -0.6600 
  4 C       -1.0990     2.3150    -2.0930 C.3   1 <1>   0.1810 
  5 C       -3.2180     1.2250    -0.1990 C.3   1 <1>   0.1400 
  6 C       -2.7970    -1.0390    -1.0110 C.3   1 <1>   0.1400 
  7 O       -0.7480     2.8710    -0.8340 O.3   1 <1>  -0.3620 
  8 C       -4.1450     0.2420     0.5190 C.3   1 <1>   0.2000 
  9 C       -3.5080    -1.1350     0.3400 C.3   1 <1>  -0.0800 
 10 C       -0.5400     4.2030    -0.6920 C.ar  1 <1>   0.0820 
 11 O       -4.2570     0.5380     1.8680 O.3   1 <1>  -0.6800 
 12 C       -4.5360    -2.2770     0.4360 C.3   1 <1>  -0.0170 
 13 C       -0.3560     4.6720     0.5970 C.ar  1 <1>  -0.1500 
 14 C       -0.5070     5.1000    -1.7540 C.ar  1 <1>  -0.1500 
 15 C       -3.8830    -3.6410     0.2840 C.ar  1 <1>   0.1670 
 16 C       -0.1480     6.0190     0.8470 C.ar  1 <1>  -0.1440 
 17 C       -0.3000     6.4450    -1.5100 C.ar  1 <1>  -0.1500 
 18 N       -3.6590    -4.0540    -0.9540 N.ar  1 <1>  -0.6200 
 19 C       -3.5510    -4.3860     1.4150 C.ar  1 <1>   0.1600 
 20 C       -0.1210     6.9150    -0.2170 C.ar  1 <1>  -0.1440 
 21 C        0.0470     6.4830     2.2830 C.3   1 <1>  -0.0970 
 22 C       -3.0840    -5.2440    -0.9840 C.ar  1 <1>   0.1600 
 23 N       -2.9760    -5.5770     1.3860 N.ar  1 <1>  -0.6200 
 24 C        0.1040     8.4040     0.0040 C.3   1 <1>  -0.0970 
 25 C       -2.7530    -5.9800     0.1470 C.ar  1 <1>   0.1600 
 26 H       -1.9520     2.8440    -2.4740 H     1 <1>   0.0800 
 27 H       -0.2640     2.4400    -2.7570 H     1 <1>   0.0800 
 28 H       -2.5440     1.6910     0.4990 H     1 <1>   0.0800 
 29 H       -3.7850     1.9720    -0.7260 H     1 <1>   0.0800 
 30 H       -3.4570    -1.3190    -1.8150 H     1 <1>   0.0800 
 31 H       -1.9190    -1.6630    -1.0420 H     1 <1>   0.0800 
 32 H       -5.1270     0.2800     0.0790 H     1 <1>   0.0800 
 33 H       -2.7460    -1.2760     1.0870 H     1 <1>   0.0800 
 34 H       -3.3730     0.5600     2.2840 H     1 <1>   0.4000 
 35 H       -5.2850    -2.1620    -0.3270 H     1 <1>   0.0800 
 36 H       -5.0350    -2.2220     1.3870 H     1 <1>   0.0800 
 37 H       -0.3770     3.9650     1.4060 H     1 <1>   0.1500 
 38 H       -0.6350     4.7770    -2.7690 H     1 <1>   0.1500 
 39 H       -0.2770     7.1300    -2.3400 H     1 <1>   0.1500 
 40 H       -3.7680    -3.9780     2.3860 H     1 <1>   0.1500 
 41 H       -0.0090     5.6550     2.9670 H     1 <1>   0.0800 
 42 H       -0.7160     7.1920     2.5490 H     1 <1>   0.0800 
 43 H        1.0110     6.9450     2.3930 H     1 <1>   0.0800 
 44 H       -2.8620    -5.6580    -1.9520 H     1 <1>   0.1500 
 45 H        0.0950     8.9400    -0.9280 H     1 <1>   0.0800 
 46 H        1.0560     8.5670     0.4760 H     1 <1>   0.0800 
 47 H       -0.6720     8.8050     0.6300 H     1 <1>   0.0800 
 48 H       -2.2860    -6.9410     0.0200 H     1 <1>   0.1500 
@<TRIPOS>BOND
  1   1   2  2   
  2   2   3  am  
  3   2   4  1   
  4   3   5  1   
  5   3   6  1   
  6   4   7  1   
  7   4  26  1   
  8   4  27  1   
  9   5   8  1   
 10   5  28  1   
 11   5  29  1   
 12   6   9  1   
 13   6  30  1   
 14   6  31  1   
 15   7  10  1   
 16   8   9  1   
 17   8  11  1   
 18   8  32  1   
 19   9  12  1   
 20   9  33  1   
 21  10  13  ar  
 22  10  14  ar  
 23  11  34  1   
 24  12  15  1   
 25  12  35  1   
 26  12  36  1   
 27  13  16  ar  
 28  13  37  1   
 29  14  17  ar  
 30  14  38  1   
 31  15  18  ar  
 32  15  19  ar  
 33  16  20  ar  
 34  16  21  1   
 35  17  20  ar  
 36  17  39  1   
 37  18  22  ar  
 38  19  23  ar  
 39  19  40  1   
 40  20  24  1   
 41  21  41  1   
 42  21  42  1   
 43  21  43  1   
 44  22  25  ar  
 45  22  44  1   
 46  23  25  ar  
 47  24  45  1   
 48  24  46  1   
 49  24  47  1   
 50  25  48  1   
@<TRIPOS>SUBSTRUCTURE
  1 ****   3 GROUP 4 **** **** 0

# MOE 2024.06 (io_trps.svl 2023.06)
