@<TRIPOS>MOLECULE
NONAME
53 54 1 0 0 
SMALL
USER_CHARGES


@<TRIPOS>ATOM
  1 F       -0.8120     0.0620    -0.5630 F     1 <1>  -0.1900 
  2 C       -2.0510     0.4420    -0.3800 C.ar  1 <1>   0.1900 
  3 C       -2.3750     1.7060     0.1230 C.ar  1 <1>   0.0830 
  4 C       -3.0290    -0.4750    -0.7120 C.ar  1 <1>  -0.1500 
  5 O       -1.5050     2.6930     0.4850 O.3   1 <1>  -0.3630 
  6 C       -3.7170     2.0110     0.2770 C.ar  1 <1>  -0.1500 
  7 C       -4.3600    -0.1370    -0.5470 C.ar  1 <1>  -0.1500 
  8 C       -0.1040     2.5430     0.4290 C.3   1 <1>   0.0400 
  9 C       -4.7390     1.1130    -0.0460 C.ar  1 <1>   0.0530 
 10 C       -6.1250     1.4810     0.1310 C.2   1 <1>   0.0870 
 11 O       -6.4620     2.7420     0.2470 O.3   1 <1>  -0.0190 
 12 C       -7.2800     0.7660     0.2030 C.2   1 <1>  -0.0860 
 13 N       -7.7470     2.9200     0.3990 N.2   1 <1>  -0.4100 
 14 C       -8.2640     1.7420     0.3880 C.2   1 <1>   0.3720 
 15 C       -7.5210    -0.6380     0.1220 C.2   1 <1>   0.7160 
 16 N       -9.6320     1.4840     0.5600 N.pl3 1 <1>  -0.8210 
 17 O       -7.0880    -1.3660     0.9980 O.2   1 <1>  -0.5700 
 18 N       -8.2040    -1.2030    -0.9370 N.am  1 <1>  -0.6600 
 19 C       -9.9610     0.9000     1.8890 C.3   1 <1>   0.1290 
 20 C      -10.5420     2.6100     0.2100 C.3   1 <1>   0.1290 
 21 C       -8.5630    -2.6570    -0.9380 C.3   1 <1>   0.1400 
 22 C       -8.7210    -0.4090    -2.0880 C.3   1 <1>   0.0600 
 23 C       -9.6520    -3.0000     0.0930 C.3   1 <1>   0.2000 
 24 O       -9.9120    -4.3640    -0.0260 O.3   1 <1>  -0.5600 
 25 C      -10.9700    -2.2560    -0.1440 C.3   1 <1>  -0.2400 
 26 C      -10.2290    -5.0100     1.1620 C.3   1 <1>   0.1200 
 27 C      -10.5160    -6.4680     0.8280 C.3   1 <1>  -0.2400 
 28 H       -2.7500    -1.4400    -1.0950 H     1 <1>   0.1500 
 29 H       -3.9700     2.9810     0.6660 H     1 <1>   0.1500 
 30 H       -5.1070    -0.8610    -0.8140 H     1 <1>   0.1500 
 31 H        0.3440     3.4530     0.7850 H     1 <1>   0.0800 
 32 H        0.1890     2.3690    -0.5910 H     1 <1>   0.0800 
 33 H        0.1870     1.7230     1.0610 H     1 <1>   0.0800 
 34 H       -9.3360     0.0460     2.0870 H     1 <1>   0.0800 
 35 H      -10.9890     0.5820     1.9070 H     1 <1>   0.0800 
 36 H       -9.8020     1.6330     2.6610 H     1 <1>   0.0800 
 37 H      -10.2670     3.0160    -0.7490 H     1 <1>   0.0800 
 38 H      -10.4690     3.3890     0.9490 H     1 <1>   0.0800 
 39 H      -11.5580     2.2600     0.1580 H     1 <1>   0.0800 
 40 H       -7.6810    -3.2290    -0.7060 H     1 <1>   0.0800 
 41 H       -8.9030    -2.9470    -1.9170 H     1 <1>   0.0800 
 42 H       -8.1820     0.5170    -2.1920 H     1 <1>   0.0800 
 43 H       -9.7620    -0.1840    -1.9340 H     1 <1>   0.0800 
 44 H       -8.6110    -0.9670    -3.0010 H     1 <1>   0.0800 
 45 H       -9.2700    -2.7990     1.0800 H     1 <1>   0.0800 
 46 H      -11.3390    -2.4630    -1.1310 H     1 <1>   0.0800 
 47 H      -10.8160    -1.1970    -0.0490 H     1 <1>   0.0800 
 48 H      -11.7060    -2.5500     0.5810 H     1 <1>   0.0800 
 49 H      -11.0960    -4.5440     1.5990 H     1 <1>   0.0800 
 50 H       -9.3900    -4.9320     1.8340 H     1 <1>   0.0800 
 51 H      -11.3440    -6.5330     0.1460 H     1 <1>   0.0800 
 52 H      -10.7640    -7.0060     1.7250 H     1 <1>   0.0800 
 53 H       -9.6480    -6.9200     0.3830 H     1 <1>   0.0800 
@<TRIPOS>BOND
  1   1   2  1   
  2   2   3  ar  
  3   2   4  ar  
  4   3   5  1   
  5   3   6  ar  
  6   4   7  ar  
  7   4  28  1   
  8   5   8  1   
  9   6   9  ar  
 10   6  29  1   
 11   7   9  ar  
 12   7  30  1   
 13   8  31  1   
 14   8  32  1   
 15   8  33  1   
 16   9  10  1   
 17  10  11  1   
 18  10  12  2   
 19  11  13  1   
 20  12  14  1   
 21  12  15  1   
 22  13  14  2   
 23  14  16  1   
 24  15  17  2   
 25  15  18  am  
 26  16  19  1   
 27  16  20  1   
 28  18  21  1   
 29  18  22  1   
 30  19  34  1   
 31  19  35  1   
 32  19  36  1   
 33  20  37  1   
 34  20  38  1   
 35  20  39  1   
 36  21  23  1   
 37  21  40  1   
 38  21  41  1   
 39  22  42  1   
 40  22  43  1   
 41  22  44  1   
 42  23  24  1   
 43  23  25  1   
 44  23  45  1   
 45  24  26  1   
 46  25  46  1   
 47  25  47  1   
 48  25  48  1   
 49  26  27  1   
 50  26  49  1   
 51  26  50  1   
 52  27  51  1   
 53  27  52  1   
 54  27  53  1   
@<TRIPOS>SUBSTRUCTURE
  1 ****  15 GROUP 4 **** **** 0

# MOE 2024.06 (io_trps.svl 2023.06)
