@<TRIPOS>MOLECULE
NONAME
57 60 1 0 0 
SMALL
USER_CHARGES


@<TRIPOS>ATOM
  1 O        0.7250    -0.4370     1.6130 O.3   1 <1>  -0.5600 
  2 C        0.8230    -1.8140     1.3590 C.3   1 <1>   0.1200 
  3 C        1.1120     0.3580     0.5340 C.3   1 <1>   0.1200 
  4 C        2.2650    -2.2100     0.9740 C.3   1 <1>   0.3340 
  5 C        2.5820     0.0700     0.1690 C.3   1 <1>   0.1900 
  6 N        2.7670    -1.3690    -0.1450 N.3   1 <1>  -0.8100 
  7 C        2.3170    -3.6870     0.5940 C.ar  1 <1>  -0.1430 
  8 C        3.0200     0.9420    -1.0250 C.3   1 <1>   0.3430 
  9 C        4.1790    -1.6650    -0.4750 C.3   1 <1>   0.1100 
 10 C        2.9460    -4.5990     1.4290 C.ar  1 <1>  -0.1500 
 11 C        1.7450    -4.1370    -0.5890 C.ar  1 <1>  -0.1500 
 12 N        4.4280     0.6360    -1.4540 N.4   1 <1>  -0.9590 
 13 C        4.6590    -0.8270    -1.6770 C.3   1 <1>   0.3430 
 14 C        3.0060    -5.9390     1.0860 C.ar  1 <1>  -0.1500 
 15 C        1.8020    -5.4770    -0.9320 C.ar  1 <1>  -0.1500 
 16 C        4.8620     1.4940    -2.5850 C.3   1 <1>   0.5240 
 17 C        2.4340    -6.3780    -0.0950 C.ar  1 <1>  -0.1500 
 18 C        5.0800     2.8900    -2.0190 C.2   1 <1>   0.0460 
 19 N        5.6020     3.0390    -0.7810 N.2   1 <1>  -0.5650 
 20 C        4.8090     4.0930    -2.5730 C.2   1 <1>  -0.3020 
 21 C        5.6510     4.3220    -0.6140 C.2   1 <1>   0.0060 
 22 N        5.1800     5.0200    -1.6710 N.pl3 1 <1>   0.0330 
 23 C        6.1840     4.9980     0.6370 C.3   1 <1>   0.0200 
 24 C        7.5190     5.7050     0.3620 C.3   1 <1>  -0.1600 
 25 C        8.0730     6.3730     1.6270 C.3   1 <1>  -0.1600 
 26 C        9.4030     7.0740     1.3400 C.3   1 <1>  -0.2400 
 27 H        0.5250    -2.3370     2.2500 H     1 <1>   0.0800 
 28 H        0.1380    -2.0680     0.5690 H     1 <1>   0.0800 
 29 H        0.4580     0.1520    -0.2960 H     1 <1>   0.0800 
 30 H        0.9890     1.3850     0.8300 H     1 <1>   0.0800 
 31 H        2.8870    -2.0500     1.8390 H     1 <1>   0.0800 
 32 H        3.1850     0.3350     1.0210 H     1 <1>   0.0800 
 33 H        2.9450     1.9820    -0.7480 H     1 <1>   0.0800 
 34 H        2.3440     0.7620    -1.8430 H     1 <1>   0.0800 
 35 H        4.8070    -1.4720     0.3780 H     1 <1>   0.0800 
 36 H        4.2830    -2.7060    -0.7310 H     1 <1>   0.0800 
 37 H        3.3940    -4.2760     2.3530 H     1 <1>   0.1500 
 38 H        1.2550    -3.4410    -1.2470 H     1 <1>   0.1500 
 39 H        5.0340     0.9750    -0.6860 H     1 <1>   0.4500 
 40 H        4.1180    -1.1520    -2.5500 H     1 <1>   0.0800 
 41 H        5.7070    -1.0150    -1.8430 H     1 <1>   0.0800 
 42 H        3.4950    -6.6420     1.7380 H     1 <1>   0.1500 
 43 H        1.3550    -5.8180    -1.8490 H     1 <1>   0.1500 
 44 H        5.7990     1.1350    -2.9780 H     1 <1>   0.0800 
 45 H        4.1280     1.5070    -3.3720 H     1 <1>   0.0800 
 46 H        2.4790    -7.4200    -0.3610 H     1 <1>   0.1500 
 47 H        4.3900     4.3480    -3.5320 H     1 <1>   0.1500 
 48 H        5.1320     6.0410    -1.7580 H     1 <1>   0.2700 
 49 H        5.4590     5.7070     0.9970 H     1 <1>   0.0800 
 50 H        6.3260     4.2540     1.4020 H     1 <1>   0.0800 
 51 H        8.2280     4.9800     0.0000 H     1 <1>   0.0800 
 52 H        7.3840     6.4490    -0.4030 H     1 <1>   0.0800 
 53 H        7.3660     7.0960     1.9990 H     1 <1>   0.0800 
 54 H        8.2250     5.6310     2.3940 H     1 <1>   0.0800 
 55 H        9.2740     7.8390     0.5940 H     1 <1>   0.0800 
 56 H       10.1330     6.3670     0.9890 H     1 <1>   0.0800 
 57 H        9.7780     7.5340     2.2380 H     1 <1>   0.0800 
@<TRIPOS>BOND
  1   1   2  1   
  2   1   3  1   
  3   2   4  1   
  4   2  27  1   
  5   2  28  1   
  6   3   5  1   
  7   3  29  1   
  8   3  30  1   
  9   4   6  1   
 10   4   7  1   
 11   4  31  1   
 12   5   6  1   
 13   5   8  1   
 14   5  32  1   
 15   6   9  1   
 16   7  10  ar  
 17   7  11  ar  
 18   8  12  1   
 19   8  33  1   
 20   8  34  1   
 21   9  13  1   
 22   9  35  1   
 23   9  36  1   
 24  10  14  ar  
 25  10  37  1   
 26  11  15  ar  
 27  11  38  1   
 28  12  13  1   
 29  12  16  1   
 30  12  39  1   
 31  13  40  1   
 32  13  41  1   
 33  14  17  ar  
 34  14  42  1   
 35  15  17  ar  
 36  15  43  1   
 37  16  18  1   
 38  16  44  1   
 39  16  45  1   
 40  17  46  1   
 41  18  19  1   
 42  18  20  2   
 43  19  21  2   
 44  20  22  1   
 45  20  47  1   
 46  21  22  1   
 47  21  23  1   
 48  22  48  1   
 49  23  24  1   
 50  23  49  1   
 51  23  50  1   
 52  24  25  1   
 53  24  51  1   
 54  24  52  1   
 55  25  26  1   
 56  25  53  1   
 57  25  54  1   
 58  26  55  1   
 59  26  56  1   
 60  26  57  1   
@<TRIPOS>SUBSTRUCTURE
  1 ****  12 GROUP 4 **** **** 0

# MOE 2024.06 (io_trps.svl 2023.06)
