@<TRIPOS>MOLECULE
NONAME
47 48 1 0 0 
SMALL
USER_CHARGES


@<TRIPOS>ATOM
  1 O        0.3530     1.1530     1.1920 O.co2 1 <1>  -0.9000 
  2 C       -0.5470     1.4730     0.4120 C.2   1 <1>   0.9060 
  3 O       -0.5850     1.0490    -0.7560 O.co2 1 <1>  -0.9000 
  4 C       -1.7350     2.3120     0.9700 C.3   1 <1>   0.4600 
  5 N       -3.1300     1.6910     0.8140 N.4   1 <1>  -0.9590 
  6 C       -1.7660     3.7640     0.4710 C.ar  1 <1>  -0.1430 
  7 C       -3.4450     1.4070    -0.6240 C.3   1 <1>   0.3430 
  8 C       -4.1960     2.4780     1.4880 C.3   1 <1>   0.2630 
  9 C       -1.9760     4.7910     1.3820 C.ar  1 <1>  -0.1500 
 10 C       -1.5900     4.0850    -0.8700 C.ar  1 <1>  -0.1500 
 11 C       -3.8200    -0.0660    -0.9020 C.3   1 <1>   0.0000 
 12 C       -2.0400     6.1090     0.9640 C.ar  1 <1>  -0.1500 
 13 C       -1.6570     5.4010    -1.2900 C.ar  1 <1>  -0.1500 
 14 C       -4.9770    -0.6020    -0.0440 C.3   1 <1>   0.2580 
 15 C       -3.0190    -1.1170    -0.1070 C.3   1 <1>   0.2580 
 16 C       -3.9470    -0.3830    -2.4020 C.3   1 <1>  -0.2400 
 17 C       -1.8870     6.4220    -0.3830 C.ar  1 <1>   0.0830 
 18 O       -3.9960    -0.9620     0.9240 O.3   1 <1>  -0.5160 
 19 O       -1.9390     7.6800    -0.8900 O.3   1 <1>  -0.3620 
 20 C       -2.0510     8.8350    -0.0880 C.3   1 <1>   0.2000 
 21 C       -3.5290     9.0790     0.2230 C.3   1 <1>  -0.2400 
 22 C       -1.4600     9.9930    -0.8890 C.3   1 <1>  -0.2400 
 23 H       -1.5280     2.3610     2.0230 H     1 <1>   0.0800 
 24 H       -3.0680     0.7550     1.2580 H     1 <1>   0.4500 
 25 H       -2.5930     1.6450    -1.2370 H     1 <1>   0.0800 
 26 H       -4.2480     2.0450    -0.9520 H     1 <1>   0.0800 
 27 H       -4.2990     3.4420     1.0170 H     1 <1>   0.0800 
 28 H       -3.9470     2.6240     2.5260 H     1 <1>   0.0800 
 29 H       -5.1380     1.9580     1.4290 H     1 <1>   0.0800 
 30 H       -2.0870     4.5730     2.4300 H     1 <1>   0.1500 
 31 H       -1.3880     3.3180    -1.6000 H     1 <1>   0.1500 
 32 H       -2.2070     6.8740     1.6970 H     1 <1>   0.1500 
 33 H       -1.5210     5.6460    -2.3280 H     1 <1>   0.1500 
 34 H       -5.4610    -1.4870    -0.4230 H     1 <1>   0.0000 
 35 H       -5.6460     0.1410     0.3510 H     1 <1>   0.0000 
 36 H       -2.0510    -0.8170     0.2470 H     1 <1>   0.0000 
 37 H       -3.0590    -2.1190    -0.5010 H     1 <1>   0.0000 
 38 H       -4.6990     0.2360    -2.8590 H     1 <1>   0.0800 
 39 H       -4.2140    -1.4150    -2.5560 H     1 <1>   0.0800 
 40 H       -3.0050    -0.2030    -2.8930 H     1 <1>   0.0800 
 41 H       -1.4720     8.6970     0.8080 H     1 <1>   0.0800 
 42 H       -4.0830     9.2140    -0.6890 H     1 <1>   0.0800 
 43 H       -3.6350     9.9660     0.8210 H     1 <1>   0.0800 
 44 H       -3.9450     8.2520     0.7680 H     1 <1>   0.0800 
 45 H       -2.0010    10.1290    -1.8080 H     1 <1>   0.0800 
 46 H       -0.4270     9.7930    -1.1110 H     1 <1>   0.0800 
 47 H       -1.5140    10.9020    -0.3180 H     1 <1>   0.0800 
@<TRIPOS>BOND
  1   1   2  ar  
  2   2   3  ar  
  3   2   4  1   
  4   4   5  1   
  5   4   6  1   
  6   4  23  1   
  7   5   7  1   
  8   5   8  1   
  9   5  24  1   
 10   6   9  ar  
 11   6  10  ar  
 12   7  11  1   
 13   7  25  1   
 14   7  26  1   
 15   8  27  1   
 16   8  28  1   
 17   8  29  1   
 18   9  12  ar  
 19   9  30  1   
 20  10  13  ar  
 21  10  31  1   
 22  11  14  1   
 23  11  15  1   
 24  11  16  1   
 25  12  17  ar  
 26  12  32  1   
 27  13  17  ar  
 28  13  33  1   
 29  14  18  1   
 30  14  34  1   
 31  14  35  1   
 32  15  18  1   
 33  15  36  1   
 34  15  37  1   
 35  16  38  1   
 36  16  39  1   
 37  16  40  1   
 38  17  19  1   
 39  19  20  1   
 40  20  21  1   
 41  20  22  1   
 42  20  41  1   
 43  21  42  1   
 44  21  43  1   
 45  21  44  1   
 46  22  45  1   
 47  22  46  1   
 48  22  47  1   
@<TRIPOS>SUBSTRUCTURE
  1 ****   6 GROUP 4 **** **** 0

# MOE 2024.06 (io_trps.svl 2023.06)
