@<TRIPOS>MOLECULE
NONAME
49 52 1 0 0 
SMALL
USER_CHARGES


@<TRIPOS>ATOM
  1 O        2.2220    -0.2340    -2.8870 O.2   1 <1>  -0.5700 
  2 C        2.5960    -0.6070    -1.7940 C.2   1 <1>   0.5440 
  3 N        3.2560     0.2890    -0.9770 N.am  1 <1>  -0.6600 
  4 C        2.3970    -1.9750    -1.3690 C.ar  1 <1>   0.0860 
  5 C        3.4040     0.0330     0.5060 C.3   1 <1>   0.2200 
  6 C        3.8850     1.5020    -1.5840 C.3   1 <1>   0.1400 
  7 C        3.4640    -2.8670    -1.3780 C.ar  1 <1>  -0.1500 
  8 C        1.1770    -2.4330    -0.8760 C.ar  1 <1>  -0.1500 
  9 C        3.0720     1.2680     1.3590 C.3   1 <1>   0.1200 
 10 C        4.8040    -0.5180     0.8490 C.3   1 <1>   0.3430 
 11 C        5.0170     2.1400    -0.7540 C.3   1 <1>  -0.0800 
 12 C        3.3510    -4.1340    -0.8450 C.ar  1 <1>  -0.1500 
 13 C        1.0550    -3.7080    -0.3530 C.ar  1 <1>  -0.1500 
 14 O        4.1890     2.0920     1.5150 O.3   1 <1>  -0.5600 
 15 N        5.8180    -0.2260    -0.2250 N.4   1 <1>  -0.9590 
 16 C        4.4730     2.9300     0.4460 C.3   1 <1>   0.1200 
 17 C        6.1870     1.2110    -0.3600 C.3   1 <1>   0.3430 
 18 C        2.1460    -4.5750    -0.3060 C.ar  1 <1>  -0.0230 
 19 C        7.0190    -1.1480    -0.0520 C.3   1 <1>   0.2370 
 20 N        2.0350    -5.8700     0.2810 N.pl3 1 <1>   0.5930 
 21 C        6.6860    -2.6460    -0.1060 C.2   1 <1>   0.9060 
 22 N        0.8590    -6.5500     0.3830 N.2   1 <1>  -0.7070 
 23 C        3.0280    -6.6010     0.8490 C.2   1 <1>  -0.3020 
 24 O        6.2270    -3.1820     0.9060 O.co2 1 <1>  -0.9000 
 25 O        6.7510    -3.2140    -1.1960 O.co2 1 <1>  -0.9000 
 26 C        1.1460    -7.6610     0.9830 C.2   1 <1>   0.1390 
 27 C        2.4940    -7.7530     1.3030 C.2   1 <1>  -0.1500 
 28 H        2.6880    -0.7140     0.8000 H     1 <1>   0.0800 
 29 H        4.2790     1.2300    -2.5500 H     1 <1>   0.0800 
 30 H        3.1110     2.2310    -1.7600 H     1 <1>   0.0800 
 31 H        4.4060    -2.5690    -1.8020 H     1 <1>   0.1500 
 32 H        0.3240    -1.7770    -0.8980 H     1 <1>   0.1500 
 33 H        2.7960     0.9440     2.3480 H     1 <1>   0.0800 
 34 H        2.2500     1.8270     0.9470 H     1 <1>   0.0800 
 35 H        4.7030    -1.5840     0.9680 H     1 <1>   0.0800 
 36 H        5.1340    -0.1220     1.7940 H     1 <1>   0.0800 
 37 H        5.4450     2.8910    -1.3920 H     1 <1>   0.0800 
 38 H        4.2250    -4.7680    -0.8520 H     1 <1>   0.1500 
 39 H        0.1030    -4.0400     0.0290 H     1 <1>   0.1500 
 40 H        5.3480    -0.5140    -1.0980 H     1 <1>   0.4500 
 41 H        3.5880     3.4900     0.1910 H     1 <1>   0.0800 
 42 H        5.2190     3.6260     0.7910 H     1 <1>   0.0800 
 43 H        6.6170     1.5590     0.5650 H     1 <1>   0.0800 
 44 H        6.9450     1.2900    -1.1210 H     1 <1>   0.0800 
 45 H        7.7350    -0.9630    -0.8310 H     1 <1>   0.0800 
 46 H        7.4900    -0.9610     0.8960 H     1 <1>   0.0800 
 47 H        4.0430    -6.2520     0.8960 H     1 <1>   0.1500 
 48 H        0.4160    -8.4220     1.2080 H     1 <1>   0.1500 
 49 H        2.9760    -8.5730     1.8050 H     1 <1>   0.1500 
@<TRIPOS>BOND
  1   1   2  2   
  2   2   3  am  
  3   2   4  1   
  4   3   5  1   
  5   3   6  1   
  6   4   7  ar  
  7   4   8  ar  
  8   5   9  1   
  9   5  10  1   
 10   5  28  1   
 11   6  11  1   
 12   6  29  1   
 13   6  30  1   
 14   7  12  ar  
 15   7  31  1   
 16   8  13  ar  
 17   8  32  1   
 18   9  14  1   
 19   9  33  1   
 20   9  34  1   
 21  10  15  1   
 22  10  35  1   
 23  10  36  1   
 24  11  16  1   
 25  11  17  1   
 26  11  37  1   
 27  12  18  ar  
 28  12  38  1   
 29  13  18  ar  
 30  13  39  1   
 31  14  16  1   
 32  15  17  1   
 33  15  19  1   
 34  15  40  1   
 35  16  41  1   
 36  16  42  1   
 37  17  43  1   
 38  17  44  1   
 39  18  20  1   
 40  19  21  1   
 41  19  45  1   
 42  19  46  1   
 43  20  22  1   
 44  20  23  1   
 45  21  24  ar  
 46  21  25  ar  
 47  22  26  2   
 48  23  27  2   
 49  23  47  1   
 50  26  27  1   
 51  26  48  1   
 52  27  49  1   
@<TRIPOS>SUBSTRUCTURE
  1 ****   7 GROUP 4 **** **** 0

# MOE 2024.06 (io_trps.svl 2023.06)
