@<TRIPOS>MOLECULE
NONAME
52 55 1 0 0 
SMALL
USER_CHARGES


@<TRIPOS>ATOM
  1 CL      -2.0680    -3.5310    -0.0160 Cl    1 <1>  -0.1770 
  2 C       -2.2510    -1.8410     0.4120 C.ar  1 <1>   0.1770 
  3 C       -3.4070    -1.1480    -0.0070 C.ar  1 <1>   0.3100 
  4 C       -1.2710    -1.2500     1.1630 C.ar  1 <1>  -0.1500 
  5 N       -4.3400    -1.7640    -0.7820 N.ar  1 <1>  -0.6200 
  6 C       -3.5560     0.1890     0.4250 C.ar  1 <1>   0.0000 
  7 C       -1.4140     0.0850     1.5540 C.ar  1 <1>  -0.1500 
  8 C       -5.4260    -1.1110    -1.0850 C.ar  1 <1>   0.1670 
  9 C       -4.7360     0.8660     0.0750 C.ar  1 <1>  -0.1500 
 10 C       -2.5350     0.7840     1.1940 C.ar  1 <1>  -0.1500 
 11 C       -5.6670     0.2080    -0.6700 C.ar  1 <1>  -0.1500 
 12 C       -6.4790    -1.8210    -1.9440 C.3   1 <1>   0.2540 
 13 N       -7.3920    -2.7210    -1.1800 N.3   1 <1>  -0.8100 
 14 C       -6.6170    -3.6770    -0.3660 C.3   1 <1>   0.1100 
 15 C       -8.3040    -3.3970    -2.1190 C.3   1 <1>   0.1100 
 16 C       -7.5110    -4.6790     0.3900 C.3   1 <1>   0.4230 
 17 C       -9.2410    -4.3500    -1.3660 C.3   1 <1>  -0.1600 
 18 N       -6.7330    -5.5830     1.3370 N.4   1 <1>  -0.9590 
 19 C       -8.4780    -5.4340    -0.5590 C.3   1 <1>   0.0000 
 20 C       -7.4660    -6.8290     1.7300 C.3   1 <1>   0.3430 
 21 C       -5.3360    -5.9170     0.8970 C.3   1 <1>   0.2630 
 22 C       -9.4940    -6.2490     0.2930 C.3   1 <1>  -0.1600 
 23 C       -7.6830    -6.3700    -1.5140 C.3   1 <1>   0.1200 
 24 C       -8.9780    -6.6070     1.7010 C.3   1 <1>  -0.1600 
 25 O       -8.4930    -6.8950    -2.5070 O.3   1 <1>  -0.6800 
 26 H       -0.3970    -1.8030     1.4580 H     1 <1>   0.1500 
 27 H       -0.6380     0.5470     2.1410 H     1 <1>   0.1500 
 28 H       -4.8870     1.8810     0.4010 H     1 <1>   0.1500 
 29 H       -2.6540     1.8100     1.4990 H     1 <1>   0.1500 
 30 H       -6.5890     0.6850    -0.9500 H     1 <1>   0.1500 
 31 H       -5.9600    -2.3920    -2.6960 H     1 <1>   0.0800 
 32 H       -7.0690    -1.0790    -2.4540 H     1 <1>   0.0800 
 33 H       -5.9150    -4.1870    -1.0030 H     1 <1>   0.0800 
 34 H       -6.0720    -3.1280     0.3810 H     1 <1>   0.0800 
 35 H       -8.8980    -2.6570    -2.6300 H     1 <1>   0.0800 
 36 H       -7.7440    -3.9400    -2.8630 H     1 <1>   0.0800 
 37 H       -8.1470    -4.0680     1.0080 H     1 <1>   0.0800 
 38 H       -9.8480    -3.7530    -0.7070 H     1 <1>   0.0800 
 39 H       -9.9090    -4.8080    -2.0750 H     1 <1>   0.0800 
 40 H       -6.6380    -5.0220     2.1960 H     1 <1>   0.4500 
 41 H       -7.2240    -7.6260     1.0460 H     1 <1>   0.0800 
 42 H       -7.1600    -7.1380     2.7180 H     1 <1>   0.0800 
 43 H       -5.3520    -6.4590    -0.0340 H     1 <1>   0.0800 
 44 H       -4.8430    -6.5230     1.6400 H     1 <1>   0.0800 
 45 H       -4.7560    -5.0170     0.7590 H     1 <1>   0.0800 
 46 H      -10.4100    -5.6950     0.4170 H     1 <1>   0.0800 
 47 H       -9.7630    -7.1550    -0.2230 H     1 <1>   0.0800 
 48 H       -7.2480    -7.1970    -0.9850 H     1 <1>   0.0800 
 49 H       -6.8930    -5.8400    -2.0150 H     1 <1>   0.0800 
 50 H       -9.4740    -7.5000     2.0420 H     1 <1>   0.0800 
 51 H       -9.2290    -5.8240     2.3960 H     1 <1>   0.0800 
 52 H       -9.2330    -7.4190    -2.1410 H     1 <1>   0.4000 
@<TRIPOS>BOND
  1   1   2  1   
  2   2   3  ar  
  3   2   4  ar  
  4   3   5  ar  
  5   3   6  ar  
  6   4   7  ar  
  7   4  26  1   
  8   5   8  ar  
  9   6   9  ar  
 10   6  10  ar  
 11   7  10  ar  
 12   7  27  1   
 13   8  11  ar  
 14   8  12  1   
 15   9  11  ar  
 16   9  28  1   
 17  10  29  1   
 18  11  30  1   
 19  12  13  1   
 20  12  31  1   
 21  12  32  1   
 22  13  14  1   
 23  13  15  1   
 24  14  16  1   
 25  14  33  1   
 26  14  34  1   
 27  15  17  1   
 28  15  35  1   
 29  15  36  1   
 30  16  18  1   
 31  16  19  1   
 32  16  37  1   
 33  17  19  1   
 34  17  38  1   
 35  17  39  1   
 36  18  20  1   
 37  18  21  1   
 38  18  40  1   
 39  19  22  1   
 40  19  23  1   
 41  20  24  1   
 42  20  41  1   
 43  20  42  1   
 44  21  43  1   
 45  21  44  1   
 46  21  45  1   
 47  22  24  1   
 48  22  46  1   
 49  22  47  1   
 50  23  25  1   
 51  23  48  1   
 52  23  49  1   
 53  24  50  1   
 54  24  51  1   
 55  25  52  1   
@<TRIPOS>SUBSTRUCTURE
  1 ****  14 GROUP 4 **** **** 0

# MOE 2024.06 (io_trps.svl 2023.06)
