@<TRIPOS>MOLECULE
NONAME
40 42 1 0 0 
SMALL
USER_CHARGES


@<TRIPOS>ATOM
  1 S       -0.2100     0.3660    -0.0090 S.3   1 <1>  -0.0800 
  2 C       -0.2130    -1.3930    -0.1490 C.2   1 <1>   0.4620 
  3 C        1.4550     0.3130     0.4960 C.2   1 <1>  -0.1100 
  4 N        0.9170    -1.9250     0.1540 N.2   1 <1>  -0.5650 
  5 N       -1.3550    -2.0500    -0.5540 N.pl3 1 <1>  -0.8220 
  6 C        1.8470    -0.9680     0.5140 C.2   1 <1>   0.0770 
  7 C       -2.6930    -1.4130    -0.7610 C.3   1 <1>   0.2090 
  8 C       -1.3730    -3.5350    -0.7250 C.3   1 <1>   0.2090 
  9 C       -3.7970    -2.1760     0.0010 C.3   1 <1>   0.2950 
 10 C       -2.5580    -4.1740     0.0360 C.3   1 <1>   0.2000 
 11 O       -3.7600    -3.5410    -0.3090 O.3   1 <1>  -0.5600 
 12 C       -5.1940    -1.6610    -0.3590 C.3   1 <1>  -0.1950 
 13 C       -2.7420    -5.6660    -0.2730 C.3   1 <1>  -0.1600 
 14 C       -5.7920    -0.4840     0.3480 C.3   1 <1>  -0.2000 
 15 C       -6.3550    -1.8610     0.5630 C.3   1 <1>  -0.2000 
 16 C       -1.5570    -6.5280     0.1930 C.3   1 <1>  -0.1600 
 17 C       -1.8310    -8.0160    -0.0520 C.3   1 <1>  -0.1600 
 18 C       -0.6500    -8.8760     0.4080 C.3   1 <1>  -0.2400 
 19 H        1.9490     1.2400     0.7200 H     1 <1>   0.1500 
 20 H        2.8310    -1.3110     0.7870 H     1 <1>   0.1500 
 21 H       -2.6950    -0.3920    -0.4280 H     1 <1>   0.0800 
 22 H       -2.9240    -1.4170    -1.8120 H     1 <1>   0.0800 
 23 H       -1.4560    -3.7670    -1.7720 H     1 <1>   0.0800 
 24 H       -0.4520    -3.9600    -0.3670 H     1 <1>   0.0800 
 25 H       -3.6370    -2.0710     1.0600 H     1 <1>   0.0800 
 26 H       -2.4090    -4.0480     1.0950 H     1 <1>   0.0800 
 27 H       -5.3920    -1.7480    -1.4140 H     1 <1>   0.1000 
 28 H       -3.6330    -6.0030     0.2280 H     1 <1>   0.0800 
 29 H       -2.8850    -5.7920    -1.3320 H     1 <1>   0.0800 
 30 H       -5.2580    -0.0220     1.1610 H     1 <1>   0.1000 
 31 H       -6.3700     0.2250    -0.2200 H     1 <1>   0.1000 
 32 H       -7.3100    -2.1110     0.1330 H     1 <1>   0.1000 
 33 H       -6.1850    -2.3590     1.5020 H     1 <1>   0.1000 
 34 H       -0.6640    -6.2460    -0.3370 H     1 <1>   0.0800 
 35 H       -1.3880    -6.3660     1.2450 H     1 <1>   0.0800 
 36 H       -2.7160    -8.3150     0.4840 H     1 <1>   0.0800 
 37 H       -2.0040    -8.1850    -1.1020 H     1 <1>   0.0800 
 38 H       -0.4730    -8.7400     1.4610 H     1 <1>   0.0800 
 39 H        0.2420    -8.6100    -0.1310 H     1 <1>   0.0800 
 40 H       -0.8610    -9.9160     0.2280 H     1 <1>   0.0800 
@<TRIPOS>BOND
  1   1   2  1   
  2   1   3  1   
  3   2   4  2   
  4   2   5  1   
  5   3   6  2   
  6   3  19  1   
  7   4   6  1   
  8   5   7  1   
  9   5   8  1   
 10   6  20  1   
 11   7   9  1   
 12   7  21  1   
 13   7  22  1   
 14   8  10  1   
 15   8  23  1   
 16   8  24  1   
 17   9  11  1   
 18   9  12  1   
 19   9  25  1   
 20  10  11  1   
 21  10  13  1   
 22  10  26  1   
 23  12  14  1   
 24  12  15  1   
 25  12  27  1   
 26  13  16  1   
 27  13  28  1   
 28  13  29  1   
 29  14  15  1   
 30  14  30  1   
 31  14  31  1   
 32  15  32  1   
 33  15  33  1   
 34  16  17  1   
 35  16  34  1   
 36  16  35  1   
 37  17  18  1   
 38  17  36  1   
 39  17  37  1   
 40  18  38  1   
 41  18  39  1   
 42  18  40  1   
@<TRIPOS>SUBSTRUCTURE
  1 ****   8 GROUP 4 **** **** 0

# MOE 2024.06 (io_trps.svl 2023.06)
