@<TRIPOS>MOLECULE
NONAME
48 50 1 0 0 
SMALL
USER_CHARGES


@<TRIPOS>ATOM
  1 S       -0.2160     0.2220     2.2440 S.o2  1 <1>   1.4470 
  2 O        0.2130     1.4870     2.8000 O.2   1 <1>  -0.6500 
  3 O       -0.5750    -0.8390     3.1610 O.2   1 <1>  -0.6500 
  4 N       -1.5910     0.5310     1.2960 N.am  1 <1>  -0.8490 
  5 C        0.9720    -0.4620     1.0600 C.ar  1 <1>  -0.0090 
  6 C       -2.7920     0.6480     2.1310 C.3   1 <1>   0.1960 
  7 C       -1.4370     1.7350     0.4740 C.3   1 <1>   0.1960 
  8 C        1.8820     0.3250     0.3710 C.ar  1 <1>   0.1900 
  9 C        0.9930    -1.8240     0.7760 C.ar  1 <1>  -0.1500 
 10 C       -4.0360     0.7620     1.2470 C.3   1 <1>  -0.1600 
 11 C       -2.6290     1.8740    -0.4740 C.3   1 <1>  -0.1600 
 12 F        1.9080     1.6150     0.5650 F     1 <1>  -0.1900 
 13 C        2.7840    -0.1860    -0.5450 C.ar  1 <1>  -0.1500 
 14 C        1.8860    -2.3590    -0.1390 C.ar  1 <1>  -0.1500 
 15 C       -3.9550     1.9660     0.2990 C.3   1 <1>   0.2800 
 16 C        2.7880    -1.5450    -0.8040 C.ar  1 <1>  -0.1430 
 17 O       -3.9330     3.1050     1.1250 O.3   1 <1>  -0.5600 
 18 C       -5.1780     2.0090    -0.6520 C.3   1 <1>  -0.1600 
 19 C        3.7620    -2.1480    -1.8020 C.3   1 <1>  -0.0970 
 20 C       -4.1890     4.3460     0.5310 C.3   1 <1>   0.1200 
 21 C       -6.2460     3.0110    -0.2070 C.3   1 <1>   0.2800 
 22 C       -5.6140     4.3970    -0.0460 C.3   1 <1>  -0.1600 
 23 O       -6.6950     2.6280     1.0290 O.3   1 <1>  -0.6800 
 24 C       -7.4600     3.0280    -1.1310 C.3   1 <1>  -0.2400 
 25 H       -2.7100     1.5090     2.7760 H     1 <1>   0.0800 
 26 H       -2.8960    -0.2270     2.7510 H     1 <1>   0.0800 
 27 H       -0.5400     1.6640    -0.1150 H     1 <1>   0.0800 
 28 H       -1.3590     2.6080     1.1030 H     1 <1>   0.0800 
 29 H        0.2990    -2.4760     1.2810 H     1 <1>   0.1500 
 30 H       -4.9090     0.8370     1.8690 H     1 <1>   0.0800 
 31 H       -4.1260    -0.1460     0.6780 H     1 <1>   0.0800 
 32 H       -2.6500     1.0120    -1.1170 H     1 <1>   0.0800 
 33 H       -2.4930     2.7340    -1.1010 H     1 <1>   0.0800 
 34 H        3.4670     0.4790    -1.0430 H     1 <1>   0.1500 
 35 H        1.8760    -3.4190    -0.3310 H     1 <1>   0.1500 
 36 H       -5.6130     1.0310    -0.7570 H     1 <1>   0.0800 
 37 H       -4.8490     2.2940    -1.6340 H     1 <1>   0.0800 
 38 H        4.3880    -1.3900    -2.2360 H     1 <1>   0.0800 
 39 H        3.2210    -2.6390    -2.5910 H     1 <1>   0.0800 
 40 H        4.3900    -2.8700    -1.3100 H     1 <1>   0.0800 
 41 H       -3.4570     4.5170    -0.2380 H     1 <1>   0.0800 
 42 H       -4.0670     5.1010     1.2880 H     1 <1>   0.0800 
 43 H       -5.5560     4.8760    -1.0060 H     1 <1>   0.0800 
 44 H       -6.2410     5.0160     0.5710 H     1 <1>   0.0800 
 45 H       -5.9270     2.7010     1.6350 H     1 <1>   0.4000 
 46 H       -7.1710     3.3170    -2.1250 H     1 <1>   0.0800 
 47 H       -8.1910     3.7300    -0.7700 H     1 <1>   0.0800 
 48 H       -7.9070     2.0510    -1.1760 H     1 <1>   0.0800 
@<TRIPOS>BOND
  1   1   2  2   
  2   1   3  2   
  3   1   4  am  
  4   1   5  1   
  5   4   6  1   
  6   4   7  1   
  7   5   8  ar  
  8   5   9  ar  
  9   6  10  1   
 10   6  25  1   
 11   6  26  1   
 12   7  11  1   
 13   7  27  1   
 14   7  28  1   
 15   8  12  1   
 16   8  13  ar  
 17   9  14  ar  
 18   9  29  1   
 19  10  15  1   
 20  10  30  1   
 21  10  31  1   
 22  11  15  1   
 23  11  32  1   
 24  11  33  1   
 25  13  16  ar  
 26  13  34  1   
 27  14  16  ar  
 28  14  35  1   
 29  15  17  1   
 30  15  18  1   
 31  16  19  1   
 32  17  20  1   
 33  18  21  1   
 34  18  36  1   
 35  18  37  1   
 36  19  38  1   
 37  19  39  1   
 38  19  40  1   
 39  20  22  1   
 40  20  41  1   
 41  20  42  1   
 42  21  22  1   
 43  21  23  1   
 44  21  24  1   
 45  22  43  1   
 46  22  44  1   
 47  23  45  1   
 48  24  46  1   
 49  24  47  1   
 50  24  48  1   
@<TRIPOS>SUBSTRUCTURE
  1 ****   7 GROUP 4 **** **** 0

# MOE 2024.06 (io_trps.svl 2023.06)
