@<TRIPOS>MOLECULE
NONAME
55 58 1 0 0 
SMALL
USER_CHARGES


@<TRIPOS>ATOM
  1 O        0.6950    -0.0510    -1.4200 O.3   1 <1>  -0.3630 
  2 C        0.6460    -1.2530    -0.7940 C.ar  1 <1>   0.0830 
  3 C        1.1450     1.0970    -0.7240 C.3   1 <1>   0.1200 
  4 C        1.2650    -1.4680     0.4340 C.ar  1 <1>  -0.1440 
  5 C       -0.0340    -2.2820    -1.4210 C.ar  1 <1>  -0.1500 
  6 C        2.3770     0.7630     0.1290 C.3   1 <1>  -0.0800 
  7 C        1.1860    -2.7200     1.0230 C.ar  1 <1>  -0.1500 
  8 C        2.0170    -0.3460     1.1260 C.3   1 <1>  -0.0160 
  9 C       -0.1140    -3.5320    -0.8340 C.ar  1 <1>   0.0830 
 10 C        2.9120     1.9920     0.8760 C.3   1 <1>   0.2090 
 11 C        0.5010    -3.7490     0.3970 C.ar  1 <1>  -0.1500 
 12 O       -0.8010    -4.4870    -1.5120 O.3   1 <1>  -0.3630 
 13 N        3.2370     3.0810    -0.0690 N.pl3 1 <1>  -0.8690 
 14 C       -0.9380    -5.7940    -1.0010 C.3   1 <1>   0.0400 
 15 C        4.5320     3.4650    -0.2420 C.ar  1 <1>   0.4100 
 16 N        4.7630     4.7080     0.0240 N.ar  1 <1>  -0.6200 
 17 C        5.5150     2.5590    -0.6720 C.ar  1 <1>  -0.1500 
 18 C        6.0410     5.1600    -0.1070 C.ar  1 <1>   0.3100 
 19 C        6.8040     2.9630    -0.8170 C.ar  1 <1>  -0.1430 
 20 C        6.3360     6.5220     0.1860 C.ar  1 <1>   0.0830 
 21 C        7.1010     4.3150    -0.5240 C.ar  1 <1>   0.0000 
 22 C        7.8750     1.9870    -1.2850 C.3   1 <1>  -0.0970 
 23 O        5.3010     7.3170     0.5870 O.3   1 <1>  -0.3630 
 24 C        7.6190     7.0100     0.0680 C.ar  1 <1>  -0.1500 
 25 C        8.3970     4.8570    -0.6300 C.ar  1 <1>  -0.1500 
 26 C        5.4510     8.6890     0.8700 C.3   1 <1>   0.0400 
 27 C        8.6610     6.1680    -0.3440 C.ar  1 <1>   0.0830 
 28 O        9.9470     6.5830    -0.4800 O.3   1 <1>  -0.3620 
 29 C       10.3330     7.9120    -0.2050 C.3   1 <1>   0.0400 
 30 H        0.3350     1.4480    -0.1110 H     1 <1>   0.0800 
 31 H        1.3800     1.8460    -1.4600 H     1 <1>   0.0800 
 32 H       -0.5040    -2.1080    -2.3700 H     1 <1>   0.1500 
 33 H        3.1480     0.4020    -0.5270 H     1 <1>   0.0800 
 34 H        1.6570    -2.9000     1.9730 H     1 <1>   0.1500 
 35 H        2.9140    -0.7320     1.5790 H     1 <1>   0.0800 
 36 H        1.3870     0.0480     1.9040 H     1 <1>   0.0800 
 37 H        3.7930     1.7250     1.4360 H     1 <1>   0.0800 
 38 H        2.1720     2.3490     1.5730 H     1 <1>   0.0800 
 39 H        0.4590    -4.7060     0.8800 H     1 <1>   0.1500 
 40 H        2.6890     3.9280     0.1160 H     1 <1>   0.4000 
 41 H       -1.5150    -6.3670    -1.7040 H     1 <1>   0.0800 
 42 H       -1.4520    -5.7480    -0.0570 H     1 <1>   0.0800 
 43 H        0.0400    -6.2280    -0.8900 H     1 <1>   0.0800 
 44 H        5.2070     1.5550    -0.8850 H     1 <1>   0.1500 
 45 H        7.4550     1.0130    -1.4620 H     1 <1>   0.0800 
 46 H        8.6420     1.8940    -0.5370 H     1 <1>   0.0800 
 47 H        8.3160     2.3360    -2.2020 H     1 <1>   0.0800 
 48 H        7.8360     8.0330     0.2890 H     1 <1>   0.1500 
 49 H        9.2120     4.2330    -0.9440 H     1 <1>   0.1500 
 50 H        4.4870     9.0780     1.1440 H     1 <1>   0.0800 
 51 H        5.8090     9.1900    -0.0120 H     1 <1>   0.0800 
 52 H        6.1370     8.8040     1.6900 H     1 <1>   0.0800 
 53 H       11.3900     7.9950    -0.3810 H     1 <1>   0.0800 
 54 H       10.1160     8.1320     0.8260 H     1 <1>   0.0800 
 55 H        9.8000     8.5740    -0.8640 H     1 <1>   0.0800 
@<TRIPOS>BOND
  1   1   2  1   
  2   1   3  1   
  3   2   4  ar  
  4   2   5  ar  
  5   3   6  1   
  6   3  30  1   
  7   3  31  1   
  8   4   7  ar  
  9   4   8  1   
 10   5   9  ar  
 11   5  32  1   
 12   6   8  1   
 13   6  10  1   
 14   6  33  1   
 15   7  11  ar  
 16   7  34  1   
 17   8  35  1   
 18   8  36  1   
 19   9  11  ar  
 20   9  12  1   
 21  10  13  1   
 22  10  37  1   
 23  10  38  1   
 24  11  39  1   
 25  12  14  1   
 26  13  15  1   
 27  13  40  1   
 28  14  41  1   
 29  14  42  1   
 30  14  43  1   
 31  15  16  ar  
 32  15  17  ar  
 33  16  18  ar  
 34  17  19  ar  
 35  17  44  1   
 36  18  20  ar  
 37  18  21  ar  
 38  19  21  ar  
 39  19  22  1   
 40  20  23  1   
 41  20  24  ar  
 42  21  25  ar  
 43  22  45  1   
 44  22  46  1   
 45  22  47  1   
 46  23  26  1   
 47  24  27  ar  
 48  24  48  1   
 49  25  27  ar  
 50  25  49  1   
 51  26  50  1   
 52  26  51  1   
 53  26  52  1   
 54  27  28  1   
 55  28  29  1   
 56  29  53  1   
 57  29  54  1   
 58  29  55  1   
@<TRIPOS>SUBSTRUCTURE
  1 ****  13 GROUP 4 **** **** 0

# MOE 2024.06 (io_trps.svl 2023.06)
