@<TRIPOS>MOLECULE
NONAME
55 58 1 0 0 
SMALL
USER_CHARGES


@<TRIPOS>ATOM
  1 O        0.5690     1.1620     0.7220 O.2   1 <1>  -0.5700 
  2 C       -0.1620     2.0610     0.3490 C.2   1 <1>   0.7150 
  3 N       -1.5120     1.9700     0.6160 N.am  1 <1>  -0.6600 
  4 C        0.4060     3.1760    -0.3520 C.2   1 <1>  -0.2370 
  5 C       -2.5490     2.8510    -0.0260 C.3   1 <1>   0.1400 
  6 C       -2.0200     0.9250     1.5590 C.3   1 <1>   0.1400 
  7 N        1.2510     3.0570    -1.4090 N.pl3 1 <1>   0.3140 
  8 C        0.2780     4.5170    -0.1470 C.2   1 <1>  -0.1500 
  9 C       -3.6740     3.2050     0.9660 C.3   1 <1>   0.1440 
 10 C       -3.5130     0.6480     1.3470 C.3   1 <1>  -0.1600 
 11 N        1.6290     4.2540    -1.8910 N.2   1 <1>  -0.7070 
 12 C        1.7420     1.8090    -2.0390 C.3   1 <1>   0.0960 
 13 C        1.0450     5.1200    -1.1250 C.2   1 <1>   0.1080 
 14 C       -4.6250     4.1700     0.2760 C.ar  1 <1>   0.1660 
 15 C       -4.3870     1.9130     1.4540 C.3   1 <1>  -0.1600 
 16 C       -3.1320     4.0660     2.1460 C.3   1 <1>  -0.1600 
 17 C        3.1110     1.4050    -1.4750 C.3   1 <1>  -0.2400 
 18 C        1.2170     6.6080    -1.3210 C.3   1 <1>  -0.0590 
 19 N       -5.4710     3.8540    -0.6730 N.ar  1 <1>  -0.6200 
 20 C       -4.4830     5.4410     0.7440 C.ar  1 <1>  -0.1430 
 21 C       -3.4230     5.5390     1.8090 C.3   1 <1>  -0.0170 
 22 C       -6.2090     4.8620    -1.1430 C.ar  1 <1>   0.7200 
 23 C       -5.2810     6.4160     0.2000 C.ar  1 <1>   0.1600 
 24 N       -6.1480     6.1370    -0.7440 N.ar  1 <1>  -0.6200 
 25 N       -7.1190     4.5590    -2.1370 N.pl3 1 <1>  -0.8380 
 26 C       -7.7890     5.6150    -2.9450 C.3   1 <1>   0.1290 
 27 C       -7.5210     3.1580    -2.4420 C.3   1 <1>   0.1290 
 28 H       -2.9760     2.3280    -0.8640 H     1 <1>   0.0800 
 29 H       -2.1140     3.7550    -0.4060 H     1 <1>   0.0800 
 30 H       -1.8540     1.2600     2.5680 H     1 <1>   0.0800 
 31 H       -1.4700     0.0090     1.4190 H     1 <1>   0.0800 
 32 H       -0.2920     5.0190     0.6120 H     1 <1>   0.1500 
 33 H       -3.8480    -0.0830     2.0610 H     1 <1>   0.0800 
 34 H       -3.6340     0.2140     0.3690 H     1 <1>   0.0800 
 35 H        1.8230     1.9810    -3.0970 H     1 <1>   0.0800 
 36 H        1.0260     1.0250    -1.8760 H     1 <1>   0.0800 
 37 H       -5.2700     1.7420     0.8630 H     1 <1>   0.0800 
 38 H       -4.7250     2.0320     2.4680 H     1 <1>   0.0800 
 39 H       -2.0840     3.9090     2.3300 H     1 <1>   0.0800 
 40 H       -3.6630     3.8310     3.0510 H     1 <1>   0.0800 
 41 H        3.8280     2.1870    -1.6520 H     1 <1>   0.0800 
 42 H        3.4540     0.5070    -1.9560 H     1 <1>   0.0800 
 43 H        3.0380     1.2210    -0.4180 H     1 <1>   0.0800 
 44 H        0.6530     7.1530    -0.5890 H     1 <1>   0.0800 
 45 H        0.8780     6.8790    -2.3040 H     1 <1>   0.0800 
 46 H        2.2570     6.8620    -1.2290 H     1 <1>   0.0800 
 47 H       -2.5490     6.0190     1.4060 H     1 <1>   0.0800 
 48 H       -3.7740     6.0800     2.6710 H     1 <1>   0.0800 
 49 H       -5.2070     7.4340     0.5400 H     1 <1>   0.1500 
 50 H       -7.1560     6.4810    -3.0330 H     1 <1>   0.0800 
 51 H       -8.7090     5.9030    -2.4670 H     1 <1>   0.0800 
 52 H       -7.9990     5.2480    -3.9340 H     1 <1>   0.0800 
 53 H       -7.4320     2.5400    -1.5650 H     1 <1>   0.0800 
 54 H       -6.8850     2.7630    -3.2140 H     1 <1>   0.0800 
 55 H       -8.5440     3.1290    -2.7730 H     1 <1>   0.0800 
@<TRIPOS>BOND
  1   1   2  2   
  2   2   3  am  
  3   2   4  1   
  4   3   5  1   
  5   3   6  1   
  6   4   7  1   
  7   4   8  2   
  8   5   9  1   
  9   5  28  1   
 10   5  29  1   
 11   6  10  1   
 12   6  30  1   
 13   6  31  1   
 14   7  11  1   
 15   7  12  1   
 16   8  13  1   
 17   8  32  1   
 18   9  14  1   
 19   9  15  1   
 20   9  16  1   
 21  10  15  1   
 22  10  33  1   
 23  10  34  1   
 24  11  13  2   
 25  12  17  1   
 26  12  35  1   
 27  12  36  1   
 28  13  18  1   
 29  14  19  ar  
 30  14  20  ar  
 31  15  37  1   
 32  15  38  1   
 33  16  21  1   
 34  16  39  1   
 35  16  40  1   
 36  17  41  1   
 37  17  42  1   
 38  17  43  1   
 39  18  44  1   
 40  18  45  1   
 41  18  46  1   
 42  19  22  ar  
 43  20  21  1   
 44  20  23  ar  
 45  21  47  1   
 46  21  48  1   
 47  22  24  ar  
 48  22  25  1   
 49  23  24  ar  
 50  23  49  1   
 51  25  26  1   
 52  25  27  1   
 53  26  50  1   
 54  26  51  1   
 55  26  52  1   
 56  27  53  1   
 57  27  54  1   
 58  27  55  1   
@<TRIPOS>SUBSTRUCTURE
  1 ****   5 GROUP 4 **** **** 0

# MOE 2024.06 (io_trps.svl 2023.06)
