@<TRIPOS>MOLECULE
Untitled Document
34 36 1 0 0 
SMALL
USER_CHARGES


@<TRIPOS>ATOM
  1 O       -0.0290    -0.4150    -0.8000 O.3   1 <1>  -0.2800 
  2 C       -1.2370    -0.6370    -0.2810 C.ar  1 <1>   0.1400 
  3 C        0.7630    -1.4090    -0.4120 C.2   1 <1>  -0.0400 
  4 C       -1.2300    -1.8020     0.4640 C.ar  1 <1>   0.0000 
  5 C       -2.3800     0.1380    -0.4210 C.ar  1 <1>  -0.1500 
  6 C        0.0900    -2.2880     0.3600 C.2   1 <1>  -0.1500 
  7 C        2.2010    -1.3540    -0.8990 C.3   1 <1>   0.1000 
  8 C       -2.4000    -2.2180     1.0990 C.ar  1 <1>  -0.1500 
  9 C       -3.5350    -0.2790     0.2090 C.ar  1 <1>  -0.1500 
 10 C        3.0970    -2.4960    -0.3990 C.3   1 <1>   0.3300 
 11 C        2.9070    -0.0620    -0.4520 C.3   1 <1>  -0.0550 
 12 C       -3.5430    -1.4540     0.9670 C.ar  1 <1>  -0.1500 
 13 N        4.3610    -1.8150    -0.0720 N.pl3 1 <1>  -0.7940 
 14 C        4.3030    -0.5120    -0.0890 C.cat 1 <1>   0.6040 
 15 N        5.3110     0.3030     0.1800 N.pl3 1 <1>  -0.8330 
 16 C        5.1970     1.7980     0.1850 C.3   1 <1>   0.2490 
 17 C        6.6970    -0.1490     0.5210 C.3   1 <1>   0.2490 
 18 H       -2.3470     1.0370    -1.0090 H     1 <1>   0.1500 
 19 H        0.4130    -3.1950     0.8360 H     1 <1>   0.1500 
 20 H        2.1920    -1.3880    -1.9750 H     1 <1>   0.0800 
 21 H       -2.4000    -3.1230     1.6800 H     1 <1>   0.1500 
 22 H       -4.4390     0.2990     0.1210 H     1 <1>   0.1500 
 23 H        3.2400    -3.2400    -1.1650 H     1 <1>   0.0800 
 24 H        2.7000    -2.9540     0.4900 H     1 <1>   0.0800 
 25 H        2.4310     0.3540     0.4190 H     1 <1>   0.0800 
 26 H        2.9120     0.6590    -1.2480 H     1 <1>   0.0800 
 27 H       -4.4550    -1.7610     1.4500 H     1 <1>   0.1500 
 28 H        5.1850    -2.3700     0.1610 H     1 <1>   0.4500 
 29 H        5.8140     2.2150    -0.5930 H     1 <1>   0.0800 
 30 H        5.5270     2.1870     1.1340 H     1 <1>   0.0800 
 31 H        4.1850     2.1250     0.0280 H     1 <1>   0.0800 
 32 H        7.4020     0.2740    -0.1750 H     1 <1>   0.0800 
 33 H        6.7870    -1.2200     0.4800 H     1 <1>   0.0800 
 34 H        6.9540     0.1750     1.5160 H     1 <1>   0.0800 
@<TRIPOS>BOND
  1   1   2  1   
  2   1   3  1   
  3   2   4  ar  
  4   2   5  ar  
  5   3   6  2   
  6   3   7  1   
  7   4   6  1   
  8   4   8  ar  
  9   5   9  ar  
 10   5  18  1   
 11   6  19  1   
 12   7  10  1   
 13   7  11  1   
 14   7  20  1   
 15   8  12  ar  
 16   8  21  1   
 17   9  12  ar  
 18   9  22  1   
 19  10  13  1   
 20  10  23  1   
 21  10  24  1   
 22  11  14  1   
 23  11  25  1   
 24  11  26  1   
 25  12  27  1   
 26  13  14  ar  
 27  13  28  1   
 28  14  15  ar  
 29  15  16  1   
 30  15  17  1   
 31  16  29  1   
 32  16  30  1   
 33  16  31  1   
 34  17  32  1   
 35  17  33  1   
 36  17  34  1   
@<TRIPOS>SUBSTRUCTURE
  1 ****   3 GROUP 4 **** **** 0

# MOE 2024.06 (io_trps.svl 2023.06)
