@<TRIPOS>MOLECULE
NONAME
52 54 1 0 0 
SMALL
USER_CHARGES


@<TRIPOS>ATOM
  1 O        3.9640    -1.7330    -1.5530 O.2   1 <1>  -0.5700 
  2 C        3.1510    -1.5490    -0.6780 C.2   1 <1>   0.5690 
  3 N        3.0270    -0.3110    -0.1240 N.am  1 <1>  -0.6600 
  4 C        2.3420    -2.7080    -0.1420 C.3   1 <1>  -0.0990 
  5 C        3.6330    -0.1110     1.2390 C.3   1 <1>   0.2200 
  6 C        2.9290     0.8680    -1.0440 C.3   1 <1>   0.1400 
  7 C        1.3430    -3.2150    -1.1840 C.3   1 <1>   0.0210 
  8 C        3.0970     1.1350     1.9640 C.3   1 <1>   0.1200 
  9 C        5.1830    -0.0760     1.1490 C.3   1 <1>   0.3430 
 10 C        3.9370     2.0010    -0.7730 C.3   1 <1>  -0.0800 
 11 C        0.5000    -4.3210    -0.5770 C.2   1 <1>  -0.1810 
 12 O        3.8520     2.2600     1.6280 O.3   1 <1>  -0.5600 
 13 N        5.6880     0.1970    -0.2450 N.4   1 <1>  -0.9590 
 14 C        3.5260     2.8700     0.4260 C.3   1 <1>   0.1200 
 15 C        5.4250     1.5920    -0.7200 C.3   1 <1>   0.3430 
 16 C        0.7770    -5.6850    -0.5990 C.2   1 <1>   0.1080 
 17 C       -0.6640    -4.2180     0.1030 C.2   1 <1>  -0.3320 
 18 C        7.1240    -0.1710    -0.3940 C.3   1 <1>   0.2630 
 19 N       -0.1290    -6.3780     0.0130 N.2   1 <1>  -0.7070 
 20 C        1.9730    -6.3430    -1.2500 C.3   1 <1>  -0.0590 
 21 N       -1.0220    -5.4760     0.4450 N.pl3 1 <1>   0.3140 
 22 C       -1.4780    -2.9820     0.4580 C.3   1 <1>  -0.0600 
 23 C       -2.2170    -5.8940     1.1870 C.3   1 <1>   0.0160 
 24 H        3.0090    -3.5050     0.1320 H     1 <1>   0.0800 
 25 H        1.8030    -2.4040     0.7360 H     1 <1>   0.0800 
 26 H        3.3590    -0.9530     1.8500 H     1 <1>   0.0800 
 27 H        3.0580     0.5320    -2.0610 H     1 <1>   0.0800 
 28 H        1.9290     1.2630    -0.9780 H     1 <1>   0.0800 
 29 H        1.8620    -3.5830    -2.0520 H     1 <1>   0.0800 
 30 H        0.7040    -2.4110    -1.5020 H     1 <1>   0.0800 
 31 H        3.2100     1.0010     3.0250 H     1 <1>   0.0800 
 32 H        2.0540     1.3070     1.7560 H     1 <1>   0.0800 
 33 H        5.5500    -1.0360     1.4710 H     1 <1>   0.0800 
 34 H        5.5690     0.6620     1.8340 H     1 <1>   0.0800 
 35 H        3.8510     2.6630    -1.6160 H     1 <1>   0.0800 
 36 H        5.1230    -0.4330    -0.8600 H     1 <1>   0.4500 
 37 H        2.4710     3.0910     0.4180 H     1 <1>   0.0800 
 38 H        4.0600     3.8060     0.3990 H     1 <1>   0.0800 
 39 H        5.9560     2.2910    -0.0940 H     1 <1>   0.0800 
 40 H        5.8250     1.6850    -1.7170 H     1 <1>   0.0800 
 41 H        7.7380     0.4480     0.2390 H     1 <1>   0.0800 
 42 H        7.4370    -0.0400    -1.4180 H     1 <1>   0.0800 
 43 H        7.2730    -1.2040    -0.1240 H     1 <1>   0.0800 
 44 H        2.8610    -5.7670    -1.0720 H     1 <1>   0.0800 
 45 H        1.8050    -6.4260    -2.3070 H     1 <1>   0.0800 
 46 H        2.1110    -7.3280    -0.8420 H     1 <1>   0.0800 
 47 H       -0.9880    -2.0900     0.1140 H     1 <1>   0.0800 
 48 H       -1.6000    -2.9140     1.5240 H     1 <1>   0.0800 
 49 H       -2.4480    -3.0360    -0.0030 H     1 <1>   0.0800 
 50 H       -3.0920    -5.5760     0.6540 H     1 <1>   0.0800 
 51 H       -2.1960    -5.4520     2.1650 H     1 <1>   0.0800 
 52 H       -2.2170    -6.9650     1.2760 H     1 <1>   0.0800 
@<TRIPOS>BOND
  1   1   2  2   
  2   2   3  am  
  3   2   4  1   
  4   3   5  1   
  5   3   6  1   
  6   4   7  1   
  7   4  24  1   
  8   4  25  1   
  9   5   8  1   
 10   5   9  1   
 11   5  26  1   
 12   6  10  1   
 13   6  27  1   
 14   6  28  1   
 15   7  11  1   
 16   7  29  1   
 17   7  30  1   
 18   8  12  1   
 19   8  31  1   
 20   8  32  1   
 21   9  13  1   
 22   9  33  1   
 23   9  34  1   
 24  10  14  1   
 25  10  15  1   
 26  10  35  1   
 27  11  16  1   
 28  11  17  2   
 29  12  14  1   
 30  13  15  1   
 31  13  18  1   
 32  13  36  1   
 33  14  37  1   
 34  14  38  1   
 35  15  39  1   
 36  15  40  1   
 37  16  19  2   
 38  16  20  1   
 39  17  21  1   
 40  17  22  1   
 41  18  41  1   
 42  18  42  1   
 43  18  43  1   
 44  19  21  1   
 45  20  44  1   
 46  20  45  1   
 47  20  46  1   
 48  21  23  1   
 49  22  47  1   
 50  22  48  1   
 51  22  49  1   
 52  23  50  1   
 53  23  51  1   
 54  23  52  1   
@<TRIPOS>SUBSTRUCTURE
  1 ****   4 GROUP 4 **** **** 0

# MOE 2024.06 (io_trps.svl 2023.06)
