@<TRIPOS>MOLECULE
NONAME
53 56 1 0 0 
SMALL
USER_CHARGES


@<TRIPOS>ATOM
  1 O       -1.6500    -0.0870     2.1680 O.2   1 <1>  -0.5700 
  2 C       -1.6570     0.6560     1.2140 C.2   1 <1>   0.5690 
  3 N       -1.7670     0.2100    -0.1000 N.am  1 <1>  -0.4770 
  4 C       -1.5680     2.1580     1.5540 C.3   1 <1>   0.1710 
  5 C       -1.9330    -1.1510    -0.5000 C.ar  1 <1>   0.1170 
  6 C       -1.9450     1.2390    -1.1790 C.3   1 <1>   0.1400 
  7 N       -0.4410     2.9130     0.9330 N.3   1 <1>  -0.8100 
  8 C       -2.6100    -1.4510    -1.6930 C.ar  1 <1>   0.0830 
  9 C       -1.4530    -2.2310     0.2400 C.ar  1 <1>  -0.1500 
 10 C       -2.1330     0.6430    -2.5790 C.3   1 <1>   0.1200 
 11 C        0.8590     2.3410     1.3190 C.3   1 <1>   0.1100 
 12 C       -0.5250     4.3400     1.2630 C.3   1 <1>   0.1100 
 13 O       -3.0040    -0.4620    -2.5290 O.3   1 <1>  -0.3630 
 14 C       -2.8630    -2.7560    -2.0770 C.ar  1 <1>  -0.1500 
 15 C       -1.6900    -3.5390    -0.1490 C.ar  1 <1>  -0.1500 
 16 C        1.9720     3.0370     0.5340 C.3   1 <1>  -0.1600 
 17 C        0.5350     5.1080     0.4730 C.3   1 <1>  -0.1600 
 18 C       -2.4050    -3.8060    -1.3020 C.ar  1 <1>  -0.1500 
 19 C        1.9420     4.5570     0.7540 C.3   1 <1>   0.1000 
 20 C        2.9920     5.2620    -0.0950 C.2   1 <1>   0.2980 
 21 O        2.9270     5.1650    -1.4000 O.3   1 <1>  -0.0190 
 22 N        3.9570     5.9590     0.3540 N.2   1 <1>  -0.5650 
 23 N        3.9390     5.8620    -1.8170 N.2   1 <1>  -0.4100 
 24 C        4.5330     6.3200    -0.7860 C.2   1 <1>   0.3350 
 25 C        5.7800     7.2060    -0.7840 C.3   1 <1>   0.1010 
 26 C        5.3910     8.6880    -0.6950 C.3   1 <1>  -0.2400 
 27 C        6.6720     6.9690    -2.0140 C.3   1 <1>  -0.2400 
 28 H       -1.4970     2.2480     2.6240 H     1 <1>   0.0800 
 29 H       -2.4980     2.6100     1.2600 H     1 <1>   0.0800 
 30 H       -1.0840     1.8800    -1.2140 H     1 <1>   0.0800 
 31 H       -2.8060     1.8410    -0.9500 H     1 <1>   0.0800 
 32 H       -0.8870    -2.0660     1.1360 H     1 <1>   0.1500 
 33 H       -1.1890     0.3030    -2.9690 H     1 <1>   0.0800 
 34 H       -2.5490     1.3700    -3.2520 H     1 <1>   0.0800 
 35 H        0.8830     1.2880     1.0910 H     1 <1>   0.0800 
 36 H        1.0160     2.4620     2.3780 H     1 <1>   0.0800 
 37 H       -0.3770     4.4840     2.3210 H     1 <1>   0.0800 
 38 H       -1.5000     4.7170     1.0000 H     1 <1>   0.0800 
 39 H       -3.4060    -2.9430    -2.9850 H     1 <1>   0.1500 
 40 H       -1.3180    -4.3500     0.4520 H     1 <1>   0.1500 
 41 H        1.8470     2.8120    -0.5110 H     1 <1>   0.0800 
 42 H        2.9250     2.6460     0.8430 H     1 <1>   0.0800 
 43 H        0.4980     6.1490     0.7370 H     1 <1>   0.0800 
 44 H        0.3100     5.0250    -0.5760 H     1 <1>   0.0800 
 45 H       -2.5980    -4.8220    -1.5990 H     1 <1>   0.1500 
 46 H        2.1760     4.7490     1.7860 H     1 <1>   0.0800 
 47 H        6.3520     6.9530     0.0920 H     1 <1>   0.0800 
 48 H        4.8060     8.9700    -1.5530 H     1 <1>   0.0800 
 49 H        6.2680     9.3070    -0.6490 H     1 <1>   0.0800 
 50 H        4.8030     8.8580     0.1900 H     1 <1>   0.0800 
 51 H        6.1460     7.2330    -2.9150 H     1 <1>   0.0800 
 52 H        6.9480     5.9310    -2.0710 H     1 <1>   0.0800 
 53 H        7.5670     7.5600    -1.9490 H     1 <1>   0.0800 
@<TRIPOS>BOND
  1   1   2  2   
  2   2   3  am  
  3   2   4  1   
  4   3   5  1   
  5   3   6  1   
  6   4   7  1   
  7   4  28  1   
  8   4  29  1   
  9   5   8  ar  
 10   5   9  ar  
 11   6  10  1   
 12   6  30  1   
 13   6  31  1   
 14   7  11  1   
 15   7  12  1   
 16   8  13  1   
 17   8  14  ar  
 18   9  15  ar  
 19   9  32  1   
 20  10  13  1   
 21  10  33  1   
 22  10  34  1   
 23  11  16  1   
 24  11  35  1   
 25  11  36  1   
 26  12  17  1   
 27  12  37  1   
 28  12  38  1   
 29  14  18  ar  
 30  14  39  1   
 31  15  18  ar  
 32  15  40  1   
 33  16  19  1   
 34  16  41  1   
 35  16  42  1   
 36  17  19  1   
 37  17  43  1   
 38  17  44  1   
 39  18  45  1   
 40  19  20  1   
 41  19  46  1   
 42  20  21  1   
 43  20  22  2   
 44  21  23  1   
 45  22  24  1   
 46  23  24  2   
 47  24  25  1   
 48  25  26  1   
 49  25  27  1   
 50  25  47  1   
 51  26  48  1   
 52  26  49  1   
 53  26  50  1   
 54  27  51  1   
 55  27  52  1   
 56  27  53  1   
@<TRIPOS>SUBSTRUCTURE
  1 ****   7 GROUP 4 **** **** 0

# MOE 2024.06 (io_trps.svl 2023.06)
