@<TRIPOS>MOLECULE
NONAME
50 52 1 0 0 
SMALL
USER_CHARGES


@<TRIPOS>ATOM
  1 O       -0.4700     0.2120     0.9660 O.3   1 <1>  -0.6800 
  2 C        0.4550     0.1090    -0.0650 C.3   1 <1>   0.2000 
  3 C        1.0720    -1.2840    -0.0150 C.3   1 <1>  -0.0800 
  4 C        1.6440     1.0250     0.2560 C.3   1 <1>   0.3430 
  5 C        2.0430    -1.1590     1.1680 C.3   1 <1>   0.3430 
  6 C        1.7640    -1.6330    -1.3560 C.3   1 <1>  -0.0170 
  7 N        2.5260     0.2560     1.1940 N.4   1 <1>  -0.9590 
  8 C        2.8570    -2.6780    -1.2070 C.ar  1 <1>   0.1670 
  9 C        3.9800     0.3070     0.8530 C.3   1 <1>   0.3430 
 10 N        4.0480    -2.2350    -0.9420 N.ar  1 <1>  -0.6200 
 11 C        2.5450    -4.0390    -1.3490 C.ar  1 <1>  -0.1500 
 12 C        4.5680     1.7130     0.9600 C.3   1 <1>  -0.0220 
 13 C        5.0490    -3.1450    -0.8100 C.ar  1 <1>   0.3100 
 14 C        3.5260    -4.9730    -1.2080 C.ar  1 <1>  -0.1500 
 15 C        6.0630     1.6230     0.7210 C.2   1 <1>  -0.2880 
 16 C        4.8310    -4.5340    -0.9260 C.ar  1 <1>   0.0000 
 17 C        6.3490    -2.6880    -0.5400 C.ar  1 <1>  -0.1500 
 18 C        6.6810     1.4770    -0.4570 C.2   1 <1>  -0.2760 
 19 C        5.9200    -5.4130    -0.7590 C.ar  1 <1>  -0.1500 
 20 C        7.3940    -3.5600    -0.3820 C.ar  1 <1>  -0.1500 
 21 C        8.1960     1.3960    -0.5590 C.3   1 <1>  -0.1020 
 22 C        6.0060     1.3690    -1.8190 C.3   1 <1>  -0.1020 
 23 C        7.1750    -4.9370    -0.4920 C.ar  1 <1>  -0.1500 
 24 H       -1.3210    -0.2160     0.7310 H     1 <1>   0.4000 
 25 H       -0.0280     0.3560    -0.9970 H     1 <1>   0.0800 
 26 H        0.3380    -2.0420     0.1950 H     1 <1>   0.0800 
 27 H        1.3080     1.9530     0.6900 H     1 <1>   0.0800 
 28 H        2.1820     1.2330    -0.6540 H     1 <1>   0.0800 
 29 H        2.8570    -1.8630     1.1040 H     1 <1>   0.0800 
 30 H        1.4960    -1.3560     2.0770 H     1 <1>   0.0800 
 31 H        2.2150    -0.7580    -1.7910 H     1 <1>   0.0800 
 32 H        1.0290    -1.9830    -2.0590 H     1 <1>   0.0800 
 33 H        2.3760     0.6140     2.1470 H     1 <1>   0.4500 
 34 H        4.5280    -0.3460     1.5130 H     1 <1>   0.0800 
 35 H        4.1330    -0.0480    -0.1520 H     1 <1>   0.0800 
 36 H        1.5350    -4.3340    -1.5710 H     1 <1>   0.1500 
 37 H        4.1290     2.3620     0.2250 H     1 <1>   0.0800 
 38 H        4.3900     2.1260     1.9370 H     1 <1>   0.0800 
 39 H        3.3290    -6.0260    -1.3090 H     1 <1>   0.1500 
 40 H        6.6220     1.6820     1.6420 H     1 <1>   0.1500 
 41 H        6.5060    -1.6280    -0.4630 H     1 <1>   0.1500 
 42 H        5.7480    -6.4710    -0.8480 H     1 <1>   0.1500 
 43 H        8.3890    -3.2020    -0.1760 H     1 <1>   0.1500 
 44 H        8.4910     0.4610    -1.0010 H     1 <1>   0.0800 
 45 H        8.6520     1.4700     0.4120 H     1 <1>   0.0800 
 46 H        8.5700     2.1990    -1.1680 H     1 <1>   0.0800 
 47 H        6.3500     2.1620    -2.4610 H     1 <1>   0.0800 
 48 H        4.9380     1.4370    -1.7500 H     1 <1>   0.0800 
 49 H        6.2530     0.4280    -2.2790 H     1 <1>   0.0800 
 50 H        8.0050    -5.6100    -0.3650 H     1 <1>   0.1500 
@<TRIPOS>BOND
  1   1   2  1   
  2   1  24  1   
  3   2   3  1   
  4   2   4  1   
  5   2  25  1   
  6   3   5  1   
  7   3   6  1   
  8   3  26  1   
  9   4   7  1   
 10   4  27  1   
 11   4  28  1   
 12   5   7  1   
 13   5  29  1   
 14   5  30  1   
 15   6   8  1   
 16   6  31  1   
 17   6  32  1   
 18   7   9  1   
 19   7  33  1   
 20   8  10  ar  
 21   8  11  ar  
 22   9  12  1   
 23   9  34  1   
 24   9  35  1   
 25  10  13  ar  
 26  11  14  ar  
 27  11  36  1   
 28  12  15  1   
 29  12  37  1   
 30  12  38  1   
 31  13  16  ar  
 32  13  17  ar  
 33  14  16  ar  
 34  14  39  1   
 35  15  18  2   
 36  15  40  1   
 37  16  19  ar  
 38  17  20  ar  
 39  17  41  1   
 40  18  21  1   
 41  18  22  1   
 42  19  23  ar  
 43  19  42  1   
 44  20  23  ar  
 45  20  43  1   
 46  21  44  1   
 47  21  45  1   
 48  21  46  1   
 49  22  47  1   
 50  22  48  1   
 51  22  49  1   
 52  23  50  1   
@<TRIPOS>SUBSTRUCTURE
  1 ****  10 GROUP 4 **** **** 0

# MOE 2024.06 (io_trps.svl 2023.06)
