@<TRIPOS>MOLECULE
NONAME
48 50 1 0 0 
SMALL
USER_CHARGES


@<TRIPOS>ATOM
  1 O        0.4120    -0.5250     0.7680 O.2   1 <1>  -0.5700 
  2 C        0.1290    -1.6850     0.5880 C.2   1 <1>   0.5690 
  3 N        0.9540    -2.5490    -0.0870 N.am  1 <1>  -0.6600 
  4 C       -1.2040    -2.1690     1.1340 C.3   1 <1>  -0.0990 
  5 C        0.6760    -4.0100    -0.2520 C.3   1 <1>   0.1400 
  6 C        2.2510    -2.1010    -0.6650 C.3   1 <1>   0.0600 
  7 C       -1.2580    -3.6870     1.3570 C.3   1 <1>  -0.1600 
  8 C       -0.7710    -4.4060     0.1000 C.3   1 <1>   0.2200 
  9 N       -0.8640    -5.8630     0.3280 N.am  1 <1>  -0.7300 
 10 C       -0.8790    -6.8000    -0.6660 C.2   1 <1>   0.5440 
 11 O       -0.7480    -6.4240    -1.8130 O.2   1 <1>  -0.5700 
 12 C       -1.0270    -8.2110    -0.3590 C.ar  1 <1>   0.0860 
 13 C       -0.4340    -9.1860    -1.1610 C.ar  1 <1>  -0.1500 
 14 C       -1.7620    -8.6580     0.7410 C.ar  1 <1>  -0.1500 
 15 C       -0.5640   -10.5320    -0.8790 C.ar  1 <1>  -0.1500 
 16 C       -1.8920   -10.0050     1.0220 C.ar  1 <1>  -0.1500 
 17 C       -1.3040   -10.9770     0.2140 C.ar  1 <1>   0.0860 
 18 C       -1.4520   -12.3920     0.4910 C.2   1 <1>   0.5440 
 19 O       -0.4580   -13.0870     0.5740 O.2   1 <1>  -0.5700 
 20 N       -2.6920   -12.9740     0.6530 N.am  1 <1>  -0.6600 
 21 C       -2.8540   -14.3880     1.1110 C.3   1 <1>   0.1400 
 22 C       -3.9670   -12.3740     0.1540 C.3   1 <1>   0.1400 
 23 C       -3.6050   -15.2160     0.0560 C.3   1 <1>   0.1200 
 24 C       -4.6540   -13.3200    -0.8440 C.3   1 <1>   0.1200 
 25 O       -4.8120   -14.5950    -0.2900 O.3   1 <1>  -0.5600 
 26 H       -1.9650    -1.8790     0.4320 H     1 <1>   0.0800 
 27 H       -1.4030    -1.6610     2.0600 H     1 <1>   0.0800 
 28 H        1.3530    -4.5510     0.3850 H     1 <1>   0.0800 
 29 H        0.8680    -4.2940    -1.2720 H     1 <1>   0.0800 
 30 H        2.3930    -1.0450    -0.5150 H     1 <1>   0.0800 
 31 H        2.2660    -2.3010    -1.7220 H     1 <1>   0.0800 
 32 H        3.0610    -2.6270    -0.1910 H     1 <1>   0.0800 
 33 H       -2.2680    -3.9780     1.5840 H     1 <1>   0.0800 
 34 H       -0.6220    -3.9380     2.1880 H     1 <1>   0.0800 
 35 H       -1.4060    -4.1450    -0.7310 H     1 <1>   0.0800 
 36 H       -0.8100    -6.1620     1.3010 H     1 <1>   0.3700 
 37 H        0.1380    -8.8740    -2.0190 H     1 <1>   0.1500 
 38 H       -2.2440    -7.9410     1.3820 H     1 <1>   0.1500 
 39 H       -0.0870   -11.2630    -1.5110 H     1 <1>   0.1500 
 40 H       -2.4590   -10.3220     1.8810 H     1 <1>   0.1500 
 41 H       -3.4110   -14.4000     2.0310 H     1 <1>   0.0800 
 42 H       -1.8970   -14.8420     1.3030 H     1 <1>   0.0800 
 43 H       -3.7850   -11.4330    -0.3330 H     1 <1>   0.0800 
 44 H       -4.6260   -12.2000     0.9860 H     1 <1>   0.0800 
 45 H       -3.8360   -16.1910     0.4460 H     1 <1>   0.0800 
 46 H       -3.0060   -15.3300    -0.8300 H     1 <1>   0.0800 
 47 H       -4.0730   -13.4070    -1.7460 H     1 <1>   0.0800 
 48 H       -5.6320   -12.9490    -1.0960 H     1 <1>   0.0800 
@<TRIPOS>BOND
  1   1   2  2   
  2   2   3  am  
  3   2   4  1   
  4   3   5  1   
  5   3   6  1   
  6   4   7  1   
  7   4  26  1   
  8   4  27  1   
  9   5   8  1   
 10   5  28  1   
 11   5  29  1   
 12   6  30  1   
 13   6  31  1   
 14   6  32  1   
 15   7   8  1   
 16   7  33  1   
 17   7  34  1   
 18   8   9  1   
 19   8  35  1   
 20   9  10  am  
 21   9  36  1   
 22  10  11  2   
 23  10  12  1   
 24  12  13  ar  
 25  12  14  ar  
 26  13  15  ar  
 27  13  37  1   
 28  14  16  ar  
 29  14  38  1   
 30  15  17  ar  
 31  15  39  1   
 32  16  17  ar  
 33  16  40  1   
 34  17  18  1   
 35  18  19  2   
 36  18  20  am  
 37  20  21  1   
 38  20  22  1   
 39  21  23  1   
 40  21  41  1   
 41  21  42  1   
 42  22  24  1   
 43  22  43  1   
 44  22  44  1   
 45  23  25  1   
 46  23  45  1   
 47  23  46  1   
 48  24  25  1   
 49  24  47  1   
 50  24  48  1   
@<TRIPOS>SUBSTRUCTURE
  1 ****  12 GROUP 4 **** **** 0

# MOE 2024.06 (io_trps.svl 2023.06)
