@<TRIPOS>MOLECULE
NONAME
46 48 1 0 0 
SMALL
USER_CHARGES


@<TRIPOS>ATOM
  1 CL       0.7190     0.7590     1.2530 Cl    1 <1>  -0.1770 
  2 C        2.0260    -0.3360     0.8580 C.ar  1 <1>   0.1770 
  3 C        3.0500     0.0650     0.0020 C.ar  1 <1>   0.0860 
  4 C        1.9950    -1.5990     1.4180 C.ar  1 <1>  -0.1500 
  5 C        3.0970     1.3870    -0.5790 C.2   1 <1>   0.5440 
  6 C        4.0450    -0.8670    -0.2780 C.ar  1 <1>  -0.1500 
  7 C        3.0020    -2.4990     1.1260 C.ar  1 <1>  -0.1500 
  8 O        3.0530     1.5100    -1.7910 O.2   1 <1>  -0.5700 
  9 N        3.2360     2.5210     0.1940 N.am  1 <1>  -0.6600 
 10 C        4.0410    -2.1400     0.2730 C.ar  1 <1>   0.1000 
 11 C        3.0490     3.8640    -0.4520 C.3   1 <1>   0.2200 
 12 C        3.7940     2.4840     1.5790 C.3   1 <1>   0.0600 
 13 N        5.0700    -3.0200    -0.0470 N.pl3 1 <1>  -0.8380 
 14 C        4.3420     4.3050    -1.1310 C.3   1 <1>   0.2000 
 15 C        2.7170     5.0320     0.4870 C.3   1 <1>   0.1200 
 16 C        5.1000    -3.5710    -1.4270 C.3   1 <1>   0.2090 
 17 C        5.6200    -3.9370     0.9860 C.3   1 <1>   0.2090 
 18 O        4.2220     4.2040    -2.5110 O.3   1 <1>  -0.6800 
 19 C        4.5300     5.7450    -0.6720 C.3   1 <1>   0.1200 
 20 O        3.8630     5.8260     0.5520 O.3   1 <1>  -0.5600 
 21 C        6.5460    -3.9100    -1.8040 C.3   1 <1>  -0.1600 
 22 C        7.0710    -4.2790     0.6350 C.3   1 <1>  -0.1600 
 23 C        7.1920    -4.8580    -0.7830 C.3   1 <1>  -0.1600 
 24 H        1.1880    -1.8730     2.0730 H     1 <1>   0.1500 
 25 H        4.8490    -0.5950    -0.9380 H     1 <1>   0.1500 
 26 H        2.9810    -3.4860     1.5510 H     1 <1>   0.1500 
 27 H        2.2530     3.7930    -1.1740 H     1 <1>   0.0800 
 28 H        4.5200     3.2690     1.7070 H     1 <1>   0.0800 
 29 H        4.2800     1.5430     1.7710 H     1 <1>   0.0800 
 30 H        3.0010     2.6180     2.2940 H     1 <1>   0.0800 
 31 H        5.1770     3.7030    -0.8160 H     1 <1>   0.0800 
 32 H        2.4320     4.7260     1.4760 H     1 <1>   0.0800 
 33 H        1.9340     5.6340     0.0590 H     1 <1>   0.0800 
 34 H        4.4910    -4.4580    -1.4680 H     1 <1>   0.0800 
 35 H        4.7000    -2.8510    -2.1200 H     1 <1>   0.0800 
 36 H        5.5810    -3.4610     1.9510 H     1 <1>   0.0800 
 37 H        5.0280    -4.8360     1.0190 H     1 <1>   0.0800 
 38 H        3.9380     3.2840    -2.7230 H     1 <1>   0.4000 
 39 H        4.0650     6.4350    -1.3550 H     1 <1>   0.0800 
 40 H        5.5660     5.9940    -0.5240 H     1 <1>   0.0800 
 41 H        6.5610    -4.3610    -2.7800 H     1 <1>   0.0800 
 42 H        7.1080    -2.9940    -1.8550 H     1 <1>   0.0800 
 43 H        7.6610    -3.3820     0.7110 H     1 <1>   0.0800 
 44 H        7.4530    -4.9850     1.3500 H     1 <1>   0.0800 
 45 H        8.2300    -5.0060    -1.0290 H     1 <1>   0.0800 
 46 H        6.6990    -5.8140    -0.8220 H     1 <1>   0.0800 
@<TRIPOS>BOND
  1   1   2  1   
  2   2   3  ar  
  3   2   4  ar  
  4   3   5  1   
  5   3   6  ar  
  6   4   7  ar  
  7   4  24  1   
  8   5   8  2   
  9   5   9  am  
 10   6  10  ar  
 11   6  25  1   
 12   7  10  ar  
 13   7  26  1   
 14   9  11  1   
 15   9  12  1   
 16  10  13  1   
 17  11  14  1   
 18  11  15  1   
 19  11  27  1   
 20  12  28  1   
 21  12  29  1   
 22  12  30  1   
 23  13  16  1   
 24  13  17  1   
 25  14  18  1   
 26  14  19  1   
 27  14  31  1   
 28  15  20  1   
 29  15  32  1   
 30  15  33  1   
 31  16  21  1   
 32  16  34  1   
 33  16  35  1   
 34  17  22  1   
 35  17  36  1   
 36  17  37  1   
 37  18  38  1   
 38  19  20  1   
 39  19  39  1   
 40  19  40  1   
 41  21  23  1   
 42  21  41  1   
 43  21  42  1   
 44  22  23  1   
 45  22  43  1   
 46  22  44  1   
 47  23  45  1   
 48  23  46  1   
@<TRIPOS>SUBSTRUCTURE
  1 ****   3 GROUP 4 **** **** 0

# MOE 2024.06 (io_trps.svl 2023.06)
