@<TRIPOS>MOLECULE
NONAME
50 52 1 0 0 
SMALL
USER_CHARGES


@<TRIPOS>ATOM
  1 O       -0.4480    -0.5010     2.1940 O.2   1 <1>  -0.5700 
  2 C       -1.0600     0.3900     1.6540 C.2   1 <1>   0.5690 
  3 N       -2.1090     0.1020     0.8110 N.am  1 <1>  -0.6600 
  4 C       -0.6290     1.8200     1.9620 C.3   1 <1>   0.0440 
  5 C       -2.3740    -1.3000     0.3810 C.3   1 <1>   0.1400 
  6 C       -3.0510     1.1050     0.2340 C.3   1 <1>   0.1400 
  7 C       -0.2230     2.5990     0.7080 C.ar  1 <1>  -0.1440 
  8 C       -3.8150    -1.7090     0.7550 C.3   1 <1>   0.4230 
  9 C       -4.4840     0.7130     0.6150 C.3   1 <1>  -0.1600 
 10 C       -0.7480     3.8490     0.3860 C.ar  1 <1>   0.0830 
 11 C        0.6970     2.0250    -0.1590 C.ar  1 <1>  -0.1500 
 12 N       -4.1230    -3.1790     0.4950 N.4   1 <1>  -0.9590 
 13 C       -4.8770    -0.7270     0.1770 C.3   1 <1>   0.0000 
 14 O       -1.6070     4.4850     1.1990 O.3   1 <1>  -0.5330 
 15 C       -0.3880     4.4880    -0.7880 C.ar  1 <1>  -0.1500 
 16 C        1.0660     2.6670    -1.3290 C.ar  1 <1>  -0.1500 
 17 C       -5.5880    -3.5000     0.4510 C.3   1 <1>   0.3430 
 18 C       -3.4330    -3.7830    -0.6930 C.3   1 <1>   0.2630 
 19 C       -6.2720    -1.0690     0.7800 C.3   1 <1>  -0.1600 
 20 C       -4.9150    -0.8270    -1.3750 C.3   1 <1>   0.1200 
 21 C        0.5200     3.8980    -1.6480 C.ar  1 <1>  -0.1500 
 22 C       -6.3900    -2.5160     1.2990 C.3   1 <1>  -0.1600 
 23 O       -5.7050     0.1640    -1.9330 O.3   1 <1>  -0.6800 
 24 H       -1.4310     2.2950     2.4890 H     1 <1>   0.0800 
 25 H        0.2160     1.7870     2.6260 H     1 <1>   0.0800 
 26 H       -2.2150    -1.3590    -0.6800 H     1 <1>   0.0800 
 27 H       -1.6830    -1.9730     0.8590 H     1 <1>   0.0800 
 28 H       -2.8500     2.0910     0.6110 H     1 <1>   0.0800 
 29 H       -2.9350     1.1390    -0.8370 H     1 <1>   0.0800 
 30 H       -3.8680    -1.5780     1.8230 H     1 <1>   0.0800 
 31 H       -4.5670     0.8070     1.6850 H     1 <1>   0.0800 
 32 H       -5.1600     1.4350     0.1920 H     1 <1>   0.0800 
 33 H        1.1340     1.0670     0.0680 H     1 <1>   0.1500 
 34 H       -3.7540    -3.6670     1.3260 H     1 <1>   0.4500 
 35 H       -1.5840     4.1630     2.1160 H     1 <1>   0.4500 
 36 H       -0.8150     5.4470    -1.0210 H     1 <1>   0.1500 
 37 H        1.7790     2.2090    -1.9920 H     1 <1>   0.1500 
 38 H       -5.9430    -3.4430    -0.5650 H     1 <1>   0.0800 
 39 H       -5.7530    -4.5060     0.8030 H     1 <1>   0.0800 
 40 H       -3.7380    -3.2880    -1.6000 H     1 <1>   0.0800 
 41 H       -3.6790    -4.8300    -0.7750 H     1 <1>   0.0800 
 42 H       -2.3630    -3.6960    -0.5950 H     1 <1>   0.0800 
 43 H       -6.4990    -0.4140     1.6050 H     1 <1>   0.0800 
 44 H       -7.0420    -0.8990     0.0480 H     1 <1>   0.0800 
 45 H       -5.3090    -1.7720    -1.7030 H     1 <1>   0.0800 
 46 H       -3.9340    -0.7040    -1.8000 H     1 <1>   0.0800 
 47 H        0.8030     4.3960    -2.5590 H     1 <1>   0.1500 
 48 H       -7.4260    -2.8070     1.2960 H     1 <1>   0.0800 
 49 H       -6.0520    -2.5730     2.3200 H     1 <1>   0.0800 
 50 H       -6.6410     0.0940    -1.6590 H     1 <1>   0.4000 
@<TRIPOS>BOND
  1   1   2  2   
  2   2   3  am  
  3   2   4  1   
  4   3   5  1   
  5   3   6  1   
  6   4   7  1   
  7   4  24  1   
  8   4  25  1   
  9   5   8  1   
 10   5  26  1   
 11   5  27  1   
 12   6   9  1   
 13   6  28  1   
 14   6  29  1   
 15   7  10  ar  
 16   7  11  ar  
 17   8  12  1   
 18   8  13  1   
 19   8  30  1   
 20   9  13  1   
 21   9  31  1   
 22   9  32  1   
 23  10  14  1   
 24  10  15  ar  
 25  11  16  ar  
 26  11  33  1   
 27  12  17  1   
 28  12  18  1   
 29  12  34  1   
 30  13  19  1   
 31  13  20  1   
 32  14  35  1   
 33  15  21  ar  
 34  15  36  1   
 35  16  21  ar  
 36  16  37  1   
 37  17  22  1   
 38  17  38  1   
 39  17  39  1   
 40  18  40  1   
 41  18  41  1   
 42  18  42  1   
 43  19  22  1   
 44  19  43  1   
 45  19  44  1   
 46  20  23  1   
 47  20  45  1   
 48  20  46  1   
 49  21  47  1   
 50  22  48  1   
 51  22  49  1   
 52  23  50  1   
@<TRIPOS>SUBSTRUCTURE
  1 ****   3 GROUP 4 **** **** 0

# MOE 2024.06 (io_trps.svl 2023.06)
