@<TRIPOS>MOLECULE
NONAME
50 53 1 0 0 
SMALL
USER_CHARGES


@<TRIPOS>ATOM
  1 O        0.4860     0.2420     1.9120 O.2   1 <1>  -0.5700 
  2 C        1.3860    -0.4790     1.5220 C.2   1 <1>   0.4690 
  3 C        2.5950     0.0340     0.9380 C.ar  1 <1>   0.0860 
  4 C        1.2690    -1.8870     1.6150 C.2   1 <1>  -0.1360 
  5 C        3.5550    -0.8800     0.4900 C.ar  1 <1>   0.0830 
  6 C        2.8660     1.3950     0.7880 C.ar  1 <1>  -0.1500 
  7 C        2.2290    -2.7290     1.1520 C.2   1 <1>   0.0910 
  8 O        3.3450    -2.2100     0.6050 O.3   1 <1>  -0.1590 
  9 C        4.7400    -0.4430    -0.0830 C.ar  1 <1>  -0.1500 
 10 C        4.0470     1.8260     0.2160 C.ar  1 <1>  -0.1500 
 11 C        2.1650    -4.1750     1.1910 C.2   1 <1>   0.6160 
 12 C        4.9920     0.9090    -0.2230 C.ar  1 <1>  -0.1440 
 13 O        3.1360    -4.8200     1.5420 O.2   1 <1>  -0.5700 
 14 N        1.0170    -4.8470     0.8360 N.am  1 <1>  -0.6600 
 15 C        6.2850     1.4020    -0.8480 C.3   1 <1>  -0.0970 
 16 C       -0.0150    -4.3190    -0.0970 C.3   1 <1>   0.1400 
 17 C        0.8750    -6.3190     0.9460 C.3   1 <1>   0.1400 
 18 C       -0.8500    -5.5300    -0.5350 C.3   1 <1>   0.2000 
 19 C        0.0760    -6.7260    -0.2920 C.3   1 <1>  -0.0800 
 20 O       -1.9700    -5.6540     0.2950 O.3   1 <1>  -0.5600 
 21 C       -0.6430    -8.0790    -0.1430 C.3   1 <1>   0.0200 
 22 C       -3.0890    -4.9240    -0.1010 C.3   1 <1>   0.0400 
 23 C        0.3130    -9.2580    -0.0730 C.2   1 <1>  -0.0400 
 24 O       -0.1770   -10.4490     0.1500 O.3   1 <1>  -0.0190 
 25 C        1.6440    -9.3830    -0.1990 C.2   1 <1>  -0.1500 
 26 N        0.7520   -11.3610     0.1840 N.2   1 <1>  -0.4100 
 27 C        1.8610   -10.7460    -0.0230 C.2   1 <1>   0.1080 
 28 C        3.2130   -11.4210    -0.0650 C.3   1 <1>  -0.0590 
 29 H        0.3730    -2.2540     2.0800 H     1 <1>   0.1500 
 30 H        2.1380     2.1120     1.1270 H     1 <1>   0.1500 
 31 H        5.4580    -1.1730    -0.4130 H     1 <1>   0.1500 
 32 H        4.2340     2.8810     0.1100 H     1 <1>   0.1500 
 33 H        6.8160     2.0230    -0.1490 H     1 <1>   0.0800 
 34 H        6.0690     1.9780    -1.7300 H     1 <1>   0.0800 
 35 H        6.9180     0.5790    -1.1240 H     1 <1>   0.0800 
 36 H       -0.6290    -3.5790     0.3850 H     1 <1>   0.0800 
 37 H        0.4750    -3.8860    -0.9510 H     1 <1>   0.0800 
 38 H        1.8320    -6.8100     0.9840 H     1 <1>   0.0800 
 39 H        0.3230    -6.5460     1.8420 H     1 <1>   0.0800 
 40 H       -1.1700    -5.4700    -1.5610 H     1 <1>   0.0800 
 41 H        0.7600    -6.7850    -1.1210 H     1 <1>   0.0800 
 42 H       -1.3010    -8.2270    -0.9810 H     1 <1>   0.0800 
 43 H       -1.2470    -8.0740     0.7480 H     1 <1>   0.0800 
 44 H       -3.8680    -5.0910     0.6220 H     1 <1>   0.0800 
 45 H       -3.4150    -5.2690    -1.0670 H     1 <1>   0.0800 
 46 H       -2.8470    -3.8760    -0.1330 H     1 <1>   0.0800 
 47 H        2.4010    -8.6460    -0.3900 H     1 <1>   0.1500 
 48 H        3.8640   -10.9790     0.6670 H     1 <1>   0.0800 
 49 H        3.6460   -11.3060    -1.0420 H     1 <1>   0.0800 
 50 H        3.1080   -12.4690     0.1490 H     1 <1>   0.0800 
@<TRIPOS>BOND
  1   1   2  2   
  2   2   3  1   
  3   2   4  1   
  4   3   5  ar  
  5   3   6  ar  
  6   4   7  2   
  7   4  29  1   
  8   5   8  1   
  9   5   9  ar  
 10   6  10  ar  
 11   6  30  1   
 12   7   8  1   
 13   7  11  1   
 14   9  12  ar  
 15   9  31  1   
 16  10  12  ar  
 17  10  32  1   
 18  11  13  2   
 19  11  14  am  
 20  12  15  1   
 21  14  16  1   
 22  14  17  1   
 23  15  33  1   
 24  15  34  1   
 25  15  35  1   
 26  16  18  1   
 27  16  36  1   
 28  16  37  1   
 29  17  19  1   
 30  17  38  1   
 31  17  39  1   
 32  18  19  1   
 33  18  20  1   
 34  18  40  1   
 35  19  21  1   
 36  19  41  1   
 37  20  22  1   
 38  21  23  1   
 39  21  42  1   
 40  21  43  1   
 41  22  44  1   
 42  22  45  1   
 43  22  46  1   
 44  23  24  1   
 45  23  25  2   
 46  24  26  1   
 47  25  27  1   
 48  25  47  1   
 49  26  27  2   
 50  27  28  1   
 51  28  48  1   
 52  28  49  1   
 53  28  50  1   
@<TRIPOS>SUBSTRUCTURE
  1 ****  14 GROUP 4 **** **** 0

# MOE 2024.06 (io_trps.svl 2023.06)
