@<TRIPOS>MOLECULE
NONAME
41 43 1 0 0 
SMALL
USER_CHARGES


@<TRIPOS>ATOM
  1 F       -0.0490     1.2920    -1.2380 F     1 <1>  -0.3400 
  2 C        1.2360     1.1790    -0.9060 C.3   1 <1>   1.1640 
  3 F        1.8410     0.6760    -1.9780 F     1 <1>  -0.3400 
  4 F        1.2850     0.2380     0.0310 F     1 <1>  -0.3400 
  5 C        1.8580     2.5270    -0.4420 C.ar  1 <1>   0.1660 
  6 N        3.1530     2.5970    -0.1660 N.ar  1 <1>  -0.6200 
  7 C        1.0710     3.6570    -0.3140 C.ar  1 <1>  -0.1500 
  8 C        3.6260     3.7640     0.2420 C.ar  1 <1>   0.7200 
  9 C        1.6690     4.8260     0.0920 C.ar  1 <1>   0.1600 
 10 N        2.9490     4.9000     0.3640 N.ar  1 <1>  -0.6200 
 11 N        4.9590     3.8310     0.5360 N.pl3 1 <1>  -0.8380 
 12 C        5.4620     4.6470     1.7040 C.3   1 <1>   0.2090 
 13 C        5.9800     3.2530    -0.3900 C.3   1 <1>   0.2090 
 14 C        6.1400     5.9680     1.2520 C.3   1 <1>   0.4230 
 15 C        6.9460     4.2930    -1.0130 C.3   1 <1>  -0.0800 
 16 N        5.6230     6.3020    -0.1270 N.4   1 <1>  -0.9590 
 17 C        7.6820     5.8830     1.3920 C.3   1 <1>   0.1200 
 18 C        8.3070     4.3640    -0.3040 C.3   1 <1>   0.1200 
 19 C        6.3920     5.7090    -1.2600 C.3   1 <1>   0.3430 
 20 C        5.4810     7.8050    -0.3080 C.3   1 <1>   0.2370 
 21 O        8.1720     4.6140     1.0530 O.3   1 <1>  -0.5600 
 22 C        6.7850     8.5860    -0.1310 C.2   1 <1>   0.9060 
 23 O        7.5620     8.6450    -1.0880 O.co2 1 <1>  -0.9000 
 24 O        7.0710     8.9700     1.0070 O.co2 1 <1>  -0.9000 
 25 H        0.0160     3.6440    -0.5230 H     1 <1>   0.1500 
 26 H        1.0760     5.7210     0.1940 H     1 <1>   0.1500 
 27 H        4.6340     4.8970     2.3440 H     1 <1>   0.0800 
 28 H        6.1360     4.0540     2.2980 H     1 <1>   0.0800 
 29 H        6.5430     2.5040     0.1410 H     1 <1>   0.0800 
 30 H        5.4710     2.7480    -1.1940 H     1 <1>   0.0800 
 31 H        5.8210     6.7480     1.9230 H     1 <1>   0.0800 
 32 H        7.1860     3.9150    -1.9900 H     1 <1>   0.0800 
 33 H        4.6930     5.8390    -0.1340 H     1 <1>   0.4500 
 34 H        7.9360     6.0390     2.4250 H     1 <1>   0.0800 
 35 H        8.1930     6.6360     0.8180 H     1 <1>   0.0800 
 36 H        8.9390     5.1260    -0.7330 H     1 <1>   0.0800 
 37 H        8.8150     3.4190    -0.3950 H     1 <1>   0.0800 
 38 H        5.7500     5.6820    -2.1240 H     1 <1>   0.0800 
 39 H        7.2200     6.3590    -1.5000 H     1 <1>   0.0800 
 40 H        5.1080     8.0210    -1.2920 H     1 <1>   0.0800 
 41 H        4.7840     8.1910     0.4110 H     1 <1>   0.0800 
@<TRIPOS>BOND
  1   1   2  1   
  2   2   3  1   
  3   2   4  1   
  4   2   5  1   
  5   5   6  ar  
  6   5   7  ar  
  7   6   8  ar  
  8   7   9  ar  
  9   7  25  1   
 10   8  10  ar  
 11   8  11  1   
 12   9  10  ar  
 13   9  26  1   
 14  11  12  1   
 15  11  13  1   
 16  12  14  1   
 17  12  27  1   
 18  12  28  1   
 19  13  15  1   
 20  13  29  1   
 21  13  30  1   
 22  14  16  1   
 23  14  17  1   
 24  14  31  1   
 25  15  18  1   
 26  15  19  1   
 27  15  32  1   
 28  16  19  1   
 29  16  20  1   
 30  16  33  1   
 31  17  21  1   
 32  17  34  1   
 33  17  35  1   
 34  18  21  1   
 35  18  36  1   
 36  18  37  1   
 37  19  38  1   
 38  19  39  1   
 39  20  22  1   
 40  20  40  1   
 41  20  41  1   
 42  22  23  ar  
 43  22  24  ar  
@<TRIPOS>SUBSTRUCTURE
  1 ****  11 GROUP 4 **** **** 0

# MOE 2024.06 (io_trps.svl 2023.06)
