@<TRIPOS>MOLECULE
NONAME
63 65 1 0 0 
SMALL
USER_CHARGES


@<TRIPOS>ATOM
  1 O       -0.2780     2.1720     2.2130 O.2   1 <1>  -0.5700 
  2 C       -0.3950     2.8650     1.2290 C.2   1 <1>   0.5690 
  3 N       -1.5050     3.6390     1.0130 N.am  1 <1>  -0.6600 
  4 C        0.7410     2.8450     0.2100 C.3   1 <1>  -0.0990 
  5 C       -1.7540     4.5050    -0.1690 C.3   1 <1>   0.1400 
  6 C       -2.6360     3.6600     1.9790 C.3   1 <1>   0.1400 
  7 C        1.9040     1.9150     0.6090 C.3   1 <1>  -0.1600 
  8 C       -3.0010     4.0000    -0.8990 C.3   1 <1>  -0.1600 
  9 C       -3.9020     3.1590     1.2800 C.3   1 <1>  -0.1600 
 10 C        3.0130     1.9020    -0.4400 C.3   1 <1>   0.3430 
 11 C       -4.2530     3.9700     0.0130 C.3   1 <1>   0.2800 
 12 N        4.1530     1.0760     0.0410 N.4   1 <1>  -0.9590 
 13 O       -4.4960     5.2870     0.4560 O.3   1 <1>  -0.5600 
 14 C       -5.5300     3.3630    -0.6790 C.3   1 <1>   0.2000 
 15 C        5.3510     1.1780    -0.8250 C.3   1 <1>   0.3430 
 16 C        3.8530    -0.3750     0.1500 C.3   1 <1>   0.3430 
 17 C       -5.2180     6.1340    -0.3820 C.3   1 <1>   0.1200 
 18 O       -5.4070     3.3650    -2.0790 O.3   1 <1>  -0.6800 
 19 C       -6.8340     4.1170    -0.2750 C.3   1 <1>   0.3000 
 20 C        6.1920    -0.0340    -0.4500 C.3   1 <1>  -0.1600 
 21 C        5.2210    -1.0440     0.1690 C.3   1 <1>  -0.1600 
 22 C       -6.6540     5.6190    -0.5760 C.3   1 <1>  -0.1600 
 23 N       -7.0670     4.0170     1.1850 N.am  1 <1>  -0.7300 
 24 C       -8.0820     3.6110    -1.0200 C.3   1 <1>  -0.2400 
 25 C       -7.4800     3.0360     2.0200 C.2   1 <1>   0.5690 
 26 O       -7.4240     3.2210     3.2060 O.2   1 <1>  -0.5700 
 27 C       -7.9820     1.6970     1.5370 C.3   1 <1>  -0.1790 
 28 H        0.3340     2.5250    -0.7320 H     1 <1>   0.0800 
 29 H        1.1080     3.8500     0.1040 H     1 <1>   0.0800 
 30 H       -1.9120     5.5170     0.1660 H     1 <1>   0.0800 
 31 H       -0.9180     4.5060    -0.8420 H     1 <1>   0.0800 
 32 H       -2.4250     3.0370     2.8330 H     1 <1>   0.0800 
 33 H       -2.7840     4.6660     2.3330 H     1 <1>   0.0800 
 34 H        1.5100     0.9220     0.7400 H     1 <1>   0.0800 
 35 H        2.3010     2.2520     1.5520 H     1 <1>   0.0800 
 36 H       -2.8060     3.0060    -1.2610 H     1 <1>   0.0800 
 37 H       -3.1720     4.6200    -1.7570 H     1 <1>   0.0800 
 38 H       -4.7090     3.1950     1.9850 H     1 <1>   0.0800 
 39 H       -3.7520     2.1270     1.0190 H     1 <1>   0.0800 
 40 H        3.3470     2.9130    -0.6090 H     1 <1>   0.0800 
 41 H        2.6350     1.5080    -1.3700 H     1 <1>   0.0800 
 42 H        4.4210     1.4000     0.9810 H     1 <1>   0.4500 
 43 H       -5.6210     2.3280    -0.4060 H     1 <1>   0.0800 
 44 H        5.0610     1.1070    -1.8610 H     1 <1>   0.0800 
 45 H        5.8860     2.1010    -0.6630 H     1 <1>   0.0800 
 46 H        3.2850    -0.6010     1.0390 H     1 <1>   0.0800 
 47 H        3.3050    -0.7010    -0.7190 H     1 <1>   0.0800 
 48 H       -5.2300     7.1100     0.0720 H     1 <1>   0.0800 
 49 H       -4.7010     6.2060    -1.3230 H     1 <1>   0.0800 
 50 H       -5.3520     4.2800    -2.4100 H     1 <1>   0.4000 
 51 H        6.6860    -0.4330    -1.3200 H     1 <1>   0.0800 
 52 H        6.9440     0.2510     0.2670 H     1 <1>   0.0800 
 53 H        5.5040    -1.2660     1.1840 H     1 <1>   0.0800 
 54 H        5.1940    -1.9660    -0.3870 H     1 <1>   0.0800 
 55 H       -7.3310     6.1980     0.0270 H     1 <1>   0.0800 
 56 H       -6.9190     5.8240    -1.5970 H     1 <1>   0.0800 
 57 H       -6.6380     4.8030     1.6820 H     1 <1>   0.3700 
 58 H       -8.0400     3.8850    -2.0580 H     1 <1>   0.0800 
 59 H       -8.9740     4.0380    -0.5970 H     1 <1>   0.0800 
 60 H       -8.1440     2.5410    -0.9910 H     1 <1>   0.0800 
 61 H       -7.3060     1.2790     0.8170 H     1 <1>   0.0800 
 62 H       -8.9590     1.8110     1.1080 H     1 <1>   0.0800 
 63 H       -8.0520     1.0210     2.3690 H     1 <1>   0.0800 
@<TRIPOS>BOND
  1   1   2  2   
  2   2   3  am  
  3   2   4  1   
  4   3   5  1   
  5   3   6  1   
  6   4   7  1   
  7   4  28  1   
  8   4  29  1   
  9   5   8  1   
 10   5  30  1   
 11   5  31  1   
 12   6   9  1   
 13   6  32  1   
 14   6  33  1   
 15   7  10  1   
 16   7  34  1   
 17   7  35  1   
 18   8  11  1   
 19   8  36  1   
 20   8  37  1   
 21   9  11  1   
 22   9  38  1   
 23   9  39  1   
 24  10  12  1   
 25  10  40  1   
 26  10  41  1   
 27  11  13  1   
 28  11  14  1   
 29  12  15  1   
 30  12  16  1   
 31  12  42  1   
 32  13  17  1   
 33  14  18  1   
 34  14  19  1   
 35  14  43  1   
 36  15  20  1   
 37  15  44  1   
 38  15  45  1   
 39  16  21  1   
 40  16  46  1   
 41  16  47  1   
 42  17  22  1   
 43  17  48  1   
 44  17  49  1   
 45  18  50  1   
 46  19  22  1   
 47  19  23  1   
 48  19  24  1   
 49  20  21  1   
 50  20  51  1   
 51  20  52  1   
 52  21  53  1   
 53  21  54  1   
 54  22  55  1   
 55  22  56  1   
 56  23  25  am  
 57  23  57  1   
 58  24  58  1   
 59  24  59  1   
 60  24  60  1   
 61  25  26  2   
 62  25  27  1   
 63  27  61  1   
 64  27  62  1   
 65  27  63  1   
@<TRIPOS>SUBSTRUCTURE
  1 ****   3 GROUP 4 **** **** 0

# MOE 2024.06 (io_trps.svl 2023.06)
