@<TRIPOS>MOLECULE
NONAME
49 51 1 0 0 
SMALL
USER_CHARGES


@<TRIPOS>ATOM
  1 O        0.4500     0.1020     0.3590 O.2   1 <1>  -0.5700 
  2 C        1.0160    -0.9250     0.6430 C.2   1 <1>   0.5690 
  3 N        2.3620    -0.9480     0.9260 N.am  1 <1>  -0.6600 
  4 C        0.1820    -2.1850     0.6670 C.3   1 <1>  -0.1790 
  5 C        3.1100     0.3540     1.0160 C.3   1 <1>   0.1400 
  6 C        3.1550    -2.2110     1.0290 C.3   1 <1>   0.1400 
  7 C        4.2020     0.5310    -0.0700 C.3   1 <1>   0.4230 
  8 C        4.4170    -2.2110     0.1420 C.3   1 <1>  -0.0800 
  9 N        5.5460     0.0360     0.3770 N.4   1 <1>  -0.9590 
 10 C        3.8670    -0.2120    -1.3760 C.3   1 <1>  -0.1600 
 11 C        5.5400    -1.3970     0.8070 C.3   1 <1>   0.3430 
 12 C        4.1390    -1.7340    -1.3020 C.3   1 <1>  -0.1600 
 13 C        6.1940     0.9210     1.3840 C.3   1 <1>   0.5240 
 14 C        6.2610     2.3210     0.8190 C.2   1 <1>  -0.1810 
 15 C        7.1430     2.7970    -0.1460 C.2   1 <1>   0.1080 
 16 C        5.4740     3.3790     1.1160 C.2   1 <1>  -0.3020 
 17 N        6.9110     4.0340    -0.4370 N.2   1 <1>  -0.7070 
 18 C        8.2640     2.0400    -0.8270 C.3   1 <1>  -0.0590 
 19 N        5.8850     4.4050     0.3450 N.pl3 1 <1>   0.3140 
 20 C        5.3440     5.7740     0.3160 C.3   1 <1>   0.0960 
 21 C        6.2560     6.6990     1.1180 C.3   1 <1>   0.1200 
 22 O        5.7060     7.9730     1.1290 O.3   1 <1>  -0.6800 
 23 H        0.3540    -2.7290     1.5760 H     1 <1>   0.0800 
 24 H        0.4200    -2.7980    -0.1810 H     1 <1>   0.0800 
 25 H       -0.8610    -1.9270     0.6190 H     1 <1>   0.0800 
 26 H        2.4220     1.1730     0.9010 H     1 <1>   0.0800 
 27 H        3.5300     0.4530     1.9990 H     1 <1>   0.0800 
 28 H        3.4220    -2.3730     2.0600 H     1 <1>   0.0800 
 29 H        2.5500    -3.0470     0.7280 H     1 <1>   0.0800 
 30 H        4.2680     1.5840    -0.2950 H     1 <1>   0.0800 
 31 H        4.7530    -3.2330     0.1020 H     1 <1>   0.0800 
 32 H        6.1210     0.1050    -0.4700 H     1 <1>   0.4500 
 33 H        2.8300    -0.0410    -1.6140 H     1 <1>   0.0800 
 34 H        4.4350     0.2160    -2.1830 H     1 <1>   0.0800 
 35 H        6.4900    -1.8410     0.5540 H     1 <1>   0.0800 
 36 H        5.4240    -1.4600     1.8770 H     1 <1>   0.0800 
 37 H        4.9940    -1.9640    -1.9150 H     1 <1>   0.0800 
 38 H        3.3000    -2.2710    -1.7140 H     1 <1>   0.0800 
 39 H        5.6220     0.9290     2.2970 H     1 <1>   0.0800 
 40 H        7.1900     0.5750     1.6060 H     1 <1>   0.0800 
 41 H        4.6600     3.4760     1.8140 H     1 <1>   0.1500 
 42 H        8.5450     1.1660    -0.2710 H     1 <1>   0.0800 
 43 H        9.1240     2.6820    -0.9080 H     1 <1>   0.0800 
 44 H        7.9610     1.7580    -1.8180 H     1 <1>   0.0800 
 45 H        5.2980     6.0950    -0.7080 H     1 <1>   0.0800 
 46 H        4.3580     5.7680     0.7390 H     1 <1>   0.0800 
 47 H        7.2400     6.7530     0.6840 H     1 <1>   0.0800 
 48 H        6.3250     6.3660     2.1400 H     1 <1>   0.0800 
 49 H        5.8900     8.4430     0.2910 H     1 <1>   0.4000 
@<TRIPOS>BOND
  1   1   2  2   
  2   2   3  am  
  3   2   4  1   
  4   3   5  1   
  5   3   6  1   
  6   4  23  1   
  7   4  24  1   
  8   4  25  1   
  9   5   7  1   
 10   5  26  1   
 11   5  27  1   
 12   6   8  1   
 13   6  28  1   
 14   6  29  1   
 15   7   9  1   
 16   7  10  1   
 17   7  30  1   
 18   8  11  1   
 19   8  12  1   
 20   8  31  1   
 21   9  11  1   
 22   9  13  1   
 23   9  32  1   
 24  10  12  1   
 25  10  33  1   
 26  10  34  1   
 27  11  35  1   
 28  11  36  1   
 29  12  37  1   
 30  12  38  1   
 31  13  14  1   
 32  13  39  1   
 33  13  40  1   
 34  14  15  1   
 35  14  16  2   
 36  15  17  2   
 37  15  18  1   
 38  16  19  1   
 39  16  41  1   
 40  17  19  1   
 41  18  42  1   
 42  18  43  1   
 43  18  44  1   
 44  19  20  1   
 45  20  21  1   
 46  20  45  1   
 47  20  46  1   
 48  21  22  1   
 49  21  47  1   
 50  21  48  1   
 51  22  49  1   
@<TRIPOS>SUBSTRUCTURE
  1 ****   7 GROUP 4 **** **** 0

# MOE 2024.06 (io_trps.svl 2023.06)
