@<TRIPOS>MOLECULE
NONAME
58 62 1 0 0 
SMALL
USER_CHARGES


@<TRIPOS>ATOM
  1 O       -2.5270     0.8330    -1.6190 O.2   1 <1>  -0.5700 
  2 C       -2.0940     0.8150    -0.4930 C.2   1 <1>   0.5690 
  3 N       -1.9690    -0.3350     0.2100 N.am  1 <1>  -0.7300 
  4 C       -1.6780     2.1090     0.1610 C.3   1 <1>  -0.0990 
  5 C       -2.3690    -1.6650    -0.2970 C.3   1 <1>   0.2200 
  6 C       -0.2050     2.4090    -0.1230 C.3   1 <1>   0.0210 
  7 C       -3.7940    -1.9510     0.1400 C.3   1 <1>  -0.0800 
  8 C       -1.5890    -2.7620     0.4200 C.3   1 <1>   0.1200 
  9 C        0.2230     3.6530     0.6250 C.2   1 <1>   0.1080 
 10 C       -3.5890    -2.5170     1.5470 C.3   1 <1>   0.1200 
 11 C       -4.4830    -2.9550    -0.8040 C.3   1 <1>  -0.0170 
 12 O       -2.3020    -3.0620     1.5850 O.3   1 <1>  -0.5600 
 13 N        0.5190     3.6320     1.8890 N.2   1 <1>  -0.7070 
 14 C        0.3380     4.9290     0.0820 C.2   1 <1>  -0.1810 
 15 C       -5.9520    -3.1450    -0.4390 C.ar  1 <1>  -0.1440 
 16 N        0.8420     4.9080     2.1850 N.pl3 1 <1>   0.3000 
 17 C        0.7400     5.7050     1.1030 C.2   1 <1>  -0.3320 
 18 C        0.0950     5.4420    -1.3250 C.3   1 <1>   0.0210 
 19 C       -6.9370    -2.1750    -0.7420 C.ar  1 <1>   0.0000 
 20 C       -6.3580    -4.2780     0.2030 C.ar  1 <1>  -0.1500 
 21 C        1.0070     7.1960     1.0240 C.3   1 <1>   0.0200 
 22 C       -0.0110     6.9790    -1.3150 C.3   1 <1>  -0.1600 
 23 C       -8.2690    -2.4450    -0.3420 C.ar  1 <1>   0.3100 
 24 C       -6.6830    -0.9580    -1.4180 C.ar  1 <1>  -0.1500 
 25 C       -7.7040    -4.4490     0.5490 C.ar  1 <1>   0.1600 
 26 C        1.0920     7.6290    -0.4520 C.3   1 <1>  -0.1600 
 27 N       -8.6340    -3.5830     0.3010 N.ar  1 <1>  -0.6200 
 28 C       -9.2680    -1.4980    -0.6200 C.ar  1 <1>  -0.1500 
 29 C       -7.6800    -0.0570    -1.6750 C.ar  1 <1>  -0.1500 
 30 C       -8.9900    -0.3270    -1.2710 C.ar  1 <1>  -0.1500 
 31 H       -1.6510    -0.3180     1.1820 H     1 <1>   0.3700 
 32 H       -2.2880     2.9080    -0.2180 H     1 <1>   0.0800 
 33 H       -1.8360     2.0440     1.2220 H     1 <1>   0.0800 
 34 H       -2.2370    -1.7040    -1.3660 H     1 <1>   0.0800 
 35 H       -0.0530     2.5430    -1.1780 H     1 <1>   0.0800 
 36 H        0.4070     1.5870     0.2030 H     1 <1>   0.0800 
 37 H       -4.3750    -1.0460     0.1790 H     1 <1>   0.0800 
 38 H       -0.5890    -2.4620     0.6750 H     1 <1>   0.0800 
 39 H       -1.5590    -3.6560    -0.1780 H     1 <1>   0.0800 
 40 H       -4.3030    -3.2800     1.8050 H     1 <1>   0.0800 
 41 H       -3.6280    -1.7300     2.2790 H     1 <1>   0.0800 
 42 H       -3.9750    -3.9020    -0.7600 H     1 <1>   0.0800 
 43 H       -4.4170    -2.6110    -1.8210 H     1 <1>   0.0800 
 44 H        1.1250     5.1980     3.1280 H     1 <1>   0.2700 
 45 H        0.9180     5.1380    -1.9480 H     1 <1>   0.0800 
 46 H       -0.8090     5.0160    -1.7220 H     1 <1>   0.0800 
 47 H       -5.6670    -5.0600     0.4600 H     1 <1>   0.1500 
 48 H        0.2020     7.7200     1.5090 H     1 <1>   0.0800 
 49 H        1.9270     7.4400     1.5250 H     1 <1>   0.0800 
 50 H        0.0490     7.3470    -2.3250 H     1 <1>   0.0800 
 51 H       -0.9710     7.2570    -0.9170 H     1 <1>   0.0800 
 52 H       -5.6850    -0.7270    -1.7430 H     1 <1>   0.1500 
 53 H       -7.9810    -5.3570     1.0550 H     1 <1>   0.1500 
 54 H        1.0220     8.7010    -0.5150 H     1 <1>   0.0800 
 55 H        2.0510     7.3370    -0.8440 H     1 <1>   0.0800 
 56 H      -10.2670    -1.7280    -0.3010 H     1 <1>   0.1500 
 57 H       -7.4700     0.8650    -2.1900 H     1 <1>   0.1500 
 58 H       -9.7650     0.3900    -1.4780 H     1 <1>   0.1500 
@<TRIPOS>BOND
  1   1   2  2   
  2   2   3  am  
  3   2   4  1   
  4   3   5  1   
  5   3  31  1   
  6   4   6  1   
  7   4  32  1   
  8   4  33  1   
  9   5   7  1   
 10   5   8  1   
 11   5  34  1   
 12   6   9  1   
 13   6  35  1   
 14   6  36  1   
 15   7  10  1   
 16   7  11  1   
 17   7  37  1   
 18   8  12  1   
 19   8  38  1   
 20   8  39  1   
 21   9  13  2   
 22   9  14  1   
 23  10  12  1   
 24  10  40  1   
 25  10  41  1   
 26  11  15  1   
 27  11  42  1   
 28  11  43  1   
 29  13  16  1   
 30  14  17  2   
 31  14  18  1   
 32  15  19  ar  
 33  15  20  ar  
 34  16  17  1   
 35  16  44  1   
 36  17  21  1   
 37  18  22  1   
 38  18  45  1   
 39  18  46  1   
 40  19  23  ar  
 41  19  24  ar  
 42  20  25  ar  
 43  20  47  1   
 44  21  26  1   
 45  21  48  1   
 46  21  49  1   
 47  22  26  1   
 48  22  50  1   
 49  22  51  1   
 50  23  27  ar  
 51  23  28  ar  
 52  24  29  ar  
 53  24  52  1   
 54  25  27  ar  
 55  25  53  1   
 56  26  54  1   
 57  26  55  1   
 58  28  30  ar  
 59  28  56  1   
 60  29  30  ar  
 61  29  57  1   
 62  30  58  1   
@<TRIPOS>SUBSTRUCTURE
  1 ****   2 GROUP 4 **** **** 0

# MOE 2024.06 (io_trps.svl 2023.06)
