@<TRIPOS>MOLECULE
NONAME
55 59 1 0 0 
SMALL
USER_CHARGES


@<TRIPOS>ATOM
  1 O       -3.1650     1.1510     1.6030 O.2   1 <1>  -0.5700 
  2 C       -2.5390     1.9050     0.8760 C.2   1 <1>   0.7670 
  3 N       -1.7860     2.8750     1.4940 N.2   1 <1>  -0.6610 
  4 C       -2.5840     1.8050    -0.5470 C.2   1 <1>   0.0290 
  5 C       -1.0910     3.6630     0.7660 C.2   1 <1>   0.5000 
  6 C       -3.4030     0.8130    -1.1750 C.2   1 <1>   0.6160 
  7 C       -1.8050     2.6650    -1.2650 C.2   1 <1>  -0.0500 
  8 N       -1.0640     3.5910    -0.5960 N.pl3 1 <1>  -0.5500 
  9 C       -0.2340     4.7480     1.3960 C.3   1 <1>  -0.1000 
 10 O       -2.8780     0.0720    -1.9870 O.2   1 <1>  -0.5700 
 11 N       -4.7660     0.7100    -0.9740 N.am  1 <1>  -0.6600 
 12 C       -0.7640     5.6030     2.5090 C.3   1 <1>  -0.2000 
 13 C       -0.5300     6.2000     1.1560 C.3   1 <1>  -0.2000 
 14 C       -5.5930     1.7330    -0.2550 C.3   1 <1>   0.1400 
 15 C       -5.5400    -0.4850    -1.4150 C.3   1 <1>   0.1400 
 16 C       -6.7640     2.2110    -1.1340 C.3   1 <1>   0.1440 
 17 C       -6.7180    -0.0550    -2.2980 C.3   1 <1>  -0.1600 
 18 C       -7.5860     3.2060    -0.3370 C.ar  1 <1>   0.1670 
 19 C       -7.5970     0.9980    -1.6000 C.3   1 <1>  -0.1600 
 20 C       -6.2680     3.0690    -2.3320 C.3   1 <1>  -0.1600 
 21 N       -8.3680     2.9070     0.6690 N.ar  1 <1>  -0.6200 
 22 C       -7.4000     4.4810    -0.7790 C.ar  1 <1>  -0.1430 
 23 C       -6.4280     4.5450    -1.9290 C.3   1 <1>  -0.0170 
 24 C       -8.9900     3.9440     1.2360 C.ar  1 <1>   0.7200 
 25 C       -8.0860     5.4830    -0.1400 C.ar  1 <1>   0.1600 
 26 N       -8.8860     5.2250     0.8670 N.ar  1 <1>  -0.6200 
 27 N       -9.8140     3.6650     2.3080 N.pl3 1 <1>  -0.8380 
 28 C       -9.7380     2.3740     3.0460 C.3   1 <1>   0.1290 
 29 C      -10.7950     4.6550     2.8300 C.3   1 <1>   0.1290 
 30 H       -1.7570     2.6280    -2.3430 H     1 <1>   0.1500 
 31 H       -0.4600     4.2570    -1.0870 H     1 <1>   0.4000 
 32 H        0.7950     4.4460     1.4710 H     1 <1>   0.1000 
 33 H       -0.1010     5.8580     3.3180 H     1 <1>   0.1000 
 34 H       -1.7740     5.4370     2.8430 H     1 <1>   0.1000 
 35 H       -1.3930     6.4800     0.5770 H     1 <1>   0.1000 
 36 H        0.2900     6.8870     1.0340 H     1 <1>   0.1000 
 37 H       -5.0000     2.5830     0.0290 H     1 <1>   0.0800 
 38 H       -5.9810     1.2910     0.6480 H     1 <1>   0.0800 
 39 H       -5.9080    -0.9970    -0.5420 H     1 <1>   0.0800 
 40 H       -4.9120    -1.1710    -1.9580 H     1 <1>   0.0800 
 41 H       -7.3130    -0.9190    -2.5350 H     1 <1>   0.0800 
 42 H       -6.3320     0.3360    -3.2240 H     1 <1>   0.0800 
 43 H       -8.3870     1.3190    -2.2560 H     1 <1>   0.0800 
 44 H       -8.0600     0.5460    -0.7390 H     1 <1>   0.0800 
 45 H       -6.8990     2.8890    -3.1840 H     1 <1>   0.0800 
 46 H       -5.2560     2.8400    -2.6130 H     1 <1>   0.0800 
 47 H       -6.8110     5.1380    -2.7420 H     1 <1>   0.0800 
 48 H       -5.4910     4.9510    -1.5880 H     1 <1>   0.0800 
 49 H       -7.9760     6.5060    -0.4560 H     1 <1>   0.1500 
 50 H       -8.7450     1.9630     2.9850 H     1 <1>   0.0800 
 51 H      -10.4330     1.6740     2.6170 H     1 <1>   0.0800 
 52 H       -9.9780     2.5250     4.0830 H     1 <1>   0.0800 
 53 H      -11.1210     5.3130     2.0430 H     1 <1>   0.0800 
 54 H      -10.3350     5.2400     3.6060 H     1 <1>   0.0800 
 55 H      -11.6570     4.1490     3.2260 H     1 <1>   0.0800 
@<TRIPOS>BOND
  1   1   2  2   
  2   2   3  1   
  3   2   4  1   
  4   3   5  2   
  5   4   6  1   
  6   4   7  2   
  7   5   8  1   
  8   5   9  1   
  9   6  10  2   
 10   6  11  am  
 11   7   8  1   
 12   7  30  1   
 13   8  31  1   
 14   9  12  1   
 15   9  13  1   
 16   9  32  1   
 17  11  14  1   
 18  11  15  1   
 19  12  13  1   
 20  12  33  1   
 21  12  34  1   
 22  13  35  1   
 23  13  36  1   
 24  14  16  1   
 25  14  37  1   
 26  14  38  1   
 27  15  17  1   
 28  15  39  1   
 29  15  40  1   
 30  16  18  1   
 31  16  19  1   
 32  16  20  1   
 33  17  19  1   
 34  17  41  1   
 35  17  42  1   
 36  18  21  ar  
 37  18  22  ar  
 38  19  43  1   
 39  19  44  1   
 40  20  23  1   
 41  20  45  1   
 42  20  46  1   
 43  21  24  ar  
 44  22  23  1   
 45  22  25  ar  
 46  23  47  1   
 47  23  48  1   
 48  24  26  ar  
 49  24  27  1   
 50  25  26  ar  
 51  25  49  1   
 52  27  28  1   
 53  27  29  1   
 54  28  50  1   
 55  28  51  1   
 56  28  52  1   
 57  29  53  1   
 58  29  54  1   
 59  29  55  1   
@<TRIPOS>SUBSTRUCTURE
  1 ****  14 GROUP 4 **** **** 0

# MOE 2024.06 (io_trps.svl 2023.06)
