@<TRIPOS>MOLECULE
NONAME
49 51 1 0 0 
SMALL
USER_CHARGES


@<TRIPOS>ATOM
  1 O       -0.7910     1.0750     1.8020 O.2   1 <1>  -0.5700 
  2 C       -1.7130     1.2210     1.0330 C.2   1 <1>   0.5690 
  3 N       -2.9310     0.6240     1.2470 N.am  1 <1>  -0.6600 
  4 C       -1.4890     2.0760    -0.2050 C.3   1 <1>  -0.0990 
  5 C       -4.1120     0.7090     0.3440 C.3   1 <1>   0.1400 
  6 C       -3.1750    -0.2290     2.4450 C.3   1 <1>   0.1400 
  7 C       -0.1110     2.7390    -0.2270 C.3   1 <1>   0.1200 
  8 C       -4.4640    -0.6970    -0.1470 C.3   1 <1>  -0.1600 
  9 C       -3.5240    -1.6480     1.9890 C.3   1 <1>  -0.1600 
 10 O        0.0160     3.4580    -1.4050 O.3   1 <1>  -0.6800 
 11 C       -4.7180    -1.6650     1.0230 C.3   1 <1>   0.4240 
 12 O       -5.8050    -1.1680     1.7690 O.3   1 <1>  -0.5600 
 13 C       -4.9800    -3.0980     0.5130 C.ar  1 <1>  -0.1440 
 14 C       -7.0900    -1.4910     1.3350 C.3   1 <1>   0.1200 
 15 C       -6.1970    -3.7300     0.7250 C.ar  1 <1>  -0.1440 
 16 C       -3.9940    -3.7880    -0.1810 C.ar  1 <1>  -0.1500 
 17 C       -7.2940    -2.9960     1.4710 C.3   1 <1>  -0.0170 
 18 C       -6.4160    -5.0160     0.2570 C.ar  1 <1>  -0.1500 
 19 C       -4.1920    -5.0750    -0.6510 C.ar  1 <1>   0.0820 
 20 C       -5.4280    -5.7050    -0.4410 C.ar  1 <1>   0.0820 
 21 O       -3.1210    -5.6140    -1.3010 O.3   1 <1>  -0.3620 
 22 O       -5.6490    -6.9600    -0.9340 O.3   1 <1>  -0.3620 
 23 C       -2.8610    -6.9990    -1.2600 C.3   1 <1>   0.0400 
 24 C       -6.9210    -7.5700    -0.8960 C.3   1 <1>   0.0400 
 25 H       -2.2360     2.8470    -0.2250 H     1 <1>   0.0800 
 26 H       -1.5950     1.4460    -1.0680 H     1 <1>   0.0800 
 27 H       -3.9220     1.3460    -0.4990 H     1 <1>   0.0800 
 28 H       -4.9420     1.1230     0.8920 H     1 <1>   0.0800 
 29 H       -3.9890     0.1860     3.0150 H     1 <1>   0.0800 
 30 H       -2.3070    -0.2580     3.0810 H     1 <1>   0.0800 
 31 H        0.6790     2.0080    -0.1820 H     1 <1>   0.0800 
 32 H       -0.0060     3.4230     0.5980 H     1 <1>   0.0800 
 33 H       -3.6450    -1.0590    -0.7400 H     1 <1>   0.0800 
 34 H       -5.3240    -0.6610    -0.7870 H     1 <1>   0.0800 
 35 H       -3.7530    -2.2600     2.8420 H     1 <1>   0.0800 
 36 H       -2.6550    -2.0660     1.5160 H     1 <1>   0.0800 
 37 H        0.1060     2.8560    -2.1680 H     1 <1>   0.4000 
 38 H       -7.2090    -1.1740     0.3130 H     1 <1>   0.0800 
 39 H       -7.7900    -0.9580     1.9530 H     1 <1>   0.0800 
 40 H       -3.0390    -3.3340    -0.3690 H     1 <1>   0.1500 
 41 H       -8.2570    -3.2590     1.0740 H     1 <1>   0.0800 
 42 H       -7.2690    -3.2680     2.5110 H     1 <1>   0.0800 
 43 H       -7.3700    -5.4660     0.4480 H     1 <1>   0.1500 
 44 H       -1.8270    -7.1540    -1.5070 H     1 <1>   0.0800 
 45 H       -3.4850    -7.4900    -1.9840 H     1 <1>   0.0800 
 46 H       -3.0630    -7.3660    -0.2690 H     1 <1>   0.0800 
 47 H       -6.8520    -8.5150    -1.4030 H     1 <1>   0.0800 
 48 H       -7.6280    -6.9360    -1.4000 H     1 <1>   0.0800 
 49 H       -7.2020    -7.7270     0.1300 H     1 <1>   0.0800 
@<TRIPOS>BOND
  1   1   2  2   
  2   2   3  am  
  3   2   4  1   
  4   3   5  1   
  5   3   6  1   
  6   4   7  1   
  7   4  25  1   
  8   4  26  1   
  9   5   8  1   
 10   5  27  1   
 11   5  28  1   
 12   6   9  1   
 13   6  29  1   
 14   6  30  1   
 15   7  10  1   
 16   7  31  1   
 17   7  32  1   
 18   8  11  1   
 19   8  33  1   
 20   8  34  1   
 21   9  11  1   
 22   9  35  1   
 23   9  36  1   
 24  10  37  1   
 25  11  12  1   
 26  11  13  1   
 27  12  14  1   
 28  13  15  ar  
 29  13  16  ar  
 30  14  17  1   
 31  14  38  1   
 32  14  39  1   
 33  15  17  1   
 34  15  18  ar  
 35  16  19  ar  
 36  16  40  1   
 37  17  41  1   
 38  17  42  1   
 39  18  20  ar  
 40  18  43  1   
 41  19  20  ar  
 42  19  21  1   
 43  20  22  1   
 44  21  23  1   
 45  22  24  1   
 46  23  44  1   
 47  23  45  1   
 48  23  46  1   
 49  24  47  1   
 50  24  48  1   
 51  24  49  1   
@<TRIPOS>SUBSTRUCTURE
  1 ****  11 GROUP 4 **** **** 0

# MOE 2024.06 (io_trps.svl 2023.06)
