@<TRIPOS>MOLECULE
NONAME
39 42 1 0 0 
SMALL
USER_CHARGES


@<TRIPOS>ATOM
  1 S        0.2230    -0.1210     0.5710 S.3   1 <1>  -0.0800 
  2 C        0.0250    -1.7080    -0.1720 C.ar  1 <1>   0.2970 
  3 C       -1.1660    -0.3860     1.6280 C.2   1 <1>  -0.1100 
  4 N        0.8230    -2.1700    -1.1100 N.ar  1 <1>  -0.5670 
  5 C       -1.0550    -2.3590     0.3700 C.ar  1 <1>   0.0000 
  6 C       -1.7110    -1.5940     1.3990 C.2   1 <1>  -0.1500 
  7 C        0.4810    -3.3820    -1.5040 C.ar  1 <1>   0.4700 
  8 C       -1.3110    -3.6250    -0.1570 C.ar  1 <1>   0.4100 
  9 N       -0.5300    -4.1380    -1.0930 N.ar  1 <1>  -0.6200 
 10 N       -2.3940    -4.3710     0.2590 N.pl3 1 <1>  -0.8380 
 11 C       -3.7680    -3.8600     0.0060 C.3   1 <1>   0.2090 
 12 C       -2.3940    -5.8610     0.1830 C.3   1 <1>   0.2090 
 13 C       -4.5680    -5.0720    -0.4690 C.3   1 <1>   0.2000 
 14 C       -3.8650    -6.2730     0.1510 C.3   1 <1>  -0.0800 
 15 O       -5.8900    -5.0190    -0.0520 O.3   1 <1>  -0.6800 
 16 C       -4.1200    -7.5830    -0.6090 C.3   1 <1>   0.0210 
 17 C       -3.3230    -8.7240    -0.0090 C.2   1 <1>   0.1080 
 18 N       -3.4930    -9.1360     1.2090 N.2   1 <1>  -0.7070 
 19 C       -2.3330    -9.4400    -0.6730 C.2   1 <1>  -0.1500 
 20 N       -2.6090   -10.1410     1.3550 N.pl3 1 <1>   0.3000 
 21 C       -1.8930   -10.3420     0.2290 C.2   1 <1>  -0.3320 
 22 C       -0.8160   -11.4020     0.0820 C.3   1 <1>  -0.0600 
 23 H       -1.4170     0.4040     2.3140 H     1 <1>   0.1500 
 24 H       -2.5590    -2.0070     1.9160 H     1 <1>   0.1500 
 25 H        1.1050    -3.8180    -2.2660 H     1 <1>   0.1500 
 26 H       -4.1750    -3.4770     0.9250 H     1 <1>   0.0800 
 27 H       -3.7590    -3.0900    -0.7460 H     1 <1>   0.0800 
 28 H       -1.8980    -6.1880    -0.7150 H     1 <1>   0.0800 
 29 H       -1.8920    -6.2860     1.0360 H     1 <1>   0.0800 
 30 H       -4.5490    -5.1150    -1.5450 H     1 <1>   0.0800 
 31 H       -4.1800    -6.3900     1.1730 H     1 <1>   0.0800 
 32 H       -5.9450    -5.1730     0.9110 H     1 <1>   0.4000 
 33 H       -3.8550    -7.4680    -1.6440 H     1 <1>   0.0800 
 34 H       -5.1660    -7.8290    -0.5570 H     1 <1>   0.0800 
 35 H       -2.0080    -9.2860    -1.6860 H     1 <1>   0.1500 
 36 H       -2.5210   -10.6680     2.2320 H     1 <1>   0.2700 
 37 H       -0.3910   -11.3620    -0.9060 H     1 <1>   0.0800 
 38 H       -1.2340   -12.3810     0.2360 H     1 <1>   0.0800 
 39 H       -0.0310   -11.2370     0.7990 H     1 <1>   0.0800 
@<TRIPOS>BOND
  1   1   2  1   
  2   1   3  1   
  3   2   4  ar  
  4   2   5  ar  
  5   3   6  2   
  6   3  23  1   
  7   4   7  ar  
  8   5   6  1   
  9   5   8  ar  
 10   6  24  1   
 11   7   9  ar  
 12   7  25  1   
 13   8   9  ar  
 14   8  10  1   
 15  10  11  1   
 16  10  12  1   
 17  11  13  1   
 18  11  26  1   
 19  11  27  1   
 20  12  14  1   
 21  12  28  1   
 22  12  29  1   
 23  13  14  1   
 24  13  15  1   
 25  13  30  1   
 26  14  16  1   
 27  14  31  1   
 28  15  32  1   
 29  16  17  1   
 30  16  33  1   
 31  16  34  1   
 32  17  18  2   
 33  17  19  1   
 34  18  20  1   
 35  19  21  2   
 36  19  35  1   
 37  20  21  1   
 38  20  36  1   
 39  21  22  1   
 40  22  37  1   
 41  22  38  1   
 42  22  39  1   
@<TRIPOS>SUBSTRUCTURE
  1 ****  12 GROUP 4 **** **** 0

# MOE 2024.06 (io_trps.svl 2023.06)
