@<TRIPOS>MOLECULE
NONAME
42 44 1 0 0 
SMALL
USER_CHARGES


@<TRIPOS>ATOM
  1 O       -1.8200     0.0200     1.9610 O.2   1 <1>  -0.5700 
  2 C       -2.0280     0.7130     0.9790 C.2   1 <1>   0.7150 
  3 N       -2.7290     0.1510    -0.0740 N.am  1 <1>  -0.6600 
  4 C       -1.5310     2.0760     0.9790 C.2   1 <1>   0.0550 
  5 C       -2.8290    -1.3370    -0.2410 C.3   1 <1>   0.1400 
  6 C       -3.4950     0.9490    -1.0730 C.3   1 <1>   0.1400 
  7 O       -1.3030     2.7610    -0.1420 O.3   1 <1>  -0.2800 
  8 C       -1.1870     2.8680     2.0340 C.2   1 <1>  -0.1500 
  9 C       -4.2900    -1.8100    -0.3010 C.3   1 <1>   0.2890 
 10 C       -4.9580     0.4900    -1.1040 C.3   1 <1>  -0.1600 
 11 C       -0.8380     3.9500     0.1700 C.2   1 <1>  -0.0100 
 12 C       -0.7430     4.0820     1.5090 C.2   1 <1>  -0.1500 
 13 N       -4.3420    -3.2480    -0.6650 N.pl3 1 <1>  -0.8690 
 14 C       -5.0850    -1.0210    -1.3460 C.3   1 <1>  -0.1600 
 15 C       -5.3140    -4.1280    -0.2120 C.ar  1 <1>   0.4100 
 16 N       -6.2150    -3.6300     0.6230 N.ar  1 <1>  -0.6200 
 17 C       -5.3430    -5.4770    -0.6370 C.ar  1 <1>   0.1660 
 18 C       -7.1200    -4.5110     1.0010 C.ar  1 <1>   0.1670 
 19 N       -6.2550    -6.3540    -0.2670 N.ar  1 <1>  -0.6200 
 20 C       -4.2800    -6.0080    -1.5840 C.3   1 <1>  -0.0970 
 21 C       -7.1400    -5.8310     0.5670 C.ar  1 <1>   0.1600 
 22 C       -8.1740    -3.9990     1.9610 C.3   1 <1>  -0.0970 
 23 H       -2.3370    -1.8440     0.5710 H     1 <1>   0.0800 
 24 H       -2.3320    -1.6070    -1.1540 H     1 <1>   0.0800 
 25 H       -3.0460     0.8220    -2.0430 H     1 <1>   0.0800 
 26 H       -3.4760     1.9950    -0.8260 H     1 <1>   0.0800 
 27 H       -1.2390     2.6120     3.0780 H     1 <1>   0.1500 
 28 H       -4.7230    -1.6600     0.6750 H     1 <1>   0.0800 
 29 H       -5.4800     1.0240    -1.8790 H     1 <1>   0.0800 
 30 H       -5.4210     0.7440    -0.1660 H     1 <1>   0.0800 
 31 H       -0.5980     4.6420    -0.6180 H     1 <1>   0.1500 
 32 H       -0.3990     4.9260     2.0800 H     1 <1>   0.1500 
 33 H       -3.9440    -3.4620    -1.5780 H     1 <1>   0.4000 
 34 H       -6.1210    -1.3070    -1.2890 H     1 <1>   0.0800 
 35 H       -4.7180    -1.2530    -2.3300 H     1 <1>   0.0800 
 36 H       -3.3050    -5.6840    -1.2700 H     1 <1>   0.0800 
 37 H       -4.4740    -5.6580    -2.5800 H     1 <1>   0.0800 
 38 H       -4.2900    -7.0840    -1.5890 H     1 <1>   0.0800 
 39 H       -7.9150    -6.4860     0.9200 H     1 <1>   0.1500 
 40 H       -8.7090    -3.1860     1.5050 H     1 <1>   0.0800 
 41 H       -7.6980    -3.6400     2.8550 H     1 <1>   0.0800 
 42 H       -8.8710    -4.7720     2.2240 H     1 <1>   0.0800 
@<TRIPOS>BOND
  1   1   2  2   
  2   2   3  am  
  3   2   4  1   
  4   3   5  1   
  5   3   6  1   
  6   4   7  1   
  7   4   8  2   
  8   5   9  1   
  9   5  23  1   
 10   5  24  1   
 11   6  10  1   
 12   6  25  1   
 13   6  26  1   
 14   7  11  1   
 15   8  12  1   
 16   8  27  1   
 17   9  13  1   
 18   9  14  1   
 19   9  28  1   
 20  10  14  1   
 21  10  29  1   
 22  10  30  1   
 23  11  12  2   
 24  11  31  1   
 25  12  32  1   
 26  13  15  1   
 27  13  33  1   
 28  14  34  1   
 29  14  35  1   
 30  15  16  ar  
 31  15  17  ar  
 32  16  18  ar  
 33  17  19  ar  
 34  17  20  1   
 35  18  21  ar  
 36  18  22  1   
 37  19  21  ar  
 38  20  36  1   
 39  20  37  1   
 40  20  38  1   
 41  21  39  1   
 42  22  40  1   
 43  22  41  1   
 44  22  42  1   
@<TRIPOS>SUBSTRUCTURE
  1 ****   9 GROUP 4 **** **** 0

# MOE 2024.06 (io_trps.svl 2023.06)
