@<TRIPOS>MOLECULE
NONAME
48 51 1 0 0 
SMALL
USER_CHARGES


@<TRIPOS>ATOM
  1 O       -0.7740     0.4090    -1.5570 O.3   1 <1>  -0.0190 
  2 N        0.1970     1.1850    -1.1870 N.2   1 <1>  -0.4100 
  3 C       -1.7800     0.7700    -0.7970 C.2   1 <1>   0.2980 
  4 C       -0.2530     1.9400    -0.2630 C.2   1 <1>   0.3350 
  5 N       -1.5290     1.7130     0.0230 N.2   1 <1>  -0.5650 
  6 C       -3.1110     0.0450    -0.9870 C.3   1 <1>   0.1000 
  7 C        0.5320     3.0230     0.4790 C.3   1 <1>   0.1010 
  8 C       -4.2370     0.6250    -0.1150 C.3   1 <1>  -0.1600 
  9 C       -2.9750    -1.4590    -0.7030 C.3   1 <1>  -0.1600 
 10 C        0.2810     4.4000    -0.1520 C.3   1 <1>  -0.2400 
 11 C        2.0400     2.7320     0.5240 C.3   1 <1>  -0.2400 
 12 C       -5.5410    -0.1520    -0.3010 C.3   1 <1>   0.1100 
 13 C       -4.3130    -2.1810    -0.8730 C.3   1 <1>   0.1100 
 14 N       -5.3240    -1.5720     0.0050 N.3   1 <1>  -0.8100 
 15 C       -6.6070    -2.3210    -0.0150 C.3   1 <1>   0.2900 
 16 C       -6.5510    -3.7660     0.4950 C.2   1 <1>   0.2980 
 17 O       -7.5010    -4.5730     0.1140 O.3   1 <1>  -0.2800 
 18 N       -5.6850    -4.2970     1.2690 N.2   1 <1>  -0.3380 
 19 C       -7.1400    -5.6760     0.7280 C.2   1 <1>   0.4250 
 20 N       -6.0630    -5.5440     1.4210 N.2   1 <1>  -0.3380 
 21 C       -7.9310    -6.8770     0.5840 C.ar  1 <1>   0.0530 
 22 C       -9.0890    -6.9010    -0.1970 C.ar  1 <1>   0.1600 
 23 C       -7.5790    -8.0660     1.2130 C.ar  1 <1>  -0.1500 
 24 N       -9.8770    -7.9460    -0.3900 N.ar  1 <1>  -0.6200 
 25 C       -8.3850    -9.1670     1.0260 C.ar  1 <1>  -0.1500 
 26 C       -9.5080    -9.0580     0.2250 C.ar  1 <1>   0.1600 
 27 H       -3.3920     0.1680    -2.0180 H     1 <1>   0.0800 
 28 H        0.1690     3.0440     1.4920 H     1 <1>   0.0800 
 29 H       -4.3960     1.6580    -0.3700 H     1 <1>   0.0800 
 30 H       -3.9530     0.5820     0.9220 H     1 <1>   0.0800 
 31 H       -2.6260    -1.6080     0.3050 H     1 <1>   0.0800 
 32 H       -2.2520    -1.8950    -1.3690 H     1 <1>   0.0800 
 33 H        0.6220     4.4080    -1.1730 H     1 <1>   0.0800 
 34 H        0.7980     5.1660     0.3960 H     1 <1>   0.0800 
 35 H       -0.7720     4.6200    -0.1420 H     1 <1>   0.0800 
 36 H        2.4510     2.7240    -0.4710 H     1 <1>   0.0800 
 37 H        2.2140     1.7700     0.9720 H     1 <1>   0.0800 
 38 H        2.5510     3.4790     1.1050 H     1 <1>   0.0800 
 39 H       -5.8950    -0.0420    -1.3130 H     1 <1>   0.0800 
 40 H       -6.2830     0.2520     0.3670 H     1 <1>   0.0800 
 41 H       -4.1740    -3.2180    -0.6150 H     1 <1>   0.0800 
 42 H       -4.6350    -2.1280    -1.9000 H     1 <1>   0.0800 
 43 H       -6.9870    -2.3330    -1.0210 H     1 <1>   0.0800 
 44 H       -7.3210    -1.8000     0.5980 H     1 <1>   0.0800 
 45 H       -9.3840    -5.9930    -0.6950 H     1 <1>   0.1500 
 46 H       -6.6990    -8.1230     1.8310 H     1 <1>   0.1500 
 47 H       -8.1480   -10.1060     1.4950 H     1 <1>   0.1500 
 48 H      -10.1330    -9.9240     0.0840 H     1 <1>   0.1500 
@<TRIPOS>BOND
  1   1   2  1   
  2   1   3  1   
  3   2   4  2   
  4   3   5  2   
  5   3   6  1   
  6   4   5  1   
  7   4   7  1   
  8   6   8  1   
  9   6   9  1   
 10   6  27  1   
 11   7  10  1   
 12   7  11  1   
 13   7  28  1   
 14   8  12  1   
 15   8  29  1   
 16   8  30  1   
 17   9  13  1   
 18   9  31  1   
 19   9  32  1   
 20  10  33  1   
 21  10  34  1   
 22  10  35  1   
 23  11  36  1   
 24  11  37  1   
 25  11  38  1   
 26  12  14  1   
 27  12  39  1   
 28  12  40  1   
 29  13  14  1   
 30  13  41  1   
 31  13  42  1   
 32  14  15  1   
 33  15  16  1   
 34  15  43  1   
 35  15  44  1   
 36  16  17  1   
 37  16  18  2   
 38  17  19  1   
 39  18  20  1   
 40  19  20  2   
 41  19  21  1   
 42  21  22  ar  
 43  21  23  ar  
 44  22  24  ar  
 45  22  45  1   
 46  23  25  ar  
 47  23  46  1   
 48  24  26  ar  
 49  25  26  ar  
 50  25  47  1   
 51  26  48  1   
@<TRIPOS>SUBSTRUCTURE
  1 ****  13 GROUP 4 **** **** 0

# MOE 2024.06 (io_trps.svl 2023.06)
