@<TRIPOS>MOLECULE
NONAME
45 48 1 0 0 
SMALL
USER_CHARGES


@<TRIPOS>ATOM
  1 S        0.1210     0.9660    -2.0700 S.3   1 <1>  -0.0800 
  2 C       -0.9680     1.5120    -0.8030 C.2   1 <1>  -0.1400 
  3 C       -1.0870    -0.1660    -2.6630 C.2   1 <1>  -0.1100 
  4 C       -2.1400     0.8680    -0.8760 C.2   1 <1>  -0.1810 
  5 C       -0.5810     2.5790     0.2150 C.3   1 <1>   0.4600 
  6 C       -2.2150    -0.0960    -1.9300 C.2   1 <1>  -0.1500 
  7 C       -3.2340     1.1970     0.1150 C.3   1 <1>   0.0210 
  8 O       -1.6110     2.6720     1.1820 O.3   1 <1>  -0.5600 
  9 C       -0.3930     3.9510    -0.4480 C.3   1 <1>  -0.1600 
 10 C        0.6880     2.1770     0.9750 C.3   1 <1>  -0.1600 
 11 C       -2.9460     2.5740     0.7430 C.3   1 <1>   0.1200 
 12 C        0.0360     5.0130     0.5660 C.3   1 <1>   0.1400 
 13 C        1.1110     3.2540     1.9740 C.3   1 <1>   0.1400 
 14 N        1.2690     4.5540     1.2630 N.am  1 <1>  -0.6600 
 15 C        2.4910     5.1910     1.1680 C.2   1 <1>   0.5440 
 16 O        3.4940     4.6080     1.5340 O.2   1 <1>  -0.5700 
 17 C        2.6110     6.5350     0.6390 C.ar  1 <1>   0.0860 
 18 C        3.3750     6.7930    -0.4960 C.ar  1 <1>  -0.1500 
 19 C        1.9680     7.6130     1.2470 C.ar  1 <1>  -0.1500 
 20 C        3.4880     8.0690    -1.0210 C.ar  1 <1>   0.0830 
 21 C        2.0730     8.8940     0.7350 C.ar  1 <1>  -0.1500 
 22 O        4.2510     8.2070    -2.1330 O.3   1 <1>  -0.3630 
 23 C        2.8300     9.1270    -0.4000 C.ar  1 <1>  -0.1500 
 24 C        4.4960     9.4720    -2.7050 C.3   1 <1>   0.0400 
 25 H       -0.8200    -0.7730    -3.5090 H     1 <1>   0.1500 
 26 H       -3.1020    -0.6850    -2.0860 H     1 <1>   0.1500 
 27 H       -3.2680     0.4440     0.8820 H     1 <1>   0.0800 
 28 H       -4.1870     1.2230    -0.3810 H     1 <1>   0.0800 
 29 H       -1.2970     4.2510    -0.9410 H     1 <1>   0.0800 
 30 H        0.3690     3.8740    -1.2020 H     1 <1>   0.0800 
 31 H        1.4950     2.0250     0.2820 H     1 <1>   0.0800 
 32 H        0.5170     1.2480     1.4850 H     1 <1>   0.0800 
 33 H       -3.5830     2.7330     1.5940 H     1 <1>   0.0800 
 34 H       -3.1270     3.3560     0.0270 H     1 <1>   0.0800 
 35 H       -0.7440     5.1640     1.2930 H     1 <1>   0.0800 
 36 H        0.2030     5.9430     0.0520 H     1 <1>   0.0800 
 37 H        2.0310     2.9640     2.4520 H     1 <1>   0.0800 
 38 H        0.3610     3.3610     2.7390 H     1 <1>   0.0800 
 39 H        3.8920     5.9810    -0.9740 H     1 <1>   0.1500 
 40 H        1.3840     7.4360     2.1330 H     1 <1>   0.1500 
 41 H        1.5680     9.7110     1.2210 H     1 <1>   0.1500 
 42 H        2.8960    10.1280    -0.7810 H     1 <1>   0.1500 
 43 H        5.1450     9.3350    -3.5510 H     1 <1>   0.0800 
 44 H        4.9750    10.0990    -1.9740 H     1 <1>   0.0800 
 45 H        3.5620     9.8970    -3.0270 H     1 <1>   0.0800 
@<TRIPOS>BOND
  1   1   2  1   
  2   1   3  1   
  3   2   4  2   
  4   2   5  1   
  5   3   6  2   
  6   3  25  1   
  7   4   6  1   
  8   4   7  1   
  9   5   8  1   
 10   5   9  1   
 11   5  10  1   
 12   6  26  1   
 13   7  11  1   
 14   7  27  1   
 15   7  28  1   
 16   8  11  1   
 17   9  12  1   
 18   9  29  1   
 19   9  30  1   
 20  10  13  1   
 21  10  31  1   
 22  10  32  1   
 23  11  33  1   
 24  11  34  1   
 25  12  14  1   
 26  12  35  1   
 27  12  36  1   
 28  13  14  1   
 29  13  37  1   
 30  13  38  1   
 31  14  15  am  
 32  15  16  2   
 33  15  17  1   
 34  17  18  ar  
 35  17  19  ar  
 36  18  20  ar  
 37  18  39  1   
 38  19  21  ar  
 39  19  40  1   
 40  20  22  1   
 41  20  23  ar  
 42  21  23  ar  
 43  21  41  1   
 44  22  24  1   
 45  23  42  1   
 46  24  43  1   
 47  24  44  1   
 48  24  45  1   
@<TRIPOS>SUBSTRUCTURE
  1 ****  12 GROUP 4 **** **** 0

# MOE 2024.06 (io_trps.svl 2023.06)
