@<TRIPOS>MOLECULE
NONAME
47 49 1 0 0 
SMALL
USER_CHARGES


@<TRIPOS>ATOM
  1 S        0.3550     1.2690    -0.2660 S.o2  1 <1>   1.3330 
  2 O        0.0680    -0.0640    -0.7480 O.2   1 <1>  -0.6500 
  3 O       -0.5820     2.3380    -0.5290 O.2   1 <1>  -0.6500 
  4 N        0.5500     1.1780     1.4180 N.am  1 <1>  -0.8490 
  5 C        1.9740     1.7420    -0.8760 C.3   1 <1>  -0.0550 
  6 C       -0.5180     0.3960     2.0480 C.3   1 <1>   0.1160 
  7 C        0.6500     2.4930     2.0670 C.3   1 <1>   0.1160 
  8 C        3.0570     0.6470    -0.7470 C.3   1 <1>  -0.0800 
  9 C        4.4180     1.0240    -1.3150 C.3   1 <1>   0.2200 
 10 C        3.4020     0.2370     0.6890 C.3   1 <1>   0.1200 
 11 N        4.7750     2.4040    -0.9100 N.am  1 <1>  -0.7300 
 12 C        5.3140     0.0430    -0.5720 C.3   1 <1>   0.1200 
 13 O        4.7660    -0.0690     0.7070 O.3   1 <1>  -0.5600 
 14 C        4.7590     3.5100    -1.7090 C.2   1 <1>   0.6160 
 15 O        4.6220     3.3360    -2.9060 O.2   1 <1>  -0.5700 
 16 C        4.9050     4.8390    -1.1870 C.2   1 <1>   0.0290 
 17 C        4.4340     5.1490     0.1360 C.2   1 <1>   0.5650 
 18 C        5.4800     5.8290    -1.9500 C.2   1 <1>  -0.0500 
 19 O        3.8680     4.3150     0.8390 O.2   1 <1>  -0.5700 
 20 N        4.6330     6.4780     0.6020 N.pl3 1 <1>   0.5610 
 21 N        5.6480     7.1000    -1.4870 N.pl3 1 <1>  -0.5840 
 22 N        4.3080     7.0410     1.8140 N.2   1 <1>  -0.7070 
 23 C        5.2230     7.4260    -0.1930 C.2   1 <1>  -0.0680 
 24 C        4.6920     8.2740     1.7360 C.2   1 <1>   0.1080 
 25 C        5.2710     8.5790     0.5090 C.2   1 <1>  -0.1500 
 26 C        4.5100     9.2460     2.8790 C.3   1 <1>  -0.0590 
 27 H        1.8820     1.9920    -1.9150 H     1 <1>   0.0800 
 28 H        2.2860     2.6300    -0.3660 H     1 <1>   0.0800 
 29 H       -0.3570     0.3320     3.1100 H     1 <1>   0.0800 
 30 H       -0.5270    -0.6040     1.6470 H     1 <1>   0.0800 
 31 H       -1.4760     0.8530     1.8600 H     1 <1>   0.0800 
 32 H        0.8270     2.3720     3.1220 H     1 <1>   0.0800 
 33 H       -0.2600     3.0540     1.9270 H     1 <1>   0.0800 
 34 H        1.4700     3.0560     1.6550 H     1 <1>   0.0800 
 35 H        2.7130    -0.2340    -1.2610 H     1 <1>   0.0800 
 36 H        4.4790     0.9050    -2.3840 H     1 <1>   0.0800 
 37 H        2.8410    -0.6260     1.0090 H     1 <1>   0.0800 
 38 H        3.2470     1.0460     1.3820 H     1 <1>   0.0800 
 39 H        4.7630     2.5430     0.1090 H     1 <1>   0.3700 
 40 H        6.3340     0.3800    -0.5020 H     1 <1>   0.0800 
 41 H        5.2780    -0.9290    -1.0310 H     1 <1>   0.0800 
 42 H        5.8190     5.6160    -2.9540 H     1 <1>   0.1500 
 43 H        6.0800     7.8350    -2.0680 H     1 <1>   0.4000 
 44 H        5.6640     9.5330     0.2100 H     1 <1>   0.1500 
 45 H        4.8650    10.2230     2.6060 H     1 <1>   0.0800 
 46 H        5.0580     8.8990     3.7350 H     1 <1>   0.0800 
 47 H        3.4690     9.3080     3.1350 H     1 <1>   0.0800 
@<TRIPOS>BOND
  1   1   2  2   
  2   1   3  2   
  3   1   4  am  
  4   1   5  1   
  5   4   6  1   
  6   4   7  1   
  7   5   8  1   
  8   5  27  1   
  9   5  28  1   
 10   6  29  1   
 11   6  30  1   
 12   6  31  1   
 13   7  32  1   
 14   7  33  1   
 15   7  34  1   
 16   8   9  1   
 17   8  10  1   
 18   8  35  1   
 19   9  11  1   
 20   9  12  1   
 21   9  36  1   
 22  10  13  1   
 23  10  37  1   
 24  10  38  1   
 25  11  14  am  
 26  11  39  1   
 27  12  13  1   
 28  12  40  1   
 29  12  41  1   
 30  14  15  2   
 31  14  16  1   
 32  16  17  1   
 33  16  18  2   
 34  17  19  2   
 35  17  20  1   
 36  18  21  1   
 37  18  42  1   
 38  20  22  1   
 39  20  23  1   
 40  21  23  1   
 41  21  43  1   
 42  22  24  2   
 43  23  25  2   
 44  24  25  1   
 45  24  26  1   
 46  25  44  1   
 47  26  45  1   
 48  26  46  1   
 49  26  47  1   
@<TRIPOS>SUBSTRUCTURE
  1 ****  19 GROUP 4 **** **** 0

# MOE 2024.06 (io_trps.svl 2023.06)
