@<TRIPOS>MOLECULE
NONAME
48 51 1 0 0 
SMALL
USER_CHARGES


@<TRIPOS>ATOM
  1 S       -0.3660     0.2040     2.0470 S.3   1 <1>  -0.0800 
  2 C        0.1260    -0.2750     0.4590 C.2   1 <1>  -0.1400 
  3 C       -1.3230     1.4790     1.2940 C.2   1 <1>   0.1980 
  4 C       -0.4270     0.5140    -0.4390 C.2   1 <1>   0.0460 
  5 C        0.9900    -1.3800    -0.0560 C.3   1 <1>   0.0200 
  6 N       -1.2450     1.5340     0.0140 N.2   1 <1>  -0.5650 
  7 C       -2.1350     2.3540     2.2300 C.3   1 <1>   0.0200 
  8 C       -0.0530     0.0920    -1.8340 C.3   1 <1>   0.0210 
  9 C        0.8970    -1.1190    -1.5860 C.3   1 <1>  -0.1600 
 10 C       -2.4810     3.7170     1.6180 C.3   1 <1>   0.2090 
 11 N       -1.3270     4.6600     1.6730 N.pl3 1 <1>  -0.8690 
 12 C       -0.3110     4.8900     0.8320 C.ar  1 <1>   0.7710 
 13 N        0.4150     5.9590     1.0870 N.ar  1 <1>  -0.6200 
 14 N       -0.0620     4.0670    -0.1980 N.ar  1 <1>  -0.1790 
 15 C        1.4310     6.2240     0.2850 C.ar  1 <1>   0.4100 
 16 C        0.9540     4.3100    -1.0560 C.ar  1 <1>   0.2110 
 17 N        2.1920     7.3140     0.5690 N.pl3 1 <1>  -0.8380 
 18 C        1.7150     5.4060    -0.8280 C.ar  1 <1>  -0.1500 
 19 C        3.6560     7.4310     0.2650 C.3   1 <1>   0.2090 
 20 C        1.6600     8.4960     1.3140 C.3   1 <1>   0.2090 
 21 C        3.9270     8.6960    -0.5670 C.3   1 <1>   0.2000 
 22 C        1.9080     9.7710     0.4950 C.3   1 <1>  -0.1600 
 23 O        5.2890     8.8480    -0.7550 O.3   1 <1>  -0.6800 
 24 C        3.3910     9.9530     0.1260 C.3   1 <1>  -0.1600 
 25 H        0.5810    -2.3400     0.2100 H     1 <1>   0.0800 
 26 H        1.9980    -1.2860     0.3080 H     1 <1>   0.0800 
 27 H       -1.6120     2.4950     3.1590 H     1 <1>   0.0800 
 28 H       -3.0490     1.8310     2.4450 H     1 <1>   0.0800 
 29 H        0.4500     0.8840    -2.3570 H     1 <1>   0.0800 
 30 H       -0.9320    -0.2080    -2.3760 H     1 <1>   0.0800 
 31 H        0.5180    -1.9940    -2.0850 H     1 <1>   0.0800 
 32 H        1.8760    -0.9030    -1.9770 H     1 <1>   0.0800 
 33 H       -3.2940     4.1500     2.1770 H     1 <1>   0.0800 
 34 H       -2.8220     3.5960     0.6020 H     1 <1>   0.0800 
 35 H       -1.3710     5.3360     2.4440 H     1 <1>   0.4000 
 36 H       -0.6360     3.2170    -0.2520 H     1 <1>   0.4570 
 37 H        1.1190     3.6330    -1.8780 H     1 <1>   0.1500 
 38 H        2.5230     5.6680    -1.4840 H     1 <1>   0.1500 
 39 H        4.0180     6.5680    -0.2610 H     1 <1>   0.0800 
 40 H        4.1900     7.4990     1.1970 H     1 <1>   0.0800 
 41 H        2.1540     8.5660     2.2680 H     1 <1>   0.0800 
 42 H        0.6030     8.3960     1.4930 H     1 <1>   0.0800 
 43 H        3.4780     8.5830    -1.5390 H     1 <1>   0.0800 
 44 H        1.5710    10.6230     1.0590 H     1 <1>   0.0800 
 45 H        1.3150     9.7220    -0.4020 H     1 <1>   0.0800 
 46 H        5.7120     9.1840     0.0580 H     1 <1>   0.4000 
 47 H        3.4950    10.8000    -0.5300 H     1 <1>   0.0800 
 48 H        3.9490    10.1400     1.0260 H     1 <1>   0.0800 
@<TRIPOS>BOND
  1   1   2  1   
  2   1   3  1   
  3   2   4  2   
  4   2   5  1   
  5   3   6  2   
  6   3   7  1   
  7   4   6  1   
  8   4   8  1   
  9   5   9  1   
 10   5  25  1   
 11   5  26  1   
 12   7  10  1   
 13   7  27  1   
 14   7  28  1   
 15   8   9  1   
 16   8  29  1   
 17   8  30  1   
 18   9  31  1   
 19   9  32  1   
 20  10  11  1   
 21  10  33  1   
 22  10  34  1   
 23  11  12  1   
 24  11  35  1   
 25  12  13  ar  
 26  12  14  ar  
 27  13  15  ar  
 28  14  16  ar  
 29  14  36  1   
 30  15  17  1   
 31  15  18  ar  
 32  16  18  ar  
 33  16  37  1   
 34  17  19  1   
 35  17  20  1   
 36  18  38  1   
 37  19  21  1   
 38  19  39  1   
 39  19  40  1   
 40  20  22  1   
 41  20  41  1   
 42  20  42  1   
 43  21  23  1   
 44  21  24  1   
 45  21  43  1   
 46  22  24  1   
 47  22  44  1   
 48  22  45  1   
 49  23  46  1   
 50  24  47  1   
 51  24  48  1   
@<TRIPOS>SUBSTRUCTURE
  1 ****  14 GROUP 4 **** **** 0

# MOE 2024.06 (io_trps.svl 2023.06)
