@<TRIPOS>MOLECULE
NONAME
45 47 1 0 0 
SMALL
USER_CHARGES


@<TRIPOS>ATOM
  1 O       -0.2890     0.7410     0.6810 O.2   1 <1>  -0.5700 
  2 C       -0.2400     1.8180     0.1430 C.2   1 <1>   0.5690 
  3 N       -0.6330     2.9330     0.7970 N.am  1 <1>  -0.7300 
  4 C        0.2470     1.9340    -1.3050 C.3   1 <1>   0.1810 
  5 C       -0.6040     4.2890     0.1990 C.3   1 <1>   0.3640 
  6 O        0.6510     3.2440    -1.6400 O.3   1 <1>  -0.5600 
  7 C       -1.9190     5.0020     0.4910 C.ar  1 <1>  -0.1440 
  8 C       -0.3040     4.2470    -1.3200 C.3   1 <1>   0.2610 
  9 C       -1.9030     6.3430     0.8490 C.ar  1 <1>  -0.1500 
 10 C       -3.1400     4.3440     0.3990 C.ar  1 <1>  -0.1500 
 11 C        0.1220     5.6410    -1.8030 C.2   1 <1>   0.5690 
 12 C       -3.0840     7.0140     1.1170 C.ar  1 <1>  -0.1500 
 13 C       -4.3210     5.0140     0.6680 C.ar  1 <1>  -0.1500 
 14 O       -0.6530     6.2100    -2.5380 O.2   1 <1>  -0.5700 
 15 N        1.2980     6.2500    -1.4070 N.am  1 <1>  -0.6600 
 16 C       -4.2940     6.3490     1.0270 C.ar  1 <1>  -0.1500 
 17 C        1.5960     7.6560    -1.8020 C.3   1 <1>   0.1400 
 18 C        2.4300     5.5830    -0.7020 C.3   1 <1>   0.1400 
 19 C        1.9570     8.4760    -0.5600 C.3   1 <1>  -0.1600 
 20 C        2.7960     6.3790     0.5550 C.3   1 <1>  -0.1600 
 21 C        3.1240     7.8460     0.2260 C.3   1 <1>  -0.0800 
 22 C        3.4310     8.6190     1.5180 C.3   1 <1>   0.1200 
 23 O        3.7940     9.9200     1.2120 O.3   1 <1>  -0.6800 
 24 H       -0.9940     2.8490     1.7480 H     1 <1>   0.3700 
 25 H       -0.5410     1.6400    -1.9750 H     1 <1>   0.0800 
 26 H        1.0880     1.2830    -1.4530 H     1 <1>   0.0800 
 27 H        0.1830     4.8340     0.6880 H     1 <1>   0.0800 
 28 H       -1.2110     3.9940    -1.8400 H     1 <1>   0.0800 
 29 H       -0.9730     6.8810     0.9150 H     1 <1>   0.1500 
 30 H       -3.1830     3.3060     0.1180 H     1 <1>   0.1500 
 31 H       -3.0620     8.0540     1.3910 H     1 <1>   0.1500 
 32 H       -5.2620     4.4970     0.5950 H     1 <1>   0.1500 
 33 H       -5.2120     6.8710     1.2350 H     1 <1>   0.1500 
 34 H        2.4180     7.6580    -2.4980 H     1 <1>   0.0800 
 35 H        0.7490     8.1080    -2.2900 H     1 <1>   0.0800 
 36 H        2.1890     4.5760    -0.4220 H     1 <1>   0.0800 
 37 H        3.2750     5.5430    -1.3670 H     1 <1>   0.0800 
 38 H        2.2200     9.4720    -0.8700 H     1 <1>   0.0800 
 39 H        1.0880     8.5530     0.0680 H     1 <1>   0.0800 
 40 H        1.9760     6.3350     1.2490 H     1 <1>   0.0800 
 41 H        3.6460     5.9150     1.0230 H     1 <1>   0.0800 
 42 H        4.0050     7.8550    -0.3930 H     1 <1>   0.0800 
 43 H        4.2440     8.1640     2.0580 H     1 <1>   0.0800 
 44 H        2.5640     8.6610     2.1550 H     1 <1>   0.0800 
 45 H        4.5880     9.9310     0.6440 H     1 <1>   0.4000 
@<TRIPOS>BOND
  1   1   2  2   
  2   2   3  am  
  3   2   4  1   
  4   3   5  1   
  5   3  24  1   
  6   4   6  1   
  7   4  25  1   
  8   4  26  1   
  9   5   7  1   
 10   5   8  1   
 11   5  27  1   
 12   6   8  1   
 13   7   9  ar  
 14   7  10  ar  
 15   8  11  1   
 16   8  28  1   
 17   9  12  ar  
 18   9  29  1   
 19  10  13  ar  
 20  10  30  1   
 21  11  14  2   
 22  11  15  am  
 23  12  16  ar  
 24  12  31  1   
 25  13  16  ar  
 26  13  32  1   
 27  15  17  1   
 28  15  18  1   
 29  16  33  1   
 30  17  19  1   
 31  17  34  1   
 32  17  35  1   
 33  18  20  1   
 34  18  36  1   
 35  18  37  1   
 36  19  21  1   
 37  19  38  1   
 38  19  39  1   
 39  20  21  1   
 40  20  40  1   
 41  20  41  1   
 42  21  22  1   
 43  21  42  1   
 44  22  23  1   
 45  22  43  1   
 46  22  44  1   
 47  23  45  1   
@<TRIPOS>SUBSTRUCTURE
  1 ****   5 GROUP 4 **** **** 0

# MOE 2024.06 (io_trps.svl 2023.06)
