@<TRIPOS>MOLECULE
NONAME
59 62 1 0 0 
SMALL
USER_CHARGES


@<TRIPOS>ATOM
  1 O        0.0910    -0.3940    -1.0980 O.3   1 <1>  -0.5600 
  2 C        1.1730     0.2220    -1.7360 C.3   1 <1>   0.1200 
  3 C        0.3720    -1.6250    -0.4890 C.3   1 <1>   0.1200 
  4 C        2.3330     0.4540    -0.7410 C.3   1 <1>   0.4230 
  5 C        1.4920    -1.4680     0.5680 C.3   1 <1>   0.4230 
  6 N        2.7090    -0.8280    -0.0320 N.4   1 <1>  -0.9590 
  7 C        3.5580     1.1030    -1.4380 C.3   1 <1>   0.1100 
  8 C        1.8600    -2.7920     1.2560 C.3   1 <1>  -0.1600 
  9 C        3.5460    -1.7070    -0.9220 C.3   1 <1>   0.3430 
 10 N        4.8360     0.4590    -1.0380 N.3   1 <1>  -0.8100 
 11 C        0.7440    -3.3010     2.1830 C.3   1 <1>  -0.1600 
 12 C        4.8270    -0.9770    -1.4010 C.3   1 <1>   0.1100 
 13 C        6.0230     1.1560    -1.5720 C.3   1 <1>   0.2530 
 14 C        1.1810    -4.5750     2.9120 C.3   1 <1>  -0.2400 
 15 C        6.0960     2.5630    -1.0100 C.ar  1 <1>  -0.1440 
 16 C        6.0650     2.7920     0.3440 C.ar  1 <1>   0.1600 
 17 C        6.1810     3.6690    -1.8210 C.ar  1 <1>   0.1600 
 18 N        6.1030     3.9970     0.8540 N.ar  1 <1>  -0.6200 
 19 N        6.2240     4.8870    -1.3420 N.ar  1 <1>  -0.6200 
 20 C        6.2080     5.0100    -0.0110 C.ar  1 <1>   0.6200 
 21 C        6.2720     6.3480     0.5280 C.ar  1 <1>   0.0000 
 22 C        7.4450     6.8510     1.1040 C.ar  1 <1>   0.0820 
 23 C        5.1520     7.1780     0.4830 C.ar  1 <1>  -0.1500 
 24 O        8.5330     6.0400     1.1240 O.3   1 <1>  -0.3630 
 25 C        7.4710     8.1430     1.6250 C.ar  1 <1>  -0.1500 
 26 C        5.1820     8.4590     0.9990 C.ar  1 <1>  -0.1500 
 27 C        9.7410     6.4060     1.7480 C.3   1 <1>   0.0400 
 28 C        6.3440     8.9420     1.5730 C.ar  1 <1>  -0.1500 
 29 H        1.4810    -0.3940    -2.5620 H     1 <1>   0.0800 
 30 H        0.8250     1.1640    -2.1240 H     1 <1>   0.0800 
 31 H       -0.5370    -1.9620    -0.0230 H     1 <1>   0.0800 
 32 H        0.6470    -2.3340    -1.2500 H     1 <1>   0.0800 
 33 H        1.9760     1.1580    -0.0060 H     1 <1>   0.0800 
 34 H        1.1090    -0.8080     1.3300 H     1 <1>   0.0800 
 35 H        3.3470    -0.5240     0.7150 H     1 <1>   0.4500 
 36 H        3.5680     2.1480    -1.1760 H     1 <1>   0.0800 
 37 H        3.4490     1.0470    -2.5080 H     1 <1>   0.0800 
 38 H        2.0650    -3.5500     0.5210 H     1 <1>   0.0800 
 39 H        2.7430    -2.6420     1.8530 H     1 <1>   0.0800 
 40 H        3.8370    -2.6010    -0.3970 H     1 <1>   0.0800 
 41 H        2.9700    -2.0080    -1.7820 H     1 <1>   0.0800 
 42 H        0.5010    -2.5490     2.9150 H     1 <1>   0.0800 
 43 H       -0.1480    -3.5190     1.6200 H     1 <1>   0.0800 
 44 H        4.9140    -1.0900    -2.4690 H     1 <1>   0.0800 
 45 H        5.6830    -1.4570    -0.9570 H     1 <1>   0.0800 
 46 H        6.9150     0.6250    -1.2800 H     1 <1>   0.0800 
 47 H        5.9850     1.1830    -2.6480 H     1 <1>   0.0800 
 48 H        2.0510    -4.3900     3.5180 H     1 <1>   0.0800 
 49 H        1.4070    -5.3590     2.2100 H     1 <1>   0.0800 
 50 H        0.3900    -4.9180     3.5560 H     1 <1>   0.0800 
 51 H        6.0010     1.9610     1.0270 H     1 <1>   0.1500 
 52 H        6.2120     3.5590    -2.8920 H     1 <1>   0.1500 
 53 H        4.2480     6.8050     0.0350 H     1 <1>   0.1500 
 54 H        8.3590     8.5450     2.0720 H     1 <1>   0.1500 
 55 H        4.3040     9.0800     0.9550 H     1 <1>   0.1500 
 56 H       10.4260     5.5830     1.6550 H     1 <1>   0.0800 
 57 H        9.5490     6.6060     2.7870 H     1 <1>   0.0800 
 58 H       10.1410     7.2730     1.2530 H     1 <1>   0.0800 
 59 H        6.3690     9.9400     1.9760 H     1 <1>   0.1500 
@<TRIPOS>BOND
  1   1   2  1   
  2   1   3  1   
  3   2   4  1   
  4   2  29  1   
  5   2  30  1   
  6   3   5  1   
  7   3  31  1   
  8   3  32  1   
  9   4   6  1   
 10   4   7  1   
 11   4  33  1   
 12   5   6  1   
 13   5   8  1   
 14   5  34  1   
 15   6   9  1   
 16   6  35  1   
 17   7  10  1   
 18   7  36  1   
 19   7  37  1   
 20   8  11  1   
 21   8  38  1   
 22   8  39  1   
 23   9  12  1   
 24   9  40  1   
 25   9  41  1   
 26  10  12  1   
 27  10  13  1   
 28  11  14  1   
 29  11  42  1   
 30  11  43  1   
 31  12  44  1   
 32  12  45  1   
 33  13  15  1   
 34  13  46  1   
 35  13  47  1   
 36  14  48  1   
 37  14  49  1   
 38  14  50  1   
 39  15  16  ar  
 40  15  17  ar  
 41  16  18  ar  
 42  16  51  1   
 43  17  19  ar  
 44  17  52  1   
 45  18  20  ar  
 46  19  20  ar  
 47  20  21  1   
 48  21  22  ar  
 49  21  23  ar  
 50  22  24  1   
 51  22  25  ar  
 52  23  26  ar  
 53  23  53  1   
 54  24  27  1   
 55  25  28  ar  
 56  25  54  1   
 57  26  28  ar  
 58  26  55  1   
 59  27  56  1   
 60  27  57  1   
 61  27  58  1   
 62  28  59  1   
@<TRIPOS>SUBSTRUCTURE
  1 ****  16 GROUP 4 **** **** 0

# MOE 2024.06 (io_trps.svl 2023.06)
