@<TRIPOS>MOLECULE
NONAME
67 71 1 0 0 
SMALL
USER_CHARGES


@<TRIPOS>ATOM
  1 O       -1.5380     0.1310    -1.5480 O.2   1 <1>  -0.5700 
  2 C       -1.5960     0.3510    -0.3640 C.2   1 <1>   0.5690 
  3 N       -1.7000    -0.6460     0.5450 N.am  1 <1>  -0.7300 
  4 C       -1.5620     1.7880     0.1190 C.3   1 <1>  -0.0990 
  5 C       -1.7250    -2.0950     0.2230 C.3   1 <1>   0.2200 
  6 C       -0.1360     2.3750     0.1990 C.3   1 <1>  -0.0800 
  7 C       -3.1400    -2.6600     0.2900 C.3   1 <1>  -0.0800 
  8 C       -1.0780    -2.8520     1.3730 C.3   1 <1>   0.1200 
  9 C       -0.1790     3.7980     0.7840 C.3   1 <1>  -0.1600 
 10 C        0.5550     2.4010    -1.1780 C.3   1 <1>  -0.1600 
 11 C       -3.3290    -2.9140     1.7920 C.3   1 <1>   0.1200 
 12 C       -4.2320    -1.7830    -0.3580 C.3   1 <1>  -0.0160 
 13 O       -2.0540    -2.8890     2.3690 O.3   1 <1>  -0.5600 
 14 C        1.1970     4.4660     0.7890 C.3   1 <1>   0.3430 
 15 C        1.9140     3.0990    -1.1400 C.3   1 <1>   0.3430 
 16 C       -5.6470    -2.3720    -0.4130 C.ar  1 <1>  -0.1440 
 17 N        1.7540     4.4730    -0.5940 N.4   1 <1>  -0.9590 
 18 C       -6.7270    -1.5570    -0.8340 C.ar  1 <1>   0.0000 
 19 C       -5.9430    -3.6650    -0.0810 C.ar  1 <1>  -0.1500 
 20 C        3.0230     5.2460    -0.6750 C.3   1 <1>   0.4860 
 21 C       -8.0250    -2.1230    -0.8450 C.ar  1 <1>   0.3100 
 22 C       -6.5940    -0.2110    -1.2540 C.ar  1 <1>  -0.1500 
 23 C       -7.2630    -4.1290    -0.1360 C.ar  1 <1>   0.1600 
 24 C        2.7260     6.6940    -0.3380 C.ar  1 <1>  -0.1440 
 25 N       -8.2760    -3.4080    -0.4920 N.ar  1 <1>  -0.6200 
 26 C       -9.1140    -1.3290    -1.2420 C.ar  1 <1>  -0.1500 
 27 C       -7.6750     0.5340    -1.6390 C.ar  1 <1>  -0.1500 
 28 C        3.1230     7.2230     0.8820 C.ar  1 <1>  -0.1500 
 29 C        2.0500     7.5000    -1.2440 C.ar  1 <1>  -0.1500 
 30 C       -8.9530    -0.0280    -1.6310 C.ar  1 <1>  -0.1500 
 31 C        2.8340     8.5380     1.1980 C.ar  1 <1>  -0.1500 
 32 C        1.7610     8.8150    -0.9250 C.ar  1 <1>  -0.1500 
 33 C        2.1510     9.3340     0.2960 C.ar  1 <1>  -0.1500 
 34 H       -1.8200    -0.4540     1.5420 H     1 <1>   0.3700 
 35 H       -2.1620     2.3760    -0.5530 H     1 <1>   0.0800 
 36 H       -2.0280     1.8340     1.0870 H     1 <1>   0.0800 
 37 H       -1.2430    -2.2860    -0.7210 H     1 <1>   0.0800 
 38 H        0.4460     1.7520     0.8600 H     1 <1>   0.0800 
 39 H       -3.1230    -3.6100    -0.2130 H     1 <1>   0.0800 
 40 H       -0.1910    -2.3720     1.7480 H     1 <1>   0.0800 
 41 H       -0.8540    -3.8660     1.0890 H     1 <1>   0.0800 
 42 H       -0.5440     3.7590     1.7960 H     1 <1>   0.0800 
 43 H       -0.8610     4.4120     0.2210 H     1 <1>   0.0800 
 44 H       -0.0750     2.8890    -1.9020 H     1 <1>   0.0800 
 45 H        0.7130     1.3940    -1.5250 H     1 <1>   0.0800 
 46 H       -3.7760    -3.8730     1.9890 H     1 <1>   0.0800 
 47 H       -3.9140    -2.1400     2.2570 H     1 <1>   0.0800 
 48 H       -3.9270    -1.5510    -1.3640 H     1 <1>   0.0800 
 49 H       -4.2850    -0.8570     0.1870 H     1 <1>   0.0800 
 50 H        1.8590     3.9280     1.4480 H     1 <1>   0.0800 
 51 H        1.0990     5.4760     1.1560 H     1 <1>   0.0800 
 52 H        2.3220     3.1390    -2.1380 H     1 <1>   0.0800 
 53 H        2.5900     2.5340    -0.5180 H     1 <1>   0.0800 
 54 H        1.0740     4.9750    -1.1790 H     1 <1>   0.4500 
 55 H       -5.2000    -4.3720     0.2290 H     1 <1>   0.1500 
 56 H        3.7500     4.8470     0.0130 H     1 <1>   0.0800 
 57 H        3.4280     5.1920    -1.6720 H     1 <1>   0.0800 
 58 H       -5.6210     0.2430    -1.2800 H     1 <1>   0.1500 
 59 H       -7.4470    -5.1540     0.1380 H     1 <1>   0.1500 
 60 H      -10.0860    -1.7860    -1.2310 H     1 <1>   0.1500 
 61 H       -7.5560     1.5570    -1.9540 H     1 <1>   0.1500 
 62 H        3.6610     6.6260     1.5990 H     1 <1>   0.1500 
 63 H        1.7420     7.1230    -2.2050 H     1 <1>   0.1500 
 64 H       -9.7960     0.5680    -1.9340 H     1 <1>   0.1500 
 65 H        3.1410     8.9490     2.1450 H     1 <1>   0.1500 
 66 H        1.2360     9.4410    -1.6270 H     1 <1>   0.1500 
 67 H        1.9270    10.3580     0.5420 H     1 <1>   0.1500 
@<TRIPOS>BOND
  1   1   2  2   
  2   2   3  am  
  3   2   4  1   
  4   3   5  1   
  5   3  34  1   
  6   4   6  1   
  7   4  35  1   
  8   4  36  1   
  9   5   7  1   
 10   5   8  1   
 11   5  37  1   
 12   6   9  1   
 13   6  10  1   
 14   6  38  1   
 15   7  11  1   
 16   7  12  1   
 17   7  39  1   
 18   8  13  1   
 19   8  40  1   
 20   8  41  1   
 21   9  14  1   
 22   9  42  1   
 23   9  43  1   
 24  10  15  1   
 25  10  44  1   
 26  10  45  1   
 27  11  13  1   
 28  11  46  1   
 29  11  47  1   
 30  12  16  1   
 31  12  48  1   
 32  12  49  1   
 33  14  17  1   
 34  14  50  1   
 35  14  51  1   
 36  15  17  1   
 37  15  52  1   
 38  15  53  1   
 39  16  18  ar  
 40  16  19  ar  
 41  17  20  1   
 42  17  54  1   
 43  18  21  ar  
 44  18  22  ar  
 45  19  23  ar  
 46  19  55  1   
 47  20  24  1   
 48  20  56  1   
 49  20  57  1   
 50  21  25  ar  
 51  21  26  ar  
 52  22  27  ar  
 53  22  58  1   
 54  23  25  ar  
 55  23  59  1   
 56  24  28  ar  
 57  24  29  ar  
 58  26  30  ar  
 59  26  60  1   
 60  27  30  ar  
 61  27  61  1   
 62  28  31  ar  
 63  28  62  1   
 64  29  32  ar  
 65  29  63  1   
 66  30  64  1   
 67  31  33  ar  
 68  31  65  1   
 69  32  33  ar  
 70  32  66  1   
 71  33  67  1   
@<TRIPOS>SUBSTRUCTURE
  1 ****   4 GROUP 4 **** **** 0

# MOE 2024.06 (io_trps.svl 2023.06)
