@<TRIPOS>MOLECULE
NONAME
29 30 1 0 0 
SMALL
USER_CHARGES


@<TRIPOS>ATOM
  1 O       -0.0080    -0.0440     0.0320 O.2   1 <1>  -0.5780 
  2 C        1.0520    -0.6340     0.0070 C.2   1 <1>   0.9940 
  3 N        2.1960     0.1000     0.0380 N.pl3 1 <1>  -0.7360 
  4 C        1.1720    -2.0680    -0.0520 C.2   1 <1>   0.0410 
  5 C        2.3380     1.4190     0.0930 C.cat 1 <1>   1.0670 
  6 O        2.3850    -2.6130    -0.0750 O.3   1 <1>  -0.2920 
  7 C        0.2520    -3.0550    -0.0930 C.2   1 <1>   0.0320 
  8 N        1.3650     2.3090     0.1300 N.pl3 1 <1>  -0.7070 
  9 N        3.5160     2.0440     0.1190 N.pl3 1 <1>  -0.7700 
 10 C        2.1040    -3.9000    -0.1290 C.2   1 <1>   0.2870 
 11 N        0.8680    -4.2260    -0.1420 N.2   1 <1>  -0.5740 
 12 C       -1.2650    -3.0180    -0.0910 C.3   1 <1>  -0.0730 
 13 C        1.9160     3.5660     0.1820 C.2   1 <1>   0.1870 
 14 C        3.2520     3.4040     0.1760 C.2   1 <1>   0.1870 
 15 C        4.8990     1.4960     0.0970 C.3   1 <1>   0.2620 
 16 C        3.2530    -4.8800    -0.1700 C.3   1 <1>  -0.0740 
 17 H        3.0330    -0.4670     0.0150 H     1 <1>   0.4400 
 18 H        0.3750     2.0350     0.1180 H     1 <1>   0.4400 
 19 H       -1.6390    -2.0130    -0.0490 H     1 <1>   0.0660 
 20 H       -1.6370    -3.5610     0.7590 H     1 <1>   0.0660 
 21 H       -1.6370    -3.4880    -0.9840 H     1 <1>   0.0660 
 22 H        1.3290     4.4710     0.2190 H     1 <1>   0.1370 
 23 H        4.0260     4.1560     0.2070 H     1 <1>   0.1370 
 24 H        4.8910     0.4220     0.0530 H     1 <1>   0.0660 
 25 H        5.4260     1.8010     0.9860 H     1 <1>   0.0660 
 26 H        5.4260     1.8730    -0.7640 H     1 <1>   0.0660 
 27 H        3.8570    -4.6990    -1.0390 H     1 <1>   0.0660 
 28 H        2.8750    -5.8860    -0.2110 H     1 <1>   0.0660 
 29 H        3.8570    -4.7720     0.7120 H     1 <1>   0.0660 
@<TRIPOS>BOND
  1   1   2  2   
  2   2   3  1   
  3   2   4  1   
  4   3   5  ar  
  5   3  17  1   
  6   4   6  1   
  7   4   7  2   
  8   5   8  ar  
  9   5   9  ar  
 10   6  10  1   
 11   7  11  1   
 12   7  12  1   
 13   8  13  1   
 14   8  18  1   
 15   9  14  1   
 16   9  15  1   
 17  10  11  2   
 18  10  16  1   
 19  12  19  1   
 20  12  20  1   
 21  12  21  1   
 22  13  14  2   
 23  13  22  1   
 24  14  23  1   
 25  15  24  1   
 26  15  25  1   
 27  15  26  1   
 28  16  27  1   
 29  16  28  1   
 30  16  29  1   
@<TRIPOS>SUBSTRUCTURE
  1 ****   2 GROUP 4 **** **** 0

# MOE 2024.06 (io_trps.svl 2023.06)
