@<TRIPOS>MOLECULE
NONAME
33 34 1 0 0 
SMALL
USER_CHARGES


@<TRIPOS>ATOM
  1 O       -0.8880    -0.0440    -1.6090 O.2   1 <1>  -0.5700 
  2 C       -1.5930     0.3800    -0.7310 C.2   1 <1>   0.4230 
  3 C       -2.8670    -0.2040    -0.4170 C.ar  1 <1>   0.0860 
  4 C       -1.0390     1.5290     0.0880 C.3   1 <1>  -0.1790 
  5 C       -4.0450     0.4870    -0.1320 C.ar  1 <1>   0.1660 
  6 C       -2.9810    -1.5850    -0.3820 C.ar  1 <1>   0.1600 
  7 N       -5.1520    -0.1240     0.2060 N.ar  1 <1>  -0.6200 
  8 C       -4.1520     2.0010    -0.2180 C.3   1 <1>  -0.0960 
  9 N       -4.0790    -2.2180    -0.0560 N.ar  1 <1>  -0.6200 
 10 C       -5.1180    -1.4470     0.2380 C.ar  1 <1>   0.7200 
 11 N       -6.2740    -2.0320     0.5960 N.pl3 1 <1>  -0.8690 
 12 C       -6.5260    -3.4830     0.7620 C.3   1 <1>   0.2090 
 13 C       -7.0080    -4.0830    -0.5580 C.3   1 <1>   0.0210 
 14 C       -7.3420    -5.5530    -0.3810 C.2   1 <1>  -0.1810 
 15 C       -8.4870    -6.0830     0.2080 C.2   1 <1>   0.1390 
 16 C       -6.6160    -6.6290    -0.7470 C.2   1 <1>  -0.3020 
 17 N       -8.4790    -7.3810     0.2160 N.2   1 <1>  -0.7070 
 18 N       -7.3190    -7.7180    -0.3780 N.pl3 1 <1>   0.3000 
 19 H       -1.5330     1.5970     1.0390 H     1 <1>   0.0800 
 20 H       -1.1550     2.4510    -0.4500 H     1 <1>   0.0800 
 21 H        0.0100     1.3670     0.2610 H     1 <1>   0.0800 
 22 H       -2.1160    -2.1770    -0.6300 H     1 <1>   0.1500 
 23 H       -3.5420     2.3860    -1.0140 H     1 <1>   0.0800 
 24 H       -3.8560     2.4440     0.7150 H     1 <1>   0.0800 
 25 H       -5.1700     2.2860    -0.4180 H     1 <1>   0.0800 
 26 H       -7.0390    -1.3880     0.7870 H     1 <1>   0.4000 
 27 H       -7.2680    -3.6290     1.5270 H     1 <1>   0.0800 
 28 H       -5.6220    -3.9800     1.0730 H     1 <1>   0.0800 
 29 H       -6.2310    -3.9810    -1.2950 H     1 <1>   0.0800 
 30 H       -7.8810    -3.5580    -0.9020 H     1 <1>   0.0800 
 31 H       -9.2940    -5.4960     0.6140 H     1 <1>   0.1500 
 32 H       -5.6600    -6.6810    -1.2360 H     1 <1>   0.1500 
 33 H       -7.0390    -8.6970    -0.5150 H     1 <1>   0.2700 
@<TRIPOS>BOND
  1   1   2  2   
  2   2   3  1   
  3   2   4  1   
  4   3   5  ar  
  5   3   6  ar  
  6   4  19  1   
  7   4  20  1   
  8   4  21  1   
  9   5   7  ar  
 10   5   8  1   
 11   6   9  ar  
 12   6  22  1   
 13   7  10  ar  
 14   8  23  1   
 15   8  24  1   
 16   8  25  1   
 17   9  10  ar  
 18  10  11  1   
 19  11  12  1   
 20  11  26  1   
 21  12  13  1   
 22  12  27  1   
 23  12  28  1   
 24  13  14  1   
 25  13  29  1   
 26  13  30  1   
 27  14  15  1   
 28  14  16  2   
 29  15  17  2   
 30  15  31  1   
 31  16  18  1   
 32  16  32  1   
 33  17  18  1   
 34  18  33  1   
@<TRIPOS>SUBSTRUCTURE
  1 ****   9 GROUP 4 **** **** 0

# MOE 2024.06 (io_trps.svl 2023.06)
