@<TRIPOS>MOLECULE
NONAME
35 37 1 0 0 
SMALL
USER_CHARGES


@<TRIPOS>ATOM
  1 S       -1.3710     0.8630     0.8090 S.3   1 <1>  -0.0800 
  2 C       -0.4950     2.2720     0.2510 C.2   1 <1>  -0.1400 
  3 C        0.0360     0.3230     1.7130 C.2   1 <1>  -0.1100 
  4 C        0.7620     2.2970     0.7140 C.2   1 <1>  -0.1810 
  5 C       -1.1250     3.3120    -0.6390 C.3   1 <1>   0.0200 
  6 C        1.0660     1.1790     1.5630 C.2   1 <1>  -0.1500 
  7 C        1.7080     3.4370     0.3370 C.3   1 <1>   0.4610 
  8 C       -0.2340     4.5640    -0.5870 C.3   1 <1>   0.1200 
  9 O        1.1270     4.2170    -0.6920 O.3   1 <1>  -0.5600 
 10 C        2.0170     4.3280     1.5460 C.3   1 <1>  -0.1600 
 11 C        3.0230     2.9050    -0.2450 C.3   1 <1>  -0.1600 
 12 C        2.9230     5.5120     1.2000 C.3   1 <1>   0.3430 
 13 C        4.1180     3.9700    -0.3840 C.3   1 <1>   0.3430 
 14 N        3.5850     5.3250    -0.1220 N.4   1 <1>  -0.9590 
 15 C        4.5470     6.4680    -0.4120 C.3   1 <1>   0.2370 
 16 C        3.9070     7.8610    -0.3540 C.2   1 <1>   0.9060 
 17 O        2.6930     7.9400    -0.5830 O.co2 1 <1>  -0.9000 
 18 O        4.6010     8.8170    -0.0110 O.co2 1 <1>  -0.9000 
 19 H       -0.0610    -0.5920     2.2690 H     1 <1>   0.1500 
 20 H       -2.1140     3.5540    -0.2950 H     1 <1>   0.0800 
 21 H       -1.1900     2.9430    -1.6470 H     1 <1>   0.0800 
 22 H        2.0300     1.0610     2.0230 H     1 <1>   0.1500 
 23 H       -0.3840     5.0970     0.3350 H     1 <1>   0.0800 
 24 H       -0.4710     5.2250    -1.4040 H     1 <1>   0.0800 
 25 H        2.5080     3.7340     2.2940 H     1 <1>   0.0800 
 26 H        1.1080     4.6860     1.9920 H     1 <1>   0.0800 
 27 H        2.8250     2.4590    -1.2030 H     1 <1>   0.0800 
 28 H        3.4090     2.1250     0.3840 H     1 <1>   0.0800 
 29 H        3.6640     5.6440     1.9710 H     1 <1>   0.0800 
 30 H        2.3250     6.4100     1.1590 H     1 <1>   0.0800 
 31 H        4.5280     3.9300    -1.3800 H     1 <1>   0.0800 
 32 H        4.9120     3.7630     0.3150 H     1 <1>   0.0800 
 33 H        2.7930     5.4850    -0.7820 H     1 <1>   0.4500 
 34 H        4.9580     6.3550    -1.3980 H     1 <1>   0.0800 
 35 H        5.3560     6.4590     0.2950 H     1 <1>   0.0800 
@<TRIPOS>BOND
  1   1   2  1   
  2   1   3  1   
  3   2   4  2   
  4   2   5  1   
  5   3   6  2   
  6   3  19  1   
  7   4   6  1   
  8   4   7  1   
  9   5   8  1   
 10   5  20  1   
 11   5  21  1   
 12   6  22  1   
 13   7   9  1   
 14   7  10  1   
 15   7  11  1   
 16   8   9  1   
 17   8  23  1   
 18   8  24  1   
 19  10  12  1   
 20  10  25  1   
 21  10  26  1   
 22  11  13  1   
 23  11  27  1   
 24  11  28  1   
 25  12  14  1   
 26  12  29  1   
 27  12  30  1   
 28  13  14  1   
 29  13  31  1   
 30  13  32  1   
 31  14  15  1   
 32  14  33  1   
 33  15  16  1   
 34  15  34  1   
 35  15  35  1   
 36  16  17  ar  
 37  16  18  ar  
@<TRIPOS>SUBSTRUCTURE
  1 ****   7 GROUP 4 **** **** 0

# MOE 2024.06 (io_trps.svl 2023.06)
