@<TRIPOS>MOLECULE
NONAME
51 53 1 0 0 
SMALL
USER_CHARGES


@<TRIPOS>ATOM
  1 S       -0.3420     0.7710    -0.6650 S.o2  1 <1>   1.0900 
  2 O       -1.6670     1.2700    -0.9500 O.2   1 <1>  -0.6500 
  3 O       -0.1560    -0.6060    -0.2680 O.2   1 <1>  -0.6500 
  4 C        0.6820     1.0860    -2.0890 C.3   1 <1>  -0.0550 
  5 C        0.3960     1.7950     0.5950 C.3   1 <1>  -0.0550 
  6 C        2.1150     1.3490    -1.6470 C.3   1 <1>   0.1100 
  7 C        1.0770     3.0040    -0.0320 C.3   1 <1>   0.1100 
  8 N        2.2230     2.6140    -0.8920 N.3   1 <1>  -0.8100 
  9 C        3.5300     2.7150    -0.2110 C.3   1 <1>   0.2530 
 10 C        3.8320     4.1490     0.2070 C.ar  1 <1>  -0.1430 
 11 C        4.2110     4.4400     1.5080 C.ar  1 <1>  -0.1500 
 12 C        3.7360     5.1840    -0.7080 C.ar  1 <1>  -0.1500 
 13 C        4.4890     5.7430     1.8790 C.ar  1 <1>  -0.1500 
 14 C        4.0140     6.4850    -0.3310 C.ar  1 <1>  -0.1500 
 15 C        4.4040     6.8000     0.9730 C.ar  1 <1>   0.0860 
 16 C        4.7090     8.1610     1.3850 C.2   1 <1>   0.5440 
 17 O        4.6510     8.4900     2.5540 O.2   1 <1>  -0.5700 
 18 N        5.0640     9.1120     0.4720 N.am  1 <1>  -0.7300 
 19 C        5.3320    10.5340     0.7910 C.3   1 <1>   0.2200 
 20 C        4.0630    11.3610     0.5190 C.3   1 <1>   0.1400 
 21 C        6.3730    11.0720    -0.1950 C.3   1 <1>  -0.0990 
 22 N        4.2500    11.8380    -0.8660 N.am  1 <1>  -0.6600 
 23 C        5.5250    11.6670    -1.2840 C.2   1 <1>   0.5690 
 24 C        3.1370    12.3920    -1.6650 C.3   1 <1>   0.1400 
 25 O        5.9560    11.9340    -2.3780 O.2   1 <1>  -0.5700 
 26 C        2.7200    13.7440    -1.0950 C.3   1 <1>  -0.2400 
 27 H        0.3250     1.9410    -2.6290 H     1 <1>   0.0800 
 28 H        0.6530     0.2400    -2.7470 H     1 <1>   0.0800 
 29 H        1.1240     1.2380     1.1510 H     1 <1>   0.0800 
 30 H       -0.3620     2.1230     1.2800 H     1 <1>   0.0800 
 31 H        2.7510     1.4080    -2.5150 H     1 <1>   0.0800 
 32 H        2.4530     0.5240    -1.0400 H     1 <1>   0.0800 
 33 H        1.3960     3.6810     0.7430 H     1 <1>   0.0800 
 34 H        0.3600     3.5360    -0.6350 H     1 <1>   0.0800 
 35 H        4.3080     2.3950    -0.8830 H     1 <1>   0.0800 
 36 H        3.5420     2.0640     0.6460 H     1 <1>   0.0800 
 37 H        4.2920     3.6550     2.2400 H     1 <1>   0.1500 
 38 H        3.4340     4.9690    -1.7190 H     1 <1>   0.1500 
 39 H        4.7810     5.9530     2.8950 H     1 <1>   0.1500 
 40 H        3.9160     7.2640    -1.0650 H     1 <1>   0.1500 
 41 H        5.0770     8.8800    -0.5220 H     1 <1>   0.3700 
 42 H        5.6550    10.6290     1.8150 H     1 <1>   0.0800 
 43 H        4.0170    12.2070     1.1830 H     1 <1>   0.0800 
 44 H        3.1720    10.7650     0.6200 H     1 <1>   0.0800 
 45 H        7.0300    10.3090    -0.5700 H     1 <1>   0.0800 
 46 H        6.9470    11.8590     0.2550 H     1 <1>   0.0800 
 47 H        2.3080    11.7050    -1.6510 H     1 <1>   0.0800 
 48 H        3.4590    12.5140    -2.6870 H     1 <1>   0.0800 
 49 H        2.3470    13.6370    -0.0930 H     1 <1>   0.0800 
 50 H        1.9420    14.1660    -1.7040 H     1 <1>   0.0800 
 51 H        3.5580    14.4190    -1.0990 H     1 <1>   0.0800 
@<TRIPOS>BOND
  1   1   2  2   
  2   1   3  2   
  3   1   4  1   
  4   1   5  1   
  5   4   6  1   
  6   4  27  1   
  7   4  28  1   
  8   5   7  1   
  9   5  29  1   
 10   5  30  1   
 11   6   8  1   
 12   6  31  1   
 13   6  32  1   
 14   7   8  1   
 15   7  33  1   
 16   7  34  1   
 17   8   9  1   
 18   9  10  1   
 19   9  35  1   
 20   9  36  1   
 21  10  11  ar  
 22  10  12  ar  
 23  11  13  ar  
 24  11  37  1   
 25  12  14  ar  
 26  12  38  1   
 27  13  15  ar  
 28  13  39  1   
 29  14  15  ar  
 30  14  40  1   
 31  15  16  1   
 32  16  17  2   
 33  16  18  am  
 34  18  19  1   
 35  18  41  1   
 36  19  20  1   
 37  19  21  1   
 38  19  42  1   
 39  20  22  1   
 40  20  43  1   
 41  20  44  1   
 42  21  23  1   
 43  21  45  1   
 44  21  46  1   
 45  22  23  am  
 46  22  24  1   
 47  23  25  2   
 48  24  26  1   
 49  24  47  1   
 50  24  48  1   
 51  26  49  1   
 52  26  50  1   
 53  26  51  1   
@<TRIPOS>SUBSTRUCTURE
  1 ****  14 GROUP 4 **** **** 0

# MOE 2024.06 (io_trps.svl 2023.06)
