@<TRIPOS>MOLECULE
NONAME
46 48 1 0 0 
SMALL
USER_CHARGES


@<TRIPOS>ATOM
  1 F        1.0650    -0.1390     0.7460 F     1 <1>  -0.1900 
  2 C        0.6800    -1.3840     0.8190 C.ar  1 <1>   0.1900 
  3 C        1.2700    -2.3100    -0.0160 C.ar  1 <1>  -0.1500 
  4 C       -0.3010    -1.7230     1.7280 C.ar  1 <1>  -0.1500 
  5 C        0.8570    -3.6370     0.0600 C.ar  1 <1>   0.0830 
  6 C       -0.7090    -3.0430     1.8010 C.ar  1 <1>  -0.1500 
  7 O        1.3910    -4.6110    -0.7260 O.3   1 <1>  -0.3630 
  8 C       -0.1420    -4.0020     0.9680 C.ar  1 <1>  -0.1440 
  9 C        2.5530    -4.3700    -1.4990 C.3   1 <1>   0.0400 
 10 C       -0.6140    -5.4430     1.0840 C.3   1 <1>   0.4870 
 11 N       -0.9880    -5.9850    -0.2560 N.4   1 <1>  -0.9590 
 12 C       -2.3770    -5.7630    -0.7550 C.3   1 <1>   0.4230 
 13 C       -0.6050    -7.4230    -0.3560 C.3   1 <1>   0.2630 
 14 C       -3.4740    -6.3160     0.1530 C.3   1 <1>  -0.1600 
 15 C       -2.7660    -4.3040    -0.9550 C.3   1 <1>  -0.1600 
 16 C       -4.7550    -5.6430    -0.3620 C.3   1 <1>  -0.0800 
 17 C       -4.2970    -4.3340    -1.0550 C.3   1 <1>  -0.0800 
 18 C       -5.8400    -5.4840     0.7250 C.3   1 <1>   0.1400 
 19 C       -4.9680    -3.0560    -0.5110 C.3   1 <1>  -0.0990 
 20 N       -6.8050    -4.4480     0.3110 N.am  1 <1>  -0.7300 
 21 C       -6.4440    -3.2870    -0.2740 C.2   1 <1>   0.5690 
 22 O       -7.2580    -2.4600    -0.5910 O.2   1 <1>  -0.5700 
 23 H        2.0290    -1.9720    -0.6960 H     1 <1>   0.1500 
 24 H       -0.7290    -0.9650     2.3620 H     1 <1>   0.1500 
 25 H       -1.4720    -3.3080     2.5150 H     1 <1>   0.1500 
 26 H        2.8510    -5.2940    -1.9620 H     1 <1>   0.0800 
 27 H        3.3390    -4.0180    -0.8540 H     1 <1>   0.0800 
 28 H        2.3280    -3.6410    -2.2580 H     1 <1>   0.0800 
 29 H       -1.4420    -5.5110     1.7680 H     1 <1>   0.0800 
 30 H        0.2010    -6.0200     1.4910 H     1 <1>   0.0800 
 31 H       -0.3520    -5.4610    -0.8860 H     1 <1>   0.4500 
 32 H       -2.4770    -6.2470    -1.7140 H     1 <1>   0.0800 
 33 H       -1.1930    -8.0180     0.3240 H     1 <1>   0.0800 
 34 H        0.4390    -7.5490    -0.1130 H     1 <1>   0.0800 
 35 H       -0.7650    -7.7840    -1.3590 H     1 <1>   0.0800 
 36 H       -3.5500    -7.3870     0.0870 H     1 <1>   0.0800 
 37 H       -3.3070    -6.0240     1.1730 H     1 <1>   0.0800 
 38 H       -2.4910    -3.7120    -0.1070 H     1 <1>   0.0800 
 39 H       -2.3240    -3.8890    -1.8440 H     1 <1>   0.0800 
 40 H       -5.1750    -6.2760    -1.1280 H     1 <1>   0.0800 
 41 H       -4.5700    -4.4170    -2.0960 H     1 <1>   0.0800 
 42 H       -5.4010    -5.1790     1.6600 H     1 <1>   0.0800 
 43 H       -6.3530    -6.4190     0.8780 H     1 <1>   0.0800 
 44 H       -4.8410    -2.2440    -1.2050 H     1 <1>   0.0800 
 45 H       -4.5350    -2.7650     0.4280 H     1 <1>   0.0800 
 46 H       -7.8010    -4.5870     0.5040 H     1 <1>   0.3700 
@<TRIPOS>BOND
  1   1   2  1   
  2   2   3  ar  
  3   2   4  ar  
  4   3   5  ar  
  5   3  23  1   
  6   4   6  ar  
  7   4  24  1   
  8   5   7  1   
  9   5   8  ar  
 10   6   8  ar  
 11   6  25  1   
 12   7   9  1   
 13   8  10  1   
 14   9  26  1   
 15   9  27  1   
 16   9  28  1   
 17  10  11  1   
 18  10  29  1   
 19  10  30  1   
 20  11  12  1   
 21  11  13  1   
 22  11  31  1   
 23  12  14  1   
 24  12  15  1   
 25  12  32  1   
 26  13  33  1   
 27  13  34  1   
 28  13  35  1   
 29  14  16  1   
 30  14  36  1   
 31  14  37  1   
 32  15  17  1   
 33  15  38  1   
 34  15  39  1   
 35  16  17  1   
 36  16  18  1   
 37  16  40  1   
 38  17  19  1   
 39  17  41  1   
 40  18  20  1   
 41  18  42  1   
 42  18  43  1   
 43  19  21  1   
 44  19  44  1   
 45  19  45  1   
 46  20  21  am  
 47  20  46  1   
 48  21  22  2   
@<TRIPOS>SUBSTRUCTURE
  1 ****  15 GROUP 4 **** **** 0

# MOE 2024.06 (io_trps.svl 2023.06)
