@<TRIPOS>MOLECULE
NONAME
41 42 1 0 0 
SMALL
USER_CHARGES


@<TRIPOS>ATOM
  1 S       -0.2370     0.1890    -0.6300 S.o2  1 <1>   1.3330 
  2 O       -1.0170    -1.0200    -0.7600 O.2   1 <1>  -0.6500 
  3 O        0.0970     0.9540    -1.8110 O.2   1 <1>  -0.6500 
  4 N        1.2140    -0.2350     0.1470 N.am  1 <1>  -0.8490 
  5 C       -1.0380     1.2680     0.5660 C.3   1 <1>  -0.0550 
  6 C        1.0760    -1.3670     1.0700 C.3   1 <1>   0.1160 
  7 C        2.3020    -0.4960    -0.8000 C.3   1 <1>   0.1160 
  8 C       -0.5050     2.7130     0.6970 C.3   1 <1>  -0.0800 
  9 C       -0.9030     3.6380    -0.4570 C.3   1 <1>   0.2000 
 10 C        1.0070     2.8960     0.8190 C.3   1 <1>   0.1400 
 11 O       -2.1790     4.1280    -0.2240 O.3   1 <1>  -0.6800 
 12 C        0.1340     4.7660    -0.4640 C.3   1 <1>   0.1400 
 13 N        1.2250     4.3070     0.4350 N.am  1 <1>  -0.6600 
 14 C        2.3040     5.0630     0.8620 C.2   1 <1>   0.7160 
 15 O        3.0930     4.5180     1.6200 O.2   1 <1>  -0.5700 
 16 C        2.5400     6.4530     0.4650 C.2   1 <1>   0.2030 
 17 N        1.8090     7.2140    -0.3370 N.2   1 <1>  -0.7070 
 18 C        3.6440     7.1890     0.9220 C.2   1 <1>  -0.1500 
 19 N        2.4330     8.3990    -0.3900 N.pl3 1 <1>   0.3000 
 20 C        3.5440     8.4120     0.3630 C.2   1 <1>  -0.3320 
 21 C        4.4150     9.6430     0.4620 C.3   1 <1>   0.7800 
 22 F        3.6820    10.6570     0.8990 F     1 <1>  -0.3400 
 23 F        4.7910    10.0050    -0.7560 F     1 <1>  -0.3400 
 24 H       -2.0790     1.3330     0.3140 H     1 <1>   0.0800 
 25 H       -0.9830     0.8010     1.5290 H     1 <1>   0.0800 
 26 H        1.9980    -1.5240     1.6040 H     1 <1>   0.0800 
 27 H        0.8280    -2.2660     0.5300 H     1 <1>   0.0800 
 28 H        0.2980    -1.1710     1.7880 H     1 <1>   0.0800 
 29 H        3.2060    -0.7470    -0.2720 H     1 <1>   0.0800 
 30 H        2.4950     0.3820    -1.3940 H     1 <1>   0.0800 
 31 H        2.0380    -1.3070    -1.4590 H     1 <1>   0.0800 
 32 H       -0.9210     3.1230     1.6020 H     1 <1>   0.0800 
 33 H       -0.9050     3.1360    -1.4090 H     1 <1>   0.0800 
 34 H        1.5470     2.2810     0.1220 H     1 <1>   0.0800 
 35 H        1.3560     2.7000     1.8190 H     1 <1>   0.0800 
 36 H       -2.1800     4.7050     0.5640 H     1 <1>   0.4000 
 37 H       -0.2870     5.6830    -0.0910 H     1 <1>   0.0800 
 38 H        0.5210     4.9170    -1.4570 H     1 <1>   0.0800 
 39 H        4.3960     6.8040     1.5900 H     1 <1>   0.1500 
 40 H        2.0840     9.1890    -0.9490 H     1 <1>   0.2700 
 41 H        5.2870     9.5460     1.0850 H     1 <1>   0.0800 
@<TRIPOS>BOND
  1   1   2  2   
  2   1   3  2   
  3   1   4  am  
  4   1   5  1   
  5   4   6  1   
  6   4   7  1   
  7   5   8  1   
  8   5  24  1   
  9   5  25  1   
 10   6  26  1   
 11   6  27  1   
 12   6  28  1   
 13   7  29  1   
 14   7  30  1   
 15   7  31  1   
 16   8   9  1   
 17   8  10  1   
 18   8  32  1   
 19   9  11  1   
 20   9  12  1   
 21   9  33  1   
 22  10  13  1   
 23  10  34  1   
 24  10  35  1   
 25  11  36  1   
 26  12  13  1   
 27  12  37  1   
 28  12  38  1   
 29  13  14  am  
 30  14  15  2   
 31  14  16  1   
 32  16  17  2   
 33  16  18  1   
 34  17  19  1   
 35  18  20  2   
 36  18  39  1   
 37  19  20  1   
 38  19  40  1   
 39  20  21  1   
 40  21  22  1   
 41  21  23  1   
 42  21  41  1   
@<TRIPOS>SUBSTRUCTURE
  1 ****  13 GROUP 4 **** **** 0

# MOE 2024.06 (io_trps.svl 2023.06)
