@<TRIPOS>MOLECULE
NONAME
44 47 1 0 0 
SMALL
USER_CHARGES


@<TRIPOS>ATOM
  1 CL       2.7330     1.8540    -2.3330 Cl    1 <1>  -0.1770 
  2 C        1.5200     2.6560    -1.3590 C.ar  1 <1>   0.1770 
  3 C        1.6880     2.8420     0.0110 C.ar  1 <1>  -0.1440 
  4 C        0.3860     3.1000    -2.0150 C.ar  1 <1>  -0.1500 
  5 C        0.6790     3.4960     0.7070 C.ar  1 <1>  -0.1500 
  6 C        2.9200     2.3640     0.7790 C.3   1 <1>   0.3640 
  7 C       -0.6090     3.7460    -1.3050 C.ar  1 <1>  -0.1500 
  8 C       -0.4590     3.9440     0.0560 C.ar  1 <1>  -0.1500 
  9 N        3.0070     0.8890     0.6670 N.am  1 <1>  -0.7300 
 10 C        4.2280     3.0850     0.3480 C.3   1 <1>   0.2610 
 11 C        4.1420     0.2290     0.3480 C.2   1 <1>   0.5690 
 12 O        5.3810     2.3120     0.6610 O.3   1 <1>  -0.5600 
 13 C        4.3050     4.4570     1.0260 C.2   1 <1>   0.5690 
 14 O        4.1590    -0.9730     0.2820 O.2   1 <1>  -0.5700 
 15 C        5.4080     1.0370     0.0560 C.3   1 <1>   0.1810 
 16 O        3.4850     5.3040     0.7610 O.2   1 <1>  -0.5700 
 17 N        5.3080     4.7080     1.9030 N.am  1 <1>  -0.7300 
 18 C        5.5680     6.0020     2.5690 C.3   1 <1>   0.3200 
 19 C        6.6180     6.7730     1.7990 C.2   1 <1>   0.0070 
 20 N        7.8380     6.9680     2.1820 N.2   1 <1>  -0.3380 
 21 N        6.3930     7.3510     0.6190 N.pl3 1 <1>   0.0480 
 22 N        8.4380     7.6970     1.2300 N.2   1 <1>  -0.3380 
 23 C        7.5470     7.9010     0.3260 C.2   1 <1>   0.0060 
 24 C        5.3600     7.5680    -0.3930 C.3   1 <1>   0.0960 
 25 C        7.5210     8.6290    -0.9890 C.3   1 <1>   0.0200 
 26 C        6.0240     8.5680    -1.3670 C.3   1 <1>  -0.1600 
 27 H        0.2850     2.9390    -3.0740 H     1 <1>   0.1500 
 28 H        0.7680     3.6700     1.7670 H     1 <1>   0.1500 
 29 H        2.7710     2.5860     1.8220 H     1 <1>   0.0800 
 30 H       -1.4940     4.0950    -1.8080 H     1 <1>   0.1500 
 31 H       -1.2310     4.4500     0.6110 H     1 <1>   0.1500 
 32 H        2.1530     0.3470     0.8090 H     1 <1>   0.3700 
 33 H        4.2310     3.2520    -0.7120 H     1 <1>   0.0800 
 34 H        5.5180     1.1630    -1.0060 H     1 <1>   0.0800 
 35 H        6.2630     0.5100     0.4360 H     1 <1>   0.0800 
 36 H        6.0610     4.0150     1.9760 H     1 <1>   0.3700 
 37 H        4.6620     6.5800     2.6240 H     1 <1>   0.0800 
 38 H        5.9170     5.8220     3.5710 H     1 <1>   0.0800 
 39 H        5.1440     6.6340    -0.8800 H     1 <1>   0.0800 
 40 H        4.4700     7.9680     0.0600 H     1 <1>   0.0800 
 41 H        7.8700     9.6400    -0.8770 H     1 <1>   0.0800 
 42 H        8.1290     8.1030    -1.7040 H     1 <1>   0.0800 
 43 H        5.8840     8.2650    -2.3900 H     1 <1>   0.0800 
 44 H        5.5770     9.5370    -1.2330 H     1 <1>   0.0800 
@<TRIPOS>BOND
  1   1   2  1   
  2   2   3  ar  
  3   2   4  ar  
  4   3   5  ar  
  5   3   6  1   
  6   4   7  ar  
  7   4  27  1   
  8   5   8  ar  
  9   5  28  1   
 10   6   9  1   
 11   6  10  1   
 12   6  29  1   
 13   7   8  ar  
 14   7  30  1   
 15   8  31  1   
 16   9  11  am  
 17   9  32  1   
 18  10  12  1   
 19  10  13  1   
 20  10  33  1   
 21  11  14  2   
 22  11  15  1   
 23  12  15  1   
 24  13  16  2   
 25  13  17  am  
 26  15  34  1   
 27  15  35  1   
 28  17  18  1   
 29  17  36  1   
 30  18  19  1   
 31  18  37  1   
 32  18  38  1   
 33  19  20  2   
 34  19  21  1   
 35  20  22  1   
 36  21  23  1   
 37  21  24  1   
 38  22  23  2   
 39  23  25  1   
 40  24  26  1   
 41  24  39  1   
 42  24  40  1   
 43  25  26  1   
 44  25  41  1   
 45  25  42  1   
 46  26  43  1   
 47  26  44  1   
@<TRIPOS>SUBSTRUCTURE
  1 ****  13 GROUP 4 **** **** 0

# MOE 2024.06 (io_trps.svl 2023.06)
