@<TRIPOS>MOLECULE
NONAME
47 50 1 0 0 
SMALL
USER_CHARGES


@<TRIPOS>ATOM
  1 O       -2.3720     1.6910     1.0520 O.co2 1 <1>  -0.9000 
  2 C       -3.5550     1.4590     0.7280 C.2   1 <1>   0.9790 
  3 O       -4.1710     2.3690     0.1330 O.co2 1 <1>  -0.9000 
  4 C       -4.1660     0.1600     1.0450 C.ar  1 <1>   0.1310 
  5 N       -5.4350    -0.1390     0.7010 N.ar  1 <1>  -0.6200 
  6 C       -3.3760    -0.7740     1.7220 C.ar  1 <1>   0.1600 
  7 C       -5.8350    -1.3470     1.0470 C.ar  1 <1>   0.4100 
  8 N       -3.7540    -1.9950     2.0870 N.ar  1 <1>  -0.6200 
  9 N       -7.1270    -1.7060     0.6830 N.pl3 1 <1>  -0.8380 
 10 C       -4.9980    -2.2390     1.7290 C.ar  1 <1>   0.1600 
 11 C       -8.2060    -0.6690     0.8710 C.3   1 <1>   0.2090 
 12 C       -7.2370    -2.5430    -0.5430 C.3   1 <1>   0.2090 
 13 C       -8.8600    -0.2120    -0.4520 C.3   1 <1>   0.1440 
 14 C       -8.7060    -2.7470    -0.9360 C.3   1 <1>  -0.1600 
 15 C       -9.8740     0.8650    -0.0960 C.ar  1 <1>   0.1670 
 16 C       -9.4680    -1.4290    -1.1960 C.3   1 <1>  -0.1600 
 17 C       -7.8830     0.5970    -1.3520 C.3   1 <1>  -0.1600 
 18 N      -11.0790     0.6640     0.3820 N.ar  1 <1>  -0.6200 
 19 C       -9.3620     2.1110    -0.3110 C.ar  1 <1>  -0.1430 
 20 C       -7.9580     2.0500    -0.8650 C.3   1 <1>  -0.0170 
 21 C      -11.7820     1.7700     0.6410 C.ar  1 <1>   0.7200 
 22 C      -10.1530     3.1880    -0.0070 C.ar  1 <1>   0.1600 
 23 N      -11.3670     3.0300     0.4680 N.ar  1 <1>  -0.6200 
 24 N      -13.0600     1.5940     1.1360 N.pl3 1 <1>  -0.8380 
 25 C      -13.8270     2.7090     1.7570 C.3   1 <1>   0.1290 
 26 C      -13.7530     0.2770     1.0870 C.3   1 <1>   0.1290 
 27 H       -2.3680    -0.4890     1.9760 H     1 <1>   0.1500 
 28 H       -5.4110    -3.1970     1.9780 H     1 <1>   0.1500 
 29 H       -7.8130     0.1880     1.3910 H     1 <1>   0.0800 
 30 H       -8.9710    -1.0910     1.4990 H     1 <1>   0.0800 
 31 H       -6.7780    -3.4990    -0.3580 H     1 <1>   0.0800 
 32 H       -6.7030    -2.0680    -1.3490 H     1 <1>   0.0800 
 33 H       -9.1860    -3.2790    -0.1330 H     1 <1>   0.0800 
 34 H       -8.7590    -3.3700    -1.8100 H     1 <1>   0.0800 
 35 H       -9.5070    -1.2320    -2.2520 H     1 <1>   0.0800 
 36 H      -10.4850    -1.5740    -0.8740 H     1 <1>   0.0800 
 37 H       -8.2290     0.5800    -2.3690 H     1 <1>   0.0800 
 38 H       -6.8750     0.2300    -1.3430 H     1 <1>   0.0800 
 39 H       -7.7980     2.7480    -1.6670 H     1 <1>   0.0800 
 40 H       -7.2350     2.2220    -0.0840 H     1 <1>   0.0800 
 41 H       -9.7840     4.1880    -0.1560 H     1 <1>   0.1500 
 42 H      -13.1570     3.4260     2.2000 H     1 <1>   0.0800 
 43 H      -14.4730     2.3300     2.5290 H     1 <1>   0.0800 
 44 H      -14.4180     3.2010     1.0050 H     1 <1>   0.0800 
 45 H      -13.4100    -0.2980     0.2440 H     1 <1>   0.0800 
 46 H      -14.8150     0.4210     0.9880 H     1 <1>   0.0800 
 47 H      -13.5490    -0.2700     1.9900 H     1 <1>   0.0800 
@<TRIPOS>BOND
  1   1   2  ar  
  2   2   3  ar  
  3   2   4  1   
  4   4   5  ar  
  5   4   6  ar  
  6   5   7  ar  
  7   6   8  ar  
  8   6  27  1   
  9   7   9  1   
 10   7  10  ar  
 11   8  10  ar  
 12   9  11  1   
 13   9  12  1   
 14  10  28  1   
 15  11  13  1   
 16  11  29  1   
 17  11  30  1   
 18  12  14  1   
 19  12  31  1   
 20  12  32  1   
 21  13  15  1   
 22  13  16  1   
 23  13  17  1   
 24  14  16  1   
 25  14  33  1   
 26  14  34  1   
 27  15  18  ar  
 28  15  19  ar  
 29  16  35  1   
 30  16  36  1   
 31  17  20  1   
 32  17  37  1   
 33  17  38  1   
 34  18  21  ar  
 35  19  20  1   
 36  19  22  ar  
 37  20  39  1   
 38  20  40  1   
 39  21  23  ar  
 40  21  24  1   
 41  22  23  ar  
 42  22  41  1   
 43  24  25  1   
 44  24  26  1   
 45  25  42  1   
 46  25  43  1   
 47  25  44  1   
 48  26  45  1   
 49  26  46  1   
 50  26  47  1   
@<TRIPOS>SUBSTRUCTURE
  1 ****  11 GROUP 4 **** **** 0

# MOE 2024.06 (io_trps.svl 2023.06)
