@<TRIPOS>MOLECULE
NONAME
57 59 1 0 0 
SMALL
USER_CHARGES


@<TRIPOS>ATOM
  1 S        0.3320     0.2490     0.7890 S.o2  1 <1>   1.3330 
  2 O       -1.0920     0.4770     0.6880 O.2   1 <1>  -0.6500 
  3 O        0.9890     0.3750     2.0700 O.2   1 <1>  -0.6500 
  4 N        0.6700    -1.3000     0.1820 N.am  1 <1>  -0.8490 
  5 C        1.1380     1.3270    -0.3920 C.3   1 <1>  -0.0550 
  6 C        1.9870    -1.8080     0.5830 C.3   1 <1>   0.1160 
  7 C       -0.3680    -2.2730     0.5380 C.3   1 <1>   0.1160 
  8 C        0.8560     2.8180    -0.1400 C.3   1 <1>  -0.0800 
  9 C        1.4540     3.7130    -1.2220 C.3   1 <1>   0.2000 
 10 C        1.4500     3.3650     1.1610 C.3   1 <1>   0.1400 
 11 O        0.6110     3.7590    -2.3200 O.3   1 <1>  -0.6800 
 12 C        1.6180     5.0850    -0.5710 C.3   1 <1>   0.1400 
 13 N        1.7200     4.7950     0.8810 N.am  1 <1>  -0.6600 
 14 C        2.0850     5.6920     1.8560 C.2   1 <1>   0.5440 
 15 O        2.1340     5.3170     3.0100 O.2   1 <1>  -0.5700 
 16 C        2.3500     7.0740     1.5460 C.ar  1 <1>   0.0860 
 17 C        3.5540     7.5010     0.9820 C.ar  1 <1>   0.4120 
 18 C        1.3990     8.0510     1.8030 C.ar  1 <1>  -0.1500 
 19 S        4.8390     6.2930     0.6460 S.3   1 <1>  -0.3310 
 20 N        3.8640     8.7450     0.6480 N.ar  1 <1>  -0.6200 
 21 C        1.7000     9.3550     1.4730 C.ar  1 <1>  -0.1500 
 22 C        6.2700     7.2840     0.0230 C.3   1 <1>   0.0700 
 23 C        2.9290     9.6440     0.9040 C.ar  1 <1>   0.1600 
 24 C        7.4370     6.3330    -0.2330 C.3   1 <1>  -0.0170 
 25 C        8.6390     7.1040    -0.7510 C.ar  1 <1>  -0.1440 
 26 C        8.8110     7.3000    -2.1130 C.ar  1 <1>  -0.1500 
 27 C        9.5720     7.6230     0.1340 C.ar  1 <1>  -0.1500 
 28 C        9.9040     8.0070    -2.5850 C.ar  1 <1>  -0.1500 
 29 C       10.6650     8.3300    -0.3370 C.ar  1 <1>  -0.1500 
 30 C       10.8310     8.5230    -1.6970 C.ar  1 <1>  -0.1500 
 31 H        2.1960     1.1540    -0.3740 H     1 <1>   0.0800 
 32 H        0.7830     1.0790    -1.3740 H     1 <1>   0.0800 
 33 H        2.1810    -2.7510     0.1010 H     1 <1>   0.0800 
 34 H        2.0290    -1.9440     1.6510 H     1 <1>   0.0800 
 35 H        2.7570    -1.1140     0.2920 H     1 <1>   0.0800 
 36 H       -0.1320    -3.2390     0.1260 H     1 <1>   0.0800 
 37 H       -1.3180    -1.9610     0.1380 H     1 <1>   0.0800 
 38 H       -0.4530    -2.3550     1.6090 H     1 <1>   0.0800 
 39 H       -0.2080     2.9780    -0.0950 H     1 <1>   0.0800 
 40 H        2.4150     3.3510    -1.5460 H     1 <1>   0.0800 
 41 H        2.3790     2.8770     1.4050 H     1 <1>   0.0800 
 42 H        0.7670     3.2580     1.9880 H     1 <1>   0.0800 
 43 H       -0.2950     4.0050    -2.0490 H     1 <1>   0.4000 
 44 H        0.7540     5.7020    -0.7480 H     1 <1>   0.0800 
 45 H        2.5070     5.5710    -0.9300 H     1 <1>   0.0800 
 46 H        0.4560     7.7860     2.2530 H     1 <1>   0.1500 
 47 H        0.9920    10.1440     1.6560 H     1 <1>   0.1500 
 48 H        5.9550     7.7790    -0.8780 H     1 <1>   0.0800 
 49 H        6.5130     8.0120     0.7780 H     1 <1>   0.0800 
 50 H        3.1530    10.6670     0.6490 H     1 <1>   0.1500 
 51 H        7.6950     5.8270     0.6800 H     1 <1>   0.0800 
 52 H        7.1440     5.5900    -0.9540 H     1 <1>   0.0800 
 53 H        8.0950     6.9040    -2.8110 H     1 <1>   0.1500 
 54 H        9.4510     7.4800     1.1930 H     1 <1>   0.1500 
 55 H       10.0320     8.1550    -3.6430 H     1 <1>   0.1500 
 56 H       11.3850     8.7310     0.3550 H     1 <1>   0.1500 
 57 H       11.6800     9.0720    -2.0640 H     1 <1>   0.1500 
@<TRIPOS>BOND
  1   1   2  2   
  2   1   3  2   
  3   1   4  am  
  4   1   5  1   
  5   4   6  1   
  6   4   7  1   
  7   5   8  1   
  8   5  31  1   
  9   5  32  1   
 10   6  33  1   
 11   6  34  1   
 12   6  35  1   
 13   7  36  1   
 14   7  37  1   
 15   7  38  1   
 16   8   9  1   
 17   8  10  1   
 18   8  39  1   
 19   9  11  1   
 20   9  12  1   
 21   9  40  1   
 22  10  13  1   
 23  10  41  1   
 24  10  42  1   
 25  11  43  1   
 26  12  13  1   
 27  12  44  1   
 28  12  45  1   
 29  13  14  am  
 30  14  15  2   
 31  14  16  1   
 32  16  17  ar  
 33  16  18  ar  
 34  17  19  1   
 35  17  20  ar  
 36  18  21  ar  
 37  18  46  1   
 38  19  22  1   
 39  20  23  ar  
 40  21  23  ar  
 41  21  47  1   
 42  22  24  1   
 43  22  48  1   
 44  22  49  1   
 45  23  50  1   
 46  24  25  1   
 47  24  51  1   
 48  24  52  1   
 49  25  26  ar  
 50  25  27  ar  
 51  26  28  ar  
 52  26  53  1   
 53  27  29  ar  
 54  27  54  1   
 55  28  30  ar  
 56  28  55  1   
 57  29  30  ar  
 58  29  56  1   
 59  30  57  1   
@<TRIPOS>SUBSTRUCTURE
  1 ****  19 GROUP 4 **** **** 0

# MOE 2024.06 (io_trps.svl 2023.06)
