@<TRIPOS>MOLECULE
NONAME
58 61 1 0 0 
SMALL
USER_CHARGES


@<TRIPOS>ATOM
  1 O        1.4460    -2.0820    -1.3930 O.3   1 <1>  -0.6800 
  2 C        1.3880    -2.5370    -0.0850 C.3   1 <1>   0.1200 
  3 C        2.3130    -1.7080     0.8510 C.3   1 <1>   0.0000 
  4 C        3.7710    -1.5730     0.3230 C.3   1 <1>   0.4230 
  5 C        1.7040    -0.2850     1.0430 C.3   1 <1>  -0.1600 
  6 C        2.3640    -2.4180     2.2340 C.3   1 <1>  -0.1600 
  7 N        4.4930    -2.8980     0.1280 N.4   1 <1>  -0.9590 
  8 C        3.8720    -0.5780    -0.8650 C.3   1 <1>   0.3430 
  9 C        1.8500     0.6490    -0.1700 C.3   1 <1>   0.3430 
 10 C        3.6120    -3.3050     2.4360 C.3   1 <1>  -0.1600 
 11 C        4.1110    -3.9430     1.1370 C.3   1 <1>   0.3430 
 12 C        4.3900    -3.4770    -1.2530 C.3   1 <1>   0.2630 
 13 N        3.2940     0.7610    -0.5110 N.4   1 <1>  -0.9590 
 14 C        3.5830     1.7810    -1.5490 C.3   1 <1>   0.5240 
 15 C        4.4350     2.8310    -0.8710 C.2   1 <1>  -0.1810 
 16 C        5.6500     2.6110    -0.2060 C.2   1 <1>   0.2350 
 17 C        4.1930     4.1520    -0.7450 C.2   1 <1>  -0.3020 
 18 N        6.0990     3.7190     0.3110 N.2   1 <1>  -0.7070 
 19 C        6.3120     1.3360    -0.0500 C.ar  1 <1>   0.0540 
 20 N        5.2170     4.6680    -0.0360 N.pl3 1 <1>   0.3000 
 21 C        6.3330     0.6960     1.1860 C.ar  1 <1>  -0.1500 
 22 C        6.9180     0.6910    -1.1260 C.ar  1 <1>  -0.1500 
 23 C        6.8910    -0.5610     1.3360 C.ar  1 <1>  -0.1500 
 24 C        7.4740    -0.5680    -0.9810 C.ar  1 <1>  -0.1500 
 25 C        7.4560    -1.2070     0.2490 C.ar  1 <1>  -0.1440 
 26 C        8.1160    -2.5660     0.4100 C.3   1 <1>  -0.0960 
 27 H        0.7290    -2.4950    -1.9300 H     1 <1>   0.4000 
 28 H        0.3630    -2.4670     0.2450 H     1 <1>   0.0800 
 29 H        1.6610    -3.5780    -0.0890 H     1 <1>   0.0800 
 30 H        4.3000    -1.0830     1.1220 H     1 <1>   0.0800 
 31 H        2.1660     0.2080     1.8810 H     1 <1>   0.0800 
 32 H        0.6570    -0.3710     1.2810 H     1 <1>   0.0800 
 33 H        2.3520    -1.7010     3.0390 H     1 <1>   0.0800 
 34 H        1.4790    -3.0200     2.3680 H     1 <1>   0.0800 
 35 H        5.4930    -2.6910     0.2930 H     1 <1>   0.4500 
 36 H        3.3510    -0.9740    -1.7190 H     1 <1>   0.0800 
 37 H        4.9050    -0.4700    -1.1300 H     1 <1>   0.0800 
 38 H        1.4480     1.6210     0.0730 H     1 <1>   0.0800 
 39 H        1.2980     0.2550    -1.0090 H     1 <1>   0.0800 
 40 H        3.3780    -4.0840     3.1430 H     1 <1>   0.0800 
 41 H        4.4110    -2.7270     2.8690 H     1 <1>   0.0800 
 42 H        3.3230    -4.5620     0.7400 H     1 <1>   0.0800 
 43 H        4.9560    -4.5810     1.3440 H     1 <1>   0.0800 
 44 H        3.3610    -3.6720    -1.5070 H     1 <1>   0.0800 
 45 H        4.9360    -4.4060    -1.3100 H     1 <1>   0.0800 
 46 H        4.8030    -2.8010    -1.9830 H     1 <1>   0.0800 
 47 H        3.7800     1.1370     0.3180 H     1 <1>   0.4500 
 48 H        4.1210     1.3510    -2.3780 H     1 <1>   0.0800 
 49 H        2.6720     2.2270    -1.9150 H     1 <1>   0.0800 
 50 H        3.3780     4.7590    -1.1010 H     1 <1>   0.1500 
 51 H        5.3410     5.6550     0.2320 H     1 <1>   0.2700 
 52 H        5.9280     1.2100     2.0430 H     1 <1>   0.1500 
 53 H        6.9670     1.1920    -2.0780 H     1 <1>   0.1500 
 54 H        6.9150    -1.0170     2.3130 H     1 <1>   0.1500 
 55 H        7.9500    -1.0380    -1.8270 H     1 <1>   0.1500 
 56 H        7.7620    -3.0710     1.2900 H     1 <1>   0.0800 
 57 H        9.1800    -2.4320     0.5080 H     1 <1>   0.0800 
 58 H        7.9350    -3.1870    -0.4490 H     1 <1>   0.0800 
@<TRIPOS>BOND
  1   1   2  1   
  2   1  27  1   
  3   2   3  1   
  4   2  28  1   
  5   2  29  1   
  6   3   4  1   
  7   3   5  1   
  8   3   6  1   
  9   4   7  1   
 10   4   8  1   
 11   4  30  1   
 12   5   9  1   
 13   5  31  1   
 14   5  32  1   
 15   6  10  1   
 16   6  33  1   
 17   6  34  1   
 18   7  11  1   
 19   7  12  1   
 20   7  35  1   
 21   8  13  1   
 22   8  36  1   
 23   8  37  1   
 24   9  13  1   
 25   9  38  1   
 26   9  39  1   
 27  10  11  1   
 28  10  40  1   
 29  10  41  1   
 30  11  42  1   
 31  11  43  1   
 32  12  44  1   
 33  12  45  1   
 34  12  46  1   
 35  13  14  1   
 36  13  47  1   
 37  14  15  1   
 38  14  48  1   
 39  14  49  1   
 40  15  16  1   
 41  15  17  2   
 42  16  18  2   
 43  16  19  1   
 44  17  20  1   
 45  17  50  1   
 46  18  20  1   
 47  19  21  ar  
 48  19  22  ar  
 49  20  51  1   
 50  21  23  ar  
 51  21  52  1   
 52  22  24  ar  
 53  22  53  1   
 54  23  25  ar  
 55  23  54  1   
 56  24  25  ar  
 57  24  55  1   
 58  25  26  1   
 59  26  56  1   
 60  26  57  1   
 61  26  58  1   
@<TRIPOS>SUBSTRUCTURE
  1 ****   8 GROUP 4 **** **** 0

# MOE 2024.06 (io_trps.svl 2023.06)
