@<TRIPOS>MOLECULE
Untitled Document
26 26 1 0 0 
SMALL
USER_CHARGES


@<TRIPOS>ATOM
  1 N       -1.2770     3.1550    -0.3640 N.pl3 1 <1>  -0.8370 
  2 C       -0.1710     3.8010    -0.1170 C.cat 1 <1>   1.2030 
  3 C       -2.5790     3.7270    -0.5880 C.3   1 <1>   0.5860 
  4 N        0.9940     3.1710     0.0500 N.pl3 1 <1>  -0.7130 
  5 N       -0.2310     5.1090    -0.0320 N.pl3 1 <1>  -0.9100 
  6 N       -2.4430     5.1480    -0.4060 N.pl3 1 <1>  -0.8370 
  7 C       -3.5520     3.1790     0.4410 C.3   1 <1>  -0.2250 
  8 C        1.1460     1.6750     0.1450 C.3   1 <1>   0.1050 
  9 C        2.3380     3.8400     0.1610 C.3   1 <1>   0.1050 
 10 C       -1.3390     5.7700    -0.1570 C.cat 1 <1>   1.2030 
 11 N       -1.3170     7.0520    -0.0260 N.pl3 1 <1>  -0.9610 
 12 H       -1.2380     2.1450    -0.4600 H     1 <1>   0.4620 
 13 H       -2.9210     3.5070    -1.5920 H     1 <1>   0.0970 
 14 H        0.6070     5.5970     0.2200 H     1 <1>   0.4620 
 15 H       -3.3110     5.6710    -0.5020 H     1 <1>   0.4620 
 16 H       -3.2250     3.3910     1.4440 H     1 <1>   0.0970 
 17 H       -3.6540     2.1150     0.3260 H     1 <1>   0.0970 
 18 H       -4.5280     3.6090     0.2960 H     1 <1>   0.0970 
 19 H        1.8310     1.4230     0.9390 H     1 <1>   0.0970 
 20 H        1.5430     1.2830    -0.7780 H     1 <1>   0.0970 
 21 H        0.2140     1.1810     0.3600 H     1 <1>   0.0970 
 22 H        3.0710     3.2970    -0.4160 H     1 <1>   0.0970 
 23 H        2.6650     3.8510     1.1890 H     1 <1>   0.0970 
 24 H        2.3270     4.8490    -0.2130 H     1 <1>   0.0970 
 25 H       -0.4780     7.5980     0.1620 H     1 <1>   0.4620 
 26 H       -2.1480     7.6360    -0.1100 H     1 <1>   0.4620 
@<TRIPOS>BOND
  1   1   2  ar  
  2   1   3  1   
  3   1  12  1   
  4   2   4  ar  
  5   2   5  ar  
  6   3   6  1   
  7   3   7  1   
  8   3  13  1   
  9   4   8  1   
 10   4   9  1   
 11   5  10  ar  
 12   5  14  1   
 13   6  10  ar  
 14   6  15  1   
 15   7  16  1   
 16   7  17  1   
 17   7  18  1   
 18   8  19  1   
 19   8  20  1   
 20   8  21  1   
 21   9  22  1   
 22   9  23  1   
 23   9  24  1   
 24  10  11  ar  
 25  11  25  1   
 26  11  26  1   
@<TRIPOS>SUBSTRUCTURE
  1 ****   2 GROUP 4 **** **** 0

# MOE 2024.06 (io_trps.svl 2023.06)
