@<TRIPOS>MOLECULE
NONAME
43 47 1 0 0 
SMALL
USER_CHARGES


@<TRIPOS>ATOM
  1 S       -0.3800     0.4230    -2.0630 S.3   1 <1>  -0.0800 
  2 C       -1.2070     1.1930    -0.7170 C.2   1 <1>  -0.1400 
  3 C       -1.7610    -0.6300    -2.3500 C.2   1 <1>  -0.1100 
  4 C       -2.4300     0.6720    -0.5520 C.2   1 <1>  -0.1810 
  5 C       -0.5760     2.3090     0.1130 C.3   1 <1>   0.4600 
  6 C       -2.7510    -0.3740    -1.4730 C.2   1 <1>  -0.1500 
  7 C       -3.3270     1.2100     0.5400 C.3   1 <1>   0.0210 
  8 O       -1.4240     2.5730     1.2110 O.3   1 <1>  -0.5600 
  9 C       -0.4220     3.6070    -0.7100 C.3   1 <1>  -0.1600 
 10 C        0.7500     1.8330     0.7250 C.3   1 <1>  -0.1600 
 11 C       -2.8130     2.5970     0.9740 C.3   1 <1>   0.1200 
 12 C        1.0400     4.0080    -0.9060 C.3   1 <1>   0.1400 
 13 C        1.5120     2.9910     1.3720 C.3   1 <1>   0.1400 
 14 N        1.6940     4.1370     0.4270 N.am  1 <1>  -0.6600 
 15 C        2.3830     5.2640     0.8530 C.2   1 <1>   0.7160 
 16 O        3.1150     5.1370     1.8230 O.2   1 <1>  -0.5700 
 17 C        2.2990     6.5770     0.2100 C.2   1 <1>   0.2030 
 18 N        1.2520     7.1020    -0.4220 N.2   1 <1>  -0.7070 
 19 C        3.3660     7.4780     0.2170 C.2   1 <1>  -0.1500 
 20 N        1.6520     8.3220    -0.8100 N.pl3 1 <1>   0.6010 
 21 C        2.9470     8.5830    -0.4400 C.2   1 <1>  -0.0260 
 22 C        0.9410     9.2800    -1.5050 C.2   1 <1>  -0.1810 
 23 N        3.5970     9.7670    -0.7300 N.2   1 <1>  -0.5760 
 24 C        1.5660    10.4510    -1.7950 C.2   1 <1>  -0.1360 
 25 C        2.9150    10.6510    -1.3810 C.2   1 <1>   0.3760 
 26 H       -1.6830    -1.3390    -3.1540 H     1 <1>   0.1500 
 27 H       -3.7000    -0.8800    -1.4350 H     1 <1>   0.1500 
 28 H       -3.3230     0.5390     1.3800 H     1 <1>   0.0800 
 29 H       -4.3360     1.3020     0.1800 H     1 <1>   0.0800 
 30 H       -0.9220     4.4210    -0.2180 H     1 <1>   0.0800 
 31 H       -0.8740     3.4810    -1.6760 H     1 <1>   0.0800 
 32 H        1.3750     1.3960    -0.0310 H     1 <1>   0.0800 
 33 H        0.5510     1.0690     1.4530 H     1 <1>   0.0800 
 34 H       -3.2950     2.9050     1.8850 H     1 <1>   0.0800 
 35 H       -3.0150     3.3280     0.2110 H     1 <1>   0.0800 
 36 H        1.0970     4.9180    -1.4710 H     1 <1>   0.0800 
 37 H        1.5520     3.2510    -1.4760 H     1 <1>   0.0800 
 38 H        2.4760     2.6480     1.7070 H     1 <1>   0.0800 
 39 H        0.9650     3.3410     2.2320 H     1 <1>   0.0800 
 40 H        4.3280     7.3130     0.6660 H     1 <1>   0.1500 
 41 H       -0.0680     9.0280    -1.7680 H     1 <1>   0.1500 
 42 H        1.0810    11.2460    -2.3320 H     1 <1>   0.1500 
 43 H        3.3780    11.5900    -1.6290 H     1 <1>   0.0600 
@<TRIPOS>BOND
  1   1   2  1   
  2   1   3  1   
  3   2   4  2   
  4   2   5  1   
  5   3   6  2   
  6   3  26  1   
  7   4   6  1   
  8   4   7  1   
  9   5   8  1   
 10   5   9  1   
 11   5  10  1   
 12   6  27  1   
 13   7  11  1   
 14   7  28  1   
 15   7  29  1   
 16   8  11  1   
 17   9  12  1   
 18   9  30  1   
 19   9  31  1   
 20  10  13  1   
 21  10  32  1   
 22  10  33  1   
 23  11  34  1   
 24  11  35  1   
 25  12  14  1   
 26  12  36  1   
 27  12  37  1   
 28  13  14  1   
 29  13  38  1   
 30  13  39  1   
 31  14  15  am  
 32  15  16  2   
 33  15  17  1   
 34  17  18  2   
 35  17  19  1   
 36  18  20  1   
 37  19  21  2   
 38  19  40  1   
 39  20  21  1   
 40  20  22  1   
 41  21  23  1   
 42  22  24  2   
 43  22  41  1   
 44  23  25  2   
 45  24  25  1   
 46  24  42  1   
 47  25  43  1   
@<TRIPOS>SUBSTRUCTURE
  1 ****  12 GROUP 4 **** **** 0

# MOE 2024.06 (io_trps.svl 2023.06)
