@<TRIPOS>MOLECULE
NONAME
50 53 1 0 0 
SMALL
USER_CHARGES


@<TRIPOS>ATOM
  1 O       -1.0880     0.0900     1.1110 O.2   1 <1>  -0.5700 
  2 C       -1.8560     0.6710     0.3660 C.2   1 <1>   0.5440 
  3 N       -1.5420     1.9500    -0.0370 N.am  1 <1>  -0.6600 
  4 C       -3.0700     0.0100    -0.0510 C.ar  1 <1>   0.0860 
  5 C       -2.5140     2.9420    -0.5520 C.3   1 <1>   0.1400 
  6 C       -0.2870     2.6150     0.3840 C.3   1 <1>   0.1400 
  7 C       -3.8330    -0.6970     0.8740 C.ar  1 <1>   0.1600 
  8 C       -3.5320     0.0280    -1.3640 C.ar  1 <1>  -0.1500 
  9 C       -1.9390     4.2930    -0.1460 C.3   1 <1>  -0.1600 
 10 C       -0.4330     4.0620    -0.0740 C.3   1 <1>  -0.1600 
 11 N       -4.9680    -1.3310     0.6290 N.ar  1 <1>  -0.6200 
 12 C       -4.7060    -0.6290    -1.6430 C.ar  1 <1>  -0.1500 
 13 C       -5.3930    -1.2890    -0.6300 C.ar  1 <1>   0.4100 
 14 N       -6.5620    -1.9480    -0.9130 N.pl3 1 <1>  -0.8380 
 15 C       -7.7950    -1.4540    -0.2380 C.3   1 <1>   0.2090 
 16 C       -6.5320    -3.4340    -0.7870 C.3   1 <1>   0.2090 
 17 C       -8.1430    -2.5360     0.7820 C.3   1 <1>   0.2000 
 18 C       -7.7470    -3.8270     0.0630 C.3   1 <1>  -0.0800 
 19 O       -7.3310    -2.3500     1.8910 O.3   1 <1>  -0.6800 
 20 C       -7.4940    -5.0390     0.9780 C.3   1 <1>  -0.0160 
 21 C       -7.1140    -6.2670     0.1650 C.ar  1 <1>  -0.1440 
 22 C       -8.0580    -7.0250    -0.4960 C.ar  1 <1>  -0.1500 
 23 C       -5.8030    -6.6830     0.0420 C.ar  1 <1>  -0.1500 
 24 C       -7.6580    -8.1290    -1.2310 C.ar  1 <1>   0.1600 
 25 C       -5.5090    -7.8020    -0.7180 C.ar  1 <1>   0.1600 
 26 N       -6.4050    -8.5340    -1.3600 N.ar  1 <1>  -0.6200 
 27 H       -2.5590     2.8670    -1.6240 H     1 <1>   0.0800 
 28 H       -3.4940     2.7880    -0.1310 H     1 <1>   0.0800 
 29 H       -0.2040     2.5630     1.4570 H     1 <1>   0.0800 
 30 H        0.5660     2.1360    -0.0650 H     1 <1>   0.0800 
 31 H       -3.4690    -0.7310     1.8880 H     1 <1>   0.1500 
 32 H       -2.9770     0.5350    -2.1330 H     1 <1>   0.1500 
 33 H       -2.2040     5.0680    -0.8430 H     1 <1>   0.0800 
 34 H       -2.3150     4.5540     0.8280 H     1 <1>   0.0800 
 35 H        0.0570     4.7440     0.5980 H     1 <1>   0.0800 
 36 H        0.0010     4.1630    -1.0530 H     1 <1>   0.0800 
 37 H       -5.1150    -0.6520    -2.6360 H     1 <1>   0.1500 
 38 H       -7.6440    -0.4990     0.2360 H     1 <1>   0.0800 
 39 H       -8.5810    -1.3680    -0.9680 H     1 <1>   0.0800 
 40 H       -6.5780    -3.8930    -1.7590 H     1 <1>   0.0800 
 41 H       -5.6190    -3.7400    -0.3020 H     1 <1>   0.0800 
 42 H       -9.1710    -2.5150     1.0990 H     1 <1>   0.0800 
 43 H       -8.5400    -4.0760    -0.6180 H     1 <1>   0.0800 
 44 H       -6.4390    -2.0670     1.5540 H     1 <1>   0.4000 
 45 H       -8.3810    -5.2480     1.5500 H     1 <1>   0.0800 
 46 H       -6.7060    -4.8200     1.6780 H     1 <1>   0.0800 
 47 H       -9.1010    -6.7690    -0.4460 H     1 <1>   0.1500 
 48 H       -5.0080    -6.1480     0.5300 H     1 <1>   0.1500 
 49 H       -8.4080    -8.7080    -1.7400 H     1 <1>   0.1500 
 50 H       -4.4810    -8.1120    -0.8030 H     1 <1>   0.1500 
@<TRIPOS>BOND
  1   1   2  2   
  2   2   3  am  
  3   2   4  1   
  4   3   5  1   
  5   3   6  1   
  6   4   7  ar  
  7   4   8  ar  
  8   5   9  1   
  9   5  27  1   
 10   5  28  1   
 11   6  10  1   
 12   6  29  1   
 13   6  30  1   
 14   7  11  ar  
 15   7  31  1   
 16   8  12  ar  
 17   8  32  1   
 18   9  10  1   
 19   9  33  1   
 20   9  34  1   
 21  10  35  1   
 22  10  36  1   
 23  11  13  ar  
 24  12  13  ar  
 25  12  37  1   
 26  13  14  1   
 27  14  15  1   
 28  14  16  1   
 29  15  17  1   
 30  15  38  1   
 31  15  39  1   
 32  16  18  1   
 33  16  40  1   
 34  16  41  1   
 35  17  18  1   
 36  17  19  1   
 37  17  42  1   
 38  18  20  1   
 39  18  43  1   
 40  19  44  1   
 41  20  21  1   
 42  20  45  1   
 43  20  46  1   
 44  21  22  ar  
 45  21  23  ar  
 46  22  24  ar  
 47  22  47  1   
 48  23  25  ar  
 49  23  48  1   
 50  24  26  ar  
 51  24  49  1   
 52  25  26  ar  
 53  25  50  1   
@<TRIPOS>SUBSTRUCTURE
  1 ****  11 GROUP 4 **** **** 0

# MOE 2024.06 (io_trps.svl 2023.06)
