@<TRIPOS>MOLECULE
NONAME
51 53 1 0 0 
SMALL
USER_CHARGES


@<TRIPOS>ATOM
  1 O        2.8100     4.8150    -1.2920 O.2   1 <1>  -0.5700 
  2 C        1.6180     4.7040    -1.0190 C.2   1 <1>   0.7150 
  3 N        0.7570     4.2670    -2.0100 N.am  1 <1>  -0.6600 
  4 C        1.1500     5.0540     0.3090 C.2   1 <1>   0.0550 
  5 C        1.1710     4.1740    -3.4400 C.3   1 <1>   0.0600 
  6 C       -0.5940     3.7050    -1.7310 C.3   1 <1>   0.0600 
  7 O        1.9110     4.8190     1.3730 O.3   1 <1>  -0.2800 
  8 C        0.0100     5.6630     0.7430 C.2   1 <1>  -0.1500 
  9 C        1.3310     5.3020     2.4540 C.2   1 <1>  -0.0400 
 10 C        0.1290     5.8230     2.1260 C.2   1 <1>  -0.1500 
 11 C        2.0610     5.2410     3.8010 C.3   1 <1>   0.3890 
 12 N        3.2520     6.1420     3.7920 N.pl3 1 <1>  -0.8690 
 13 C        4.0600     6.1460     2.7280 C.ar  1 <1>   0.4100 
 14 N        4.0200     7.2340     1.9990 N.ar  1 <1>  -0.6200 
 15 C        4.7210     4.9760     2.3240 C.ar  1 <1>  -0.1500 
 16 C        4.3380     7.0960     0.7150 C.ar  1 <1>   0.7710 
 17 C        5.0900     4.8730     1.0260 C.ar  1 <1>   0.2180 
 18 N        4.8280     5.9370     0.2350 N.ar  1 <1>  -0.1790 
 19 N        4.1280     8.1330    -0.1440 N.pl3 1 <1>  -0.8380 
 20 C        5.7210     3.6370     0.4140 C.3   1 <1>  -0.0970 
 21 C        4.4270     8.1520    -1.6090 C.3   1 <1>   0.2090 
 22 C        3.4220     9.3830     0.2850 C.3   1 <1>   0.2090 
 23 C        3.1100     8.2170    -2.3900 C.3   1 <1>  -0.1600 
 24 C        2.0810     9.4680    -0.4490 C.3   1 <1>  -0.1600 
 25 C        2.2650     9.4290    -1.9740 C.3   1 <1>  -0.1600 
 26 H        2.0650     4.7450    -3.6190 H     1 <1>   0.0800 
 27 H        0.3890     4.5590    -4.0720 H     1 <1>   0.0800 
 28 H        1.3580     3.1460    -3.6970 H     1 <1>   0.0800 
 29 H       -0.6930     3.4360    -0.6940 H     1 <1>   0.0800 
 30 H       -0.7510     2.8180    -2.3210 H     1 <1>   0.0800 
 31 H       -1.3490     4.4300    -1.9830 H     1 <1>   0.0800 
 32 H       -0.8260     5.9940     0.1520 H     1 <1>   0.1500 
 33 H       -0.6000     6.2920     2.7650 H     1 <1>   0.1500 
 34 H        2.3730     4.2300     3.9980 H     1 <1>   0.0800 
 35 H        1.3930     5.5480     4.5870 H     1 <1>   0.0800 
 36 H        3.0050     7.0810     4.1160 H     1 <1>   0.4000 
 37 H        4.8620     4.1900     3.0410 H     1 <1>   0.1500 
 38 H        4.7850     5.8340    -0.7730 H     1 <1>   0.4570 
 39 H        5.8580     2.8760     1.1620 H     1 <1>   0.0800 
 40 H        6.6810     3.8750    -0.0080 H     1 <1>   0.0800 
 41 H        5.0840     3.2400    -0.3580 H     1 <1>   0.0800 
 42 H        4.9900     7.2910    -1.9190 H     1 <1>   0.0800 
 43 H        5.0180     9.0240    -1.8340 H     1 <1>   0.0800 
 44 H        4.0290    10.2370     0.0360 H     1 <1>   0.0800 
 45 H        3.2470     9.4110     1.3470 H     1 <1>   0.0800 
 46 H        2.5510     7.3140    -2.2210 H     1 <1>   0.0800 
 47 H        3.3220     8.2750    -3.4430 H     1 <1>   0.0800 
 48 H        1.5810    10.3790    -0.1700 H     1 <1>   0.0800 
 49 H        1.4620     8.6460    -0.1340 H     1 <1>   0.0800 
 50 H        1.3030     9.3890    -2.4570 H     1 <1>   0.0800 
 51 H        2.7560    10.3330    -2.2940 H     1 <1>   0.0800 
@<TRIPOS>BOND
  1   1   2  2   
  2   2   3  am  
  3   2   4  1   
  4   3   5  1   
  5   3   6  1   
  6   4   7  1   
  7   4   8  2   
  8   5  26  1   
  9   5  27  1   
 10   5  28  1   
 11   6  29  1   
 12   6  30  1   
 13   6  31  1   
 14   7   9  1   
 15   8  10  1   
 16   8  32  1   
 17   9  10  2   
 18   9  11  1   
 19  10  33  1   
 20  11  12  1   
 21  11  34  1   
 22  11  35  1   
 23  12  13  1   
 24  12  36  1   
 25  13  14  ar  
 26  13  15  ar  
 27  14  16  ar  
 28  15  17  ar  
 29  15  37  1   
 30  16  18  ar  
 31  16  19  1   
 32  17  18  ar  
 33  17  20  1   
 34  18  38  1   
 35  19  21  1   
 36  19  22  1   
 37  20  39  1   
 38  20  40  1   
 39  20  41  1   
 40  21  23  1   
 41  21  42  1   
 42  21  43  1   
 43  22  24  1   
 44  22  44  1   
 45  22  45  1   
 46  23  25  1   
 47  23  46  1   
 48  23  47  1   
 49  24  25  1   
 50  24  48  1   
 51  24  49  1   
 52  25  50  1   
 53  25  51  1   
@<TRIPOS>SUBSTRUCTURE
  1 ****   7 GROUP 4 **** **** 0

# MOE 2024.06 (io_trps.svl 2023.06)
