@<TRIPOS>MOLECULE
NONAME
56 60 1 0 0 
SMALL
USER_CHARGES


@<TRIPOS>ATOM
  1 O       -0.5330     0.0080     2.2320 O.2   1 <1>  -0.5700 
  2 C       -1.1680     0.6710     1.4480 C.2   1 <1>   0.5690 
  3 N       -2.0290     0.0770     0.5640 N.am  1 <1>  -0.6600 
  4 C       -1.0070     2.1860     1.5020 C.3   1 <1>  -0.0990 
  5 C       -2.9650     0.7440    -0.3760 C.3   1 <1>   0.1400 
  6 C       -2.1820    -1.3960     0.4960 C.3   1 <1>   0.1400 
  7 C        0.2210     2.7540     0.7500 C.3   1 <1>   0.0000 
  8 C       -3.6390    -0.3950    -1.1420 C.3   1 <1>   0.2000 
  9 C       -3.4910    -1.6330    -0.2590 C.3   1 <1>  -0.0800 
 10 C        0.2410     4.2920     0.9170 C.3   1 <1>  -0.1600 
 11 C        1.5440     2.1890     1.3220 C.3   1 <1>  -0.1600 
 12 C        0.1670     2.4340    -0.7620 C.3   1 <1>  -0.1600 
 13 O       -4.9790    -0.1300    -1.3710 O.3   1 <1>  -0.6800 
 14 C       -3.5140    -2.9440    -1.0590 C.3   1 <1>  -0.0170 
 15 C        1.4490     4.9120     0.1910 C.3   1 <1>  -0.0800 
 16 C        2.7610     2.7990     0.6010 C.3   1 <1>  -0.0800 
 17 C        1.3790     3.0390    -1.4960 C.3   1 <1>  -0.0800 
 18 C       -3.3580    -4.1480    -0.1440 C.ar  1 <1>  -0.1440 
 19 C        2.7450     4.3270     0.7800 C.3   1 <1>  -0.1600 
 20 C        1.3710     4.5670    -1.3080 C.3   1 <1>  -0.1600 
 21 C        2.6750     2.4610    -0.8990 C.3   1 <1>  -0.1600 
 22 C       -4.4340    -4.6890     0.5290 C.ar  1 <1>  -0.1500 
 23 C       -2.1380    -4.7600     0.0640 C.ar  1 <1>  -0.1500 
 24 C       -4.2440    -5.7840     1.3560 C.ar  1 <1>   0.1600 
 25 C       -2.0560    -5.8500     0.9150 C.ar  1 <1>   0.1600 
 26 N       -3.0800    -6.3770     1.5660 N.ar  1 <1>  -0.6200 
 27 H       -1.8990     2.6550     1.1360 H     1 <1>   0.0800 
 28 H       -0.9250     2.4540     2.5390 H     1 <1>   0.0800 
 29 H       -3.6880     1.3090     0.1860 H     1 <1>   0.0800 
 30 H       -2.4330     1.3850    -1.0530 H     1 <1>   0.0800 
 31 H       -1.3450    -1.8040    -0.0430 H     1 <1>   0.0800 
 32 H       -2.2140    -1.8280     1.4830 H     1 <1>   0.0800 
 33 H       -3.1520    -0.5300    -2.0930 H     1 <1>   0.0800 
 34 H       -4.2790    -1.6470     0.4730 H     1 <1>   0.0800 
 35 H       -0.6650     4.7170     0.5210 H     1 <1>   0.0800 
 36 H        0.2890     4.5450     1.9620 H     1 <1>   0.0800 
 37 H        1.6080     2.3990     2.3750 H     1 <1>   0.0800 
 38 H        1.5750     1.1200     1.2050 H     1 <1>   0.0800 
 39 H        0.1600     1.3680    -0.9150 H     1 <1>   0.0800 
 40 H       -0.7330     2.8370    -1.1890 H     1 <1>   0.0800 
 41 H       -5.4600    -0.0490    -0.5250 H     1 <1>   0.4000 
 42 H       -2.7260    -2.9420    -1.7930 H     1 <1>   0.0800 
 43 H       -4.4480    -3.0200    -1.5900 H     1 <1>   0.0800 
 44 H        1.4420     5.9810     0.3190 H     1 <1>   0.0800 
 45 H        3.6680     2.3920     1.0140 H     1 <1>   0.0800 
 46 H        1.3250     2.8020    -2.5450 H     1 <1>   0.0800 
 47 H        2.8140     4.5710     1.8260 H     1 <1>   0.0800 
 48 H        3.5980     4.7600     0.2870 H     1 <1>   0.0800 
 49 H        2.2090     5.0010    -1.8250 H     1 <1>   0.0800 
 50 H        0.4750     4.9830    -1.7320 H     1 <1>   0.0800 
 51 H        2.6950     1.3940    -1.0330 H     1 <1>   0.0800 
 52 H        3.5270     2.8710    -1.4130 H     1 <1>   0.0800 
 53 H       -5.4180    -4.2720     0.4180 H     1 <1>   0.1500 
 54 H       -1.2500    -4.4020    -0.4230 H     1 <1>   0.1500 
 55 H       -5.0950    -6.1930     1.8730 H     1 <1>   0.1500 
 56 H       -1.0960    -6.3140     1.0670 H     1 <1>   0.1500 
@<TRIPOS>BOND
  1   1   2  2   
  2   2   3  am  
  3   2   4  1   
  4   3   5  1   
  5   3   6  1   
  6   4   7  1   
  7   4  27  1   
  8   4  28  1   
  9   5   8  1   
 10   5  29  1   
 11   5  30  1   
 12   6   9  1   
 13   6  31  1   
 14   6  32  1   
 15   7  10  1   
 16   7  11  1   
 17   7  12  1   
 18   8   9  1   
 19   8  13  1   
 20   8  33  1   
 21   9  14  1   
 22   9  34  1   
 23  10  15  1   
 24  10  35  1   
 25  10  36  1   
 26  11  16  1   
 27  11  37  1   
 28  11  38  1   
 29  12  17  1   
 30  12  39  1   
 31  12  40  1   
 32  13  41  1   
 33  14  18  1   
 34  14  42  1   
 35  14  43  1   
 36  15  19  1   
 37  15  20  1   
 38  15  44  1   
 39  16  19  1   
 40  16  21  1   
 41  16  45  1   
 42  17  20  1   
 43  17  21  1   
 44  17  46  1   
 45  18  22  ar  
 46  18  23  ar  
 47  19  47  1   
 48  19  48  1   
 49  20  49  1   
 50  20  50  1   
 51  21  51  1   
 52  21  52  1   
 53  22  24  ar  
 54  22  53  1   
 55  23  25  ar  
 56  23  54  1   
 57  24  26  ar  
 58  24  55  1   
 59  25  26  ar  
 60  25  56  1   
@<TRIPOS>SUBSTRUCTURE
  1 ****   3 GROUP 4 **** **** 0

# MOE 2024.06 (io_trps.svl 2023.06)
