@<TRIPOS>MOLECULE
NONAME
47 49 1 0 0 
SMALL
USER_CHARGES


@<TRIPOS>ATOM
  1 O       -0.5020     0.2750     0.5280 O.2   1 <1>  -0.5700 
  2 C       -1.5360     0.7940     0.1800 C.2   1 <1>   0.5690 
  3 N       -2.6440     0.0450    -0.0960 N.am  1 <1>  -0.6600 
  4 C       -1.6050     2.3090     0.0620 C.3   1 <1>  -0.0990 
  5 C       -4.0180     0.5400    -0.3660 C.3   1 <1>   0.1400 
  6 C       -2.6520    -1.4350     0.0280 C.3   1 <1>   0.1400 
  7 C       -0.2270     2.9790     0.0850 C.3   1 <1>   0.0210 
  8 C       -4.9200    -0.5840     0.1380 C.3   1 <1>   0.2000 
  9 C       -4.1150    -1.8530    -0.1650 C.3   1 <1>  -0.0800 
 10 C       -0.2380     4.4970    -0.0870 C.2   1 <1>  -0.1810 
 11 O       -5.0580    -0.4350     1.5090 O.3   1 <1>  -0.6800 
 12 C       -4.5190    -3.1000     0.6450 C.3   1 <1>  -0.0170 
 13 C       -1.1930     5.4430    -0.2090 C.2   1 <1>  -0.0400 
 14 C        0.9430     5.2420    -0.1500 C.2   1 <1>   0.1080 
 15 C       -3.7220    -4.3170     0.2020 C.ar  1 <1>  -0.1440 
 16 O       -0.5960     6.5980    -0.3300 O.3   1 <1>  -0.0190 
 17 C       -2.7110     5.4680    -0.2330 C.3   1 <1>  -0.0600 
 18 N        0.6960     6.4920    -0.2960 N.2   1 <1>  -0.4100 
 19 C        2.3490     4.6850    -0.0610 C.3   1 <1>  -0.0590 
 20 C       -4.0880    -5.0630    -0.9000 C.ar  1 <1>  -0.1500 
 21 C       -2.5920    -4.7380     0.8740 C.ar  1 <1>  -0.1500 
 22 C       -3.3280    -6.1600    -1.2680 C.ar  1 <1>   0.1600 
 23 C       -1.9010    -5.8500     0.4210 C.ar  1 <1>   0.1600 
 24 N       -2.2420    -6.5710    -0.6350 N.ar  1 <1>  -0.6200 
 25 H       -2.0910     2.5550    -0.8630 H     1 <1>   0.0800 
 26 H       -2.1880     2.6780     0.8840 H     1 <1>   0.0800 
 27 H       -4.2290     1.4680     0.1350 H     1 <1>   0.0800 
 28 H       -4.1440     0.6620    -1.4280 H     1 <1>   0.0800 
 29 H       -2.0130    -1.8820    -0.7160 H     1 <1>   0.0800 
 30 H       -2.2960    -1.7060     1.0070 H     1 <1>   0.0800 
 31 H        0.3710     2.5530    -0.7020 H     1 <1>   0.0800 
 32 H        0.2550     2.7480     1.0190 H     1 <1>   0.0800 
 33 H       -5.9000    -0.5780    -0.3090 H     1 <1>   0.0800 
 34 H       -4.2460    -2.0760    -1.2090 H     1 <1>   0.0800 
 35 H       -4.1680    -0.3400     1.9050 H     1 <1>   0.4000 
 36 H       -5.5690    -3.2920     0.5050 H     1 <1>   0.0800 
 37 H       -4.3620    -2.9330     1.6960 H     1 <1>   0.0800 
 38 H       -3.1380     4.4950    -0.1140 H     1 <1>   0.0800 
 39 H       -3.0440     5.8780    -1.1690 H     1 <1>   0.0800 
 40 H       -3.0680     6.0970     0.5620 H     1 <1>   0.0800 
 41 H        2.4730     4.1500     0.8620 H     1 <1>   0.0800 
 42 H        3.0630     5.4870    -0.0950 H     1 <1>   0.0800 
 43 H        2.5320     4.0230    -0.8870 H     1 <1>   0.0800 
 44 H       -4.9580    -4.8030    -1.4750 H     1 <1>   0.1500 
 45 H       -2.2400    -4.2150     1.7440 H     1 <1>   0.1500 
 46 H       -3.6290    -6.7310    -2.1300 H     1 <1>   0.1500 
 47 H       -1.0210    -6.1630     0.9570 H     1 <1>   0.1500 
@<TRIPOS>BOND
  1   1   2  2   
  2   2   3  am  
  3   2   4  1   
  4   3   5  1   
  5   3   6  1   
  6   4   7  1   
  7   4  25  1   
  8   4  26  1   
  9   5   8  1   
 10   5  27  1   
 11   5  28  1   
 12   6   9  1   
 13   6  29  1   
 14   6  30  1   
 15   7  10  1   
 16   7  31  1   
 17   7  32  1   
 18   8   9  1   
 19   8  11  1   
 20   8  33  1   
 21   9  12  1   
 22   9  34  1   
 23  10  13  2   
 24  10  14  1   
 25  11  35  1   
 26  12  15  1   
 27  12  36  1   
 28  12  37  1   
 29  13  16  1   
 30  13  17  1   
 31  14  18  2   
 32  14  19  1   
 33  15  20  ar  
 34  15  21  ar  
 35  16  18  1   
 36  17  38  1   
 37  17  39  1   
 38  17  40  1   
 39  19  41  1   
 40  19  42  1   
 41  19  43  1   
 42  20  22  ar  
 43  20  44  1   
 44  21  23  ar  
 45  21  45  1   
 46  22  24  ar  
 47  22  46  1   
 48  23  24  ar  
 49  23  47  1   
@<TRIPOS>SUBSTRUCTURE
  1 ****   3 GROUP 4 **** **** 0

# MOE 2024.06 (io_trps.svl 2023.06)
