@<TRIPOS>MOLECULE
NONAME
56 59 1 0 0 
SMALL
USER_CHARGES


@<TRIPOS>ATOM
  1 F        0.3340    -0.6800     0.7660 F     1 <1>  -0.1900 
  2 C       -0.8670    -1.1220     0.5050 C.ar  1 <1>   0.1900 
  3 C       -1.0760    -2.4840     0.4530 C.ar  1 <1>  -0.1500 
  4 C       -1.8790    -0.2060     0.2920 C.ar  1 <1>  -0.1500 
  5 C       -2.3500    -2.9740     0.1780 C.ar  1 <1>   0.0000 
  6 C       -3.1490    -0.6850     0.0180 C.ar  1 <1>  -0.1500 
  7 C       -2.5970    -4.3960     0.1170 C.ar  1 <1>   0.0000 
  8 C       -3.3750    -2.0520    -0.0370 C.ar  1 <1>  -0.1500 
  9 C       -3.1360    -4.9860    -1.0210 C.ar  1 <1>  -0.1500 
 10 C       -2.2970    -5.2240     1.1930 C.ar  1 <1>  -0.1500 
 11 C       -3.3670    -6.3470    -1.0790 C.ar  1 <1>  -0.1500 
 12 C       -2.5280    -6.5850     1.1340 C.ar  1 <1>  -0.1500 
 13 C       -3.0760    -7.1840     0.0000 C.ar  1 <1>   0.0860 
 14 C       -3.3230    -8.6150    -0.0480 C.2   1 <1>   0.5440 
 15 O       -2.6130    -9.3890     0.5700 O.2   1 <1>  -0.5700 
 16 N       -4.3790    -9.1570    -0.7500 N.am  1 <1>  -0.6600 
 17 C       -4.3570   -10.6060    -1.0770 C.3   1 <1>   0.1400 
 18 C       -5.7510    -8.6020    -0.5990 C.3   1 <1>   0.1400 
 19 C       -5.0170   -11.3820     0.0840 C.3   1 <1>   0.4230 
 20 C       -6.4480    -9.3550     0.5430 C.3   1 <1>  -0.1600 
 21 N       -4.8650   -12.8930    -0.0150 N.4   1 <1>  -0.9590 
 22 C       -6.4760   -10.9020     0.3520 C.3   1 <1>   0.0000 
 23 C       -5.8230   -13.6620     0.8450 C.3   1 <1>   0.3430 
 24 C       -4.8580   -13.4540    -1.4060 C.3   1 <1>   0.2630 
 25 C       -6.9990   -11.5570     1.6650 C.3   1 <1>  -0.1600 
 26 C       -7.3930   -11.2810    -0.8460 C.3   1 <1>   0.1200 
 27 C       -6.2460   -12.8420     2.0620 C.3   1 <1>  -0.1600 
 28 O       -8.6440   -10.6970    -0.7410 O.3   1 <1>  -0.6800 
 29 H       -0.2560    -3.1590     0.6210 H     1 <1>   0.1500 
 30 H       -1.6750     0.8480     0.3410 H     1 <1>   0.1500 
 31 H       -3.9580     0.0050    -0.1520 H     1 <1>   0.1500 
 32 H       -4.3660    -2.4140    -0.2470 H     1 <1>   0.1500 
 33 H       -3.3670    -4.3680    -1.8710 H     1 <1>   0.1500 
 34 H       -1.8770    -4.7940     2.0860 H     1 <1>   0.1500 
 35 H       -3.7730    -6.7740    -1.9790 H     1 <1>   0.1500 
 36 H       -2.2800    -7.2030     1.9810 H     1 <1>   0.1500 
 37 H       -4.8710   -10.7600    -2.0070 H     1 <1>   0.0800 
 38 H       -3.3350   -10.9250    -1.1960 H     1 <1>   0.0800 
 39 H       -5.7110    -7.5520    -0.3640 H     1 <1>   0.0800 
 40 H       -6.2960    -8.7140    -1.5210 H     1 <1>   0.0800 
 41 H       -4.4600   -11.0850     0.9590 H     1 <1>   0.0800 
 42 H       -5.9230    -9.1100     1.4510 H     1 <1>   0.0800 
 43 H       -7.4460    -8.9660     0.6550 H     1 <1>   0.0800 
 44 H       -3.9280   -13.0700     0.3800 H     1 <1>   0.4500 
 45 H       -6.7050   -13.9090     0.2770 H     1 <1>   0.0800 
 46 H       -5.3660   -14.5850     1.1670 H     1 <1>   0.0800 
 47 H       -5.7970   -13.2590    -1.8970 H     1 <1>   0.0800 
 48 H       -4.7010   -14.5200    -1.3770 H     1 <1>   0.0800 
 49 H       -4.0650   -13.0130    -1.9880 H     1 <1>   0.0800 
 50 H       -6.9160   -10.8710     2.4920 H     1 <1>   0.0800 
 51 H       -8.0470   -11.7830     1.5740 H     1 <1>   0.0800 
 52 H       -7.5400   -12.3440    -0.9090 H     1 <1>   0.0800 
 53 H       -6.9820   -10.9390    -1.7790 H     1 <1>   0.0800 
 54 H       -6.8810   -13.4420     2.6910 H     1 <1>   0.0800 
 55 H       -5.3720   -12.5950     2.6420 H     1 <1>   0.0800 
 56 H       -9.1250   -10.9930     0.0570 H     1 <1>   0.4000 
@<TRIPOS>BOND
  1   1   2  1   
  2   2   3  ar  
  3   2   4  ar  
  4   3   5  ar  
  5   3  29  1   
  6   4   6  ar  
  7   4  30  1   
  8   5   7  1   
  9   5   8  ar  
 10   6   8  ar  
 11   6  31  1   
 12   7   9  ar  
 13   7  10  ar  
 14   8  32  1   
 15   9  11  ar  
 16   9  33  1   
 17  10  12  ar  
 18  10  34  1   
 19  11  13  ar  
 20  11  35  1   
 21  12  13  ar  
 22  12  36  1   
 23  13  14  1   
 24  14  15  2   
 25  14  16  am  
 26  16  17  1   
 27  16  18  1   
 28  17  19  1   
 29  17  37  1   
 30  17  38  1   
 31  18  20  1   
 32  18  39  1   
 33  18  40  1   
 34  19  21  1   
 35  19  22  1   
 36  19  41  1   
 37  20  22  1   
 38  20  42  1   
 39  20  43  1   
 40  21  23  1   
 41  21  24  1   
 42  21  44  1   
 43  22  25  1   
 44  22  26  1   
 45  23  27  1   
 46  23  45  1   
 47  23  46  1   
 48  24  47  1   
 49  24  48  1   
 50  24  49  1   
 51  25  27  1   
 52  25  50  1   
 53  25  51  1   
 54  26  28  1   
 55  26  52  1   
 56  26  53  1   
 57  27  54  1   
 58  27  55  1   
 59  28  56  1   
@<TRIPOS>SUBSTRUCTURE
  1 ****  13 GROUP 4 **** **** 0

# MOE 2024.06 (io_trps.svl 2023.06)
