@<TRIPOS>MOLECULE
NONAME
41 43 1 0 0 
SMALL
USER_CHARGES


@<TRIPOS>ATOM
  1 CL      -2.2960     1.0370     2.0580 Cl    1 <1>  -0.1770 
  2 C       -1.0930     1.8050     1.0480 C.ar  1 <1>   0.1770 
  3 C       -1.3760     2.1130    -0.2770 C.ar  1 <1>  -0.1440 
  4 C        0.1360     2.0950     1.6200 C.ar  1 <1>  -0.1500 
  5 C       -0.3630     2.7300    -0.9990 C.ar  1 <1>   0.1900 
  6 C       -2.7310     1.7750    -0.9060 C.3   1 <1>   0.0440 
  7 C        1.1250     2.7090     0.8680 C.ar  1 <1>  -0.1500 
  8 F       -0.5650     3.0590    -2.2480 F     1 <1>  -0.1900 
  9 C        0.8730     3.0310    -0.4550 C.ar  1 <1>  -0.1500 
 10 C       -2.8870     0.2810    -1.1640 C.2   1 <1>   0.5690 
 11 O       -2.0190    -0.2740    -1.7950 O.2   1 <1>  -0.5700 
 12 N       -3.9820    -0.4130    -0.7150 N.am  1 <1>  -0.6600 
 13 C       -5.1300     0.1110     0.0700 C.3   1 <1>   0.1400 
 14 C       -4.1000    -1.8820    -0.8770 C.3   1 <1>   0.1400 
 15 C       -5.9630    -1.1190     0.4380 C.3   1 <1>   0.2000 
 16 C       -5.0440    -2.3230     0.2410 C.3   1 <1>  -0.0800 
 17 O       -6.3910    -1.0670     1.7550 O.3   1 <1>  -0.6800 
 18 C       -5.8200    -3.6170    -0.0590 C.3   1 <1>  -0.0170 
 19 C       -4.8890    -4.8040    -0.2420 C.ar  1 <1>   0.1670 
 20 N       -4.3710    -4.9670    -1.4480 N.ar  1 <1>  -0.6200 
 21 C       -4.6180    -5.6500     0.8330 C.ar  1 <1>   0.1600 
 22 C       -3.5680    -6.0170    -1.5070 C.ar  1 <1>   0.1600 
 23 N       -3.8170    -6.7010     0.7760 N.ar  1 <1>  -0.6200 
 24 C       -3.3000    -6.8550    -0.4310 C.ar  1 <1>   0.1600 
 25 H        0.3140     1.8380     2.6490 H     1 <1>   0.1500 
 26 H       -2.8460     2.2760    -1.8480 H     1 <1>   0.0800 
 27 H       -3.5080     2.1410    -0.2660 H     1 <1>   0.0800 
 28 H        2.0820     2.9340     1.3090 H     1 <1>   0.1500 
 29 H        1.6230     3.5070    -1.0610 H     1 <1>   0.1500 
 30 H       -4.7720     0.6060     0.9540 H     1 <1>   0.0800 
 31 H       -5.7090     0.7900    -0.5310 H     1 <1>   0.0800 
 32 H       -4.5190    -2.0970    -1.8460 H     1 <1>   0.0800 
 33 H       -3.1380    -2.3630    -0.7960 H     1 <1>   0.0800 
 34 H       -6.8290    -1.1770    -0.1990 H     1 <1>   0.0800 
 35 H       -4.4420    -2.4640     1.1220 H     1 <1>   0.0800 
 36 H       -5.6240    -1.0030     2.3580 H     1 <1>   0.4000 
 37 H       -6.4090    -3.4950    -0.9510 H     1 <1>   0.0800 
 38 H       -6.5000    -3.8160     0.7510 H     1 <1>   0.0800 
 39 H       -5.0830    -5.4480     1.7810 H     1 <1>   0.1500 
 40 H       -3.0980    -6.2240    -2.4520 H     1 <1>   0.1500 
 41 H       -2.6320    -7.6840    -0.5770 H     1 <1>   0.1500 
@<TRIPOS>BOND
  1   1   2  1   
  2   2   3  ar  
  3   2   4  ar  
  4   3   5  ar  
  5   3   6  1   
  6   4   7  ar  
  7   4  25  1   
  8   5   8  1   
  9   5   9  ar  
 10   6  10  1   
 11   6  26  1   
 12   6  27  1   
 13   7   9  ar  
 14   7  28  1   
 15   9  29  1   
 16  10  11  2   
 17  10  12  am  
 18  12  13  1   
 19  12  14  1   
 20  13  15  1   
 21  13  30  1   
 22  13  31  1   
 23  14  16  1   
 24  14  32  1   
 25  14  33  1   
 26  15  16  1   
 27  15  17  1   
 28  15  34  1   
 29  16  18  1   
 30  16  35  1   
 31  17  36  1   
 32  18  19  1   
 33  18  37  1   
 34  18  38  1   
 35  19  20  ar  
 36  19  21  ar  
 37  20  22  ar  
 38  21  23  ar  
 39  21  39  1   
 40  22  24  ar  
 41  22  40  1   
 42  23  24  ar  
 43  24  41  1   
@<TRIPOS>SUBSTRUCTURE
  1 ****  12 GROUP 4 **** **** 0

# MOE 2024.06 (io_trps.svl 2023.06)
