@<TRIPOS>MOLECULE
NONAME
52 55 1 0 0 
SMALL
USER_CHARGES


@<TRIPOS>ATOM
  1 O       -1.1760     0.2930    -0.5920 O.2   1 <1>  -0.5700 
  2 C       -1.7150     0.9680     0.2670 C.2   1 <1>   0.7160 
  3 N       -2.6780     0.3300     1.0330 N.am  1 <1>  -0.6600 
  4 C       -1.3670     2.3760     0.4090 C.2   1 <1>   0.2030 
  5 C       -3.9730     0.9700     1.4220 C.3   1 <1>   0.1400 
  6 C       -2.6810    -1.1560     1.1760 C.3   1 <1>   0.1400 
  7 N       -1.8050     3.2100     1.3040 N.2   1 <1>  -0.4100 
  8 C       -0.4900     3.0570    -0.4150 C.2   1 <1>  -0.1500 
  9 C       -5.1580     0.3520     0.6430 C.3   1 <1>   0.4230 
 10 C       -3.8350    -1.7660     0.3620 C.3   1 <1>   0.3430 
 11 O       -1.2760     4.3930     1.1150 O.3   1 <1>  -0.0190 
 12 C       -0.4710     4.3120     0.0660 C.2   1 <1>   0.0870 
 13 N       -5.1770    -1.1670     0.7300 N.4   1 <1>  -0.9590 
 14 C       -5.1370     0.8180    -0.8320 C.3   1 <1>   0.1200 
 15 C        0.2540     5.4810    -0.3840 C.ar  1 <1>   0.0530 
 16 C       -6.3130    -1.6920    -0.1080 C.3   1 <1>   0.4230 
 17 O       -6.2150     0.2660    -1.5300 O.3   1 <1>  -0.5600 
 18 C        0.9860     5.4650    -1.5720 C.ar  1 <1>  -0.1500 
 19 C        0.2510     6.6690     0.3490 C.ar  1 <1>  -0.1500 
 20 C       -6.2570    -1.1330    -1.5510 C.3   1 <1>   0.1200 
 21 C       -6.3540    -3.2290    -0.0630 C.3   1 <1>  -0.1600 
 22 C        1.6800     6.5780    -2.0090 C.ar  1 <1>  -0.1500 
 23 C        0.9430     7.7860    -0.0830 C.ar  1 <1>  -0.1500 
 24 C       -7.6900    -3.7940    -0.5720 C.3   1 <1>  -0.1600 
 25 C        1.6600     7.7430    -1.2640 C.ar  1 <1>  -0.1500 
 26 C       -7.7250    -5.3180    -0.4330 C.3   1 <1>  -0.2400 
 27 H       -4.1260     0.8410     2.4800 H     1 <1>   0.0800 
 28 H       -3.9570     2.0270     1.2310 H     1 <1>   0.0800 
 29 H       -1.7460    -1.5700     0.8340 H     1 <1>   0.0800 
 30 H       -2.7850    -1.4160     2.2150 H     1 <1>   0.0800 
 31 H        0.0400     2.6330    -1.2480 H     1 <1>   0.1500 
 32 H       -6.0660     0.7380     1.0760 H     1 <1>   0.0800 
 33 H       -3.8490    -2.8310     0.5270 H     1 <1>   0.0800 
 34 H       -3.6330    -1.5980    -0.6830 H     1 <1>   0.0800 
 35 H       -5.3740    -1.4160     1.7060 H     1 <1>   0.4500 
 36 H       -4.2230     0.5360    -1.3260 H     1 <1>   0.0800 
 37 H       -5.2330     1.8890    -0.8850 H     1 <1>   0.0800 
 38 H       -7.2360    -1.3390     0.3230 H     1 <1>   0.0800 
 39 H        1.0140     4.5720    -2.1690 H     1 <1>   0.1500 
 40 H       -0.2980     6.7240     1.2720 H     1 <1>   0.1500 
 41 H       -7.1410    -1.4150    -2.0960 H     1 <1>   0.0800 
 42 H       -5.3980    -1.4990    -2.0860 H     1 <1>   0.0800 
 43 H       -5.5600    -3.6430    -0.6600 H     1 <1>   0.0800 
 44 H       -6.2250    -3.5550     0.9550 H     1 <1>   0.0800 
 45 H        2.2370     6.5400    -2.9290 H     1 <1>   0.1500 
 46 H        0.9250     8.6900     0.5010 H     1 <1>   0.1500 
 47 H       -8.5080    -3.3760    -0.0080 H     1 <1>   0.0800 
 48 H       -7.8380    -3.5430    -1.6090 H     1 <1>   0.0800 
 49 H        2.2000     8.6120    -1.6020 H     1 <1>   0.1500 
 50 H       -7.6180    -5.6120     0.5970 H     1 <1>   0.0800 
 51 H       -6.9360    -5.7730    -1.0070 H     1 <1>   0.0800 
 52 H       -8.6650    -5.6980    -0.7950 H     1 <1>   0.0800 
@<TRIPOS>BOND
  1   1   2  2   
  2   2   3  am  
  3   2   4  1   
  4   3   5  1   
  5   3   6  1   
  6   4   7  2   
  7   4   8  1   
  8   5   9  1   
  9   5  27  1   
 10   5  28  1   
 11   6  10  1   
 12   6  29  1   
 13   6  30  1   
 14   7  11  1   
 15   8  12  2   
 16   8  31  1   
 17   9  13  1   
 18   9  14  1   
 19   9  32  1   
 20  10  13  1   
 21  10  33  1   
 22  10  34  1   
 23  11  12  1   
 24  12  15  1   
 25  13  16  1   
 26  13  35  1   
 27  14  17  1   
 28  14  36  1   
 29  14  37  1   
 30  15  18  ar  
 31  15  19  ar  
 32  16  20  1   
 33  16  21  1   
 34  16  38  1   
 35  17  20  1   
 36  18  22  ar  
 37  18  39  1   
 38  19  23  ar  
 39  19  40  1   
 40  20  41  1   
 41  20  42  1   
 42  21  24  1   
 43  21  43  1   
 44  21  44  1   
 45  22  25  ar  
 46  22  45  1   
 47  23  25  ar  
 48  23  46  1   
 49  24  26  1   
 50  24  47  1   
 51  24  48  1   
 52  25  49  1   
 53  26  50  1   
 54  26  51  1   
 55  26  52  1   
@<TRIPOS>SUBSTRUCTURE
  1 ****   2 GROUP 4 **** **** 0

# MOE 2024.06 (io_trps.svl 2023.06)
