@<TRIPOS>MOLECULE
NONAME
51 53 1 0 0 
SMALL
USER_CHARGES


@<TRIPOS>ATOM
  1 O        0.3320    -0.3130     1.3720 O.2   1 <1>  -0.5700 
  2 C        1.2140    -0.8470     0.7270 C.2   1 <1>   0.5440 
  3 N        2.2070    -0.0960     0.1550 N.am  1 <1>  -0.4930 
  4 C        1.2230    -2.2890     0.5760 C.ar  1 <1>   0.0860 
  5 C        2.3770     1.3120     0.1250 C.2   1 <1>   0.0630 
  6 C        1.5980    -2.9090    -0.6170 C.ar  1 <1>  -0.1500 
  7 C        0.8470    -3.1170     1.6330 C.ar  1 <1>  -0.1500 
  8 C        3.4240     1.9760    -0.4150 C.2   1 <1>  -0.3320 
  9 C        1.5400     2.3120     0.6200 C.2   1 <1>   0.1390 
 10 C        1.5990    -4.2870    -0.7460 C.ar  1 <1>  -0.1500 
 11 C        0.8470    -4.4940     1.5130 C.ar  1 <1>  -0.1500 
 12 N        3.1800     3.3000    -0.2260 N.pl3 1 <1>   0.3140 
 13 C        4.6640     1.4300    -1.1090 C.3   1 <1>  -0.0600 
 14 N        2.0140     3.5040     0.4100 N.2   1 <1>  -0.7070 
 15 C        1.2170    -5.0910     0.3180 C.ar  1 <1>  -0.1430 
 16 C        4.0240     4.4450    -0.6360 C.3   1 <1>   0.0960 
 17 C        1.1950    -6.6030     0.1750 C.3   1 <1>   0.4860 
 18 C        5.0550     4.7900     0.4460 C.3   1 <1>  -0.2400 
 19 N       -0.2200    -7.0600     0.1180 N.4   1 <1>  -0.9590 
 20 C       -0.3190    -8.5440     0.2230 C.3   1 <1>   0.3430 
 21 C       -0.9270    -6.5330    -1.0880 C.3   1 <1>   0.3430 
 22 C       -1.7890    -8.9560     0.3150 C.3   1 <1>  -0.1600 
 23 C       -2.4080    -6.9100    -1.0210 C.3   1 <1>  -0.1600 
 24 C       -2.6050    -8.4230    -0.8700 C.3   1 <1>  -0.1600 
 25 H        2.9750    -0.6090    -0.2670 H     1 <1>   0.3700 
 26 H        1.8820    -2.3020    -1.4600 H     1 <1>   0.1500 
 27 H        0.5500    -2.6590     2.5640 H     1 <1>   0.1500 
 28 H        0.6050     2.1260     1.1190 H     1 <1>   0.1500 
 29 H        1.8990    -4.7210    -1.6860 H     1 <1>   0.1500 
 30 H        0.5550    -5.0860     2.3660 H     1 <1>   0.1500 
 31 H        4.6500     0.3560    -1.1300 H     1 <1>   0.0800 
 32 H        5.5500     1.7450    -0.5880 H     1 <1>   0.0800 
 33 H        4.7090     1.7880    -2.1220 H     1 <1>   0.0800 
 34 H        3.3780     5.2880    -0.8040 H     1 <1>   0.0800 
 35 H        4.5130     4.2030    -1.5600 H     1 <1>   0.0800 
 36 H        1.6930    -7.0450     1.0230 H     1 <1>   0.0800 
 37 H        1.7190    -6.8980    -0.7200 H     1 <1>   0.0800 
 38 H        4.5510     5.0440     1.3620 H     1 <1>   0.0800 
 39 H        5.6430     5.6340     0.1340 H     1 <1>   0.0800 
 40 H        5.7120     3.9580     0.6220 H     1 <1>   0.0800 
 41 H       -0.6970    -6.6540     0.9320 H     1 <1>   0.4500 
 42 H        0.2050    -8.8920     1.0990 H     1 <1>   0.0800 
 43 H        0.1270    -9.0030    -0.6460 H     1 <1>   0.0800 
 44 H       -0.4900    -6.9500    -1.9810 H     1 <1>   0.0800 
 45 H       -0.8360    -5.4590    -1.1330 H     1 <1>   0.0800 
 46 H       -2.2050    -8.5940     1.2400 H     1 <1>   0.0800 
 47 H       -1.8530   -10.0310     0.3350 H     1 <1>   0.0800 
 48 H       -2.8960    -6.5750    -1.9200 H     1 <1>   0.0800 
 49 H       -2.8700    -6.3940    -0.1970 H     1 <1>   0.0800 
 50 H       -3.6500    -8.6430    -0.7230 H     1 <1>   0.0800 
 51 H       -2.2920    -8.9190    -1.7740 H     1 <1>   0.0800 
@<TRIPOS>BOND
  1   1   2  2   
  2   2   3  am  
  3   2   4  1   
  4   3   5  1   
  5   3  25  1   
  6   4   6  ar  
  7   4   7  ar  
  8   5   8  2   
  9   5   9  1   
 10   6  10  ar  
 11   6  26  1   
 12   7  11  ar  
 13   7  27  1   
 14   8  12  1   
 15   8  13  1   
 16   9  14  2   
 17   9  28  1   
 18  10  15  ar  
 19  10  29  1   
 20  11  15  ar  
 21  11  30  1   
 22  12  14  1   
 23  12  16  1   
 24  13  31  1   
 25  13  32  1   
 26  13  33  1   
 27  15  17  1   
 28  16  18  1   
 29  16  34  1   
 30  16  35  1   
 31  17  19  1   
 32  17  36  1   
 33  17  37  1   
 34  18  38  1   
 35  18  39  1   
 36  18  40  1   
 37  19  20  1   
 38  19  21  1   
 39  19  41  1   
 40  20  22  1   
 41  20  42  1   
 42  20  43  1   
 43  21  23  1   
 44  21  44  1   
 45  21  45  1   
 46  22  24  1   
 47  22  46  1   
 48  22  47  1   
 49  23  24  1   
 50  23  48  1   
 51  23  49  1   
 52  24  50  1   
 53  24  51  1   
@<TRIPOS>SUBSTRUCTURE
  1 ****   4 GROUP 4 **** **** 0

# MOE 2024.06 (io_trps.svl 2023.06)
