@<TRIPOS>MOLECULE
NONAME
48 50 1 0 0 
SMALL
USER_CHARGES


@<TRIPOS>ATOM
  1 O        0.0200     1.5710    -0.6190 O.3   1 <1>  -0.3630 
  2 C       -0.9550     2.3940    -0.1520 C.ar  1 <1>   0.0830 
  3 C       -0.2250     0.2220    -0.9510 C.3   1 <1>   0.0400 
  4 C       -0.5740     3.6560     0.3280 C.ar  1 <1>   0.0000 
  5 C       -2.2940     2.0110    -0.1350 C.ar  1 <1>  -0.1500 
  6 C        0.8000     4.1130     0.3140 C.ar  1 <1>   0.3100 
  7 C       -1.5730     4.4870     0.8370 C.ar  1 <1>  -0.1500 
  8 C       -3.2620     2.8610     0.3660 C.ar  1 <1>  -0.1500 
  9 N        1.3070     4.6270     1.4430 N.ar  1 <1>  -0.3100 
 10 C        1.5640     4.0530    -0.8410 C.ar  1 <1>  -0.1500 
 11 C       -2.8990     4.1020     0.8560 C.ar  1 <1>  -0.1500 
 12 N        2.5400     5.0660     1.4870 N.ar  1 <1>  -0.3100 
 13 C        2.8550     4.5130    -0.7960 C.ar  1 <1>  -0.1500 
 14 C        3.3260     5.0190     0.4030 C.ar  1 <1>   0.4100 
 15 N        4.6170     5.5260     0.5010 N.pl3 1 <1>  -0.8380 
 16 C        4.9830     6.5200     1.5600 C.3   1 <1>   0.3890 
 17 C        5.7760     4.8840    -0.1810 C.3   1 <1>   0.1290 
 18 C        5.5750     7.7830     0.9500 C.2   1 <1>   0.0070 
 19 N        6.6780     8.3140     1.3600 N.2   1 <1>  -0.3380 
 20 N        5.0350     8.4910    -0.0530 N.pl3 1 <1>   0.0480 
 21 N        6.8900     9.4020     0.6210 N.2   1 <1>  -0.3380 
 22 C        5.9090     9.4860    -0.2070 C.2   1 <1>   0.0360 
 23 C        3.8160     8.2680    -0.8620 C.3   1 <1>   0.0960 
 24 C        2.5520     8.4140    -0.0200 C.3   1 <1>   0.1200 
 25 O        1.4630     8.2020    -0.8580 O.3   1 <1>  -0.5600 
 26 C        0.2650     8.0040    -0.1800 C.3   1 <1>   0.0400 
 27 H        0.7130    -0.2320    -1.2160 H     1 <1>   0.0800 
 28 H       -0.8980     0.1850    -1.7890 H     1 <1>   0.0800 
 29 H       -0.6430    -0.2770    -0.0950 H     1 <1>   0.0800 
 30 H       -2.6060     1.0540    -0.5060 H     1 <1>   0.1500 
 31 H       -1.3010     5.4520     1.2270 H     1 <1>   0.1500 
 32 H       -4.2950     2.5590     0.3780 H     1 <1>   0.1500 
 33 H        1.1460     3.6540    -1.7460 H     1 <1>   0.1500 
 34 H       -3.6480     4.7640     1.2530 H     1 <1>   0.1500 
 35 H        3.4790     4.4930    -1.6670 H     1 <1>   0.1500 
 36 H        5.7010     6.0770     2.2280 H     1 <1>   0.0800 
 37 H        4.1290     6.7990     2.1490 H     1 <1>   0.0800 
 38 H        5.4860     3.9490    -0.6280 H     1 <1>   0.0800 
 39 H        6.5600     4.6880     0.5310 H     1 <1>   0.0800 
 40 H        6.1580     5.5400    -0.9440 H     1 <1>   0.0800 
 41 H        5.7970    10.2610    -0.9430 H     1 <1>   0.1500 
 42 H        3.8570     7.2830    -1.2870 H     1 <1>   0.0800 
 43 H        3.7930     8.9860    -1.6610 H     1 <1>   0.0800 
 44 H        2.4740     9.4050     0.3940 H     1 <1>   0.0800 
 45 H        2.5320     7.6800     0.7660 H     1 <1>   0.0800 
 46 H       -0.5110     7.8450    -0.9070 H     1 <1>   0.0800 
 47 H        0.0400     8.8770     0.4080 H     1 <1>   0.0800 
 48 H        0.3530     7.1360     0.4500 H     1 <1>   0.0800 
@<TRIPOS>BOND
  1   1   2  1   
  2   1   3  1   
  3   2   4  ar  
  4   2   5  ar  
  5   3  27  1   
  6   3  28  1   
  7   3  29  1   
  8   4   6  1   
  9   4   7  ar  
 10   5   8  ar  
 11   5  30  1   
 12   6   9  ar  
 13   6  10  ar  
 14   7  11  ar  
 15   7  31  1   
 16   8  11  ar  
 17   8  32  1   
 18   9  12  ar  
 19  10  13  ar  
 20  10  33  1   
 21  11  34  1   
 22  12  14  ar  
 23  13  14  ar  
 24  13  35  1   
 25  14  15  1   
 26  15  16  1   
 27  15  17  1   
 28  16  18  1   
 29  16  36  1   
 30  16  37  1   
 31  17  38  1   
 32  17  39  1   
 33  17  40  1   
 34  18  19  2   
 35  18  20  1   
 36  19  21  1   
 37  20  22  1   
 38  20  23  1   
 39  21  22  2   
 40  22  41  1   
 41  23  24  1   
 42  23  42  1   
 43  23  43  1   
 44  24  25  1   
 45  24  44  1   
 46  24  45  1   
 47  25  26  1   
 48  26  46  1   
 49  26  47  1   
 50  26  48  1   
@<TRIPOS>SUBSTRUCTURE
  1 ****  14 GROUP 4 **** **** 0

# MOE 2024.06 (io_trps.svl 2023.06)
