@<TRIPOS>MOLECULE
NONAME
53 56 1 0 0 
SMALL
USER_CHARGES


@<TRIPOS>ATOM
  1 S        0.1860    -0.3030     2.0400 S.o2  1 <1>   1.4470 
  2 O       -0.5080    -1.3910     2.6950 O.2   1 <1>  -0.6500 
  3 O        0.5850     0.8520     2.8150 O.2   1 <1>  -0.6500 
  4 N       -0.8170     0.2630     0.7980 N.am  1 <1>  -0.8490 
  5 C        1.6100    -0.9840     1.1400 C.ar  1 <1>  -0.0090 
  6 C       -2.1930     0.4720     1.2780 C.3   1 <1>   0.1960 
  7 C       -0.2960     1.4840     0.1750 C.3   1 <1>   0.1960 
  8 C        2.8220    -0.3130     1.0770 C.ar  1 <1>  -0.1500 
  9 C        1.5060    -2.1990     0.4680 C.ar  1 <1>  -0.1500 
 10 C       -3.1710     0.8420     0.1350 C.3   1 <1>   0.0000 
 11 C       -1.1600     1.8780    -1.0250 C.3   1 <1>  -0.1600 
 12 C        3.9190    -0.8140     0.3730 C.ar  1 <1>   0.0860 
 13 C        2.5750    -2.7250    -0.2310 C.ar  1 <1>  -0.1500 
 14 C       -4.5760     1.0610     0.7330 C.3   1 <1>   0.2000 
 15 C       -2.6250     2.0780    -0.6140 C.3   1 <1>  -0.1600 
 16 C       -3.3840    -0.3620    -0.8010 C.3   1 <1>  -0.1600 
 17 C        5.1900    -0.1270     0.2830 C.2   1 <1>   0.5440 
 18 C        3.7820    -2.0420    -0.2800 C.ar  1 <1>   0.1170 
 19 O       -5.3670     1.7760    -0.1740 O.3   1 <1>  -0.5600 
 20 C       -5.1670    -0.3460     0.8890 C.3   1 <1>  -0.1600 
 21 C       -4.4490    -1.2390    -0.1340 C.3   1 <1>  -0.1600 
 22 O        5.3510     0.9490     0.8280 O.2   1 <1>  -0.5700 
 23 N        6.2330    -0.6930    -0.4330 N.am  1 <1>  -0.4200 
 24 N        4.8760    -2.5480    -0.9680 N.am  1 <1>  -0.5470 
 25 C       -6.4350     2.4690     0.3890 C.3   1 <1>   0.0400 
 26 C        6.0790    -1.9190    -1.0470 C.2   1 <1>   0.6900 
 27 C        7.5450     0.0140    -0.5110 C.3   1 <1>   0.0600 
 28 O        6.9750    -2.4620    -1.6570 O.2   1 <1>  -0.5700 
 29 H       -2.5430    -0.4270     1.7560 H     1 <1>   0.0800 
 30 H       -2.1920     1.2550     2.0190 H     1 <1>   0.0800 
 31 H       -0.2860     2.2890     0.8930 H     1 <1>   0.0800 
 32 H        0.7130     1.3210    -0.1620 H     1 <1>   0.0800 
 33 H        2.9280     0.6310     1.5890 H     1 <1>   0.1500 
 34 H        0.5700    -2.7340     0.5000 H     1 <1>   0.1500 
 35 H       -0.7810     2.7890    -1.4530 H     1 <1>   0.0800 
 36 H       -1.0890     1.1100    -1.7760 H     1 <1>   0.0800 
 37 H        2.4720    -3.6680    -0.7380 H     1 <1>   0.1500 
 38 H       -4.5330     1.6010     1.6640 H     1 <1>   0.0800 
 39 H       -3.2200     2.2800    -1.4890 H     1 <1>   0.0800 
 40 H       -2.6960     2.9380     0.0290 H     1 <1>   0.0800 
 41 H       -3.7740    -0.0130    -1.7420 H     1 <1>   0.0800 
 42 H       -2.4760    -0.9080    -0.9900 H     1 <1>   0.0800 
 43 H       -4.9560    -0.7100     1.8790 H     1 <1>   0.0800 
 44 H       -6.2310    -0.3570     0.7410 H     1 <1>   0.0800 
 45 H       -3.9850    -2.0720     0.3670 H     1 <1>   0.0800 
 46 H       -5.1390    -1.6140    -0.8700 H     1 <1>   0.0800 
 47 H        4.8370    -3.4480    -1.4460 H     1 <1>   0.3700 
 48 H       -6.9780     2.9470    -0.4070 H     1 <1>   0.0800 
 49 H       -6.0560     3.2140     1.0660 H     1 <1>   0.0800 
 50 H       -7.0810     1.7810     0.9050 H     1 <1>   0.0800 
 51 H        7.3880     1.0750    -0.6070 H     1 <1>   0.0800 
 52 H        8.1110    -0.3230    -1.3620 H     1 <1>   0.0800 
 53 H        8.1080    -0.1770     0.3850 H     1 <1>   0.0800 
@<TRIPOS>BOND
  1   1   2  2   
  2   1   3  2   
  3   1   4  am  
  4   1   5  1   
  5   4   6  1   
  6   4   7  1   
  7   5   8  ar  
  8   5   9  ar  
  9   6  10  1   
 10   6  29  1   
 11   6  30  1   
 12   7  11  1   
 13   7  31  1   
 14   7  32  1   
 15   8  12  ar  
 16   8  33  1   
 17   9  13  ar  
 18   9  34  1   
 19  10  14  1   
 20  10  15  1   
 21  10  16  1   
 22  11  15  1   
 23  11  35  1   
 24  11  36  1   
 25  12  17  1   
 26  12  18  ar  
 27  13  18  ar  
 28  13  37  1   
 29  14  19  1   
 30  14  20  1   
 31  14  38  1   
 32  15  39  1   
 33  15  40  1   
 34  16  21  1   
 35  16  41  1   
 36  16  42  1   
 37  17  22  2   
 38  17  23  am  
 39  18  24  1   
 40  19  25  1   
 41  20  21  1   
 42  20  43  1   
 43  20  44  1   
 44  21  45  1   
 45  21  46  1   
 46  23  26  am  
 47  23  27  1   
 48  24  26  am  
 49  24  47  1   
 50  25  48  1   
 51  25  49  1   
 52  25  50  1   
 53  26  28  2   
 54  27  51  1   
 55  27  52  1   
 56  27  53  1   
@<TRIPOS>SUBSTRUCTURE
  1 ****   5 GROUP 4 **** **** 0

# MOE 2024.06 (io_trps.svl 2023.06)
