@<TRIPOS>MOLECULE
NONAME
42 45 1 0 0 
SMALL
USER_CHARGES


@<TRIPOS>ATOM
  1 S        0.3170    -0.2970     2.2350 S.3   1 <1>  -0.0800 
  2 C        1.4180    -1.0760     1.0710 C.2   1 <1>  -0.0450 
  3 C        1.0330     1.2890     1.9820 C.2   1 <1>  -0.1100 
  4 C        2.2450    -0.1200     0.5700 C.2   1 <1>   0.0620 
  5 C        1.3340    -2.4900     0.8470 C.2   1 <1>   0.7150 
  6 C        2.0250     1.2020     1.0790 C.2   1 <1>   0.0620 
  7 O        3.2080    -0.3440    -0.3490 O.3   1 <1>  -0.3420 
  8 O        2.3480    -3.1630     0.7720 O.2   1 <1>  -0.5700 
  9 N        0.1230    -3.1380     0.7030 N.am  1 <1>  -0.6600 
 10 O        2.7780     2.2540     0.6590 O.3   1 <1>  -0.3420 
 11 C        4.1860     0.6630    -0.5210 C.3   1 <1>   0.1200 
 12 C       -1.1270    -2.4780     0.2490 C.3   1 <1>   0.1400 
 13 C        0.0420    -4.6040     0.4920 C.3   1 <1>   0.1400 
 14 C        3.5250     2.0500    -0.5280 C.3   1 <1>   0.1200 
 15 C       -1.9100    -3.5730    -0.4720 C.3   1 <1>   0.2000 
 16 C       -1.4160    -4.8870     0.1290 C.3   1 <1>  -0.0800 
 17 O       -3.2750    -3.4400    -0.2740 O.3   1 <1>  -0.6800 
 18 C       -1.5940    -6.0840    -0.8180 C.3   1 <1>  -0.0170 
 19 C       -1.0810    -7.3660    -0.1820 C.ar  1 <1>  -0.1430 
 20 C       -1.8600    -8.1080     0.6810 C.ar  1 <1>  -0.1500 
 21 C        0.1880    -7.8520    -0.4290 C.ar  1 <1>  -0.1500 
 22 C       -1.3480    -9.2660     1.2430 C.ar  1 <1>   0.1600 
 23 C        0.6040    -9.0210     0.1860 C.ar  1 <1>   0.1600 
 24 N       -0.1330    -9.7390     1.0170 N.ar  1 <1>  -0.6200 
 25 H        0.6400     2.1220     2.5340 H     1 <1>   0.1500 
 26 H        4.8910     0.5860     0.2890 H     1 <1>   0.0800 
 27 H        4.6930     0.4750    -1.4500 H     1 <1>   0.0800 
 28 H       -1.6700    -2.1250     1.1080 H     1 <1>   0.0800 
 29 H       -0.9090    -1.6600    -0.4170 H     1 <1>   0.0800 
 30 H        0.7000    -4.8760    -0.3160 H     1 <1>   0.0800 
 31 H        0.3390    -5.1330     1.3830 H     1 <1>   0.0800 
 32 H        2.8550     2.1400    -1.3650 H     1 <1>   0.0800 
 33 H        4.2670     2.8250    -0.5870 H     1 <1>   0.0800 
 34 H       -1.7130    -3.5260    -1.5300 H     1 <1>   0.0800 
 35 H       -1.9400    -5.0790     1.0490 H     1 <1>   0.0800 
 36 H       -3.4890    -3.4880     0.6770 H     1 <1>   0.4000 
 37 H       -1.0720    -5.9030    -1.7420 H     1 <1>   0.0800 
 38 H       -2.6380    -6.1980    -1.0550 H     1 <1>   0.0800 
 39 H       -2.8610    -7.7980     0.9220 H     1 <1>   0.1500 
 40 H        0.8580    -7.3350    -1.0920 H     1 <1>   0.1500 
 41 H       -1.9700    -9.8330     1.9140 H     1 <1>   0.1500 
 42 H        1.5980    -9.3840    -0.0170 H     1 <1>   0.1500 
@<TRIPOS>BOND
  1   1   2  1   
  2   1   3  1   
  3   2   4  2   
  4   2   5  1   
  5   3   6  2   
  6   3  25  1   
  7   4   6  1   
  8   4   7  1   
  9   5   8  2   
 10   5   9  am  
 11   6  10  1   
 12   7  11  1   
 13   9  12  1   
 14   9  13  1   
 15  10  14  1   
 16  11  14  1   
 17  11  26  1   
 18  11  27  1   
 19  12  15  1   
 20  12  28  1   
 21  12  29  1   
 22  13  16  1   
 23  13  30  1   
 24  13  31  1   
 25  14  32  1   
 26  14  33  1   
 27  15  16  1   
 28  15  17  1   
 29  15  34  1   
 30  16  18  1   
 31  16  35  1   
 32  17  36  1   
 33  18  19  1   
 34  18  37  1   
 35  18  38  1   
 36  19  20  ar  
 37  19  21  ar  
 38  20  22  ar  
 39  20  39  1   
 40  21  23  ar  
 41  21  40  1   
 42  22  24  ar  
 43  22  41  1   
 44  23  24  ar  
 45  23  42  1   
@<TRIPOS>SUBSTRUCTURE
  1 ****   9 GROUP 4 **** **** 0

# MOE 2024.06 (io_trps.svl 2023.06)
