@<TRIPOS>MOLECULE
NONAME
48 49 1 0 0 
SMALL
USER_CHARGES


@<TRIPOS>ATOM
  1 O       -1.0510    -1.2810     1.5350 O.2   1 <1>  -0.5700 
  2 C       -1.0540    -0.2220     0.9450 C.2   1 <1>   0.5690 
  3 N       -1.4600    -0.1840    -0.3760 N.am  1 <1>  -0.6600 
  4 C       -0.7130     0.9790     1.8220 C.3   1 <1>   0.1570 
  5 C       -1.7830    -1.4540    -1.0780 C.3   1 <1>   0.3200 
  6 C       -1.6330     1.0320    -1.2340 C.3   1 <1>   0.1400 
  7 N       -0.0020     2.0840     1.1590 N.pl3 1 <1>   0.3140 
  8 C       -3.2350    -1.7760    -0.8140 C.2   1 <1>  -0.3320 
  9 C       -2.8050     1.8990    -0.7660 C.3   1 <1>   0.1200 
 10 N        1.0970     1.8750     0.4140 N.2   1 <1>  -0.7070 
 11 C       -0.3170     3.4030     1.2060 C.2   1 <1>  -0.3320 
 12 N       -3.6710    -2.1230     0.4080 N.pl3 1 <1>   0.0330 
 13 C       -4.3170    -1.7950    -1.6220 C.2   1 <1>   0.0770 
 14 O       -2.4940     3.2330    -0.9890 O.3   1 <1>  -0.6800 
 15 C        1.4400     3.0440    -0.0210 C.2   1 <1>   0.1080 
 16 C        0.5910     4.0470     0.4400 C.2   1 <1>  -0.1810 
 17 C       -1.4680     3.9990     2.0100 C.3   1 <1>  -0.0600 
 18 C       -4.9970    -2.3300     0.2690 C.2   1 <1>   0.0060 
 19 N       -5.4230    -2.1420    -0.9370 N.2   1 <1>  -0.5650 
 20 C        2.6420     3.2400    -0.9170 C.3   1 <1>  -0.0590 
 21 C        0.7100     5.5330     0.1420 C.3   1 <1>   0.0210 
 22 C       -5.8860    -2.7420     1.4210 C.3   1 <1>  -0.0600 
 23 C       -0.1150     5.9030    -1.0920 C.3   1 <1>  -0.2400 
 24 H       -0.0850     0.6390     2.6230 H     1 <1>   0.0800 
 25 H       -1.6210     1.3480     2.2500 H     1 <1>   0.0800 
 26 H       -1.1570    -2.2520    -0.7120 H     1 <1>   0.0800 
 27 H       -1.6040    -1.3610    -2.1340 H     1 <1>   0.0800 
 28 H       -1.8250     0.7420    -2.2520 H     1 <1>   0.0800 
 29 H       -0.7210     1.5960    -1.2470 H     1 <1>   0.0800 
 30 H       -2.9950     1.7740     0.2840 H     1 <1>   0.0800 
 31 H       -3.6980     1.6620    -1.3180 H     1 <1>   0.0800 
 32 H       -3.0890    -2.1920     1.2530 H     1 <1>   0.2700 
 33 H       -4.3640    -1.5740    -2.6760 H     1 <1>   0.1500 
 34 H       -1.6460     3.4650    -0.5430 H     1 <1>   0.4000 
 35 H       -2.4050     3.5460     1.7430 H     1 <1>   0.0800 
 36 H       -1.5510     5.0550     1.8310 H     1 <1>   0.0800 
 37 H       -1.2960     3.8490     3.0610 H     1 <1>   0.0800 
 38 H        2.9640     2.2910    -1.3060 H     1 <1>   0.0800 
 39 H        3.4450     3.6730    -0.3510 H     1 <1>   0.0800 
 40 H        2.3920     3.8850    -1.7370 H     1 <1>   0.0800 
 41 H        1.7420     5.7880    -0.0200 H     1 <1>   0.0800 
 42 H        0.3680     6.1010     0.9880 H     1 <1>   0.0800 
 43 H       -5.5500    -3.6770     1.8290 H     1 <1>   0.0800 
 44 H       -6.8980    -2.8600     1.0750 H     1 <1>   0.0800 
 45 H       -5.8690    -1.9890     2.1880 H     1 <1>   0.0800 
 46 H        0.2040     5.3260    -1.9420 H     1 <1>   0.0800 
 47 H        0.0050     6.9470    -1.3180 H     1 <1>   0.0800 
 48 H       -1.1570     5.7080    -0.9150 H     1 <1>   0.0800 
@<TRIPOS>BOND
  1   1   2  2   
  2   2   3  am  
  3   2   4  1   
  4   3   5  1   
  5   3   6  1   
  6   4   7  1   
  7   4  24  1   
  8   4  25  1   
  9   5   8  1   
 10   5  26  1   
 11   5  27  1   
 12   6   9  1   
 13   6  28  1   
 14   6  29  1   
 15   7  10  1   
 16   7  11  1   
 17   8  12  1   
 18   8  13  2   
 19   9  14  1   
 20   9  30  1   
 21   9  31  1   
 22  10  15  2   
 23  11  16  2   
 24  11  17  1   
 25  12  18  1   
 26  12  32  1   
 27  13  19  1   
 28  13  33  1   
 29  14  34  1   
 30  15  16  1   
 31  15  20  1   
 32  16  21  1   
 33  17  35  1   
 34  17  36  1   
 35  17  37  1   
 36  18  19  2   
 37  18  22  1   
 38  20  38  1   
 39  20  39  1   
 40  20  40  1   
 41  21  23  1   
 42  21  41  1   
 43  21  42  1   
 44  22  43  1   
 45  22  44  1   
 46  22  45  1   
 47  23  46  1   
 48  23  47  1   
 49  23  48  1   
@<TRIPOS>SUBSTRUCTURE
  1 ****   6 GROUP 4 **** **** 0

# MOE 2024.06 (io_trps.svl 2023.06)
