@<TRIPOS>MOLECULE
NONAME
44 45 1 0 0 
SMALL
USER_CHARGES


@<TRIPOS>ATOM
  1 CL      -2.2150    -1.8970     3.5990 Cl    1 <1>  -0.1770 
  2 C       -2.4490    -1.9890     1.8740 C.ar  1 <1>   0.1770 
  3 C       -2.6450    -3.2220     1.2850 C.ar  1 <1>  -0.1500 
  4 C       -2.4440    -0.8260     1.1270 C.ar  1 <1>  -0.1500 
  5 C       -2.8600    -3.3190    -0.0880 C.ar  1 <1>   0.0860 
  6 C       -2.6370    -0.9070    -0.2410 C.ar  1 <1>  -0.1500 
  7 C       -3.1060    -4.6070    -0.7050 C.2   1 <1>   0.5440 
  8 C       -2.8390    -2.1400    -0.8370 C.ar  1 <1>  -0.1500 
  9 O       -2.2400    -5.4560    -0.6710 O.2   1 <1>  -0.5700 
 10 N       -4.3180    -4.9030    -1.2910 N.am  1 <1>  -0.6600 
 11 C       -4.5200    -6.2020    -2.0130 C.3   1 <1>   0.3210 
 12 C       -5.5500    -4.0900    -1.1000 C.3   1 <1>   0.1400 
 13 C       -5.3860    -7.1700    -1.2060 C.2   1 <1>   0.0460 
 14 C       -6.1300    -4.3320     0.3070 C.3   1 <1>   0.3430 
 15 N       -6.7360    -7.0570    -1.1590 N.2   1 <1>  -0.5650 
 16 C       -4.9700    -8.2360    -0.4820 C.2   1 <1>  -0.3320 
 17 N       -7.5190    -3.7840     0.4700 N.4   1 <1>  -0.9590 
 18 C       -7.1030    -8.0710    -0.4430 C.2   1 <1>   0.0360 
 19 N       -6.0770    -8.8240     0.0040 N.pl3 1 <1>   0.0330 
 20 C       -3.5730    -8.7720    -0.2110 C.3   1 <1>  -0.0600 
 21 C       -7.8910    -3.7610     1.9170 C.3   1 <1>   0.2630 
 22 C       -8.5020    -4.6160    -0.2980 C.3   1 <1>   0.2630 
 23 H       -2.6230    -4.1120     1.8890 H     1 <1>   0.1500 
 24 H       -2.2840     0.1220     1.6110 H     1 <1>   0.1500 
 25 H       -2.6220    -0.0100    -0.8390 H     1 <1>   0.1500 
 26 H       -2.9750    -2.1980    -1.9040 H     1 <1>   0.1500 
 27 H       -3.5730    -6.6640    -2.2250 H     1 <1>   0.0800 
 28 H       -4.9950    -6.0150    -2.9600 H     1 <1>   0.0800 
 29 H       -6.2660    -4.3750    -1.8500 H     1 <1>   0.0800 
 30 H       -5.3250    -3.0470    -1.2290 H     1 <1>   0.0800 
 31 H       -5.4730    -3.8700     1.0250 H     1 <1>   0.0800 
 32 H       -6.1420    -5.3920     0.5000 H     1 <1>   0.0800 
 33 H       -7.5430    -2.8190     0.1100 H     1 <1>   0.4500 
 34 H       -8.1250    -8.3210    -0.2130 H     1 <1>   0.1500 
 35 H       -6.1300    -9.6750     0.5720 H     1 <1>   0.2700 
 36 H       -2.8240    -8.1350    -0.6490 H     1 <1>   0.0800 
 37 H       -3.4640    -9.7580    -0.6270 H     1 <1>   0.0800 
 38 H       -3.3910    -8.8180     0.8480 H     1 <1>   0.0800 
 39 H       -7.8710    -4.7590     2.3230 H     1 <1>   0.0800 
 40 H       -8.8830    -3.3570     2.0420 H     1 <1>   0.0800 
 41 H       -7.1990    -3.1490     2.4730 H     1 <1>   0.0800 
 42 H       -8.4860    -5.6340     0.0570 H     1 <1>   0.0800 
 43 H       -8.2560    -4.6260    -1.3470 H     1 <1>   0.0800 
 44 H       -9.5000    -4.2250    -0.1830 H     1 <1>   0.0800 
@<TRIPOS>BOND
  1   1   2  1   
  2   2   3  ar  
  3   2   4  ar  
  4   3   5  ar  
  5   3  23  1   
  6   4   6  ar  
  7   4  24  1   
  8   5   7  1   
  9   5   8  ar  
 10   6   8  ar  
 11   6  25  1   
 12   7   9  2   
 13   7  10  am  
 14   8  26  1   
 15  10  11  1   
 16  10  12  1   
 17  11  13  1   
 18  11  27  1   
 19  11  28  1   
 20  12  14  1   
 21  12  29  1   
 22  12  30  1   
 23  13  15  1   
 24  13  16  2   
 25  14  17  1   
 26  14  31  1   
 27  14  32  1   
 28  15  18  2   
 29  16  19  1   
 30  16  20  1   
 31  17  21  1   
 32  17  22  1   
 33  17  33  1   
 34  18  19  1   
 35  18  34  1   
 36  19  35  1   
 37  20  36  1   
 38  20  37  1   
 39  20  38  1   
 40  21  39  1   
 41  21  40  1   
 42  21  41  1   
 43  22  42  1   
 44  22  43  1   
 45  22  44  1   
@<TRIPOS>SUBSTRUCTURE
  1 ****  10 GROUP 4 **** **** 0

# MOE 2024.06 (io_trps.svl 2023.06)
