@<TRIPOS>MOLECULE
NONAME
46 48 1 0 0 
SMALL
USER_CHARGES


@<TRIPOS>ATOM
  1 O        0.1760     0.1430     0.1140 O.3   1 <1>  -0.2870 
  2 C        1.4040    -0.3020    -0.0820 C.2   1 <1>  -0.0490 
  3 C       -0.6370    -0.5910    -0.6200 C.2   1 <1>  -0.0190 
  4 C        1.3970    -1.3340    -0.9550 C.2   1 <1>  -0.1580 
  5 C        2.5580     0.3660     0.6400 C.3   1 <1>   0.5180 
  6 C        0.0560    -1.5230    -1.3070 C.2   1 <1>  -0.1580 
  7 N        2.5700     1.8090     0.2760 N.4   1 <1>  -0.9610 
  8 C        3.9490     2.3800     0.2080 C.3   1 <1>   0.3370 
  9 C        1.6620     2.5920     1.1520 C.3   1 <1>   0.3370 
 10 C        3.9590     3.9290     0.1940 C.3   1 <1>  -0.0880 
 11 C        1.4380     3.9750     0.5300 C.3   1 <1>  -0.1680 
 12 C        2.6170     4.4940    -0.3180 C.3   1 <1>  -0.1680 
 13 C        5.1650     4.4410    -0.6200 C.3   1 <1>   0.1600 
 14 N        5.2440     5.9250    -0.5770 N.pl3 1 <1>  -0.7180 
 15 C        6.3170     6.7100    -0.3700 C.cat 1 <1>   1.0690 
 16 N        7.5500     6.2940    -0.1960 N.pl3 1 <1>  -0.7040 
 17 N        6.3380     8.0410    -0.3070 N.pl3 1 <1>  -0.4630 
 18 C        8.3140     7.4090    -0.0290 C.2   1 <1>   0.4800 
 19 N        7.6150     8.4780    -0.0890 N.2   1 <1>  -0.2670 
 20 C        5.2430     9.0350    -0.4280 C.3   1 <1>   0.2670 
 21 C        9.8080     7.3330     0.1970 C.3   1 <1>  -0.0800 
 22 H       -1.6940    -0.3870    -0.5960 H     1 <1>   0.1420 
 23 H        2.2160    -1.9220    -1.3320 H     1 <1>   0.1420 
 24 H        3.4760    -0.1040     0.3300 H     1 <1>   0.0720 
 25 H        2.4490     0.2460     1.7050 H     1 <1>   0.0720 
 26 H       -0.3160    -2.2700    -1.9880 H     1 <1>   0.1420 
 27 H        2.1370     1.8410    -0.6580 H     1 <1>   0.4440 
 28 H        4.4250     2.0100    -0.6860 H     1 <1>   0.0720 
 29 H        4.5240     2.0380     1.0530 H     1 <1>   0.0720 
 30 H        2.1100     2.6990     2.1270 H     1 <1>   0.0720 
 31 H        0.7140     2.0910     1.2680 H     1 <1>   0.0720 
 32 H        4.0950     4.2500     1.2130 H     1 <1>   0.0720 
 33 H        1.2380     4.6640     1.3320 H     1 <1>   0.0720 
 34 H        0.5500     3.9440    -0.0780 H     1 <1>   0.0720 
 35 H        2.4710     4.1890    -1.3420 H     1 <1>   0.0720 
 36 H        2.6010     5.5690    -0.2930 H     1 <1>   0.0720 
 37 H        5.0660     4.1270    -1.6470 H     1 <1>   0.0720 
 38 H        6.0720     4.0140    -0.2250 H     1 <1>   0.0720 
 39 H        4.3640     6.3950    -0.7920 H     1 <1>   0.4440 
 40 H        7.8870     5.3390    -0.2040 H     1 <1>   0.4440 
 41 H        4.2870     8.5500    -0.5120 H     1 <1>   0.0720 
 42 H        5.4070     9.6480    -1.2980 H     1 <1>   0.0720 
 43 H        5.2370     9.6700     0.4430 H     1 <1>   0.0720 
 44 H       10.0190     6.7750     1.0910 H     1 <1>   0.0720 
 45 H       10.2140     8.3230     0.3070 H     1 <1>   0.0720 
 46 H       10.2850     6.8570    -0.6390 H     1 <1>   0.0720 
@<TRIPOS>BOND
  1   1   2  1   
  2   1   3  1   
  3   2   4  2   
  4   2   5  1   
  5   3   6  2   
  6   3  22  1   
  7   4   6  1   
  8   4  23  1   
  9   5   7  1   
 10   5  24  1   
 11   5  25  1   
 12   6  26  1   
 13   7   8  1   
 14   7   9  1   
 15   7  27  1   
 16   8  10  1   
 17   8  28  1   
 18   8  29  1   
 19   9  11  1   
 20   9  30  1   
 21   9  31  1   
 22  10  12  1   
 23  10  13  1   
 24  10  32  1   
 25  11  12  1   
 26  11  33  1   
 27  11  34  1   
 28  12  35  1   
 29  12  36  1   
 30  13  14  1   
 31  13  37  1   
 32  13  38  1   
 33  14  15  ar  
 34  14  39  1   
 35  15  16  ar  
 36  15  17  ar  
 37  16  18  1   
 38  16  40  1   
 39  17  19  1   
 40  17  20  1   
 41  18  19  2   
 42  18  21  1   
 43  20  41  1   
 44  20  42  1   
 45  20  43  1   
 46  21  44  1   
 47  21  45  1   
 48  21  46  1   
@<TRIPOS>SUBSTRUCTURE
  1 ****  10 GROUP 4 **** **** 0

# MOE 2024.06 (io_trps.svl 2023.06)
