@<TRIPOS>MOLECULE
NONAME
48 50 1 0 0 
SMALL
USER_CHARGES


@<TRIPOS>ATOM
  1 CL      -1.8690    -1.0420     1.6950 Cl    1 <1>  -0.1770 
  2 C       -2.4170     0.4210     0.9090 C.ar  1 <1>   0.1770 
  3 C       -3.0670     0.3400    -0.3160 C.ar  1 <1>  -0.1440 
  4 C       -2.2000     1.6300     1.5400 C.ar  1 <1>  -0.1500 
  5 C       -3.5060     1.5120    -0.9210 C.ar  1 <1>  -0.1500 
  6 C       -3.2840    -1.0050    -0.9840 C.3   1 <1>   0.4870 
  7 C       -2.6480     2.7800     0.9210 C.ar  1 <1>   0.1770 
  8 C       -3.2970     2.7330    -0.3000 C.ar  1 <1>  -0.1500 
  9 N       -4.2230    -1.8190    -0.1560 N.4   1 <1>  -0.9590 
 10 CL      -2.3940     4.3210     1.6950 Cl    1 <1>  -0.1770 
 11 C       -4.2470    -3.2580    -0.6070 C.3   1 <1>   0.3430 
 12 C       -5.5870    -1.2060    -0.1460 C.3   1 <1>   0.3430 
 13 C       -5.2380    -4.1530     0.2060 C.3   1 <1>   0.4230 
 14 C       -6.5160    -2.0350     0.7470 C.3   1 <1>  -0.1600 
 15 N       -5.2600    -5.6320    -0.1810 N.4   1 <1>  -0.9590 
 16 C       -6.6570    -3.5200     0.3130 C.3   1 <1>   0.0000 
 17 C       -6.4460    -6.3820     0.3600 C.3   1 <1>   0.3430 
 18 C       -5.1440    -5.9070    -1.6540 C.3   1 <1>   0.2630 
 19 C       -7.4480    -4.2750     1.4180 C.3   1 <1>  -0.1600 
 20 C       -7.4780    -3.5940    -1.0080 C.3   1 <1>   0.1200 
 21 C       -6.9810    -5.7300     1.6360 C.3   1 <1>  -0.1600 
 22 O       -6.7400    -3.1540    -2.0980 O.3   1 <1>  -0.6800 
 23 H       -1.6950     1.6820     2.4880 H     1 <1>   0.1500 
 24 H       -4.0070     1.4960    -1.8770 H     1 <1>   0.1500 
 25 H       -2.3330    -1.5070    -1.0680 H     1 <1>   0.0800 
 26 H       -3.6830    -0.8660    -1.9760 H     1 <1>   0.0800 
 27 H       -3.6300     3.6510    -0.7550 H     1 <1>   0.1500 
 28 H       -3.8460    -1.7590     0.8030 H     1 <1>   0.4500 
 29 H       -4.5260    -3.2880    -1.6460 H     1 <1>   0.0800 
 30 H       -3.2560    -3.6700    -0.5150 H     1 <1>   0.0800 
 31 H       -5.5350    -0.1970     0.2330 H     1 <1>   0.0800 
 32 H       -5.9820    -1.1650    -1.1480 H     1 <1>   0.0800 
 33 H       -4.8570    -4.1270     1.2130 H     1 <1>   0.0800 
 34 H       -6.1450    -1.9690     1.7550 H     1 <1>   0.0800 
 35 H       -7.4870    -1.5680     0.7480 H     1 <1>   0.0800 
 36 H       -4.4410    -6.0700     0.2710 H     1 <1>   0.4500 
 37 H       -7.2370    -6.3930    -0.3730 H     1 <1>   0.0800 
 38 H       -6.1740    -7.4070     0.5610 H     1 <1>   0.0800 
 39 H       -5.9700    -5.4670    -2.1880 H     1 <1>   0.0800 
 40 H       -5.1520    -6.9710    -1.8360 H     1 <1>   0.0800 
 41 H       -4.2250    -5.5070    -2.0490 H     1 <1>   0.0800 
 42 H       -7.3630    -3.7720     2.3680 H     1 <1>   0.0800 
 43 H       -8.5000    -4.2740     1.1800 H     1 <1>   0.0800 
 44 H       -8.3610    -2.9790    -0.9340 H     1 <1>   0.0800 
 45 H       -7.7980    -4.6000    -1.2180 H     1 <1>   0.0800 
 46 H       -7.8080    -6.3120     2.0080 H     1 <1>   0.0800 
 47 H       -6.2150    -5.7650     2.3930 H     1 <1>   0.0800 
 48 H       -7.3250    -3.0620    -2.8870 H     1 <1>   0.4000 
@<TRIPOS>BOND
  1   1   2  1   
  2   2   3  ar  
  3   2   4  ar  
  4   3   5  ar  
  5   3   6  1   
  6   4   7  ar  
  7   4  23  1   
  8   5   8  ar  
  9   5  24  1   
 10   6   9  1   
 11   6  25  1   
 12   6  26  1   
 13   7   8  ar  
 14   7  10  1   
 15   8  27  1   
 16   9  11  1   
 17   9  12  1   
 18   9  28  1   
 19  11  13  1   
 20  11  29  1   
 21  11  30  1   
 22  12  14  1   
 23  12  31  1   
 24  12  32  1   
 25  13  15  1   
 26  13  16  1   
 27  13  33  1   
 28  14  16  1   
 29  14  34  1   
 30  14  35  1   
 31  15  17  1   
 32  15  18  1   
 33  15  36  1   
 34  16  19  1   
 35  16  20  1   
 36  17  21  1   
 37  17  37  1   
 38  17  38  1   
 39  18  39  1   
 40  18  40  1   
 41  18  41  1   
 42  19  21  1   
 43  19  42  1   
 44  19  43  1   
 45  20  22  1   
 46  20  44  1   
 47  20  45  1   
 48  21  46  1   
 49  21  47  1   
 50  22  48  1   
@<TRIPOS>SUBSTRUCTURE
  1 ****   9 GROUP 4 **** **** 0

# MOE 2024.06 (io_trps.svl 2023.06)
