@<TRIPOS>MOLECULE
NONAME
51 53 1 0 0 
SMALL
USER_CHARGES


@<TRIPOS>ATOM
  1 S       -0.5840     0.5670    -0.5600 S.3   1 <1>  -0.3320 
  2 C       -1.9600    -0.4900    -0.0720 C.ar  1 <1>   0.1020 
  3 C        0.9630    -0.3110    -0.0610 C.3   1 <1>  -0.0100 
  4 C       -3.2310    -0.0360    -0.3650 C.ar  1 <1>  -0.1500 
  5 C       -1.7670    -1.7030     0.5700 C.ar  1 <1>  -0.1500 
  6 C       -4.3460    -0.7900    -0.0220 C.ar  1 <1>   0.1170 
  7 C       -2.8710    -2.4610     0.9180 C.ar  1 <1>  -0.1500 
  8 N       -5.6190    -0.2870    -0.3220 N.am  1 <1>  -0.5470 
  9 C       -4.1460    -2.0070     0.6260 C.ar  1 <1>  -0.1500 
 10 C       -6.8280    -0.9040    -0.4760 C.2   1 <1>   0.6900 
 11 O       -6.9190    -2.1170    -0.5110 O.2   1 <1>  -0.5700 
 12 N       -7.9490    -0.1270    -0.6210 N.am  1 <1>  -0.6600 
 13 C       -8.0430     1.2810    -0.1350 C.3   1 <1>   0.1400 
 14 C       -9.2060    -0.7520    -1.1260 C.3   1 <1>   0.1400 
 15 C       -9.4010     1.4910     0.5330 C.3   1 <1>  -0.1600 
 16 C      -10.1850     0.3260    -1.5940 C.3   1 <1>  -0.1600 
 17 C      -10.5750     1.3070    -0.4630 C.3   1 <1>   0.2800 
 18 O      -10.7540     2.5260    -1.1250 O.3   1 <1>  -0.5600 
 19 C      -11.8830     0.8300     0.2410 C.3   1 <1>  -0.1600 
 20 C      -11.3920     3.6290    -0.5180 C.3   1 <1>   0.1200 
 21 C      -13.0190     1.8620     0.3010 C.3   1 <1>   0.2800 
 22 C      -12.4290     3.2640     0.5600 C.3   1 <1>   0.2000 
 23 O      -13.6690     1.8700    -0.9190 O.3   1 <1>  -0.6800 
 24 C      -14.0860     1.4650     1.3270 C.3   1 <1>  -0.2400 
 25 O      -11.8100     3.3110     1.8130 O.3   1 <1>  -0.6800 
 26 H        1.7940     0.3050    -0.3530 H     1 <1>   0.0800 
 27 H        0.9890    -1.2550    -0.5740 H     1 <1>   0.0800 
 28 H        0.9420    -0.4420     1.0060 H     1 <1>   0.0800 
 29 H       -3.3450     0.9070    -0.8660 H     1 <1>   0.1500 
 30 H       -0.7850    -2.0650     0.8020 H     1 <1>   0.1500 
 31 H       -2.7430    -3.4060     1.4160 H     1 <1>   0.1500 
 32 H       -5.6490     0.6880    -0.5970 H     1 <1>   0.3700 
 33 H       -4.9930    -2.6070     0.9080 H     1 <1>   0.1500 
 34 H       -7.2640     1.4810     0.5810 H     1 <1>   0.0800 
 35 H       -7.9340     1.9580    -0.9660 H     1 <1>   0.0800 
 36 H       -8.9700    -1.4090    -1.9460 H     1 <1>   0.0800 
 37 H       -9.6460    -1.3420    -0.3400 H     1 <1>   0.0800 
 38 H       -9.4220     2.4680     0.9750 H     1 <1>   0.0800 
 39 H       -9.4650     0.7740     1.3320 H     1 <1>   0.0800 
 40 H      -11.0560    -0.1380    -2.0190 H     1 <1>   0.0800 
 41 H       -9.7060     0.8640    -2.3940 H     1 <1>   0.0800 
 42 H      -12.2560    -0.0760    -0.2000 H     1 <1>   0.0800 
 43 H      -11.6400     0.5550     1.2510 H     1 <1>   0.0800 
 44 H      -10.6400     4.2870    -0.1200 H     1 <1>   0.0800 
 45 H      -11.8990     4.1460    -1.3130 H     1 <1>   0.0800 
 46 H      -13.2140     3.9990     0.5780 H     1 <1>   0.0800 
 47 H      -14.0120     0.9810    -1.1190 H     1 <1>   0.4000 
 48 H      -13.6640     1.4450     2.3160 H     1 <1>   0.0800 
 49 H      -14.4840     0.4910     1.1110 H     1 <1>   0.0800 
 50 H      -14.8860     2.1850     1.3260 H     1 <1>   0.0800 
 51 H      -11.0720     2.6740     1.8320 H     1 <1>   0.4000 
@<TRIPOS>BOND
  1   1   2  1   
  2   1   3  1   
  3   2   4  ar  
  4   2   5  ar  
  5   3  26  1   
  6   3  27  1   
  7   3  28  1   
  8   4   6  ar  
  9   4  29  1   
 10   5   7  ar  
 11   5  30  1   
 12   6   8  1   
 13   6   9  ar  
 14   7   9  ar  
 15   7  31  1   
 16   8  10  am  
 17   8  32  1   
 18   9  33  1   
 19  10  11  2   
 20  10  12  am  
 21  12  13  1   
 22  12  14  1   
 23  13  15  1   
 24  13  34  1   
 25  13  35  1   
 26  14  16  1   
 27  14  36  1   
 28  14  37  1   
 29  15  17  1   
 30  15  38  1   
 31  15  39  1   
 32  16  17  1   
 33  16  40  1   
 34  16  41  1   
 35  17  18  1   
 36  17  19  1   
 37  18  20  1   
 38  19  21  1   
 39  19  42  1   
 40  19  43  1   
 41  20  22  1   
 42  20  44  1   
 43  20  45  1   
 44  21  22  1   
 45  21  23  1   
 46  21  24  1   
 47  22  25  1   
 48  22  46  1   
 49  23  47  1   
 50  24  48  1   
 51  24  49  1   
 52  24  50  1   
 53  25  51  1   
@<TRIPOS>SUBSTRUCTURE
  1 ****  12 GROUP 4 **** **** 0

# MOE 2024.06 (io_trps.svl 2023.06)
