@<TRIPOS>MOLECULE
NONAME
46 48 1 0 0 
SMALL
USER_CHARGES


@<TRIPOS>ATOM
  1 O        1.3360    -0.2200     1.6420 O.co2 1 <1>  -0.9000 
  2 C        1.3880     0.7070     0.8160 C.2   1 <1>   0.9060 
  3 O        0.5970     1.6470     0.8520 O.co2 1 <1>  -0.9000 
  4 C        2.4730     0.6520    -0.2750 C.3   1 <1>  -0.1060 
  5 C        3.7660     0.0940     0.3630 C.3   1 <1>   0.4230 
  6 C        2.7980     2.0770    -0.8120 C.3   1 <1>  -0.1600 
  7 C        1.9870    -0.2530    -1.4460 C.3   1 <1>  -0.1600 
  8 N        3.5500    -1.3400     0.7660 N.4   1 <1>  -0.9590 
  9 C        4.2610     1.0370     1.4890 C.3   1 <1>   0.2090 
 10 C        3.3500     3.0090     0.2800 C.3   1 <1>   0.2090 
 11 C        2.8960    -1.4720    -1.6680 C.3   1 <1>  -0.1600 
 12 C        3.1750    -2.2370    -0.3660 C.3   1 <1>   0.3430 
 13 C        4.5990    -1.9210     1.6420 C.3   1 <1>   0.2630 
 14 N        4.5500     2.3840     0.9100 N.pl3 1 <1>  -0.8380 
 15 C        5.7940     2.6390     0.3610 C.ar  1 <1>   0.4100 
 16 N        6.4810     1.5970    -0.0970 N.ar  1 <1>  -0.6200 
 17 C        6.2660     3.9430     0.3040 C.ar  1 <1>  -0.1500 
 18 C        7.6580     1.8790    -0.6260 C.ar  1 <1>   0.1600 
 19 C        7.4950     4.2490    -0.2520 C.ar  1 <1>   0.0860 
 20 C        8.1970     3.1450    -0.7280 C.ar  1 <1>  -0.1500 
 21 C        7.9770     5.6140    -0.3170 C.2   1 <1>   0.4230 
 22 O        7.3180     6.5590     0.0270 O.2   1 <1>  -0.5700 
 23 C        9.3710     5.9070    -0.8380 C.3   1 <1>  -0.1790 
 24 H        4.5350     0.1080    -0.3890 H     1 <1>   0.0800 
 25 H        1.9040     2.5220    -1.2140 H     1 <1>   0.0800 
 26 H        3.5200     2.0190    -1.6070 H     1 <1>   0.0800 
 27 H        0.9910    -0.6030    -1.2280 H     1 <1>   0.0800 
 28 H        1.9190     0.3090    -2.3610 H     1 <1>   0.0800 
 29 H        2.6630    -1.2310     1.3300 H     1 <1>   0.4500 
 30 H        5.1630     0.6550     1.9290 H     1 <1>   0.0800 
 31 H        3.5200     1.1350     2.2630 H     1 <1>   0.0800 
 32 H        2.6010     3.1880     1.0350 H     1 <1>   0.0800 
 33 H        3.6060     3.9590    -0.1560 H     1 <1>   0.0800 
 34 H        3.8300    -1.1550    -2.0980 H     1 <1>   0.0800 
 35 H        2.4340    -2.1390    -2.3740 H     1 <1>   0.0800 
 36 H        3.9630    -2.9500    -0.5450 H     1 <1>   0.0800 
 37 H        2.2880    -2.7840    -0.0880 H     1 <1>   0.0800 
 38 H        5.5470    -1.9300     1.1300 H     1 <1>   0.0800 
 39 H        4.3360    -2.9290     1.9160 H     1 <1>   0.0800 
 40 H        4.6940    -1.3390     2.5440 H     1 <1>   0.0800 
 41 H        5.6560     4.7280     0.7110 H     1 <1>   0.1500 
 42 H        8.2290     1.0460    -1.0030 H     1 <1>   0.1500 
 43 H        9.1640     3.2610    -1.1810 H     1 <1>   0.1500 
 44 H       10.1020     5.3690    -0.2630 H     1 <1>   0.0800 
 45 H        9.5770     6.9590    -0.7510 H     1 <1>   0.0800 
 46 H        9.4430     5.6300    -1.8730 H     1 <1>   0.0800 
@<TRIPOS>BOND
  1   1   2  ar  
  2   2   3  ar  
  3   2   4  1   
  4   4   5  1   
  5   4   6  1   
  6   4   7  1   
  7   5   8  1   
  8   5   9  1   
  9   5  24  1   
 10   6  10  1   
 11   6  25  1   
 12   6  26  1   
 13   7  11  1   
 14   7  27  1   
 15   7  28  1   
 16   8  12  1   
 17   8  13  1   
 18   8  29  1   
 19   9  14  1   
 20   9  30  1   
 21   9  31  1   
 22  10  14  1   
 23  10  32  1   
 24  10  33  1   
 25  11  12  1   
 26  11  34  1   
 27  11  35  1   
 28  12  36  1   
 29  12  37  1   
 30  13  38  1   
 31  13  39  1   
 32  13  40  1   
 33  14  15  1   
 34  15  16  ar  
 35  15  17  ar  
 36  16  18  ar  
 37  17  19  ar  
 38  17  41  1   
 39  18  20  ar  
 40  18  42  1   
 41  19  20  ar  
 42  19  21  1   
 43  20  43  1   
 44  21  22  2   
 45  21  23  1   
 46  23  44  1   
 47  23  45  1   
 48  23  46  1   
@<TRIPOS>SUBSTRUCTURE
  1 ****  14 GROUP 4 **** **** 0

# MOE 2024.06 (io_trps.svl 2023.06)
