@<TRIPOS>MOLECULE
NONAME
56 59 1 0 0 
SMALL
USER_CHARGES


@<TRIPOS>ATOM
  1 O        3.2200    -2.3280    -1.6970 O.2   1 <1>  -0.5700 
  2 C        2.1300    -2.4070    -1.1540 C.2   1 <1>   0.5440 
  3 N        1.1760    -1.4640    -1.4920 N.am  1 <1>  -0.6600 
  4 C        1.9090    -3.4590    -0.1650 C.ar  1 <1>   0.3960 
  5 C        1.4440    -0.3590    -2.4410 C.3   1 <1>   0.1400 
  6 C       -0.1050    -1.2500    -0.7820 C.3   1 <1>   0.1400 
  7 N        0.7440    -4.1290    -0.1140 N.ar  1 <1>  -0.6200 
  8 C        2.9540    -3.7450     0.7170 C.ar  1 <1>   0.1600 
  9 C        0.4480     0.7290    -2.0580 C.3   1 <1>  -0.1600 
 10 C       -0.7280    -0.0270    -1.4450 C.3   1 <1>  -0.1600 
 11 C        0.6980    -5.0480     0.8350 C.ar  1 <1>   0.4100 
 12 N        2.9240    -4.6560     1.6810 N.ar  1 <1>  -0.6200 
 13 N       -0.4840    -5.7700     0.9280 N.pl3 1 <1>  -0.8380 
 14 C        1.7730    -5.2930     1.7050 C.ar  1 <1>   0.1600 
 15 C       -1.2640    -5.9940    -0.3230 C.3   1 <1>   0.2090 
 16 C       -1.3040    -5.5710     2.1540 C.3   1 <1>   0.2090 
 17 C       -2.2650    -7.1630    -0.1620 C.3   1 <1>   0.4230 
 18 C       -2.2470    -6.7660     2.3180 C.3   1 <1>  -0.1600 
 19 N       -3.0310    -7.5110    -1.4370 N.4   1 <1>  -0.9590 
 20 C       -3.1740    -6.9900     1.0900 C.3   1 <1>   0.0000 
 21 C       -4.2770    -8.3140    -1.2080 C.3   1 <1>   0.3430 
 22 C       -3.3340    -6.3520    -2.3410 C.3   1 <1>   0.2630 
 23 C       -3.9920    -8.2950     1.3210 C.3   1 <1>  -0.1600 
 24 C       -4.1270    -5.7760     0.8980 C.3   1 <1>   0.1200 
 25 C       -4.1560    -9.1600     0.0570 C.3   1 <1>  -0.1600 
 26 O       -4.7710    -5.4400     2.0760 O.3   1 <1>  -0.6800 
 27 H        2.4600    -0.0100    -2.3610 H     1 <1>   0.0800 
 28 H        1.2610    -0.7070    -3.4430 H     1 <1>   0.0800 
 29 H       -0.7470    -2.1090    -0.8760 H     1 <1>   0.0800 
 30 H        0.0940    -1.0550     0.2590 H     1 <1>   0.0800 
 31 H        3.8660    -3.1810     0.6130 H     1 <1>   0.1500 
 32 H        0.8990     1.3680    -1.3180 H     1 <1>   0.0800 
 33 H        0.1600     1.3230    -2.9060 H     1 <1>   0.0800 
 34 H       -1.3950    -0.3530    -2.2240 H     1 <1>   0.0800 
 35 H       -1.2790     0.5730    -0.7420 H     1 <1>   0.0800 
 36 H        1.6480    -6.0630     2.4430 H     1 <1>   0.1500 
 37 H       -1.7720    -5.0790    -0.5710 H     1 <1>   0.0800 
 38 H       -0.5750    -6.2270    -1.1170 H     1 <1>   0.0800 
 39 H       -0.6660    -5.4950     3.0180 H     1 <1>   0.0800 
 40 H       -1.8620    -4.6530     2.0750 H     1 <1>   0.0800 
 41 H       -1.6500    -8.0190     0.0610 H     1 <1>   0.0800 
 42 H       -1.6380    -7.6370     2.4860 H     1 <1>   0.0800 
 43 H       -2.8300    -6.6210     3.2110 H     1 <1>   0.0800 
 44 H       -2.3930    -8.1300    -1.9600 H     1 <1>   0.4500 
 45 H       -5.1220    -7.6540    -1.0980 H     1 <1>   0.0800 
 46 H       -4.4640    -8.9510    -2.0580 H     1 <1>   0.0800 
 47 H       -3.9720    -5.6400    -1.8420 H     1 <1>   0.0800 
 48 H       -3.8350    -6.6940    -3.2330 H     1 <1>   0.0800 
 49 H       -2.4250    -5.8520    -2.6370 H     1 <1>   0.0800 
 50 H       -3.5220    -8.9100     2.0710 H     1 <1>   0.0800 
 51 H       -4.9680    -8.0530     1.7080 H     1 <1>   0.0800 
 52 H       -4.8860    -5.9790     0.1630 H     1 <1>   0.0800 
 53 H       -3.5870    -4.8980     0.5910 H     1 <1>   0.0800 
 54 H       -5.0370    -9.7700     0.1610 H     1 <1>   0.0800 
 55 H       -3.3200    -9.8310    -0.0450 H     1 <1>   0.0800 
 56 H       -5.3620    -6.1520     2.3930 H     1 <1>   0.4000 
@<TRIPOS>BOND
  1   1   2  2   
  2   2   3  am  
  3   2   4  1   
  4   3   5  1   
  5   3   6  1   
  6   4   7  ar  
  7   4   8  ar  
  8   5   9  1   
  9   5  27  1   
 10   5  28  1   
 11   6  10  1   
 12   6  29  1   
 13   6  30  1   
 14   7  11  ar  
 15   8  12  ar  
 16   8  31  1   
 17   9  10  1   
 18   9  32  1   
 19   9  33  1   
 20  10  34  1   
 21  10  35  1   
 22  11  13  1   
 23  11  14  ar  
 24  12  14  ar  
 25  13  15  1   
 26  13  16  1   
 27  14  36  1   
 28  15  17  1   
 29  15  37  1   
 30  15  38  1   
 31  16  18  1   
 32  16  39  1   
 33  16  40  1   
 34  17  19  1   
 35  17  20  1   
 36  17  41  1   
 37  18  20  1   
 38  18  42  1   
 39  18  43  1   
 40  19  21  1   
 41  19  22  1   
 42  19  44  1   
 43  20  23  1   
 44  20  24  1   
 45  21  25  1   
 46  21  45  1   
 47  21  46  1   
 48  22  47  1   
 49  22  48  1   
 50  22  49  1   
 51  23  25  1   
 52  23  50  1   
 53  23  51  1   
 54  24  26  1   
 55  24  52  1   
 56  24  53  1   
 57  25  54  1   
 58  25  55  1   
 59  26  56  1   
@<TRIPOS>SUBSTRUCTURE
  1 ****  15 GROUP 4 **** **** 0

# MOE 2024.06 (io_trps.svl 2023.06)
