@<TRIPOS>MOLECULE
NONAME
50 52 1 0 0 
SMALL
USER_CHARGES


@<TRIPOS>ATOM
  1 O       -0.1900    -0.2350     1.0160 O.2   1 <1>  -0.5700 
  2 C        0.8760    -0.5440     0.5330 C.2   1 <1>   0.5690 
  3 N        1.7930     0.3920     0.1600 N.am  1 <1>  -0.7300 
  4 C        1.1630    -2.0570     0.3320 C.3   1 <1>   0.4840 
  5 C        1.6260     1.8490     0.3230 C.3   1 <1>   0.2200 
  6 N       -0.1040    -2.8680     0.2290 N.4   1 <1>  -0.9590 
  7 C        2.0040    -2.5920     1.4960 C.3   1 <1>  -0.2400 
  8 C        1.8600     2.5200    -1.0240 C.3   1 <1>  -0.1600 
  9 C        2.7690     2.3760     1.1800 C.3   1 <1>  -0.1600 
 10 C        0.0240    -4.3430     0.1340 C.3   1 <1>   0.3430 
 11 C       -0.9630    -2.4680    -0.9150 C.3   1 <1>   0.3430 
 12 C        3.3820     2.6190    -1.1830 C.3   1 <1>  -0.1600 
 13 C        3.9660     2.5250     0.2330 C.3   1 <1>  -0.1600 
 14 C       -1.3500    -4.8150    -0.3330 C.3   1 <1>  -0.0800 
 15 C       -1.9690    -3.6070    -1.0700 C.3   1 <1>  -0.0800 
 16 C       -2.2140    -5.3080     0.8480 C.3   1 <1>  -0.1600 
 17 C       -3.3650    -3.2140    -0.5400 C.3   1 <1>  -0.1600 
 18 C       -3.6570    -5.6010     0.4060 C.3   1 <1>   0.2000 
 19 C       -4.2890    -4.4370    -0.4230 C.3   1 <1>   0.2000 
 20 O       -3.6100    -6.7800    -0.3380 O.3   1 <1>  -0.6800 
 21 O       -4.5510    -4.8600    -1.7150 O.3   1 <1>  -0.6800 
 22 H        2.7100     0.1500    -0.2200 H     1 <1>   0.3700 
 23 H        1.7250    -2.1650    -0.5790 H     1 <1>   0.0800 
 24 H        0.6590     2.0880     0.7380 H     1 <1>   0.0800 
 25 H       -0.6480    -2.6300     1.0720 H     1 <1>   0.4500 
 26 H        1.4480    -2.5510     2.4160 H     1 <1>   0.0800 
 27 H        2.8810    -1.9810     1.6150 H     1 <1>   0.0800 
 28 H        2.3360    -3.5980     1.3130 H     1 <1>   0.0800 
 29 H        1.3880     1.9940    -1.8350 H     1 <1>   0.0800 
 30 H        1.4520     3.5150    -0.9810 H     1 <1>   0.0800 
 31 H        2.4950     3.3500     1.5470 H     1 <1>   0.0800 
 32 H        2.9790     1.7420     2.0240 H     1 <1>   0.0800 
 33 H        0.7630    -4.5990    -0.6070 H     1 <1>   0.0800 
 34 H        0.2950    -4.7840     1.0800 H     1 <1>   0.0800 
 35 H       -1.4550    -1.5250    -0.7290 H     1 <1>   0.0800 
 36 H       -0.3700    -2.3890    -1.8120 H     1 <1>   0.0800 
 37 H        3.7470     1.8040    -1.7830 H     1 <1>   0.0800 
 38 H        3.6560     3.5460    -1.6580 H     1 <1>   0.0800 
 39 H        4.5390     3.4030     0.4790 H     1 <1>   0.0800 
 40 H        4.6080     1.6640     0.3080 H     1 <1>   0.0800 
 41 H       -1.2200    -5.6360    -1.0190 H     1 <1>   0.0800 
 42 H       -2.0620    -3.8350    -2.1190 H     1 <1>   0.0800 
 43 H       -2.2400    -4.5600     1.6210 H     1 <1>   0.0800 
 44 H       -1.7890    -6.1970     1.2810 H     1 <1>   0.0800 
 45 H       -3.8220    -2.4860    -1.1880 H     1 <1>   0.0800 
 46 H       -3.2770    -2.7590     0.4320 H     1 <1>   0.0800 
 47 H       -4.2590    -5.7900     1.2790 H     1 <1>   0.0800 
 48 H       -5.2260    -4.1370     0.0150 H     1 <1>   0.0800 
 49 H       -4.5180    -7.1240    -0.4740 H     1 <1>   0.4000 
 50 H       -4.0150    -5.6710    -1.8650 H     1 <1>   0.4000 
@<TRIPOS>BOND
  1   1   2  2   
  2   2   3  am  
  3   2   4  1   
  4   3   5  1   
  5   3  22  1   
  6   4   6  1   
  7   4   7  1   
  8   4  23  1   
  9   5   8  1   
 10   5   9  1   
 11   5  24  1   
 12   6  10  1   
 13   6  11  1   
 14   6  25  1   
 15   7  26  1   
 16   7  27  1   
 17   7  28  1   
 18   8  12  1   
 19   8  29  1   
 20   8  30  1   
 21   9  13  1   
 22   9  31  1   
 23   9  32  1   
 24  10  14  1   
 25  10  33  1   
 26  10  34  1   
 27  11  15  1   
 28  11  35  1   
 29  11  36  1   
 30  12  13  1   
 31  12  37  1   
 32  12  38  1   
 33  13  39  1   
 34  13  40  1   
 35  14  15  1   
 36  14  16  1   
 37  14  41  1   
 38  15  17  1   
 39  15  42  1   
 40  16  18  1   
 41  16  43  1   
 42  16  44  1   
 43  17  19  1   
 44  17  45  1   
 45  17  46  1   
 46  18  19  1   
 47  18  20  1   
 48  18  47  1   
 49  19  21  1   
 50  19  48  1   
 51  20  49  1   
 52  21  50  1   
@<TRIPOS>SUBSTRUCTURE
  1 ****   6 GROUP 4 **** **** 0

# MOE 2024.06 (io_trps.svl 2023.06)
