@<TRIPOS>MOLECULE
NONAME
57 59 1 0 0 
SMALL
USER_CHARGES


@<TRIPOS>ATOM
  1 F       -1.8500    -1.3450    -0.8900 F     1 <1>  -0.1900 
  2 C       -2.9140    -0.6220    -0.6520 C.ar  1 <1>   0.1900 
  3 C       -2.8910     0.7750    -0.7110 C.ar  1 <1>   0.0830 
  4 C       -4.0690    -1.3130    -0.3420 C.ar  1 <1>  -0.1500 
  5 O       -1.8200     1.5680    -1.0040 O.3   1 <1>  -0.3630 
  6 C       -4.0730     1.4490    -0.4450 C.ar  1 <1>  -0.1500 
  7 C       -5.2310    -0.6100    -0.0840 C.ar  1 <1>  -0.1500 
  8 C       -0.5290     1.0570    -1.2500 C.3   1 <1>   0.0400 
  9 C       -5.2620     0.7870    -0.1260 C.ar  1 <1>   0.0530 
 10 C       -6.4690     1.5340     0.1410 C.2   1 <1>   0.0870 
 11 O       -6.6150     2.7480    -0.3270 O.3   1 <1>  -0.0190 
 12 C       -7.6080     1.2420     0.8220 C.2   1 <1>  -0.0860 
 13 N       -7.7640     3.2850    -0.0110 N.2   1 <1>  -0.4100 
 14 C       -8.3800     2.3990     0.6910 C.2   1 <1>   0.3720 
 15 C       -7.9780     0.0570     1.5260 C.2   1 <1>   0.7160 
 16 N       -9.6620     2.5810     1.2360 N.pl3 1 <1>  -0.8210 
 17 O       -7.3750    -0.2290     2.5460 O.2   1 <1>  -0.5700 
 18 N       -8.9560    -0.8000     1.0620 N.am  1 <1>  -0.6600 
 19 C      -10.4770     3.6610     0.6110 C.3   1 <1>   0.1290 
 20 C       -9.6810     2.6650     2.7220 C.3   1 <1>   0.1290 
 21 C       -9.8090    -0.5110    -0.1230 C.3   1 <1>   0.1400 
 22 C       -9.2600    -2.0950     1.7300 C.3   1 <1>   0.1400 
 23 C       -9.6560    -1.6380    -1.1490 C.3   1 <1>  -0.1600 
 24 C       -9.1090    -3.2380     0.7230 C.3   1 <1>  -0.1600 
 25 C       -9.9680    -3.0160    -0.5370 C.3   1 <1>  -0.0800 
 26 C       -9.7410    -4.1260    -1.5820 C.3   1 <1>  -0.0990 
 27 C      -10.1150    -5.5040    -1.0750 C.2   1 <1>   0.5690 
 28 O       -9.2420    -6.2420    -0.6910 O.2   1 <1>  -0.5700 
 29 N      -11.4260    -5.8600    -1.0710 N.am  1 <1>  -0.7300 
 30 C      -11.9510    -7.1730    -0.6180 C.3   1 <1>   0.0600 
 31 H       -4.0570    -2.3880    -0.3040 H     1 <1>   0.1500 
 32 H       -4.0620     2.5230    -0.4860 H     1 <1>   0.1500 
 33 H       -6.1230    -1.1620     0.1510 H     1 <1>   0.1500 
 34 H        0.1310     1.8870    -1.4270 H     1 <1>   0.0800 
 35 H       -0.5610     0.4260    -2.1210 H     1 <1>   0.0800 
 36 H       -0.1990     0.5070    -0.3870 H     1 <1>   0.0800 
 37 H      -10.4540     3.5630    -0.4610 H     1 <1>   0.0800 
 38 H      -10.0820     4.6260     0.8790 H     1 <1>   0.0800 
 39 H      -11.4980     3.5890     0.9410 H     1 <1>   0.0800 
 40 H       -9.1390     1.8430     3.1560 H     1 <1>   0.0800 
 41 H      -10.6960     2.6280     3.0790 H     1 <1>   0.0800 
 42 H       -9.2260     3.5860     3.0440 H     1 <1>   0.0800 
 43 H       -9.5430     0.4230    -0.5840 H     1 <1>   0.0800 
 44 H      -10.8340    -0.4380     0.1960 H     1 <1>   0.0800 
 45 H      -10.2690    -2.0660     2.1050 H     1 <1>   0.0800 
 46 H       -8.6000    -2.2640     2.5640 H     1 <1>   0.0800 
 47 H       -8.6480    -1.6220    -1.5260 H     1 <1>   0.0800 
 48 H      -10.3180    -1.4460    -1.9740 H     1 <1>   0.0800 
 49 H       -9.3920    -4.1570     1.2060 H     1 <1>   0.0800 
 50 H       -8.0710    -3.3240     0.4520 H     1 <1>   0.0800 
 51 H      -11.0050    -3.0280    -0.2450 H     1 <1>   0.0800 
 52 H       -8.7050    -4.1430    -1.8720 H     1 <1>   0.0800 
 53 H      -10.3190    -3.9210    -2.4640 H     1 <1>   0.0800 
 54 H      -12.1240    -5.1940    -1.4070 H     1 <1>   0.3700 
 55 H      -11.1440    -7.8050    -0.2860 H     1 <1>   0.0800 
 56 H      -12.4620    -7.6610    -1.4300 H     1 <1>   0.0800 
 57 H      -12.6370    -7.0300     0.1990 H     1 <1>   0.0800 
@<TRIPOS>BOND
  1   1   2  1   
  2   2   3  ar  
  3   2   4  ar  
  4   3   5  1   
  5   3   6  ar  
  6   4   7  ar  
  7   4  31  1   
  8   5   8  1   
  9   6   9  ar  
 10   6  32  1   
 11   7   9  ar  
 12   7  33  1   
 13   8  34  1   
 14   8  35  1   
 15   8  36  1   
 16   9  10  1   
 17  10  11  1   
 18  10  12  2   
 19  11  13  1   
 20  12  14  1   
 21  12  15  1   
 22  13  14  2   
 23  14  16  1   
 24  15  17  2   
 25  15  18  am  
 26  16  19  1   
 27  16  20  1   
 28  18  21  1   
 29  18  22  1   
 30  19  37  1   
 31  19  38  1   
 32  19  39  1   
 33  20  40  1   
 34  20  41  1   
 35  20  42  1   
 36  21  23  1   
 37  21  43  1   
 38  21  44  1   
 39  22  24  1   
 40  22  45  1   
 41  22  46  1   
 42  23  25  1   
 43  23  47  1   
 44  23  48  1   
 45  24  25  1   
 46  24  49  1   
 47  24  50  1   
 48  25  26  1   
 49  25  51  1   
 50  26  27  1   
 51  26  52  1   
 52  26  53  1   
 53  27  28  2   
 54  27  29  am  
 55  29  30  1   
 56  29  54  1   
 57  30  55  1   
 58  30  56  1   
 59  30  57  1   
@<TRIPOS>SUBSTRUCTURE
  1 ****  15 GROUP 4 **** **** 0

# MOE 2024.06 (io_trps.svl 2023.06)
