@<TRIPOS>MOLECULE
NONAME
43 44 1 0 0 
SMALL
USER_CHARGES


@<TRIPOS>ATOM
  1 O       -0.0140     0.3040    -0.8810 O.2   1 <1>  -0.5700 
  2 C        1.0630    -0.2130    -0.7100 C.2   1 <1>   0.5690 
  3 N        2.1770     0.4580    -0.2870 N.am  1 <1>  -0.4940 
  4 C        1.1880    -1.6980    -0.9730 C.3   1 <1>  -0.0990 
  5 C        2.3350     1.8300     0.0340 C.2   1 <1>  -0.0880 
  6 C        0.5200    -2.5130     0.1400 C.3   1 <1>  -0.0160 
  7 N        3.4980     2.4290     0.4280 N.pl3 1 <1>   0.3140 
  8 C        1.3990     2.8080     0.0200 C.2   1 <1>  -0.1500 
  9 C        0.6750    -4.0010    -0.1280 C.ar  1 <1>  -0.1430 
 10 N        3.3140     3.7500     0.6610 N.2   1 <1>  -0.7070 
 11 C        4.8510     1.8290     0.6120 C.3   1 <1>   0.1760 
 12 C        2.0620     3.9610     0.4140 C.2   1 <1>   0.1080 
 13 C        1.6570    -4.7590     0.4780 C.ar  1 <1>  -0.1500 
 14 C       -0.1630    -4.6700    -0.9970 C.ar  1 <1>  -0.1500 
 15 C        5.4030     1.3060    -0.7320 C.3   1 <1>  -0.1600 
 16 C        4.8330     0.7620     1.7210 C.3   1 <1>  -0.2400 
 17 C        1.4280     5.3250     0.5510 C.3   1 <1>  -0.0590 
 18 C        1.7530    -6.1110     0.1890 C.ar  1 <1>   0.1600 
 19 C        0.0190    -6.0250    -1.2160 C.ar  1 <1>   0.1600 
 20 C        6.8730     0.8700    -0.6570 C.3   1 <1>  -0.2400 
 21 N        0.9590    -6.7620    -0.6450 N.ar  1 <1>  -0.6200 
 22 H        3.0160    -0.1100    -0.1950 H     1 <1>   0.3700 
 23 H        2.2220    -1.9750    -1.0570 H     1 <1>   0.0800 
 24 H        0.7100    -1.9160    -1.9110 H     1 <1>   0.0800 
 25 H       -0.5270    -2.2640     0.1910 H     1 <1>   0.0800 
 26 H        0.9590    -2.2650     1.0910 H     1 <1>   0.0800 
 27 H        0.3580     2.7290    -0.2380 H     1 <1>   0.1500 
 28 H        5.4910     2.6290     0.9400 H     1 <1>   0.0800 
 29 H        2.3470    -4.3160     1.1710 H     1 <1>   0.1500 
 30 H       -0.9550    -4.1500    -1.5060 H     1 <1>   0.1500 
 31 H        5.3260     2.0990    -1.4570 H     1 <1>   0.0800 
 32 H        4.8140     0.4790    -1.0840 H     1 <1>   0.0800 
 33 H        4.3010    -0.1180     1.4140 H     1 <1>   0.0800 
 34 H        4.3690     1.1670     2.6040 H     1 <1>   0.0800 
 35 H        5.8370     0.4790     1.9790 H     1 <1>   0.0800 
 36 H        0.3850     5.2820     0.2990 H     1 <1>   0.0800 
 37 H        1.9220     6.0160    -0.1070 H     1 <1>   0.0800 
 38 H        1.5340     5.6690     1.5630 H     1 <1>   0.0800 
 39 H        2.5240    -6.6870     0.6710 H     1 <1>   0.1500 
 40 H       -0.6440    -6.5300    -1.8980 H     1 <1>   0.1500 
 41 H        7.4850     1.6720    -0.2810 H     1 <1>   0.0800 
 42 H        7.2270     0.6090    -1.6390 H     1 <1>   0.0800 
 43 H        6.9940     0.0120    -0.0190 H     1 <1>   0.0800 
@<TRIPOS>BOND
  1   1   2  2   
  2   2   3  am  
  3   2   4  1   
  4   3   5  1   
  5   3  22  1   
  6   4   6  1   
  7   4  23  1   
  8   4  24  1   
  9   5   7  1   
 10   5   8  2   
 11   6   9  1   
 12   6  25  1   
 13   6  26  1   
 14   7  10  1   
 15   7  11  1   
 16   8  12  1   
 17   8  27  1   
 18   9  13  ar  
 19   9  14  ar  
 20  10  12  2   
 21  11  15  1   
 22  11  16  1   
 23  11  28  1   
 24  12  17  1   
 25  13  18  ar  
 26  13  29  1   
 27  14  19  ar  
 28  14  30  1   
 29  15  20  1   
 30  15  31  1   
 31  15  32  1   
 32  16  33  1   
 33  16  34  1   
 34  16  35  1   
 35  17  36  1   
 36  17  37  1   
 37  17  38  1   
 38  18  21  ar  
 39  18  39  1   
 40  19  21  ar  
 41  19  40  1   
 42  20  41  1   
 43  20  42  1   
 44  20  43  1   
@<TRIPOS>SUBSTRUCTURE
  1 ****   3 GROUP 4 **** **** 0

# MOE 2024.06 (io_trps.svl 2023.06)
