@<TRIPOS>MOLECULE
NONAME
56 59 1 0 0 
SMALL
USER_CHARGES


@<TRIPOS>ATOM
  1 O        1.1000    -0.4100     0.2680 O.2   1 <1>  -0.5700 
  2 C        1.5220    -1.0460    -0.6780 C.2   1 <1>   0.5440 
  3 N        2.7490    -0.6760    -1.1770 N.am  1 <1>  -0.6600 
  4 C        0.7870    -2.1780    -1.2130 C.ar  1 <1>   0.0860 
  5 C        3.1340     0.7650    -1.1150 C.3   1 <1>   0.1400 
  6 C        3.9010    -1.6040    -0.9910 C.3   1 <1>   0.1400 
  7 C       -0.1810    -2.8460    -0.4840 C.ar  1 <1>  -0.1500 
  8 C        0.9940    -2.6770    -2.4950 C.ar  1 <1>  -0.1500 
  9 C        3.8400     1.0680     0.2210 C.3   1 <1>   0.3430 
 10 C        4.6310    -1.2880     0.3340 C.3   1 <1>   0.3430 
 11 C       -0.8550    -3.9340    -1.0160 C.ar  1 <1>   0.4100 
 12 C        0.2740    -3.7660    -2.9430 C.ar  1 <1>   0.1600 
 13 N        5.0280     0.1640     0.4470 N.4   1 <1>  -0.9590 
 14 N       -0.6360    -4.4070    -2.2350 N.ar  1 <1>  -0.6200 
 15 N       -1.8060    -4.5760    -0.2540 N.pl3 1 <1>  -0.8380 
 16 C        5.6480     0.4420     1.7780 C.3   1 <1>   0.2630 
 17 C       -3.2060    -4.5030    -0.7700 C.3   1 <1>   0.2090 
 18 C       -1.5110    -5.9990     0.0890 C.3   1 <1>   0.2090 
 19 C       -3.8770    -5.7930    -0.3050 C.3   1 <1>   0.2000 
 20 C       -2.7350    -6.8060    -0.3510 C.3   1 <1>  -0.0800 
 21 O       -4.2900    -5.6160     1.0080 O.3   1 <1>  -0.6800 
 22 C       -2.9590    -8.0990     0.4560 C.3   1 <1>  -0.0170 
 23 C       -1.7410    -9.0070     0.3830 C.ar  1 <1>  -0.1430 
 24 C       -1.4090    -9.6900    -0.7700 C.ar  1 <1>  -0.1500 
 25 C       -0.9030    -9.1940     1.4630 C.ar  1 <1>  -0.1500 
 26 C       -0.2840   -10.4980    -0.7880 C.ar  1 <1>   0.1600 
 27 C        0.1970   -10.0280     1.3410 C.ar  1 <1>   0.1600 
 28 N        0.5280   -10.6830     0.2410 N.ar  1 <1>  -0.6200 
 29 H        3.7780     1.0070    -1.9420 H     1 <1>   0.0800 
 30 H        2.2510     1.3770    -1.1950 H     1 <1>   0.0800 
 31 H        3.5510    -2.6220    -0.9680 H     1 <1>   0.0800 
 32 H        4.5790    -1.5080    -1.8210 H     1 <1>   0.0800 
 33 H       -0.4280    -2.5290     0.5110 H     1 <1>   0.1500 
 34 H        1.7110    -2.2120    -3.1460 H     1 <1>   0.1500 
 35 H        3.1220     0.9310     1.0140 H     1 <1>   0.0800 
 36 H        4.1520     2.0990     0.2310 H     1 <1>   0.0800 
 37 H        5.5040    -1.9150     0.4140 H     1 <1>   0.0800 
 38 H        3.9690    -1.5400     1.1470 H     1 <1>   0.0800 
 39 H        0.4530    -4.1320    -3.9400 H     1 <1>   0.1500 
 40 H        5.7180     0.3640    -0.2910 H     1 <1>   0.4500 
 41 H        4.9410     0.2430     2.5680 H     1 <1>   0.0800 
 42 H        5.9520     1.4750     1.8420 H     1 <1>   0.0800 
 43 H        6.5160    -0.1800     1.9270 H     1 <1>   0.0800 
 44 H       -3.7160    -3.6330    -0.3940 H     1 <1>   0.0800 
 45 H       -3.1990    -4.4690    -1.8460 H     1 <1>   0.0800 
 46 H       -0.6210    -6.3530    -0.4040 H     1 <1>   0.0800 
 47 H       -1.3720    -6.0750     1.1540 H     1 <1>   0.0800 
 48 H       -4.7270    -6.0720    -0.9030 H     1 <1>   0.0800 
 49 H       -2.5770    -7.0720    -1.3810 H     1 <1>   0.0800 
 50 H       -3.5800    -5.1310     1.4790 H     1 <1>   0.4000 
 51 H       -3.8160    -8.6190     0.0660 H     1 <1>   0.0800 
 52 H       -3.1660    -7.8660     1.4860 H     1 <1>   0.0800 
 53 H       -2.0120    -9.6000    -1.6550 H     1 <1>   0.1500 
 54 H       -1.0930    -8.7030     2.4000 H     1 <1>   0.1500 
 55 H       -0.0400   -11.0210    -1.6970 H     1 <1>   0.1500 
 56 H        0.8390   -10.1620     2.1950 H     1 <1>   0.1500 
@<TRIPOS>BOND
  1   1   2  2   
  2   2   3  am  
  3   2   4  1   
  4   3   5  1   
  5   3   6  1   
  6   4   7  ar  
  7   4   8  ar  
  8   5   9  1   
  9   5  29  1   
 10   5  30  1   
 11   6  10  1   
 12   6  31  1   
 13   6  32  1   
 14   7  11  ar  
 15   7  33  1   
 16   8  12  ar  
 17   8  34  1   
 18   9  13  1   
 19   9  35  1   
 20   9  36  1   
 21  10  13  1   
 22  10  37  1   
 23  10  38  1   
 24  11  14  ar  
 25  11  15  1   
 26  12  14  ar  
 27  12  39  1   
 28  13  16  1   
 29  13  40  1   
 30  15  17  1   
 31  15  18  1   
 32  16  41  1   
 33  16  42  1   
 34  16  43  1   
 35  17  19  1   
 36  17  44  1   
 37  17  45  1   
 38  18  20  1   
 39  18  46  1   
 40  18  47  1   
 41  19  20  1   
 42  19  21  1   
 43  19  48  1   
 44  20  22  1   
 45  20  49  1   
 46  21  50  1   
 47  22  23  1   
 48  22  51  1   
 49  22  52  1   
 50  23  24  ar  
 51  23  25  ar  
 52  24  26  ar  
 53  24  53  1   
 54  25  27  ar  
 55  25  54  1   
 56  26  28  ar  
 57  26  55  1   
 58  27  28  ar  
 59  27  56  1   
@<TRIPOS>SUBSTRUCTURE
  1 ****  11 GROUP 4 **** **** 0

# MOE 2024.06 (io_trps.svl 2023.06)
