@<TRIPOS>MOLECULE
NONAME
49 53 1 0 0 
SMALL
USER_CHARGES


@<TRIPOS>ATOM
  1 O        2.3030    -0.6720    -1.0010 O.3   1 <1>  -0.5600 
  2 C        2.6090    -1.3430     0.2090 C.3   1 <1>   0.4600 
  3 C        0.9540    -0.6370    -1.4190 C.3   1 <1>   0.1200 
  4 C        1.7680    -2.6050     0.3230 C.2   1 <1>  -0.3320 
  5 C        2.3690    -0.3790     1.3760 C.3   1 <1>  -0.1600 
  6 C        4.1040    -1.6810     0.1350 C.3   1 <1>  -0.1600 
  7 C        0.4270    -2.0500    -1.7100 C.3   1 <1>   0.0210 
  8 N        1.8580    -3.5790     1.2830 N.pl3 1 <1>   0.0330 
  9 C        0.7880    -2.9330    -0.5430 C.2   1 <1>  -0.1810 
 10 C        3.1930     0.9100     1.2590 C.3   1 <1>   0.3430 
 11 C        5.0220    -0.4620     0.2920 C.3   1 <1>   0.3430 
 12 C        0.9190    -4.5400     1.0040 C.ar  1 <1>  -0.1520 
 13 C        0.2290    -4.1640    -0.1440 C.ar  1 <1>   0.0000 
 14 N        4.2310     0.7910     0.1880 N.4   1 <1>  -0.9590 
 15 C        0.6080    -5.7280     1.6690 C.ar  1 <1>  -0.1500 
 16 C       -0.7880    -4.9850    -0.6420 C.ar  1 <1>  -0.1500 
 17 C        5.0500     2.0190     0.0020 C.3   1 <1>   0.4860 
 18 C       -0.3960    -6.5270     1.1700 C.ar  1 <1>  -0.1500 
 19 C       -1.0930    -6.1550     0.0140 C.ar  1 <1>  -0.1500 
 20 C        4.1250     3.1850    -0.2790 C.ar  1 <1>  -0.1440 
 21 C        3.4200     3.2420    -1.4730 C.ar  1 <1>   0.1600 
 22 C        3.9550     4.1980     0.6450 C.ar  1 <1>  -0.1500 
 23 N        2.5650     4.1930    -1.7970 N.ar  1 <1>  -0.6200 
 24 C        3.0730     5.2050     0.3130 C.ar  1 <1>  -0.1500 
 25 C        2.4120     5.1550    -0.9020 C.ar  1 <1>   0.1600 
 26 H        0.8950    -0.0300    -2.3060 H     1 <1>   0.0800 
 27 H        0.3660    -0.1750    -0.6450 H     1 <1>   0.0800 
 28 H        2.6330    -0.8710     2.2930 H     1 <1>   0.0800 
 29 H        1.3240    -0.1410     1.4500 H     1 <1>   0.0800 
 30 H        4.3010    -2.1720    -0.8020 H     1 <1>   0.0800 
 31 H        4.3550    -2.3840     0.9070 H     1 <1>   0.0800 
 32 H        0.8700    -2.4340    -2.6110 H     1 <1>   0.0800 
 33 H       -0.6400    -2.0200    -1.8370 H     1 <1>   0.0800 
 34 H        2.5000    -3.6240     2.0800 H     1 <1>   0.2700 
 35 H        3.6560     1.1310     2.2060 H     1 <1>   0.0800 
 36 H        2.5260     1.7230     1.0160 H     1 <1>   0.0800 
 37 H        5.7790    -0.4900    -0.4760 H     1 <1>   0.0800 
 38 H        5.5130    -0.5000     1.2510 H     1 <1>   0.0800 
 39 H        3.6630     0.6570    -0.6720 H     1 <1>   0.4500 
 40 H        1.1470    -6.0100     2.5560 H     1 <1>   0.1500 
 41 H       -1.3150    -4.6900    -1.5300 H     1 <1>   0.1500 
 42 H        5.7260     1.8920    -0.8280 H     1 <1>   0.0800 
 43 H        5.6290     2.2170     0.8880 H     1 <1>   0.0800 
 44 H       -0.6550    -7.4470     1.6630 H     1 <1>   0.1500 
 45 H       -1.8720    -6.7980    -0.3560 H     1 <1>   0.1500 
 46 H        3.5560     2.4660    -2.2080 H     1 <1>   0.1500 
 47 H        4.4790     4.2210     1.5870 H     1 <1>   0.1500 
 48 H        2.8960     6.0260     0.9860 H     1 <1>   0.1500 
 49 H        1.7240     5.9470    -1.1500 H     1 <1>   0.1500 
@<TRIPOS>BOND
  1   1   2  1   
  2   1   3  1   
  3   2   4  1   
  4   2   5  1   
  5   2   6  1   
  6   3   7  1   
  7   3  26  1   
  8   3  27  1   
  9   4   8  1   
 10   4   9  2   
 11   5  10  1   
 12   5  28  1   
 13   5  29  1   
 14   6  11  1   
 15   6  30  1   
 16   6  31  1   
 17   7   9  1   
 18   7  32  1   
 19   7  33  1   
 20   8  12  1   
 21   8  34  1   
 22   9  13  1   
 23  10  14  1   
 24  10  35  1   
 25  10  36  1   
 26  11  14  1   
 27  11  37  1   
 28  11  38  1   
 29  12  13  ar  
 30  12  15  ar  
 31  13  16  ar  
 32  14  17  1   
 33  14  39  1   
 34  15  18  ar  
 35  15  40  1   
 36  16  19  ar  
 37  16  41  1   
 38  17  20  1   
 39  17  42  1   
 40  17  43  1   
 41  18  19  ar  
 42  18  44  1   
 43  19  45  1   
 44  20  21  ar  
 45  20  22  ar  
 46  21  23  ar  
 47  21  46  1   
 48  22  24  ar  
 49  22  47  1   
 50  23  25  ar  
 51  24  25  ar  
 52  24  48  1   
 53  25  49  1   
@<TRIPOS>SUBSTRUCTURE
  1 ****   2 GROUP 4 **** **** 0

# MOE 2024.06 (io_trps.svl 2023.06)
