@<TRIPOS>MOLECULE
NONAME
50 52 1 0 0 
SMALL
USER_CHARGES


@<TRIPOS>ATOM
  1 O       -1.2470    -0.1090     0.5900 O.2   1 <1>  -0.5700 
  2 C       -1.8970     0.7770     0.0680 C.2   1 <1>   0.5440 
  3 N       -3.0290     0.4050    -0.6230 N.am  1 <1>  -0.6600 
  4 C       -1.4950     2.1570     0.2100 C.ar  1 <1>   0.0860 
  5 C       -3.1510    -0.9970    -1.1070 C.3   1 <1>   0.1400 
  6 C       -4.3400     1.0590    -0.3530 C.3   1 <1>   0.1400 
  7 C       -1.7950     3.1260    -0.7300 C.ar  1 <1>   0.1600 
  8 C       -0.7740     2.6040     1.3000 C.ar  1 <1>   0.1600 
  9 C       -3.8640    -1.8440    -0.0280 C.3   1 <1>   0.4230 
 10 C       -5.0730     0.2400     0.7190 C.3   1 <1>  -0.1600 
 11 N       -1.4550     4.3890    -0.6000 N.ar  1 <1>  -0.6200 
 12 N       -0.4140     3.8600     1.4630 N.ar  1 <1>  -0.6200 
 13 N       -3.8720    -3.3390    -0.3180 N.4   1 <1>  -0.9590 
 14 C       -5.2620    -1.2600     0.3420 C.3   1 <1>   0.0000 
 15 C       -0.7770     4.6890     0.4970 C.ar  1 <1>   0.4770 
 16 C       -4.8900    -4.1110     0.4680 C.3   1 <1>   0.3430 
 17 C       -3.9500    -3.7190    -1.7670 C.3   1 <1>   0.2630 
 18 C       -5.8240    -2.0180     1.5810 C.3   1 <1>  -0.1600 
 19 C       -6.2360    -1.3960    -0.8640 C.3   1 <1>   0.1200 
 20 C       -0.3670     6.1440     0.6630 C.3   1 <1>  -0.0160 
 21 C       -5.2050    -3.4140     1.7910 C.3   1 <1>  -0.1600 
 22 O       -7.4120    -0.6960    -0.6550 O.3   1 <1>  -0.6800 
 23 C        1.0050     6.4330     0.0370 C.3   1 <1>  -0.2400 
 24 H       -3.6920    -0.9960    -2.0350 H     1 <1>   0.0800 
 25 H       -2.1670    -1.3950    -1.2890 H     1 <1>   0.0800 
 26 H       -4.1980     2.0650     0.0040 H     1 <1>   0.0800 
 27 H       -4.9200     1.1080    -1.2590 H     1 <1>   0.0800 
 28 H       -2.3330     2.8470    -1.6190 H     1 <1>   0.1500 
 29 H       -0.4870     1.8990     2.0630 H     1 <1>   0.1500 
 30 H       -3.2640    -1.7160     0.8590 H     1 <1>   0.0800 
 31 H       -4.5010     0.3180     1.6280 H     1 <1>   0.0800 
 32 H       -6.0230     0.7050     0.9180 H     1 <1>   0.0800 
 33 H       -2.9530    -3.6610     0.0230 H     1 <1>   0.4500 
 34 H       -5.8030    -4.1940    -0.0990 H     1 <1>   0.0800 
 35 H       -4.5260    -5.1080     0.6580 H     1 <1>   0.0800 
 36 H       -4.8710    -3.3690    -2.2010 H     1 <1>   0.0800 
 37 H       -3.9070    -4.7920    -1.8740 H     1 <1>   0.0800 
 38 H       -3.1250    -3.2940    -2.3150 H     1 <1>   0.0800 
 39 H       -5.6500    -1.4540     2.4820 H     1 <1>   0.0800 
 40 H       -6.8920    -2.1200     1.4980 H     1 <1>   0.0800 
 41 H       -6.5010    -2.4220    -1.0450 H     1 <1>   0.0800 
 42 H       -5.8060    -0.9940    -1.7640 H     1 <1>   0.0800 
 43 H       -1.1100     6.7710     0.2050 H     1 <1>   0.0800 
 44 H       -0.3390     6.3810     1.7120 H     1 <1>   0.0800 
 45 H       -5.8900    -4.0210     2.3570 H     1 <1>   0.0800 
 46 H       -4.3010    -3.3350     2.3710 H     1 <1>   0.0800 
 47 H       -7.9210    -1.0420     0.1040 H     1 <1>   0.4000 
 48 H        0.9830     6.2140    -1.0170 H     1 <1>   0.0800 
 49 H        1.7580     5.8210     0.5010 H     1 <1>   0.0800 
 50 H        1.2650     7.4670     0.1720 H     1 <1>   0.0800 
@<TRIPOS>BOND
  1   1   2  2   
  2   2   3  am  
  3   2   4  1   
  4   3   5  1   
  5   3   6  1   
  6   4   7  ar  
  7   4   8  ar  
  8   5   9  1   
  9   5  24  1   
 10   5  25  1   
 11   6  10  1   
 12   6  26  1   
 13   6  27  1   
 14   7  11  ar  
 15   7  28  1   
 16   8  12  ar  
 17   8  29  1   
 18   9  13  1   
 19   9  14  1   
 20   9  30  1   
 21  10  14  1   
 22  10  31  1   
 23  10  32  1   
 24  11  15  ar  
 25  12  15  ar  
 26  13  16  1   
 27  13  17  1   
 28  13  33  1   
 29  14  18  1   
 30  14  19  1   
 31  15  20  1   
 32  16  21  1   
 33  16  34  1   
 34  16  35  1   
 35  17  36  1   
 36  17  37  1   
 37  17  38  1   
 38  18  21  1   
 39  18  39  1   
 40  18  40  1   
 41  19  22  1   
 42  19  41  1   
 43  19  42  1   
 44  20  23  1   
 45  20  43  1   
 46  20  44  1   
 47  21  45  1   
 48  21  46  1   
 49  22  47  1   
 50  23  48  1   
 51  23  49  1   
 52  23  50  1   
@<TRIPOS>SUBSTRUCTURE
  1 ****   3 GROUP 4 **** **** 0

# MOE 2024.06 (io_trps.svl 2023.06)
