@<TRIPOS>MOLECULE
NONAME
45 47 1 0 0 
SMALL
USER_CHARGES


@<TRIPOS>ATOM
  1 CL       1.1570     0.0960    -0.0500 Cl    1 <1>  -0.1770 
  2 C        0.8390     1.8100    -0.0530 C.ar  1 <1>   0.1770 
  3 C        1.8390     2.7050     0.2810 C.ar  1 <1>   0.1600 
  4 C       -0.4110     2.2730    -0.3880 C.ar  1 <1>  -0.1500 
  5 N        1.6860     4.0200     0.3020 N.ar  1 <1>  -0.6200 
  6 C       -0.5790     3.6420    -0.3650 C.ar  1 <1>  -0.1500 
  7 C        0.4690     4.5060    -0.0220 C.ar  1 <1>   0.3960 
  8 C        0.1980     5.9510    -0.0110 C.2   1 <1>   0.5440 
  9 O       -0.8970     6.3270     0.3770 O.2   1 <1>  -0.5700 
 10 N        1.0900     6.9240    -0.4450 N.am  1 <1>  -0.6600 
 11 C        2.3470     6.6090    -1.1900 C.3   1 <1>   0.1400 
 12 C        0.7540     8.3720    -0.3010 C.3   1 <1>   0.1400 
 13 C        3.5700     6.6150    -0.2580 C.3   1 <1>   0.1100 
 14 C        1.9740     9.2870    -0.1350 C.3   1 <1>  -0.1600 
 15 N        4.0450     7.9680     0.1020 N.3   1 <1>  -0.8100 
 16 C        3.0310     8.7510     0.8320 C.3   1 <1>   0.1100 
 17 C        5.3180     7.8710     0.8650 C.3   1 <1>   0.2900 
 18 C        6.1940     9.1200     0.7890 C.2   1 <1>   0.2980 
 19 O        5.8570    10.1800     1.4830 O.3   1 <1>  -0.0190 
 20 N        7.2720     9.2300     0.1180 N.2   1 <1>  -0.5650 
 21 N        6.7950    11.0390     1.2270 N.2   1 <1>  -0.4100 
 22 C        7.6190    10.4720     0.4360 C.2   1 <1>   0.3350 
 23 C        8.8710    11.1310    -0.1350 C.3   1 <1>   0.3010 
 24 O       10.0240    10.7000     0.5390 O.3   1 <1>  -0.5600 
 25 C       11.2070    11.2400     0.0470 C.3   1 <1>   0.0400 
 26 H        2.8050     2.3100     0.5420 H     1 <1>   0.1500 
 27 H       -1.2070     1.5990    -0.6500 H     1 <1>   0.1500 
 28 H       -1.5380     4.0640    -0.6110 H     1 <1>   0.1500 
 29 H        2.4970     7.3130    -1.9890 H     1 <1>   0.0800 
 30 H        2.2600     5.6380    -1.6410 H     1 <1>   0.0800 
 31 H        0.1280     8.4960     0.5660 H     1 <1>   0.0800 
 32 H        0.1840     8.6840    -1.1590 H     1 <1>   0.0800 
 33 H        4.3630     6.1050    -0.7770 H     1 <1>   0.0800 
 34 H        3.3460     6.0520     0.6330 H     1 <1>   0.0800 
 35 H        1.6140    10.2240     0.2480 H     1 <1>   0.0800 
 36 H        2.4220     9.4980    -1.0890 H     1 <1>   0.0800 
 37 H        2.5770     8.1580     1.6100 H     1 <1>   0.0800 
 38 H        3.4980     9.6010     1.2960 H     1 <1>   0.0800 
 39 H        5.9070     7.0650     0.4640 H     1 <1>   0.0800 
 40 H        5.1130     7.6410     1.8960 H     1 <1>   0.0800 
 41 H        8.7940    12.1980    -0.0290 H     1 <1>   0.0800 
 42 H        8.9630    10.8740    -1.1750 H     1 <1>   0.0800 
 43 H       12.0200    10.8480     0.6320 H     1 <1>   0.0800 
 44 H       11.1760    12.3120     0.1420 H     1 <1>   0.0800 
 45 H       11.3300    10.9500    -0.9830 H     1 <1>   0.0800 
@<TRIPOS>BOND
  1   1   2  1   
  2   2   3  ar  
  3   2   4  ar  
  4   3   5  ar  
  5   3  26  1   
  6   4   6  ar  
  7   4  27  1   
  8   5   7  ar  
  9   6   7  ar  
 10   6  28  1   
 11   7   8  1   
 12   8   9  2   
 13   8  10  am  
 14  10  11  1   
 15  10  12  1   
 16  11  13  1   
 17  11  29  1   
 18  11  30  1   
 19  12  14  1   
 20  12  31  1   
 21  12  32  1   
 22  13  15  1   
 23  13  33  1   
 24  13  34  1   
 25  14  16  1   
 26  14  35  1   
 27  14  36  1   
 28  15  16  1   
 29  15  17  1   
 30  16  37  1   
 31  16  38  1   
 32  17  18  1   
 33  17  39  1   
 34  17  40  1   
 35  18  19  1   
 36  18  20  2   
 37  19  21  1   
 38  20  22  1   
 39  21  22  2   
 40  22  23  1   
 41  23  24  1   
 42  23  41  1   
 43  23  42  1   
 44  24  25  1   
 45  25  43  1   
 46  25  44  1   
 47  25  45  1   
@<TRIPOS>SUBSTRUCTURE
  1 ****  13 GROUP 4 **** **** 0

# MOE 2024.06 (io_trps.svl 2023.06)
