@<TRIPOS>MOLECULE
NONAME
55 59 1 0 0 
SMALL
USER_CHARGES


@<TRIPOS>ATOM
  1 O        2.2580     0.2180     2.6130 O.2   1 <1>  -0.5700 
  2 C        2.0730     0.3840     1.4200 C.2   1 <1>   0.5440 
  3 N        1.2010     1.3800     1.0130 N.am  1 <1>  -0.6600 
  4 C        2.8060    -0.4410     0.4900 C.ar  1 <1>   0.0860 
  5 C        0.9270     1.6860    -0.4170 C.3   1 <1>   0.0600 
  6 C        0.3830     2.1660     1.9790 C.3   1 <1>   0.0600 
  7 C        2.1820    -1.3610    -0.3790 C.ar  1 <1>   0.4100 
  8 C        4.1880    -0.3280     0.4350 C.ar  1 <1>  -0.1500 
  9 N        2.8530    -2.0850    -1.2780 N.ar  1 <1>  -0.6200 
 10 N        0.8140    -1.5890    -0.3620 N.pl3 1 <1>  -0.8380 
 11 C        4.8730    -1.0910    -0.4810 C.ar  1 <1>  -0.1500 
 12 C        4.1620    -1.9390    -1.3080 C.ar  1 <1>   0.1600 
 13 C        0.0520    -1.8720    -1.6070 C.3   1 <1>   0.2090 
 14 C        0.1230    -2.0140     0.8870 C.3   1 <1>   0.2090 
 15 C       -0.2370    -3.3680    -1.6990 C.3   1 <1>  -0.1600 
 16 C       -0.1640    -3.5110     0.8140 C.3   1 <1>  -0.1600 
 17 C       -0.9530    -3.8770    -0.4440 C.3   1 <1>   0.4600 
 18 O       -2.2090    -3.2370    -0.3280 O.3   1 <1>  -0.5600 
 19 C       -1.1640    -5.3850    -0.5090 C.2   1 <1>  -0.3320 
 20 C       -3.2840    -3.7460    -1.0810 C.3   1 <1>   0.1200 
 21 N       -0.1840    -6.3380    -0.4930 N.pl3 1 <1>   0.0330 
 22 C       -2.3670    -5.9850    -0.5930 C.2   1 <1>  -0.1810 
 23 C       -3.6400    -5.1780    -0.6450 C.3   1 <1>   0.0210 
 24 C       -0.7900    -7.5700    -0.5600 C.ar  1 <1>  -0.1520 
 25 C       -2.1680    -7.3810    -0.6210 C.ar  1 <1>   0.0000 
 26 C       -0.2430    -8.8560    -0.5720 C.ar  1 <1>  -0.1500 
 27 C       -3.0170    -8.4900    -0.6930 C.ar  1 <1>  -0.1500 
 28 C       -1.0890    -9.9390    -0.6440 C.ar  1 <1>  -0.1500 
 29 C       -2.4760    -9.7560    -0.7040 C.ar  1 <1>  -0.1500 
 30 H        1.7250     1.3340    -1.0470 H     1 <1>   0.0800 
 31 H        0.8310     2.7490    -0.5530 H     1 <1>   0.0800 
 32 H        0.0120     1.2060    -0.7160 H     1 <1>   0.0800 
 33 H        0.5620     1.8450     2.9900 H     1 <1>   0.0800 
 34 H       -0.6610     2.0340     1.7590 H     1 <1>   0.0800 
 35 H        0.6350     3.2080     1.9010 H     1 <1>   0.0800 
 36 H        4.7000     0.3470     1.1000 H     1 <1>   0.1500 
 37 H        5.9440    -1.0300    -0.5570 H     1 <1>   0.1500 
 38 H        4.7020    -2.5290    -2.0290 H     1 <1>   0.1500 
 39 H        0.6150    -1.5520    -2.4670 H     1 <1>   0.0800 
 40 H       -0.8730    -1.3210    -1.5860 H     1 <1>   0.0800 
 41 H       -0.7960    -1.4610     0.9910 H     1 <1>   0.0800 
 42 H        0.7350    -1.8170     1.7490 H     1 <1>   0.0800 
 43 H        0.6990    -3.8830    -1.8060 H     1 <1>   0.0800 
 44 H       -0.8190    -3.5820    -2.5740 H     1 <1>   0.0800 
 45 H       -0.7160    -3.8220     1.6820 H     1 <1>   0.0800 
 46 H        0.7750    -4.0320     0.8170 H     1 <1>   0.0800 
 47 H       -3.0100    -3.7310    -2.1210 H     1 <1>   0.0800 
 48 H       -4.1250    -3.0930    -0.9340 H     1 <1>   0.0800 
 49 H        0.8260    -6.1740    -0.4380 H     1 <1>   0.2700 
 50 H       -4.3260    -5.6110    -1.3480 H     1 <1>   0.0800 
 51 H       -4.1000    -5.1620     0.3260 H     1 <1>   0.0800 
 52 H        0.8230    -8.9870    -0.5260 H     1 <1>   0.1500 
 53 H       -4.0780    -8.3340    -0.7370 H     1 <1>   0.1500 
 54 H       -0.6930   -10.9390    -0.6550 H     1 <1>   0.1500 
 55 H       -3.1160   -10.6190    -0.7590 H     1 <1>   0.1500 
@<TRIPOS>BOND
  1   1   2  2   
  2   2   3  am  
  3   2   4  1   
  4   3   5  1   
  5   3   6  1   
  6   4   7  ar  
  7   4   8  ar  
  8   5  30  1   
  9   5  31  1   
 10   5  32  1   
 11   6  33  1   
 12   6  34  1   
 13   6  35  1   
 14   7   9  ar  
 15   7  10  1   
 16   8  11  ar  
 17   8  36  1   
 18   9  12  ar  
 19  10  13  1   
 20  10  14  1   
 21  11  12  ar  
 22  11  37  1   
 23  12  38  1   
 24  13  15  1   
 25  13  39  1   
 26  13  40  1   
 27  14  16  1   
 28  14  41  1   
 29  14  42  1   
 30  15  17  1   
 31  15  43  1   
 32  15  44  1   
 33  16  17  1   
 34  16  45  1   
 35  16  46  1   
 36  17  18  1   
 37  17  19  1   
 38  18  20  1   
 39  19  21  1   
 40  19  22  2   
 41  20  23  1   
 42  20  47  1   
 43  20  48  1   
 44  21  24  1   
 45  21  49  1   
 46  22  23  1   
 47  22  25  1   
 48  23  50  1   
 49  23  51  1   
 50  24  25  ar  
 51  24  26  ar  
 52  25  27  ar  
 53  26  28  ar  
 54  26  52  1   
 55  27  29  ar  
 56  27  53  1   
 57  28  29  ar  
 58  28  54  1   
 59  29  55  1   
@<TRIPOS>SUBSTRUCTURE
  1 ****  16 GROUP 4 **** **** 0

# MOE 2024.06 (io_trps.svl 2023.06)
