@<TRIPOS>MOLECULE
NONAME
52 54 1 0 0 
SMALL
USER_CHARGES


@<TRIPOS>ATOM
  1 F        1.3150    -0.6190    -2.3230 F     1 <1>  -0.1900 
  2 C        1.4510    -1.3760    -1.2680 C.ar  1 <1>   0.1900 
  3 C        1.9670    -2.6480    -1.4220 C.ar  1 <1>  -0.1500 
  4 C        1.0750    -0.8740    -0.0370 C.ar  1 <1>  -0.1500 
  5 C        2.1140    -3.4530    -0.3020 C.ar  1 <1>  -0.1440 
  6 C        1.2220    -1.6810     1.0780 C.ar  1 <1>  -0.1500 
  7 C        1.7380    -2.9620     0.9430 C.ar  1 <1>  -0.1500 
  8 C        2.6790    -4.8600    -0.4340 C.3   1 <1>   0.2640 
  9 O        1.8420    -5.6140    -1.2910 O.3   1 <1>  -0.3630 
 10 C        1.5550    -6.8850    -0.9220 C.ar  1 <1>   0.0830 
 11 C        0.8600    -7.1970     0.2510 C.ar  1 <1>   0.0830 
 12 C        1.9770    -7.9060    -1.7570 C.ar  1 <1>  -0.1500 
 13 O        0.3840    -6.2550     1.0990 O.3   1 <1>  -0.3620 
 14 C        0.6420    -8.5210     0.5890 C.ar  1 <1>  -0.1500 
 15 C        1.7400    -9.2290    -1.4220 C.ar  1 <1>  -0.1500 
 16 C       -0.6460    -5.4180     0.6130 C.3   1 <1>   0.0400 
 17 C        1.0720    -9.5430    -0.2460 C.ar  1 <1>  -0.1430 
 18 C        0.8010   -10.9880     0.1270 C.3   1 <1>   0.4860 
 19 N       -0.3420   -11.4880    -0.6770 N.4   1 <1>  -0.9590 
 20 C       -0.4850   -12.9720    -0.4770 C.3   1 <1>   0.3430 
 21 C       -1.5910   -10.7010    -0.3740 C.3   1 <1>   0.3430 
 22 C       -1.4710   -13.2540     0.6370 C.3   1 <1>  -0.1860 
 23 C       -2.8350   -11.5320    -0.6630 C.3   1 <1>  -0.1600 
 24 C       -1.5190   -14.7260     0.8850 C.2   1 <1>   0.9060 
 25 C       -2.8660   -12.7530     0.2610 C.3   1 <1>   0.2000 
 26 O       -0.7560   -15.4470     0.2390 O.co2 1 <1>  -0.9000 
 27 O       -2.3220   -15.1350     1.7220 O.co2 1 <1>  -0.9000 
 28 O       -3.4720   -12.3860     1.4370 O.3   1 <1>  -0.6800 
 29 H        2.2420    -2.9990    -2.4010 H     1 <1>   0.1500 
 30 H        0.6780     0.1220     0.0420 H     1 <1>   0.1500 
 31 H        0.9360    -1.3170     2.0500 H     1 <1>   0.1500 
 32 H        1.8430    -3.5810     1.8180 H     1 <1>   0.1500 
 33 H        2.7430    -5.3390     0.5270 H     1 <1>   0.0800 
 34 H        3.6590    -4.8320    -0.8750 H     1 <1>   0.0800 
 35 H        2.4960    -7.6560    -2.6660 H     1 <1>   0.1500 
 36 H        0.1270    -8.7310     1.5100 H     1 <1>   0.1500 
 37 H        2.0890   -10.0020    -2.0860 H     1 <1>   0.1500 
 38 H       -0.9190    -4.7310     1.3940 H     1 <1>   0.0800 
 39 H       -1.4920    -6.0260     0.3450 H     1 <1>   0.0800 
 40 H       -0.2970    -4.8710    -0.2440 H     1 <1>   0.0800 
 41 H        0.5730   -11.0630     1.1780 H     1 <1>   0.0800 
 42 H        1.6800   -11.5800    -0.0710 H     1 <1>   0.0800 
 43 H       -0.1050   -11.3300    -1.6620 H     1 <1>   0.4500 
 44 H       -0.8540   -13.4370    -1.3770 H     1 <1>   0.0800 
 45 H        0.4660   -13.4270    -0.2450 H     1 <1>   0.0800 
 46 H       -1.6090   -10.4360     0.6710 H     1 <1>   0.0800 
 47 H       -1.6040    -9.7910    -0.9520 H     1 <1>   0.0800 
 48 H       -1.1170   -12.7970     1.5410 H     1 <1>   0.0800 
 49 H       -2.8180   -11.8510    -1.6900 H     1 <1>   0.0800 
 50 H       -3.7240   -10.9420    -0.5210 H     1 <1>   0.0800 
 51 H       -3.4610   -13.5380    -0.1820 H     1 <1>   0.0800 
 52 H       -3.5000   -13.1970     2.0050 H     1 <1>   0.4000 
@<TRIPOS>BOND
  1   1   2  1   
  2   2   3  ar  
  3   2   4  ar  
  4   3   5  ar  
  5   3  29  1   
  6   4   6  ar  
  7   4  30  1   
  8   5   7  ar  
  9   5   8  1   
 10   6   7  ar  
 11   6  31  1   
 12   7  32  1   
 13   8   9  1   
 14   8  33  1   
 15   8  34  1   
 16   9  10  1   
 17  10  11  ar  
 18  10  12  ar  
 19  11  13  1   
 20  11  14  ar  
 21  12  15  ar  
 22  12  35  1   
 23  13  16  1   
 24  14  17  ar  
 25  14  36  1   
 26  15  17  ar  
 27  15  37  1   
 28  16  38  1   
 29  16  39  1   
 30  16  40  1   
 31  17  18  1   
 32  18  19  1   
 33  18  41  1   
 34  18  42  1   
 35  19  20  1   
 36  19  21  1   
 37  19  43  1   
 38  20  22  1   
 39  20  44  1   
 40  20  45  1   
 41  21  23  1   
 42  21  46  1   
 43  21  47  1   
 44  22  24  1   
 45  22  25  1   
 46  22  48  1   
 47  23  25  1   
 48  23  49  1   
 49  23  50  1   
 50  24  26  ar  
 51  24  27  ar  
 52  25  28  1   
 53  25  51  1   
 54  28  52  1   
@<TRIPOS>SUBSTRUCTURE
  1 ****  14 GROUP 4 **** **** 0

# MOE 2024.06 (io_trps.svl 2023.06)
