@<TRIPOS>MOLECULE
NONAME
51 54 1 0 0 
SMALL
USER_CHARGES


@<TRIPOS>ATOM
  1 S       -0.8570     0.2990     0.1280 S.o2  1 <1>   1.0900 
  2 O       -1.0950     1.4540     0.9600 O.2   1 <1>  -0.6500 
  3 O        0.4610    -0.0330    -0.3590 O.2   1 <1>  -0.6500 
  4 C       -1.5320    -1.1570     0.8780 C.3   1 <1>  -0.0550 
  5 C       -1.9770     0.2870    -1.2650 C.3   1 <1>  -0.0550 
  6 C       -2.0020    -2.0050    -0.3010 C.3   1 <1>   0.1760 
  7 C       -2.7270    -1.0570    -1.2760 C.3   1 <1>  -0.1600 
  8 N       -2.8830    -3.1170     0.1350 N.pl3 1 <1>   0.3140 
  9 N       -3.9030    -2.9060     0.9910 N.2   1 <1>  -0.7070 
 10 C       -2.8350    -4.4110    -0.2720 C.2   1 <1>  -0.3320 
 11 C       -4.4870    -4.0570     1.1000 C.2   1 <1>   0.1080 
 12 C       -3.8700    -5.0410     0.3270 C.2   1 <1>   0.0630 
 13 C       -1.7900    -4.9780    -1.2240 C.3   1 <1>  -0.0600 
 14 C       -5.7040    -4.2680     1.9730 C.3   1 <1>  -0.0590 
 15 N       -4.2780    -6.3950     0.2310 N.am  1 <1>  -0.4930 
 16 C       -4.4970    -7.1640    -0.8700 C.2   1 <1>   0.5690 
 17 O       -4.2770    -6.8080    -2.0050 O.2   1 <1>  -0.5700 
 18 C       -5.0780    -8.5560    -0.6210 C.3   1 <1>   0.1710 
 19 N       -5.8840    -8.6490     0.6380 N.3   1 <1>  -0.8100 
 20 C       -7.1980    -7.9780     0.4360 C.3   1 <1>   0.2530 
 21 C       -6.2000   -10.0700     0.9250 C.3   1 <1>   0.2530 
 22 C       -8.1210    -9.0870     0.0030 C.ar  1 <1>  -0.1440 
 23 C       -7.5450   -10.2940     0.2860 C.ar  1 <1>  -0.1440 
 24 C       -9.3660    -9.0150    -0.5940 C.ar  1 <1>  -0.1500 
 25 C       -8.1930   -11.4780    -0.0170 C.ar  1 <1>  -0.1500 
 26 C      -10.0270   -10.1940    -0.9030 C.ar  1 <1>  -0.1500 
 27 C       -9.4430   -11.4200    -0.6150 C.ar  1 <1>  -0.1500 
 28 H       -2.3700    -0.8870     1.4920 H     1 <1>   0.0800 
 29 H       -0.8000    -1.6730     1.4690 H     1 <1>   0.0800 
 30 H       -1.4210     0.4100    -2.1750 H     1 <1>   0.0800 
 31 H       -2.6810     1.0940    -1.1860 H     1 <1>   0.0800 
 32 H       -1.1370    -2.4150    -0.7890 H     1 <1>   0.0800 
 33 H       -2.7620    -1.4760    -2.2670 H     1 <1>   0.0800 
 34 H       -3.7350    -0.8930    -0.9310 H     1 <1>   0.0800 
 35 H       -0.7990    -4.7520    -0.8770 H     1 <1>   0.0800 
 36 H       -1.9270    -4.5690    -2.2090 H     1 <1>   0.0800 
 37 H       -1.8810    -6.0470    -1.2890 H     1 <1>   0.0800 
 38 H       -6.0820    -3.3190     2.3060 H     1 <1>   0.0800 
 39 H       -5.4370    -4.8580     2.8300 H     1 <1>   0.0800 
 40 H       -6.4700    -4.7720     1.4150 H     1 <1>   0.0800 
 41 H       -4.6240    -6.8290     1.0910 H     1 <1>   0.3700 
 42 H       -4.2460    -9.2350    -0.5630 H     1 <1>   0.0800 
 43 H       -5.6780    -8.8420    -1.4690 H     1 <1>   0.0800 
 44 H       -7.1500    -7.1920    -0.2990 H     1 <1>   0.0800 
 45 H       -7.5430    -7.5730     1.3720 H     1 <1>   0.0800 
 46 H       -6.2830   -10.2120     1.9890 H     1 <1>   0.0800 
 47 H       -5.4540   -10.7410     0.5340 H     1 <1>   0.0800 
 48 H       -9.8150    -8.0630    -0.8170 H     1 <1>   0.1500 
 49 H       -7.7390   -12.4270     0.2070 H     1 <1>   0.1500 
 50 H      -10.9960   -10.1590    -1.3680 H     1 <1>   0.1500 
 51 H       -9.9630   -12.3310    -0.8580 H     1 <1>   0.1500 
@<TRIPOS>BOND
  1   1   2  2   
  2   1   3  2   
  3   1   4  1   
  4   1   5  1   
  5   4   6  1   
  6   4  28  1   
  7   4  29  1   
  8   5   7  1   
  9   5  30  1   
 10   5  31  1   
 11   6   7  1   
 12   6   8  1   
 13   6  32  1   
 14   7  33  1   
 15   7  34  1   
 16   8   9  1   
 17   8  10  1   
 18   9  11  2   
 19  10  12  2   
 20  10  13  1   
 21  11  12  1   
 22  11  14  1   
 23  12  15  1   
 24  13  35  1   
 25  13  36  1   
 26  13  37  1   
 27  14  38  1   
 28  14  39  1   
 29  14  40  1   
 30  15  16  am  
 31  15  41  1   
 32  16  17  2   
 33  16  18  1   
 34  18  19  1   
 35  18  42  1   
 36  18  43  1   
 37  19  20  1   
 38  19  21  1   
 39  20  22  1   
 40  20  44  1   
 41  20  45  1   
 42  21  23  1   
 43  21  46  1   
 44  21  47  1   
 45  22  23  ar  
 46  22  24  ar  
 47  23  25  ar  
 48  24  26  ar  
 49  24  48  1   
 50  25  27  ar  
 51  25  49  1   
 52  26  27  ar  
 53  26  50  1   
 54  27  51  1   
@<TRIPOS>SUBSTRUCTURE
  1 ****  12 GROUP 4 **** **** 0

# MOE 2024.06 (io_trps.svl 2023.06)
