@<TRIPOS>MOLECULE
NONAME
54 57 1 0 0 
SMALL
USER_CHARGES


@<TRIPOS>ATOM
  1 O        0.3340     0.1160    -0.4920 O.2   1 <1>  -0.5700 
  2 C       -0.3650     1.0320    -0.8640 C.2   1 <1>   0.5690 
  3 N       -1.7050     1.0860    -0.5550 N.am  1 <1>  -0.6600 
  4 C        0.3290     2.1190    -1.6900 C.3   1 <1>   0.2010 
  5 C       -2.6340     2.2120    -0.9140 C.3   1 <1>   0.1400 
  6 C       -2.3730    -0.0460     0.1520 C.3   1 <1>   0.1400 
  7 N        0.9430     3.1850    -0.8410 N.am  1 <1>  -0.7300 
  8 C       -3.3950     2.7440     0.3180 C.3   1 <1>   0.1430 
  9 C       -3.0820     0.4630     1.4100 C.3   1 <1>  -0.1600 
 10 C        0.5790     4.4870    -0.8390 C.2   1 <1>   0.5690 
 11 C       -4.4110     3.7730    -0.1440 C.ar  1 <1>   0.1660 
 12 C       -4.0790     1.5820     1.0720 C.3   1 <1>  -0.1600 
 13 C       -2.4660     3.5720     1.2490 C.3   1 <1>  -0.1600 
 14 O       -0.3190     4.9000    -1.5290 O.2   1 <1>  -0.5700 
 15 C        1.3130     5.4440     0.0810 C.3   1 <1>  -0.0990 
 16 N       -5.4990     3.5090    -0.8270 N.ar  1 <1>  -0.6200 
 17 C       -4.0590     5.0340     0.2250 C.ar  1 <1>  -0.1440 
 18 C       -2.7580     5.0610     0.9840 C.3   1 <1>  -0.0160 
 19 C        2.7590     5.7090    -0.3680 C.3   1 <1>  -0.2400 
 20 C       -6.2660     4.5620    -1.1400 C.ar  1 <1>   0.6200 
 21 C       -4.8930     6.0600    -0.1350 C.ar  1 <1>   0.1600 
 22 N       -5.9960     5.8350    -0.8120 N.ar  1 <1>  -0.6200 
 23 C       -7.4860     4.3030    -1.8940 C.ar  1 <1>   0.0000 
 24 C       -8.1410     3.0690    -1.8270 C.ar  1 <1>  -0.1500 
 25 C       -8.0610     5.2740    -2.7190 C.ar  1 <1>  -0.1500 
 26 C       -9.2990     2.8180    -2.5410 C.ar  1 <1>  -0.1500 
 27 C       -9.2190     5.0310    -3.4350 C.ar  1 <1>  -0.1500 
 28 C       -9.8420     3.8000    -3.3480 C.ar  1 <1>  -0.1500 
 29 H       -0.3590     2.5490    -2.3940 H     1 <1>   0.0800 
 30 H        1.1100     1.6510    -2.2620 H     1 <1>   0.0800 
 31 H       -3.3480     1.8490    -1.6330 H     1 <1>   0.0800 
 32 H       -2.1060     3.0300    -1.3670 H     1 <1>   0.0800 
 33 H       -1.6580    -0.8030     0.4270 H     1 <1>   0.0800 
 34 H       -3.0900    -0.4960    -0.5140 H     1 <1>   0.0800 
 35 H        1.6720     2.8550    -0.2050 H     1 <1>   0.3700 
 36 H       -2.3430     0.8150     2.1090 H     1 <1>   0.0800 
 37 H       -3.6040    -0.3550     1.8730 H     1 <1>   0.0800 
 38 H       -4.8550     1.1720     0.4490 H     1 <1>   0.0800 
 39 H       -4.5470     1.9470     1.9690 H     1 <1>   0.0800 
 40 H       -1.4280     3.3420     1.0910 H     1 <1>   0.0800 
 41 H       -2.7010     3.3630     2.2780 H     1 <1>   0.0800 
 42 H        1.3100     5.0390     1.0760 H     1 <1>   0.0800 
 43 H        0.7760     6.3750     0.1040 H     1 <1>   0.0800 
 44 H       -1.9940     5.5010     0.3690 H     1 <1>   0.0800 
 45 H       -2.8490     5.6140     1.9020 H     1 <1>   0.0800 
 46 H        3.3290     4.7970    -0.3710 H     1 <1>   0.0800 
 47 H        3.2320     6.4090     0.2980 H     1 <1>   0.0800 
 48 H        2.7650     6.1220    -1.3620 H     1 <1>   0.0800 
 49 H       -4.6540     7.0750     0.1320 H     1 <1>   0.1500 
 50 H       -7.7360     2.2920    -1.2030 H     1 <1>   0.1500 
 51 H       -7.5910     6.2390    -2.8020 H     1 <1>   0.1500 
 52 H       -9.7780     1.8570    -2.4670 H     1 <1>   0.1500 
 53 H       -9.6360     5.8010    -4.0610 H     1 <1>   0.1500 
 54 H      -10.7430     3.6080    -3.9040 H     1 <1>   0.1500 
@<TRIPOS>BOND
  1   1   2  2   
  2   2   3  am  
  3   2   4  1   
  4   3   5  1   
  5   3   6  1   
  6   4   7  1   
  7   4  29  1   
  8   4  30  1   
  9   5   8  1   
 10   5  31  1   
 11   5  32  1   
 12   6   9  1   
 13   6  33  1   
 14   6  34  1   
 15   7  10  am  
 16   7  35  1   
 17   8  11  1   
 18   8  12  1   
 19   8  13  1   
 20   9  12  1   
 21   9  36  1   
 22   9  37  1   
 23  10  14  2   
 24  10  15  1   
 25  11  16  ar  
 26  11  17  ar  
 27  12  38  1   
 28  12  39  1   
 29  13  18  1   
 30  13  40  1   
 31  13  41  1   
 32  15  19  1   
 33  15  42  1   
 34  15  43  1   
 35  16  20  ar  
 36  17  18  1   
 37  17  21  ar  
 38  18  44  1   
 39  18  45  1   
 40  19  46  1   
 41  19  47  1   
 42  19  48  1   
 43  20  22  ar  
 44  20  23  1   
 45  21  22  ar  
 46  21  49  1   
 47  23  24  ar  
 48  23  25  ar  
 49  24  26  ar  
 50  24  50  1   
 51  25  27  ar  
 52  25  51  1   
 53  26  28  ar  
 54  26  52  1   
 55  27  28  ar  
 56  27  53  1   
 57  28  54  1   
@<TRIPOS>SUBSTRUCTURE
  1 ****  11 GROUP 4 **** **** 0

# MOE 2024.06 (io_trps.svl 2023.06)
