@<TRIPOS>MOLECULE
NONAME
61 64 1 0 0 
SMALL
USER_CHARGES


@<TRIPOS>ATOM
  1 S        0.1810    -1.2470     0.7320 S.o2  1 <1>   1.2040 
  2 O        0.7920    -0.8900    -0.5290 O.2   1 <1>  -0.6500 
  3 O        0.4440    -0.4570     1.9140 O.2   1 <1>  -0.6500 
  4 C       -1.6040    -1.4420     0.5110 C.ar  1 <1>  -0.0090 
  5 C        0.6850    -2.9160     1.0990 C.3   1 <1>  -0.1350 
  6 C       -2.4780    -1.3340     1.5830 C.ar  1 <1>  -0.1500 
  7 C       -2.1470    -1.7380    -0.7300 C.ar  1 <1>  -0.1500 
  8 C       -3.8410    -1.5180     1.4270 C.ar  1 <1>  -0.1500 
  9 C       -3.5080    -1.9240    -0.8920 C.ar  1 <1>  -0.1500 
 10 C       -4.3840    -1.8190     0.1820 C.ar  1 <1>  -0.1430 
 11 C       -5.8940    -2.0470    -0.0750 C.3   1 <1>   0.2040 
 12 C       -6.0390    -3.4320    -0.7630 C.2   1 <1>   0.5690 
 13 C       -6.7270    -2.0180     1.2380 C.3   1 <1>  -0.1600 
 14 C       -6.4120    -0.8820    -0.9640 C.3   1 <1>  -0.1600 
 15 O       -6.3130    -3.5230    -1.9390 O.2   1 <1>  -0.5700 
 16 N       -5.8150    -4.5580    -0.0320 N.am  1 <1>  -0.7300 
 17 C       -8.2390    -2.1320     0.9880 C.3   1 <1>  -0.1600 
 18 C       -7.9340    -0.9110    -1.2070 C.3   1 <1>  -0.1600 
 19 C       -5.8970    -5.9410    -0.5430 C.3   1 <1>   0.2200 
 20 C       -8.7200    -0.9750     0.1070 C.3   1 <1>  -0.1600 
 21 C       -7.1450    -6.6000     0.0180 C.3   1 <1>  -0.0800 
 22 C       -4.7940    -6.7790     0.0910 C.3   1 <1>   0.1200 
 23 C       -6.6680    -7.1020     1.3880 C.3   1 <1>   0.1200 
 24 C       -7.6330    -7.7460    -0.8880 C.3   1 <1>  -0.0160 
 25 O       -5.2690    -7.1370     1.3530 O.3   1 <1>  -0.5600 
 26 C       -8.9060    -8.3780    -0.3470 C.ar  1 <1>  -0.1430 
 27 C      -10.1280    -7.7440    -0.4480 C.ar  1 <1>  -0.1500 
 28 C       -8.9100    -9.6140     0.2690 C.ar  1 <1>  -0.1500 
 29 C      -11.2610    -8.3550     0.0620 C.ar  1 <1>   0.1600 
 30 C      -10.1010   -10.1370     0.7450 C.ar  1 <1>   0.1600 
 31 N      -11.2770    -9.5360     0.6590 N.ar  1 <1>  -0.6200 
 32 H        0.4390    -3.5690     0.2840 H     1 <1>   0.0800 
 33 H        0.1960    -3.2680     1.9860 H     1 <1>   0.0800 
 34 H        1.7450    -2.9520     1.2570 H     1 <1>   0.0800 
 35 H       -2.0870    -1.0960     2.5590 H     1 <1>   0.1500 
 36 H       -1.4990    -1.8220    -1.5870 H     1 <1>   0.1500 
 37 H       -4.4540    -1.4170     2.3040 H     1 <1>   0.1500 
 38 H       -3.8820    -2.1530    -1.8770 H     1 <1>   0.1500 
 39 H       -6.4170    -2.8070     1.8990 H     1 <1>   0.0800 
 40 H       -6.5580    -1.0840     1.7430 H     1 <1>   0.0800 
 41 H       -6.1580     0.0500    -0.4920 H     1 <1>   0.0800 
 42 H       -5.9140    -0.9000    -1.9180 H     1 <1>   0.0800 
 43 H       -5.5250    -4.4870     0.9460 H     1 <1>   0.3700 
 44 H       -8.4690    -3.0700     0.5100 H     1 <1>   0.0800 
 45 H       -8.7630    -2.1060     1.9280 H     1 <1>   0.0800 
 46 H       -8.2250    -0.0320    -1.7560 H     1 <1>   0.0800 
 47 H       -8.1890    -1.7640    -1.8120 H     1 <1>   0.0800 
 48 H       -5.8530    -5.9510    -1.6190 H     1 <1>   0.0800 
 49 H       -8.5980    -0.0460     0.6390 H     1 <1>   0.0800 
 50 H       -9.7680    -1.0950    -0.1070 H     1 <1>   0.0800 
 51 H       -7.9430    -5.8860     0.1270 H     1 <1>   0.0800 
 52 H       -3.8680    -6.2400     0.1900 H     1 <1>   0.0800 
 53 H       -4.6320    -7.6840    -0.4680 H     1 <1>   0.0800 
 54 H       -7.0340    -8.0850     1.6270 H     1 <1>   0.0800 
 55 H       -6.9560    -6.4170     2.1660 H     1 <1>   0.0800 
 56 H       -6.8690    -8.4980    -0.9850 H     1 <1>   0.0800 
 57 H       -7.8340    -7.3600    -1.8720 H     1 <1>   0.0800 
 58 H      -10.2090    -6.7810    -0.9180 H     1 <1>   0.1500 
 59 H       -8.0020   -10.1760     0.3840 H     1 <1>   0.1500 
 60 H      -12.2050    -7.8450    -0.0250 H     1 <1>   0.1500 
 61 H      -10.0850   -11.1020     1.2230 H     1 <1>   0.1500 
@<TRIPOS>BOND
  1   1   2  2   
  2   1   3  2   
  3   1   4  1   
  4   1   5  1   
  5   4   6  ar  
  6   4   7  ar  
  7   5  32  1   
  8   5  33  1   
  9   5  34  1   
 10   6   8  ar  
 11   6  35  1   
 12   7   9  ar  
 13   7  36  1   
 14   8  10  ar  
 15   8  37  1   
 16   9  10  ar  
 17   9  38  1   
 18  10  11  1   
 19  11  12  1   
 20  11  13  1   
 21  11  14  1   
 22  12  15  2   
 23  12  16  am  
 24  13  17  1   
 25  13  39  1   
 26  13  40  1   
 27  14  18  1   
 28  14  41  1   
 29  14  42  1   
 30  16  19  1   
 31  16  43  1   
 32  17  20  1   
 33  17  44  1   
 34  17  45  1   
 35  18  20  1   
 36  18  46  1   
 37  18  47  1   
 38  19  21  1   
 39  19  22  1   
 40  19  48  1   
 41  20  49  1   
 42  20  50  1   
 43  21  23  1   
 44  21  24  1   
 45  21  51  1   
 46  22  25  1   
 47  22  52  1   
 48  22  53  1   
 49  23  25  1   
 50  23  54  1   
 51  23  55  1   
 52  24  26  1   
 53  24  56  1   
 54  24  57  1   
 55  26  27  ar  
 56  26  28  ar  
 57  27  29  ar  
 58  27  58  1   
 59  28  30  ar  
 60  28  59  1   
 61  29  31  ar  
 62  29  60  1   
 63  30  31  ar  
 64  30  61  1   
@<TRIPOS>SUBSTRUCTURE
  1 ****  16 GROUP 4 **** **** 0

# MOE 2024.06 (io_trps.svl 2023.06)
