@<TRIPOS>MOLECULE
NONAME
37 39 1 0 0 
SMALL
USER_CHARGES


@<TRIPOS>ATOM
  1 O       -0.3640     0.3540     0.3760 O.2   1 <1>  -0.5700 
  2 C       -1.4500     0.9210     0.3830 C.2   1 <1>   0.7160 
  3 N       -2.5490     0.1530     0.7390 N.am  1 <1>  -0.6600 
  4 C       -1.4990     2.3520     0.0550 C.2   1 <1>   0.2030 
  5 C       -2.5540    -1.3340     0.5270 C.3   1 <1>   0.1400 
  6 C       -3.8400     0.6990     1.2420 C.3   1 <1>   0.1400 
  7 N       -2.5630     3.0820    -0.2630 N.2   1 <1>  -0.7070 
  8 C       -0.3600     3.1770     0.0130 C.2   1 <1>  -0.1810 
  9 C       -3.7270    -1.7990    -0.3580 C.3   1 <1>   0.2000 
 10 C       -4.9840     0.3080     0.3010 C.3   1 <1>  -0.1600 
 11 N       -2.1130     4.3190    -0.5090 N.pl3 1 <1>   0.3000 
 12 C       -0.7820     4.3950    -0.3520 C.2   1 <1>  -0.3320 
 13 C        1.1060     2.8730     0.2910 C.3   1 <1>   0.3010 
 14 O       -3.5150    -1.3850    -1.6620 O.3   1 <1>  -0.6800 
 15 C       -5.0640    -1.2250     0.1360 C.3   1 <1>  -0.1860 
 16 C        0.1600     5.5680    -0.5220 C.3   1 <1>   0.0200 
 17 O        1.8260     4.0790     0.4250 O.3   1 <1>  -0.5600 
 18 C       -6.2140    -1.6660    -0.7490 C.2   1 <1>   0.9060 
 19 C        1.6040     5.0290    -0.5850 C.3   1 <1>   0.1200 
 20 O       -7.2060    -2.1650    -0.2110 O.co2 1 <1>  -0.9000 
 21 O       -6.1170    -1.5320    -1.9760 O.co2 1 <1>  -0.9000 
 22 H       -1.6350    -1.6620     0.0740 H     1 <1>   0.0800 
 23 H       -2.6350    -1.8100     1.4870 H     1 <1>   0.0800 
 24 H       -4.0300     0.2840     2.2160 H     1 <1>   0.0800 
 25 H       -3.8010     1.7650     1.3540 H     1 <1>   0.0800 
 26 H       -3.7780    -2.8740    -0.3740 H     1 <1>   0.0800 
 27 H       -5.9160     0.6720     0.6960 H     1 <1>   0.0800 
 28 H       -4.8310     0.7750    -0.6580 H     1 <1>   0.0800 
 29 H       -2.7370     5.0850    -0.7860 H     1 <1>   0.2700 
 30 H        1.5340     2.3020    -0.5150 H     1 <1>   0.0800 
 31 H        1.2130     2.3230     1.2090 H     1 <1>   0.0800 
 32 H       -4.4220    -1.3690    -2.0910 H     1 <1>   0.4000 
 33 H       -5.2550    -1.6480     1.1040 H     1 <1>   0.0800 
 34 H        0.0630     6.2390     0.3130 H     1 <1>   0.0800 
 35 H       -0.0620     6.1060    -1.4250 H     1 <1>   0.0800 
 36 H        2.3100     5.8290    -0.4490 H     1 <1>   0.0800 
 37 H        1.7890     4.5560    -1.5350 H     1 <1>   0.0800 
@<TRIPOS>BOND
  1   1   2  2   
  2   2   3  am  
  3   2   4  1   
  4   3   5  1   
  5   3   6  1   
  6   4   7  2   
  7   4   8  1   
  8   5   9  1   
  9   5  22  1   
 10   5  23  1   
 11   6  10  1   
 12   6  24  1   
 13   6  25  1   
 14   7  11  1   
 15   8  12  2   
 16   8  13  1   
 17   9  14  1   
 18   9  15  1   
 19   9  26  1   
 20  10  15  1   
 21  10  27  1   
 22  10  28  1   
 23  11  12  1   
 24  11  29  1   
 25  12  16  1   
 26  13  17  1   
 27  13  30  1   
 28  13  31  1   
 29  14  32  1   
 30  15  18  1   
 31  15  33  1   
 32  16  19  1   
 33  16  34  1   
 34  16  35  1   
 35  17  19  1   
 36  18  20  ar  
 37  18  21  ar  
 38  19  36  1   
 39  19  37  1   
@<TRIPOS>SUBSTRUCTURE
  1 ****   2 GROUP 4 **** **** 0

# MOE 2024.06 (io_trps.svl 2023.06)
