@<TRIPOS>MOLECULE
NONAME
53 55 1 0 0 
SMALL
USER_CHARGES


@<TRIPOS>ATOM
  1 O       -0.8630     0.8480    -1.9810 O.2   1 <1>  -0.5700 
  2 C       -1.3800     1.0500    -0.9070 C.2   1 <1>   0.5690 
  3 N       -2.0580     0.0490    -0.2570 N.am  1 <1>  -0.6600 
  4 C       -1.2610     2.4610    -0.3050 C.3   1 <1>  -0.0190 
  5 C       -2.9200     0.2270     0.9510 C.3   1 <1>   0.2840 
  6 C       -1.9960    -1.3550    -0.7700 C.3   1 <1>   0.2840 
  7 C       -2.4810     3.3340    -0.6620 C.3   1 <1>  -0.1600 
  8 C        0.0470     3.1970    -0.7000 C.3   1 <1>  -0.1600 
  9 C       -4.3540    -0.2150     0.6830 C.ar  1 <1>  -0.1440 
 10 C       -1.5200    -2.2980     0.3260 C.ar  1 <1>  -0.1430 
 11 C       -2.4850     4.6730     0.1080 C.3   1 <1>   0.2000 
 12 C        0.0020     4.7220    -0.4660 C.3   1 <1>  -0.1600 
 13 C       -5.0260     0.1840    -0.4650 C.ar  1 <1>  -0.1500 
 14 C       -5.0070    -1.0260     1.6000 C.ar  1 <1>  -0.1500 
 15 C       -0.2090    -2.2370     0.7740 C.ar  1 <1>  -0.1500 
 16 C       -2.3900    -3.2180     0.8910 C.ar  1 <1>  -0.1500 
 17 O       -3.0370     5.6600    -0.7270 O.3   1 <1>  -0.5600 
 18 C       -1.0670     5.1150     0.5550 C.3   1 <1>   0.2000 
 19 C       -6.3300    -0.2210    -0.6910 C.ar  1 <1>  -0.1500 
 20 C       -6.3110    -1.4310     1.3750 C.ar  1 <1>  -0.1500 
 21 C        0.2270    -3.0840     1.7780 C.ar  1 <1>  -0.1500 
 22 C       -1.9560    -4.0660     1.8950 C.ar  1 <1>  -0.1500 
 23 C       -4.4290     5.6620    -0.8060 C.3   1 <1>   0.0400 
 24 O       -1.0430     6.4870     0.6970 O.3   1 <1>  -0.6800 
 25 C       -6.9740    -1.0290     0.2290 C.ar  1 <1>  -0.1500 
 26 C       -0.6470    -3.9980     2.3400 C.ar  1 <1>  -0.1500 
 27 H       -1.2220     2.3500     0.7620 H     1 <1>   0.0800 
 28 H       -2.5060    -0.3450     1.7640 H     1 <1>   0.0800 
 29 H       -2.9500     1.2510     1.2660 H     1 <1>   0.0800 
 30 H       -2.9690    -1.6520    -1.1200 H     1 <1>   0.0800 
 31 H       -1.3190    -1.4310    -1.6040 H     1 <1>   0.0800 
 32 H       -3.3910     2.8070    -0.4450 H     1 <1>   0.0800 
 33 H       -2.4510     3.5270    -1.7210 H     1 <1>   0.0800 
 34 H        0.8610     2.7690    -0.1410 H     1 <1>   0.0800 
 35 H        0.2640     3.0370    -1.7430 H     1 <1>   0.0800 
 36 H       -3.0940     4.5890     0.9920 H     1 <1>   0.0800 
 37 H       -0.2280     5.2060    -1.4000 H     1 <1>   0.0800 
 38 H        0.9670     5.0660    -0.1380 H     1 <1>   0.0800 
 39 H       -4.5350     0.8060    -1.1920 H     1 <1>   0.1500 
 40 H       -4.5030    -1.3490     2.4950 H     1 <1>   0.1500 
 41 H        0.4720    -1.5260     0.3380 H     1 <1>   0.1500 
 42 H       -3.4110    -3.2770     0.5520 H     1 <1>   0.1500 
 43 H       -0.8240     4.6820     1.5100 H     1 <1>   0.0800 
 44 H       -6.8430     0.0910    -1.5840 H     1 <1>   0.1500 
 45 H       -6.8110    -2.0610     2.0910 H     1 <1>   0.1500 
 46 H        1.2460    -3.0330     2.1200 H     1 <1>   0.1500 
 47 H       -2.6360    -4.7770     2.3300 H     1 <1>   0.1500 
 48 H       -4.7240     6.4660    -1.4570 H     1 <1>   0.0800 
 49 H       -4.8420     5.8220     0.1750 H     1 <1>   0.0800 
 50 H       -4.7690     4.7270    -1.2140 H     1 <1>   0.0800 
 51 H       -1.6620     6.8380     0.0170 H     1 <1>   0.4000 
 52 H       -7.9880    -1.3440     0.0540 H     1 <1>   0.1500 
 53 H       -0.3090    -4.6570     3.1200 H     1 <1>   0.1500 
@<TRIPOS>BOND
  1   1   2  2   
  2   2   3  am  
  3   2   4  1   
  4   3   5  1   
  5   3   6  1   
  6   4   7  1   
  7   4   8  1   
  8   4  27  1   
  9   5   9  1   
 10   5  28  1   
 11   5  29  1   
 12   6  10  1   
 13   6  30  1   
 14   6  31  1   
 15   7  11  1   
 16   7  32  1   
 17   7  33  1   
 18   8  12  1   
 19   8  34  1   
 20   8  35  1   
 21   9  13  ar  
 22   9  14  ar  
 23  10  15  ar  
 24  10  16  ar  
 25  11  17  1   
 26  11  18  1   
 27  11  36  1   
 28  12  18  1   
 29  12  37  1   
 30  12  38  1   
 31  13  19  ar  
 32  13  39  1   
 33  14  20  ar  
 34  14  40  1   
 35  15  21  ar  
 36  15  41  1   
 37  16  22  ar  
 38  16  42  1   
 39  17  23  1   
 40  18  24  1   
 41  18  43  1   
 42  19  25  ar  
 43  19  44  1   
 44  20  25  ar  
 45  20  45  1   
 46  21  26  ar  
 47  21  46  1   
 48  22  26  ar  
 49  22  47  1   
 50  23  48  1   
 51  23  49  1   
 52  23  50  1   
 53  24  51  1   
 54  25  52  1   
 55  26  53  1   
@<TRIPOS>SUBSTRUCTURE
  1 ****   3 GROUP 4 **** **** 0

# MOE 2024.06 (io_trps.svl 2023.06)
