@<TRIPOS>MOLECULE
NONAME
58 61 1 0 0 
SMALL
USER_CHARGES


@<TRIPOS>ATOM
  1 O       -0.4290    -1.5300    -1.5250 O.2   1 <1>  -0.5700 
  2 C        0.3760    -2.2010    -0.9270 C.2   1 <1>   0.5690 
  3 N        0.0330    -3.1580    -0.0120 N.am  1 <1>  -0.6600 
  4 C        1.8530    -1.9860    -1.1910 C.3   1 <1>  -0.0990 
  5 C        1.0780    -3.9380     0.6920 C.3   1 <1>   0.1400 
  6 C       -1.3810    -3.4320     0.3660 C.3   1 <1>   0.0600 
  7 C        2.5720    -3.3380    -1.3590 C.3   1 <1>  -0.0800 
  8 C        2.1530    -4.4010    -0.3140 C.3   1 <1>  -0.0800 
  9 C        4.1010    -3.2280    -1.2770 C.3   1 <1>  -0.1600 
 10 C        3.4530    -4.8650     0.3600 C.3   1 <1>  -0.1600 
 11 C        4.5340    -4.5580    -0.6740 C.3   1 <1>   0.4230 
 12 N        5.9310    -4.5920    -0.1480 N.4   1 <1>  -0.9590 
 13 C        6.2760    -3.7330     1.0240 C.3   1 <1>   0.4860 
 14 C        6.3770    -5.9940     0.0940 C.3   1 <1>   0.2630 
 15 C        6.6360    -2.3320     0.5640 C.ar  1 <1>  -0.1440 
 16 C        7.6090    -2.1140    -0.4100 C.ar  1 <1>   0.0820 
 17 C        5.9830    -1.2500     1.1360 C.ar  1 <1>  -0.1500 
 18 O        8.2240    -3.2050    -0.9490 O.3   1 <1>  -0.3630 
 19 C        7.9180    -0.8130    -0.7950 C.ar  1 <1>  -0.1500 
 20 C        6.2740     0.0430     0.7400 C.ar  1 <1>   0.0820 
 21 C        9.3830    -3.0570    -1.7490 C.3   1 <1>   0.0400 
 22 C        7.2710     0.2640    -0.2180 C.ar  1 <1>   0.0820 
 23 O        5.5320     1.0310     1.3090 O.3   1 <1>  -0.3620 
 24 O        7.6750     1.5000    -0.6130 O.3   1 <1>  -0.3620 
 25 C        5.1970     2.1460     0.5100 C.3   1 <1>   0.1200 
 26 C        7.7210     2.5180     0.3640 C.3   1 <1>   0.1200 
 27 C        6.3410     3.1620     0.5160 C.3   1 <1>  -0.1600 
 28 H        1.9750    -1.3890    -2.0770 H     1 <1>   0.0800 
 29 H        2.2530    -1.4370    -0.3590 H     1 <1>   0.0800 
 30 H        1.5130    -3.3080     1.4480 H     1 <1>   0.0800 
 31 H        0.6390    -4.7940     1.1760 H     1 <1>   0.0800 
 32 H       -1.6270    -4.4550     0.1420 H     1 <1>   0.0800 
 33 H       -2.0500    -2.7900    -0.1830 H     1 <1>   0.0800 
 34 H       -1.5190    -3.2520     1.4170 H     1 <1>   0.0800 
 35 H        2.3070    -3.7250    -2.3300 H     1 <1>   0.0800 
 36 H        1.7390    -5.2370    -0.8540 H     1 <1>   0.0800 
 37 H        4.3500    -2.4110    -0.6320 H     1 <1>   0.0800 
 38 H        4.5340    -3.0670    -2.2480 H     1 <1>   0.0800 
 39 H        3.4100    -5.9130     0.5980 H     1 <1>   0.0800 
 40 H        3.6070    -4.2920     1.2550 H     1 <1>   0.0800 
 41 H        4.4480    -5.2950    -1.4580 H     1 <1>   0.0800 
 42 H        6.5420    -4.2010    -0.8880 H     1 <1>   0.4500 
 43 H        5.4640    -3.6990     1.7280 H     1 <1>   0.0800 
 44 H        7.1370    -4.1400     1.5270 H     1 <1>   0.0800 
 45 H        5.8100    -6.4370     0.8970 H     1 <1>   0.0800 
 46 H        7.4230    -6.0130     0.3560 H     1 <1>   0.0800 
 47 H        6.2390    -6.5880    -0.7950 H     1 <1>   0.0800 
 48 H        5.2290    -1.3860     1.8910 H     1 <1>   0.1500 
 49 H        8.6640    -0.5990    -1.5370 H     1 <1>   0.1500 
 50 H        9.7620    -4.0350    -1.9840 H     1 <1>   0.0800 
 51 H       10.1240    -2.5040    -1.1980 H     1 <1>   0.0800 
 52 H        9.1220    -2.5420    -2.6580 H     1 <1>   0.0800 
 53 H        4.9930     1.8000    -0.4900 H     1 <1>   0.0800 
 54 H        4.3020     2.5850     0.9130 H     1 <1>   0.0800 
 55 H        8.0510     2.0840     1.2930 H     1 <1>   0.0800 
 56 H        8.4450     3.2480     0.0470 H     1 <1>   0.0800 
 57 H        6.3170     3.7200     1.4350 H     1 <1>   0.0800 
 58 H        6.1880     3.8630    -0.2850 H     1 <1>   0.0800 
@<TRIPOS>BOND
  1   1   2  2   
  2   2   3  am  
  3   2   4  1   
  4   3   5  1   
  5   3   6  1   
  6   4   7  1   
  7   4  28  1   
  8   4  29  1   
  9   5   8  1   
 10   5  30  1   
 11   5  31  1   
 12   6  32  1   
 13   6  33  1   
 14   6  34  1   
 15   7   8  1   
 16   7   9  1   
 17   7  35  1   
 18   8  10  1   
 19   8  36  1   
 20   9  11  1   
 21   9  37  1   
 22   9  38  1   
 23  10  11  1   
 24  10  39  1   
 25  10  40  1   
 26  11  12  1   
 27  11  41  1   
 28  12  13  1   
 29  12  14  1   
 30  12  42  1   
 31  13  15  1   
 32  13  43  1   
 33  13  44  1   
 34  14  45  1   
 35  14  46  1   
 36  14  47  1   
 37  15  16  ar  
 38  15  17  ar  
 39  16  18  1   
 40  16  19  ar  
 41  17  20  ar  
 42  17  48  1   
 43  18  21  1   
 44  19  22  ar  
 45  19  49  1   
 46  20  22  ar  
 47  20  23  1   
 48  21  50  1   
 49  21  51  1   
 50  21  52  1   
 51  22  24  1   
 52  23  25  1   
 53  24  26  1   
 54  25  27  1   
 55  25  53  1   
 56  25  54  1   
 57  26  27  1   
 58  26  55  1   
 59  26  56  1   
 60  27  57  1   
 61  27  58  1   
@<TRIPOS>SUBSTRUCTURE
  1 ****   9 GROUP 4 **** **** 0

# MOE 2024.06 (io_trps.svl 2023.06)
