@<TRIPOS>MOLECULE
NONAME
52 54 1 0 0 
SMALL
USER_CHARGES


@<TRIPOS>ATOM
  1 CL       2.7430    -2.1470     3.7820 Cl    1 <1>  -0.1770 
  2 C        2.3580    -2.1160     2.0820 C.ar  1 <1>   0.1770 
  3 C        2.0330    -0.9120     1.4910 C.ar  1 <1>  -0.1500 
  4 C        2.3720    -3.2950     1.3650 C.ar  1 <1>  -0.1500 
  5 C        1.7170    -0.8990     0.1380 C.ar  1 <1>   0.0830 
  6 C        2.0530    -3.3010     0.0090 C.ar  1 <1>   0.0860 
  7 O        1.3480     0.2290    -0.5110 O.3   1 <1>  -0.3630 
  8 C        1.7540    -2.0780    -0.5890 C.ar  1 <1>  -0.1500 
  9 C        2.0700    -4.5380    -0.7460 C.2   1 <1>   0.5440 
 10 C        1.9820     1.4480    -0.1800 C.3   1 <1>   0.0400 
 11 O        3.0400    -4.7670    -1.4420 O.2   1 <1>  -0.5700 
 12 N        1.0510    -5.4750    -0.6950 N.am  1 <1>  -0.6600 
 13 C       -0.4130    -5.1820    -0.6280 C.3   1 <1>   0.2200 
 14 C        1.3490    -6.8860    -1.0790 C.3   1 <1>   0.0600 
 15 C       -0.8610    -4.1850    -1.6980 C.3   1 <1>  -0.1600 
 16 C       -0.8740    -4.6500     0.7300 C.3   1 <1>  -0.1600 
 17 C       -1.9480    -3.3070    -1.0600 C.3   1 <1>  -0.0800 
 18 C       -1.8940    -3.5350     0.4520 C.3   1 <1>  -0.0800 
 19 C       -1.7720    -1.7980    -1.3040 C.3   1 <1>  -0.1600 
 20 C       -1.5490    -2.1810     1.0890 C.3   1 <1>  -0.1600 
 21 C       -1.8590    -1.0990     0.0560 C.3   1 <1>   0.4230 
 22 N       -3.1980    -0.4800     0.3140 N.4   1 <1>  -0.9590 
 23 C       -4.3680    -1.4000     0.1350 C.3   1 <1>   0.2630 
 24 C       -3.3730     0.7570    -0.5080 C.3   1 <1>   0.2630 
 25 H        2.0250    -0.0190     2.0870 H     1 <1>   0.1500 
 26 H        2.6320    -4.2170     1.8550 H     1 <1>   0.1500 
 27 H        1.5580    -2.0460    -1.6450 H     1 <1>   0.1500 
 28 H        1.7390     2.1700    -0.9390 H     1 <1>   0.0800 
 29 H        3.0470     1.2940    -0.1550 H     1 <1>   0.0800 
 30 H        1.6240     1.7890     0.7740 H     1 <1>   0.0800 
 31 H       -0.9590    -6.0940    -0.8070 H     1 <1>   0.0800 
 32 H        0.8200    -7.5640    -0.4320 H     1 <1>   0.0800 
 33 H        2.4030    -7.0870    -0.9920 H     1 <1>   0.0800 
 34 H        1.0500    -7.0550    -2.0990 H     1 <1>   0.0800 
 35 H       -0.0330    -3.6030    -2.0470 H     1 <1>   0.0800 
 36 H       -1.2610    -4.7160    -2.5440 H     1 <1>   0.0800 
 37 H       -1.3470    -5.4470     1.2760 H     1 <1>   0.0800 
 38 H       -0.0510    -4.3040     1.3200 H     1 <1>   0.0800 
 39 H       -2.9100    -3.6290    -1.4230 H     1 <1>   0.0800 
 40 H       -2.8650    -3.8570     0.7910 H     1 <1>   0.0800 
 41 H       -2.4860    -1.4290    -2.0180 H     1 <1>   0.0800 
 42 H       -0.7950    -1.5960    -1.7010 H     1 <1>   0.0800 
 43 H       -0.4960    -2.1400     1.2840 H     1 <1>   0.0800 
 44 H       -2.0600    -2.0310     2.0230 H     1 <1>   0.0800 
 45 H       -1.1020    -0.3310     0.1130 H     1 <1>   0.0800 
 46 H       -3.1850    -0.1910     1.3030 H     1 <1>   0.4500 
 47 H       -4.4140    -1.7570    -0.8810 H     1 <1>   0.0800 
 48 H       -5.2870    -0.8850     0.3620 H     1 <1>   0.0800 
 49 H       -4.2820    -2.2480     0.7940 H     1 <1>   0.0800 
 50 H       -3.4040     0.5100    -1.5570 H     1 <1>   0.0800 
 51 H       -2.5540     1.4370    -0.3390 H     1 <1>   0.0800 
 52 H       -4.2920     1.2550    -0.2450 H     1 <1>   0.0800 
@<TRIPOS>BOND
  1   1   2  1   
  2   2   3  ar  
  3   2   4  ar  
  4   3   5  ar  
  5   3  25  1   
  6   4   6  ar  
  7   4  26  1   
  8   5   7  1   
  9   5   8  ar  
 10   6   8  ar  
 11   6   9  1   
 12   7  10  1   
 13   8  27  1   
 14   9  11  2   
 15   9  12  am  
 16  10  28  1   
 17  10  29  1   
 18  10  30  1   
 19  12  13  1   
 20  12  14  1   
 21  13  15  1   
 22  13  16  1   
 23  13  31  1   
 24  14  32  1   
 25  14  33  1   
 26  14  34  1   
 27  15  17  1   
 28  15  35  1   
 29  15  36  1   
 30  16  18  1   
 31  16  37  1   
 32  16  38  1   
 33  17  18  1   
 34  17  19  1   
 35  17  39  1   
 36  18  20  1   
 37  18  40  1   
 38  19  21  1   
 39  19  41  1   
 40  19  42  1   
 41  20  21  1   
 42  20  43  1   
 43  20  44  1   
 44  21  22  1   
 45  21  45  1   
 46  22  23  1   
 47  22  24  1   
 48  22  46  1   
 49  23  47  1   
 50  23  48  1   
 51  23  49  1   
 52  24  50  1   
 53  24  51  1   
 54  24  52  1   
@<TRIPOS>SUBSTRUCTURE
  1 ****   8 GROUP 4 **** **** 0

# MOE 2024.06 (io_trps.svl 2023.06)
