@<TRIPOS>MOLECULE
NONAME
42 44 1 0 0 
SMALL
USER_CHARGES


@<TRIPOS>ATOM
  1 CL       1.2760     0.4180    -1.5670 Cl    1 <1>  -0.1770 
  2 C        0.6090     1.7240    -0.6120 C.ar  1 <1>   0.1770 
  3 C        1.3910     2.4410     0.2900 C.ar  1 <1>  -0.1440 
  4 C       -0.7310     2.0120    -0.7950 C.ar  1 <1>  -0.1500 
  5 C        0.7850     3.4670     1.0060 C.ar  1 <1>  -0.1500 
  6 C        2.8730     2.1610     0.5220 C.3   1 <1>   0.3640 
  7 C       -1.3170     3.0350    -0.0720 C.ar  1 <1>  -0.1500 
  8 C       -0.5560     3.7610     0.8270 C.ar  1 <1>  -0.1500 
  9 N        3.0480     0.7740     1.0130 N.am  1 <1>  -0.7300 
 10 C        3.7480     2.4790    -0.7200 C.3   1 <1>   0.2610 
 11 C        3.9650    -0.0830     0.5120 C.2   1 <1>   0.5690 
 12 O        4.9840     1.7750    -0.7010 O.3   1 <1>  -0.5600 
 13 C        3.9410     3.9980    -0.8160 C.2   1 <1>   0.5690 
 14 O        4.0940    -1.1870     0.9750 O.2   1 <1>  -0.5700 
 15 C        4.8400     0.3710    -0.6590 C.3   1 <1>   0.1810 
 16 O        3.2420     4.5800    -1.6130 O.2   1 <1>  -0.5700 
 17 N        4.8290     4.6960    -0.0260 N.am  1 <1>  -0.6600 
 18 C        5.1390     6.1430    -0.3190 C.3   1 <1>   0.2010 
 19 C        5.7680     4.1100     0.9750 C.3   1 <1>   0.1400 
 20 C        6.6380     6.4710    -0.3780 C.2   1 <1>   0.5690 
 21 C        7.2040     4.1600     0.4350 C.3   1 <1>   0.1400 
 22 O        6.9510     7.5820    -0.7380 O.2   1 <1>  -0.5700 
 23 N        7.5800     5.5340    -0.0120 N.am  1 <1>  -0.6600 
 24 C        9.0420     5.7910    -0.1290 C.3   1 <1>   0.0600 
 25 H       -1.3070     1.4400    -1.4990 H     1 <1>   0.1500 
 26 H        1.3510     4.0540     1.7100 H     1 <1>   0.1500 
 27 H        3.2050     2.8070     1.3150 H     1 <1>   0.0800 
 28 H       -2.3590     3.2670    -0.2100 H     1 <1>   0.1500 
 29 H       -1.0100     4.5610     1.3880 H     1 <1>   0.1500 
 30 H        2.4180     0.4400     1.7440 H     1 <1>   0.3700 
 31 H        3.2330     2.1740    -1.6120 H     1 <1>   0.0800 
 32 H        4.4040     0.0420    -1.5850 H     1 <1>   0.0800 
 33 H        5.8200    -0.0590    -0.5620 H     1 <1>   0.0800 
 34 H        4.7090     6.4350    -1.2600 H     1 <1>   0.0800 
 35 H        4.6940     6.7540     0.4440 H     1 <1>   0.0800 
 36 H        5.7150     4.6820     1.8850 H     1 <1>   0.0800 
 37 H        5.5100     3.0970     1.2200 H     1 <1>   0.0800 
 38 H        7.2940     3.4810    -0.3960 H     1 <1>   0.0800 
 39 H        7.8790     3.8370     1.2080 H     1 <1>   0.0800 
 40 H        9.5070     5.6970     0.8360 H     1 <1>   0.0800 
 41 H        9.2270     6.7830    -0.5040 H     1 <1>   0.0800 
 42 H        9.4820     5.0810    -0.8080 H     1 <1>   0.0800 
@<TRIPOS>BOND
  1   1   2  1   
  2   2   3  ar  
  3   2   4  ar  
  4   3   5  ar  
  5   3   6  1   
  6   4   7  ar  
  7   4  25  1   
  8   5   8  ar  
  9   5  26  1   
 10   6   9  1   
 11   6  10  1   
 12   6  27  1   
 13   7   8  ar  
 14   7  28  1   
 15   8  29  1   
 16   9  11  am  
 17   9  30  1   
 18  10  12  1   
 19  10  13  1   
 20  10  31  1   
 21  11  14  2   
 22  11  15  1   
 23  12  15  1   
 24  13  16  2   
 25  13  17  am  
 26  15  32  1   
 27  15  33  1   
 28  17  18  1   
 29  17  19  1   
 30  18  20  1   
 31  18  34  1   
 32  18  35  1   
 33  19  21  1   
 34  19  36  1   
 35  19  37  1   
 36  20  22  2   
 37  20  23  am  
 38  21  23  1   
 39  21  38  1   
 40  21  39  1   
 41  23  24  1   
 42  24  40  1   
 43  24  41  1   
 44  24  42  1   
@<TRIPOS>SUBSTRUCTURE
  1 ****  10 GROUP 4 **** **** 0

# MOE 2024.06 (io_trps.svl 2023.06)
