@<TRIPOS>MOLECULE
NONAME
59 63 1 0 0 
SMALL
USER_CHARGES


@<TRIPOS>ATOM
  1 O       -0.1900     0.2130    -0.5810 O.3   1 <1>  -0.3630 
  2 C        1.0420     0.6200    -0.1590 C.ar  1 <1>   0.0830 
  3 C       -0.3340    -0.9700    -1.3440 C.3   1 <1>   0.2580 
  4 C        1.2650     1.9710     0.1060 C.ar  1 <1>   0.0820 
  5 C        2.0590    -0.3210     0.0240 C.ar  1 <1>   0.0280 
  6 C        0.6280    -2.0520    -0.8560 C.2   1 <1>  -0.2760 
  7 O        0.2290     2.8380    -0.0850 O.3   1 <1>  -0.3620 
  8 C        2.5200     2.3790     0.5480 C.ar  1 <1>  -0.1500 
  9 C        1.7660    -1.7040    -0.2370 C.2   1 <1>  -0.1780 
 10 C        3.3040     0.1130     0.4670 C.ar  1 <1>  -0.1500 
 11 C        0.2120    -3.4750    -1.1400 C.3   1 <1>   0.4810 
 12 C        0.3520     4.2110     0.2100 C.3   1 <1>   0.0400 
 13 C        3.5320     1.4510     0.7260 C.ar  1 <1>  -0.1500 
 14 N       -0.3610    -4.0080     0.1140 N.4   1 <1>  -0.9590 
 15 C       -1.6830    -3.4090     0.4570 C.3   1 <1>   0.3430 
 16 C       -0.5470    -5.4790     0.0890 C.3   1 <1>   0.3430 
 17 C       -2.5120    -4.5160     1.1060 C.3   1 <1>  -0.0800 
 18 C       -1.5940    -5.7520     1.1620 C.3   1 <1>  -0.0800 
 19 C       -3.8150    -4.7430     0.3140 C.3   1 <1>   0.4240 
 20 C       -2.3210    -7.0980     0.9610 C.3   1 <1>  -0.1600 
 21 O       -3.4490    -5.0770    -0.9830 O.3   1 <1>  -0.6800 
 22 C       -4.6540    -3.4510     0.2710 C.ar  1 <1>  -0.1430 
 23 C       -4.6080    -5.9470     0.8760 C.3   1 <1>  -0.1600 
 24 C       -3.7420    -7.0450     1.5340 C.3   1 <1>  -0.1600 
 25 C       -4.9110    -2.7510    -0.9080 C.ar  1 <1>  -0.1500 
 26 C       -5.1620    -2.9310     1.4580 C.ar  1 <1>  -0.1500 
 27 C       -5.6470    -1.5790    -0.8960 C.ar  1 <1>  -0.1500 
 28 C       -5.8970    -1.7600     1.4720 C.ar  1 <1>  -0.1500 
 29 C       -6.1400    -1.0810     0.2940 C.ar  1 <1>  -0.1500 
 30 H       -1.3620    -1.2700    -1.2540 H     1 <1>   0.0800 
 31 H       -0.1320    -0.7210    -2.3720 H     1 <1>   0.0800 
 32 H        2.7300     3.4100     0.7590 H     1 <1>   0.1500 
 33 H        2.5030    -2.4130     0.1000 H     1 <1>   0.1500 
 34 H        4.0980    -0.5980     0.6100 H     1 <1>   0.1500 
 35 H        1.0830    -4.0490    -1.4110 H     1 <1>   0.0800 
 36 H       -0.5020    -3.5230    -1.9460 H     1 <1>   0.0800 
 37 H       -0.5920     4.6810     0.0030 H     1 <1>   0.0800 
 38 H        1.1170     4.6360    -0.4150 H     1 <1>   0.0800 
 39 H        0.5950     4.3240     1.2520 H     1 <1>   0.0800 
 40 H        4.5010     1.7750     1.0670 H     1 <1>   0.1500 
 41 H        0.2900    -3.7600     0.8700 H     1 <1>   0.4500 
 42 H       -1.5640    -2.5690     1.1230 H     1 <1>   0.0800 
 43 H       -2.1810    -3.0720    -0.4380 H     1 <1>   0.0800 
 44 H       -0.9440    -5.7780    -0.8690 H     1 <1>   0.0800 
 45 H        0.3720    -6.0080     0.2810 H     1 <1>   0.0800 
 46 H       -2.7690    -4.2230     2.1080 H     1 <1>   0.0800 
 47 H       -1.1020    -5.7660     2.1200 H     1 <1>   0.0800 
 48 H       -2.3880    -7.3400    -0.0870 H     1 <1>   0.0800 
 49 H       -1.7650    -7.8880     1.4380 H     1 <1>   0.0800 
 50 H       -4.2670    -5.2860    -1.4760 H     1 <1>   0.4000 
 51 H       -5.3040    -5.6070     1.6210 H     1 <1>   0.0800 
 52 H       -5.2030    -6.3780     0.0900 H     1 <1>   0.0800 
 53 H       -3.6770    -6.8560     2.5930 H     1 <1>   0.0800 
 54 H       -4.2220    -8.0020     1.4120 H     1 <1>   0.0800 
 55 H       -4.5480    -3.0940    -1.8610 H     1 <1>   0.1500 
 56 H       -4.9950    -3.4320     2.3960 H     1 <1>   0.1500 
 57 H       -5.8390    -1.0520    -1.8150 H     1 <1>   0.1500 
 58 H       -6.2830    -1.3740     2.4000 H     1 <1>   0.1500 
 59 H       -6.7120    -0.1690     0.3030 H     1 <1>   0.1500 
@<TRIPOS>BOND
  1   1   2  1   
  2   1   3  1   
  3   2   4  ar  
  4   2   5  ar  
  5   3   6  1   
  6   3  30  1   
  7   3  31  1   
  8   4   7  1   
  9   4   8  ar  
 10   5   9  1   
 11   5  10  ar  
 12   6   9  2   
 13   6  11  1   
 14   7  12  1   
 15   8  13  ar  
 16   8  32  1   
 17   9  33  1   
 18  10  13  ar  
 19  10  34  1   
 20  11  14  1   
 21  11  35  1   
 22  11  36  1   
 23  12  37  1   
 24  12  38  1   
 25  12  39  1   
 26  13  40  1   
 27  14  15  1   
 28  14  16  1   
 29  14  41  1   
 30  15  17  1   
 31  15  42  1   
 32  15  43  1   
 33  16  18  1   
 34  16  44  1   
 35  16  45  1   
 36  17  18  1   
 37  17  19  1   
 38  17  46  1   
 39  18  20  1   
 40  18  47  1   
 41  19  21  1   
 42  19  22  1   
 43  19  23  1   
 44  20  24  1   
 45  20  48  1   
 46  20  49  1   
 47  21  50  1   
 48  22  25  ar  
 49  22  26  ar  
 50  23  24  1   
 51  23  51  1   
 52  23  52  1   
 53  24  53  1   
 54  24  54  1   
 55  25  27  ar  
 56  25  55  1   
 57  26  28  ar  
 58  26  56  1   
 59  27  29  ar  
 60  27  57  1   
 61  28  29  ar  
 62  28  58  1   
 63  29  59  1   
@<TRIPOS>SUBSTRUCTURE
  1 ****  15 GROUP 4 **** **** 0

# MOE 2024.06 (io_trps.svl 2023.06)
