@<TRIPOS>MOLECULE
NONAME
50 53 1 0 0 
SMALL
USER_CHARGES


@<TRIPOS>ATOM
  1 O       -1.2700    -0.3160     0.7620 O.3   1 <1>  -0.5600 
  2 C       -1.7690     0.8790     1.2730 C.3   1 <1>   0.1200 
  3 C       -1.2290    -0.4520    -0.6190 C.3   1 <1>   0.1200 
  4 C       -3.2820     1.0490     1.0120 C.3   1 <1>   0.4230 
  5 C       -2.6280    -0.7870    -1.1630 C.3   1 <1>  -0.0800 
  6 N       -3.5310     1.5050    -0.4150 N.4   1 <1>  -0.9590 
  7 C       -4.0840    -0.2030     1.4970 C.3   1 <1>   0.2090 
  8 C       -3.3830    -1.8200    -0.2970 C.3   1 <1>   0.2090 
  9 C       -3.4790     0.4520    -1.4850 C.3   1 <1>   0.3430 
 10 C       -4.8120     2.2690    -0.5260 C.3   1 <1>   0.2630 
 11 N       -4.5440    -1.2090     0.4490 N.pl3 1 <1>  -0.8380 
 12 C       -5.8340    -1.6290     0.3590 C.ar  1 <1>   0.4610 
 13 N       -6.1210    -2.8380    -0.1400 N.ar  1 <1>  -0.1790 
 14 C       -6.9440    -0.8490     0.7820 C.ar  1 <1>  -0.1500 
 15 C       -7.3960    -3.3600    -0.2700 C.ar  1 <1>   0.3610 
 16 C       -8.2280    -1.2930     0.6890 C.ar  1 <1>  -0.1440 
 17 C       -8.4930    -2.5870     0.1460 C.ar  1 <1>   0.0000 
 18 C       -7.5970    -4.6370    -0.8050 C.ar  1 <1>  -0.1500 
 19 C       -9.3830    -0.4160     1.1610 C.3   1 <1>  -0.0970 
 20 C       -9.7760    -3.1410     0.0010 C.ar  1 <1>  -0.1500 
 21 C       -8.8640    -5.1480    -0.9320 C.ar  1 <1>  -0.1500 
 22 C       -9.9640    -4.3960    -0.5280 C.ar  1 <1>  -0.1440 
 23 C      -11.3560    -4.9860    -0.6810 C.3   1 <1>  -0.0970 
 24 H       -1.5960     0.8490     2.3360 H     1 <1>   0.0800 
 25 H       -1.1990     1.7000     0.8740 H     1 <1>   0.0800 
 26 H       -0.8110     0.4370    -1.0620 H     1 <1>   0.0800 
 27 H       -0.5590    -1.2720    -0.8240 H     1 <1>   0.0800 
 28 H       -3.5750     1.8590     1.6580 H     1 <1>   0.0800 
 29 H       -2.4530    -1.2660    -2.1100 H     1 <1>   0.0800 
 30 H       -2.7690     2.1650    -0.6290 H     1 <1>   0.4500 
 31 H       -4.9180     0.1520     2.0710 H     1 <1>   0.0800 
 32 H       -3.4720    -0.7310     2.2100 H     1 <1>   0.0800 
 33 H       -2.7090    -2.2890     0.4040 H     1 <1>   0.0800 
 34 H       -3.7310    -2.5950    -0.9560 H     1 <1>   0.0800 
 35 H       -4.4800     0.1140    -1.6950 H     1 <1>   0.0800 
 36 H       -3.1020     0.9010    -2.3900 H     1 <1>   0.0800 
 37 H       -5.6510     1.6230    -0.3260 H     1 <1>   0.0800 
 38 H       -4.9210     2.6750    -1.5190 H     1 <1>   0.0800 
 39 H       -4.8270     3.0860     0.1780 H     1 <1>   0.0800 
 40 H       -5.3490    -3.4500    -0.3740 H     1 <1>   0.4570 
 41 H       -6.7630     0.1290     1.1770 H     1 <1>   0.1500 
 42 H       -6.7610    -5.2350    -1.1220 H     1 <1>   0.1500 
 43 H       -9.0330     0.5230     1.5500 H     1 <1>   0.0800 
 44 H       -9.9330    -0.9130     1.9410 H     1 <1>   0.0800 
 45 H      -10.0530    -0.2100     0.3440 H     1 <1>   0.0800 
 46 H      -10.6370    -2.5740     0.3090 H     1 <1>   0.1500 
 47 H       -9.0210    -6.1330    -1.3440 H     1 <1>   0.1500 
 48 H      -11.4340    -5.8950    -0.1120 H     1 <1>   0.0800 
 49 H      -11.5510    -5.2060    -1.7150 H     1 <1>   0.0800 
 50 H      -12.1080    -4.3010    -0.3310 H     1 <1>   0.0800 
@<TRIPOS>BOND
  1   1   2  1   
  2   1   3  1   
  3   2   4  1   
  4   2  24  1   
  5   2  25  1   
  6   3   5  1   
  7   3  26  1   
  8   3  27  1   
  9   4   6  1   
 10   4   7  1   
 11   4  28  1   
 12   5   8  1   
 13   5   9  1   
 14   5  29  1   
 15   6   9  1   
 16   6  10  1   
 17   6  30  1   
 18   7  11  1   
 19   7  31  1   
 20   7  32  1   
 21   8  11  1   
 22   8  33  1   
 23   8  34  1   
 24   9  35  1   
 25   9  36  1   
 26  10  37  1   
 27  10  38  1   
 28  10  39  1   
 29  11  12  1   
 30  12  13  ar  
 31  12  14  ar  
 32  13  15  ar  
 33  13  40  1   
 34  14  16  ar  
 35  14  41  1   
 36  15  17  ar  
 37  15  18  ar  
 38  16  17  ar  
 39  16  19  1   
 40  17  20  ar  
 41  18  21  ar  
 42  18  42  1   
 43  19  43  1   
 44  19  44  1   
 45  19  45  1   
 46  20  22  ar  
 47  20  46  1   
 48  21  22  ar  
 49  21  47  1   
 50  22  23  1   
 51  23  48  1   
 52  23  49  1   
 53  23  50  1   
@<TRIPOS>SUBSTRUCTURE
  1 ****  12 GROUP 4 **** **** 0

# MOE 2024.06 (io_trps.svl 2023.06)
