@<TRIPOS>MOLECULE
NONAME
58 60 1 0 0 
SMALL
USER_CHARGES


@<TRIPOS>ATOM
  1 S       -1.7340    -0.0200    -0.5520 S.o2  1 <1>   1.3330 
  2 O       -0.3900     0.0470    -1.0670 O.2   1 <1>  -0.6500 
  3 O       -2.8480    -0.2550    -1.4470 O.2   1 <1>  -0.6500 
  4 N       -2.0630     1.4380     0.2490 N.am  1 <1>  -0.8490 
  5 C       -1.8150    -1.2780     0.7360 C.3   1 <1>  -0.0550 
  6 C       -1.0050     1.8300     1.1940 C.3   1 <1>   0.1160 
  7 C       -2.2290     2.5360    -0.7140 C.3   1 <1>   0.1160 
  8 C       -3.1520    -1.4060     1.5080 C.3   1 <1>  -0.1600 
  9 C       -4.2250    -2.2410     0.7930 C.3   1 <1>   0.3430 
 10 N       -4.9790    -1.4480    -0.2100 N.4   1 <1>  -0.9590 
 11 C       -6.0210    -0.5680     0.4260 C.3   1 <1>   0.3430 
 12 C       -5.5820    -2.3240    -1.2510 C.3   1 <1>   0.3430 
 13 C       -6.7240     0.3350    -0.6010 C.3   1 <1>   0.1430 
 14 C       -6.2100    -1.4590    -2.3460 C.3   1 <1>  -0.1600 
 15 C       -7.8590     1.0560     0.0870 C.ar  1 <1>   0.1670 
 16 C       -7.2700    -0.4990    -1.7800 C.3   1 <1>  -0.1600 
 17 C       -5.8240     1.5050    -1.0770 C.3   1 <1>  -0.1600 
 18 N       -8.7430     0.4790     0.8600 N.ar  1 <1>  -0.6200 
 19 C       -7.8500     2.3890    -0.1850 C.ar  1 <1>  -0.1430 
 20 C       -6.7100     2.7650    -1.0990 C.3   1 <1>  -0.0170 
 21 C       -9.6680     1.3020     1.3680 C.ar  1 <1>   0.7200 
 22 C       -8.8320     3.1560     0.3870 C.ar  1 <1>   0.1600 
 23 N       -9.7410     2.6210     1.1670 N.ar  1 <1>  -0.6200 
 24 N      -10.6300     0.7350     2.1790 N.pl3 1 <1>  -0.8380 
 25 C      -11.5110     1.5650     3.0470 C.3   1 <1>   0.1290 
 26 C      -10.9750    -0.7120     2.1180 C.3   1 <1>   0.1290 
 27 H       -1.0410    -1.0660     1.4490 H     1 <1>   0.0800 
 28 H       -1.5690    -2.2290     0.3030 H     1 <1>   0.0800 
 29 H       -0.8910     1.0900     1.9660 H     1 <1>   0.0800 
 30 H       -1.2590     2.7640     1.6680 H     1 <1>   0.0800 
 31 H       -0.0620     1.9470     0.6830 H     1 <1>   0.0800 
 32 H       -3.0060     2.3020    -1.4210 H     1 <1>   0.0800 
 33 H       -1.3130     2.6990    -1.2600 H     1 <1>   0.0800 
 34 H       -2.4990     3.4440    -0.2030 H     1 <1>   0.0800 
 35 H       -3.5270    -0.4360     1.7860 H     1 <1>   0.0800 
 36 H       -2.9280    -1.9220     2.4250 H     1 <1>   0.0800 
 37 H       -4.9180    -2.6320     1.5220 H     1 <1>   0.0800 
 38 H       -3.7490    -3.0810     0.3120 H     1 <1>   0.0800 
 39 H       -4.3100    -0.8370    -0.7230 H     1 <1>   0.4500 
 40 H       -5.5740     0.0530     1.1840 H     1 <1>   0.0800 
 41 H       -6.7680    -1.1830     0.9030 H     1 <1>   0.0800 
 42 H       -6.3390    -2.9540    -0.8090 H     1 <1>   0.0800 
 43 H       -4.8230    -2.9540    -1.6880 H     1 <1>   0.0800 
 44 H       -6.6700    -2.1010    -3.0770 H     1 <1>   0.0800 
 45 H       -5.4330    -0.9100    -2.8500 H     1 <1>   0.0800 
 46 H       -7.6340     0.1520    -2.5570 H     1 <1>   0.0800 
 47 H       -8.1090    -1.0790    -1.4340 H     1 <1>   0.0800 
 48 H       -5.3700     1.3250    -2.0360 H     1 <1>   0.0800 
 49 H       -5.0410     1.6650    -0.3560 H     1 <1>   0.0800 
 50 H       -7.0890     2.9490    -2.0900 H     1 <1>   0.0800 
 51 H       -6.1810     3.6320    -0.7430 H     1 <1>   0.0800 
 52 H       -8.8750     4.2170     0.2070 H     1 <1>   0.1500 
 53 H      -10.9920     2.4500     3.3740 H     1 <1>   0.0800 
 54 H      -11.8060     1.0060     3.9180 H     1 <1>   0.0800 
 55 H      -12.3870     1.8580     2.4960 H     1 <1>   0.0800 
 56 H      -10.6410    -1.1450     1.1910 H     1 <1>   0.0800 
 57 H      -12.0420    -0.8380     2.1820 H     1 <1>   0.0800 
 58 H      -10.5060    -1.2280     2.9360 H     1 <1>   0.0800 
@<TRIPOS>BOND
  1   1   2  2   
  2   1   3  2   
  3   1   4  am  
  4   1   5  1   
  5   4   6  1   
  6   4   7  1   
  7   5   8  1   
  8   5  27  1   
  9   5  28  1   
 10   6  29  1   
 11   6  30  1   
 12   6  31  1   
 13   7  32  1   
 14   7  33  1   
 15   7  34  1   
 16   8   9  1   
 17   8  35  1   
 18   8  36  1   
 19   9  10  1   
 20   9  37  1   
 21   9  38  1   
 22  10  11  1   
 23  10  12  1   
 24  10  39  1   
 25  11  13  1   
 26  11  40  1   
 27  11  41  1   
 28  12  14  1   
 29  12  42  1   
 30  12  43  1   
 31  13  15  1   
 32  13  16  1   
 33  13  17  1   
 34  14  16  1   
 35  14  44  1   
 36  14  45  1   
 37  15  18  ar  
 38  15  19  ar  
 39  16  46  1   
 40  16  47  1   
 41  17  20  1   
 42  17  48  1   
 43  17  49  1   
 44  18  21  ar  
 45  19  20  1   
 46  19  22  ar  
 47  20  50  1   
 48  20  51  1   
 49  21  23  ar  
 50  21  24  1   
 51  22  23  ar  
 52  22  52  1   
 53  24  25  1   
 54  24  26  1   
 55  25  53  1   
 56  25  54  1   
 57  25  55  1   
 58  26  56  1   
 59  26  57  1   
 60  26  58  1   
@<TRIPOS>SUBSTRUCTURE
  1 ****  11 GROUP 4 **** **** 0

# MOE 2024.06 (io_trps.svl 2023.06)
