@<TRIPOS>MOLECULE
NONAME
45 47 1 0 0 
SMALL
USER_CHARGES


@<TRIPOS>ATOM
  1 S       -0.7060    -0.1000    -1.0790 S.3   1 <1>  -0.0800 
  2 C        0.2300    -1.4830    -0.5030 C.2   1 <1>  -0.0450 
  3 C        0.4700     1.0410    -0.4720 C.2   1 <1>  -0.1100 
  4 C        1.3650    -1.0270     0.0910 C.2   1 <1>  -0.1810 
  5 C       -0.2770    -2.8110    -0.7490 C.2   1 <1>   0.7150 
  6 C        1.4940     0.3940     0.1130 C.2   1 <1>  -0.1500 
  7 C        2.4530    -1.8980     0.6930 C.3   1 <1>  -0.0590 
  8 O        0.3620    -3.5650    -1.4610 O.2   1 <1>  -0.5700 
  9 N       -1.4490    -3.2760    -0.1800 N.am  1 <1>  -0.6600 
 10 C       -1.9390    -4.6690    -0.4320 C.3   1 <1>   0.1400 
 11 C       -2.2130    -2.5370     0.8660 C.3   1 <1>   0.1400 
 12 C       -3.1560    -4.6930    -1.3660 C.3   1 <1>   0.1400 
 13 C       -3.4530    -1.8160     0.3110 C.3   1 <1>  -0.1600 
 14 N       -4.2870    -3.8670    -0.8350 N.am  1 <1>  -0.6600 
 15 C       -4.0670    -2.4010    -0.9660 C.3   1 <1>   0.1400 
 16 C       -5.4470    -4.3510    -0.2880 C.2   1 <1>   0.5690 
 17 O       -6.3050    -3.6140     0.1380 O.2   1 <1>  -0.5700 
 18 C       -5.6850    -5.8470    -0.1920 C.3   1 <1>  -0.0990 
 19 C       -7.0240    -6.1840     0.4800 C.3   1 <1>   0.0960 
 20 N       -7.2070    -7.6450     0.5500 N.pl3 1 <1>   0.0480 
 21 C       -6.9100    -8.4770     1.5490 C.2   1 <1>   0.0370 
 22 C       -7.6860    -8.4690    -0.3820 C.2   1 <1>   0.0370 
 23 N       -7.1800    -9.7010     1.2500 N.2   1 <1>  -0.3380 
 24 N       -7.6780    -9.6950     0.0110 N.2   1 <1>  -0.3380 
 25 H        0.2730     2.0880    -0.6190 H     1 <1>   0.1500 
 26 H        2.3480     0.8690     0.5620 H     1 <1>   0.1500 
 27 H        2.2080    -2.9400     0.5930 H     1 <1>   0.0800 
 28 H        2.5730    -1.6700     1.7360 H     1 <1>   0.0800 
 29 H        3.3850    -1.7190     0.1870 H     1 <1>   0.0800 
 30 H       -2.1980    -5.1350     0.5020 H     1 <1>   0.0800 
 31 H       -1.1590    -5.2660    -0.8730 H     1 <1>   0.0800 
 32 H       -1.5750    -1.8240     1.3600 H     1 <1>   0.0800 
 33 H       -2.5340    -3.2400     1.6150 H     1 <1>   0.0800 
 34 H       -3.4630    -5.7120    -1.5090 H     1 <1>   0.0800 
 35 H       -2.8610    -4.3160    -2.3310 H     1 <1>   0.0800 
 36 H       -3.2000    -0.7910     0.1180 H     1 <1>   0.0800 
 37 H       -4.2070    -1.7970     1.0770 H     1 <1>   0.0800 
 38 H       -3.4160    -2.2040    -1.8010 H     1 <1>   0.0800 
 39 H       -5.0050    -1.9100    -1.1670 H     1 <1>   0.0800 
 40 H       -4.8840    -6.2830     0.3750 H     1 <1>   0.0800 
 41 H       -5.6800    -6.2530    -1.1870 H     1 <1>   0.0800 
 42 H       -7.8380    -5.7570    -0.0790 H     1 <1>   0.0800 
 43 H       -7.0500    -5.7800     1.4770 H     1 <1>   0.0800 
 44 H       -6.4950    -8.1540     2.4860 H     1 <1>   0.1500 
 45 H       -8.0340    -8.1370    -1.3440 H     1 <1>   0.1500 
@<TRIPOS>BOND
  1   1   2  1   
  2   1   3  1   
  3   2   4  2   
  4   2   5  1   
  5   3   6  2   
  6   3  25  1   
  7   4   6  1   
  8   4   7  1   
  9   5   8  2   
 10   5   9  am  
 11   6  26  1   
 12   7  27  1   
 13   7  28  1   
 14   7  29  1   
 15   9  10  1   
 16   9  11  1   
 17  10  12  1   
 18  10  30  1   
 19  10  31  1   
 20  11  13  1   
 21  11  32  1   
 22  11  33  1   
 23  12  14  1   
 24  12  34  1   
 25  12  35  1   
 26  13  15  1   
 27  13  36  1   
 28  13  37  1   
 29  14  15  1   
 30  14  16  am  
 31  15  38  1   
 32  15  39  1   
 33  16  17  2   
 34  16  18  1   
 35  18  19  1   
 36  18  40  1   
 37  18  41  1   
 38  19  20  1   
 39  19  42  1   
 40  19  43  1   
 41  20  21  1   
 42  20  22  1   
 43  21  23  2   
 44  21  44  1   
 45  22  24  2   
 46  22  45  1   
 47  23  24  1   
@<TRIPOS>SUBSTRUCTURE
  1 ****  14 GROUP 4 **** **** 0

# MOE 2024.06 (io_trps.svl 2023.06)
