@<TRIPOS>MOLECULE
NONAME
27 28 1 0 0 
SMALL
USER_CHARGES


@<TRIPOS>ATOM
  1 N       -1.0990     4.9420     0.1410 N.2   1 <1>  -0.6120 
  2 C       -2.2390     4.3270     0.0820 C.2   1 <1>   0.3750 
  3 C       -0.0190     4.1640     0.0810 C.cat 1 <1>   0.9620 
  4 C       -2.3590     2.9280    -0.0390 C.2   1 <1>  -0.1360 
  5 C       -3.5030     5.1570     0.1450 C.3   1 <1>  -0.1790 
  6 N        1.2340     4.5960     0.1260 N.pl3 1 <1>  -0.7000 
  7 N       -0.0340     2.8230    -0.0340 N.pl3 1 <1>  -0.6290 
  8 C       -1.2360     2.1700    -0.0970 C.2   1 <1>   0.2290 
  9 C        2.0710     3.5160     0.0380 C.2   1 <1>   0.1820 
 10 C        1.2840     2.4170    -0.0610 C.2   1 <1>   0.2000 
 11 C        3.5860     3.7150     0.0640 C.3   1 <1>   0.0080 
 12 C        4.3890     2.4070    -0.0430 C.3   1 <1>   0.3430 
 13 N        5.8620     2.6590    -0.0120 N.4   1 <1>  -0.8530 
 14 H       -3.3400     2.4880    -0.0830 H     1 <1>   0.1500 
 15 H       -4.0930     4.8670     0.9960 H     1 <1>   0.0800 
 16 H       -4.0830     5.0150    -0.7490 H     1 <1>   0.0800 
 17 H       -3.2670     6.2020     0.2350 H     1 <1>   0.0800 
 18 H        1.4170     5.5980     0.2130 H     1 <1>   0.4500 
 19 H       -1.2510     1.0940    -0.1900 H     1 <1>   0.1500 
 20 H        1.5510     1.3760    -0.1480 H     1 <1>   0.1500 
 21 H        3.8390     4.2120     0.9850 H     1 <1>   0.0800 
 22 H        3.8500     4.3610    -0.7550 H     1 <1>   0.0800 
 23 H        4.1320     1.9060    -0.9640 H     1 <1>   0.0800 
 24 H        4.1210     1.7570     0.7770 H     1 <1>   0.0800 
 25 H        6.1770     3.2500    -0.7930 H     1 <1>   0.4500 
 26 H        6.3880     1.7760    -0.0850 H     1 <1>   0.4500 
 27 H        6.1670     3.1080     0.8620 H     1 <1>   0.4500 
@<TRIPOS>BOND
  1   1   2  2   
  2   1   3  1   
  3   2   4  1   
  4   2   5  1   
  5   3   6  ar  
  6   3   7  ar  
  7   4   8  2   
  8   4  14  1   
  9   5  15  1   
 10   5  16  1   
 11   5  17  1   
 12   6   9  1   
 13   6  18  1   
 14   7   8  1   
 15   7  10  1   
 16   8  19  1   
 17   9  10  2   
 18   9  11  1   
 19  10  20  1   
 20  11  12  1   
 21  11  21  1   
 22  11  22  1   
 23  12  13  1   
 24  12  23  1   
 25  12  24  1   
 26  13  25  1   
 27  13  26  1   
 28  13  27  1   
@<TRIPOS>SUBSTRUCTURE
  1 ****   3 GROUP 4 **** **** 0

# MOE 2024.06 (io_trps.svl 2023.06)
