@<TRIPOS>MOLECULE
NONAME
64 67 1 0 0 
SMALL
USER_CHARGES


@<TRIPOS>ATOM
  1 F        0.0410    -0.7380     2.1840 F     1 <1>  -0.1900 
  2 C        0.8940    -1.3020     1.3720 C.ar  1 <1>   0.1900 
  3 C        1.0460    -2.6750     1.4120 C.ar  1 <1>  -0.1500 
  4 C        1.6130    -0.5030     0.5040 C.ar  1 <1>  -0.1500 
  5 C        1.9520    -3.2760     0.5510 C.ar  1 <1>  -0.1440 
  6 C        2.5150    -1.1070    -0.3550 C.ar  1 <1>  -0.1500 
  7 C        2.6820    -2.4850    -0.3300 C.ar  1 <1>  -0.1500 
  8 C        2.1450    -4.7850     0.5730 C.3   1 <1>   0.2640 
  9 O        0.8920    -5.4070     0.3860 O.3   1 <1>  -0.3630 
 10 C        0.9250    -6.7350     0.1310 C.ar  1 <1>   0.0830 
 11 C        1.3610    -7.2560    -1.0920 C.ar  1 <1>   0.0830 
 12 C        0.5140    -7.5930     1.1360 C.ar  1 <1>  -0.1500 
 13 O        1.7370    -6.4920    -2.1490 O.3   1 <1>  -0.3620 
 14 C        1.4200    -8.6280    -1.2650 C.ar  1 <1>  -0.1500 
 15 C        0.5620    -8.9640     0.9490 C.ar  1 <1>  -0.1500 
 16 C        0.8580    -5.4740    -2.5870 C.3   1 <1>   0.0400 
 17 C        1.0200    -9.4890    -0.2530 C.ar  1 <1>  -0.1430 
 18 C        1.0660   -10.9900    -0.4760 C.3   1 <1>   0.4860 
 19 N       -0.3010   -11.5570    -0.3450 N.4   1 <1>  -0.9590 
 20 C       -0.3780   -13.0630    -0.4270 C.3   1 <1>   0.3430 
 21 C       -1.3600   -10.8550    -1.1180 C.3   1 <1>   0.3430 
 22 C       -1.8430   -13.6270    -0.4770 C.3   1 <1>   0.4230 
 23 C       -2.7530   -11.2960    -0.6230 C.3   1 <1>  -0.1600 
 24 N       -2.0030   -14.9930     0.1450 N.4   1 <1>  -0.9590 
 25 C       -2.7940   -12.6230     0.2060 C.3   1 <1>  -0.1060 
 26 C       -3.3870   -15.5240     0.0150 C.3   1 <1>   0.3430 
 27 C       -0.9870   -16.0250    -0.2130 C.3   1 <1>   0.2630 
 28 C       -2.2080   -12.4410     1.6220 C.2   1 <1>   0.9060 
 29 C       -4.2560   -13.1410     0.2270 C.3   1 <1>  -0.1600 
 30 C       -4.3670   -14.5890     0.7250 C.3   1 <1>  -0.1600 
 31 O       -1.7110   -11.3530     1.9210 O.co2 1 <1>  -0.9000 
 32 O       -1.9650   -13.4510     2.2880 O.co2 1 <1>  -0.9000 
 33 H        0.4610    -3.2590     2.1000 H     1 <1>   0.1500 
 34 H        1.4670     0.5620     0.5030 H     1 <1>   0.1500 
 35 H        3.0880    -0.5080    -1.0430 H     1 <1>   0.1500 
 36 H        3.3870    -2.9380    -1.0050 H     1 <1>   0.1500 
 37 H        2.5390    -5.1030     1.5220 H     1 <1>   0.0800 
 38 H        2.8100    -5.0970    -0.2130 H     1 <1>   0.0800 
 39 H        0.1580    -7.1880     2.0670 H     1 <1>   0.1500 
 40 H        1.7790    -9.0020    -2.2080 H     1 <1>   0.1500 
 41 H        0.2340    -9.6070     1.7520 H     1 <1>   0.1500 
 42 H        1.1070    -5.2310    -3.6040 H     1 <1>   0.0800 
 43 H        0.9810    -4.6040    -1.9690 H     1 <1>   0.0800 
 44 H       -0.1550    -5.8320    -2.5320 H     1 <1>   0.0800 
 45 H        1.7180   -11.4340     0.2590 H     1 <1>   0.0800 
 46 H        1.4600   -11.1980    -1.4570 H     1 <1>   0.0800 
 47 H       -0.5800   -11.3160     0.6470 H     1 <1>   0.4500 
 48 H        0.1540   -13.4040    -1.2980 H     1 <1>   0.0800 
 49 H        0.1030   -13.4650     0.4510 H     1 <1>   0.0800 
 50 H       -1.2710    -9.7860    -0.9910 H     1 <1>   0.0800 
 51 H       -1.2520   -11.0780    -2.1670 H     1 <1>   0.0800 
 52 H       -2.1290   -13.6990    -1.5120 H     1 <1>   0.0800 
 53 H       -3.1630   -10.5000    -0.0230 H     1 <1>   0.0800 
 54 H       -3.3860   -11.3700    -1.4900 H     1 <1>   0.0800 
 55 H       -1.9140   -14.7730     1.1770 H     1 <1>   0.4500 
 56 H       -3.6530   -15.6100    -1.0260 H     1 <1>   0.0800 
 57 H       -3.4500   -16.5020     0.4660 H     1 <1>   0.0800 
 58 H       -1.0310   -16.2480    -1.2670 H     1 <1>   0.0800 
 59 H       -1.1770   -16.9320     0.3380 H     1 <1>   0.0800 
 60 H        0.0040   -15.6840     0.0370 H     1 <1>   0.0800 
 61 H       -4.8540   -12.5030     0.8570 H     1 <1>   0.0800 
 62 H       -4.6760   -13.1000    -0.7640 H     1 <1>   0.0800 
 63 H       -5.3700   -14.9450     0.5670 H     1 <1>   0.0800 
 64 H       -4.1860   -14.6290     1.7860 H     1 <1>   0.0800 
@<TRIPOS>BOND
  1   1   2  1   
  2   2   3  ar  
  3   2   4  ar  
  4   3   5  ar  
  5   3  33  1   
  6   4   6  ar  
  7   4  34  1   
  8   5   7  ar  
  9   5   8  1   
 10   6   7  ar  
 11   6  35  1   
 12   7  36  1   
 13   8   9  1   
 14   8  37  1   
 15   8  38  1   
 16   9  10  1   
 17  10  11  ar  
 18  10  12  ar  
 19  11  13  1   
 20  11  14  ar  
 21  12  15  ar  
 22  12  39  1   
 23  13  16  1   
 24  14  17  ar  
 25  14  40  1   
 26  15  17  ar  
 27  15  41  1   
 28  16  42  1   
 29  16  43  1   
 30  16  44  1   
 31  17  18  1   
 32  18  19  1   
 33  18  45  1   
 34  18  46  1   
 35  19  20  1   
 36  19  21  1   
 37  19  47  1   
 38  20  22  1   
 39  20  48  1   
 40  20  49  1   
 41  21  23  1   
 42  21  50  1   
 43  21  51  1   
 44  22  24  1   
 45  22  25  1   
 46  22  52  1   
 47  23  25  1   
 48  23  53  1   
 49  23  54  1   
 50  24  26  1   
 51  24  27  1   
 52  24  55  1   
 53  25  28  1   
 54  25  29  1   
 55  26  30  1   
 56  26  56  1   
 57  26  57  1   
 58  27  58  1   
 59  27  59  1   
 60  27  60  1   
 61  28  31  ar  
 62  28  32  ar  
 63  29  30  1   
 64  29  61  1   
 65  29  62  1   
 66  30  63  1   
 67  30  64  1   
@<TRIPOS>SUBSTRUCTURE
  1 ****  15 GROUP 4 **** **** 0

# MOE 2024.06 (io_trps.svl 2023.06)
