@<TRIPOS>MOLECULE
NONAME
54 56 1 0 0 
SMALL
USER_CHARGES


@<TRIPOS>ATOM
  1 O        1.0390    -1.4780     0.2880 O.3   1 <1>  -0.3630 
  2 C        0.4650    -2.6850     0.5390 C.ar  1 <1>   0.0820 
  3 C        0.7490    -0.7050    -0.8550 C.3   1 <1>   0.2000 
  4 C        0.9220    -3.3610     1.6580 C.ar  1 <1>  -0.1500 
  5 C       -0.5320    -3.2600    -0.2450 C.ar  1 <1>  -0.1500 
  6 C        1.5180    -1.2760    -2.0490 C.3   1 <1>  -0.2400 
  7 C        1.1910     0.7240    -0.5520 C.3   1 <1>  -0.2400 
  8 C        0.3980    -4.5960     1.9950 C.ar  1 <1>  -0.1500 
  9 C       -1.0580    -4.4960     0.0900 C.ar  1 <1>  -0.1500 
 10 C       -0.5930    -5.1720     1.2170 C.ar  1 <1>   0.0820 
 11 O       -1.0520    -6.3860     1.6170 O.3   1 <1>  -0.3630 
 12 C       -2.0690    -7.0490     0.9090 C.3   1 <1>   0.1200 
 13 C       -2.3190    -8.3830     1.6160 C.3   1 <1>   0.3430 
 14 N       -3.3730    -9.1940     0.9320 N.4   1 <1>  -0.9590 
 15 C       -4.7680    -8.6420     0.9980 C.3   1 <1>   0.3430 
 16 C       -3.4500   -10.5980     1.4100 C.3   1 <1>   0.3430 
 17 C       -5.6920    -9.8410     1.2710 C.3   1 <1>   0.2000 
 18 C       -4.8350   -11.0690     0.9590 C.3   1 <1>  -0.0800 
 19 O       -6.0440    -9.8660     2.6150 O.3   1 <1>  -0.6800 
 20 C       -4.9280   -11.4280    -0.5520 C.3   1 <1>  -0.0170 
 21 C       -3.5930   -11.6550    -1.2530 C.ar  1 <1>   0.1670 
 22 N       -2.9020   -10.5660    -1.5720 N.ar  1 <1>  -0.6200 
 23 C       -3.1640   -12.9520    -1.5300 C.ar  1 <1>   0.1600 
 24 C       -1.7770   -10.8670    -2.2090 C.ar  1 <1>   0.1600 
 25 N       -2.0280   -13.2450    -2.1350 N.ar  1 <1>  -0.6200 
 26 C       -1.3530   -12.1630    -2.4780 C.ar  1 <1>   0.1600 
 27 H       -0.3140    -0.7150    -1.0250 H     1 <1>   0.0800 
 28 H        1.6910    -2.9130     2.2610 H     1 <1>   0.1500 
 29 H       -0.9080    -2.7620    -1.1180 H     1 <1>   0.1500 
 30 H        2.5750    -1.2660    -1.8480 H     1 <1>   0.0800 
 31 H        1.3310    -0.6800    -2.9240 H     1 <1>   0.0800 
 32 H        1.2100    -2.2840    -2.2550 H     1 <1>   0.0800 
 33 H        2.2450     0.7540    -0.3440 H     1 <1>   0.0800 
 34 H        0.6510     1.1000     0.2980 H     1 <1>   0.0800 
 35 H        0.9860     1.3600    -1.3930 H     1 <1>   0.0800 
 36 H        0.7590    -5.1140     2.8640 H     1 <1>   0.1500 
 37 H       -1.8240    -4.9070    -0.5380 H     1 <1>   0.1500 
 38 H       -2.9460    -6.4260     0.9270 H     1 <1>   0.0800 
 39 H       -1.7270    -7.2090    -0.0990 H     1 <1>   0.0800 
 40 H       -2.6110    -8.1910     2.6350 H     1 <1>   0.0800 
 41 H       -1.3940    -8.9360     1.6240 H     1 <1>   0.0800 
 42 H       -3.1220    -9.3020    -0.0760 H     1 <1>   0.4500 
 43 H       -4.8730    -7.9110     1.7830 H     1 <1>   0.0800 
 44 H       -5.0220    -8.1900     0.0530 H     1 <1>   0.0800 
 45 H       -2.6580   -11.2030     0.9970 H     1 <1>   0.0800 
 46 H       -3.3910   -10.6240     2.4860 H     1 <1>   0.0800 
 47 H       -6.6050    -9.7930     0.7000 H     1 <1>   0.0800 
 48 H       -5.1460   -11.9230     1.5360 H     1 <1>   0.0800 
 49 H       -5.2830    -9.9490     3.2220 H     1 <1>   0.4000 
 50 H       -5.4370   -10.6510    -1.0970 H     1 <1>   0.0800 
 51 H       -5.5400   -12.3080    -0.6580 H     1 <1>   0.0800 
 52 H       -3.7820   -13.7850    -1.2420 H     1 <1>   0.1500 
 53 H       -1.1540   -10.0530    -2.5380 H     1 <1>   0.1500 
 54 H       -0.4210   -12.3090    -2.9980 H     1 <1>   0.1500 
@<TRIPOS>BOND
  1   1   2  1   
  2   1   3  1   
  3   2   4  ar  
  4   2   5  ar  
  5   3   6  1   
  6   3   7  1   
  7   3  27  1   
  8   4   8  ar  
  9   4  28  1   
 10   5   9  ar  
 11   5  29  1   
 12   6  30  1   
 13   6  31  1   
 14   6  32  1   
 15   7  33  1   
 16   7  34  1   
 17   7  35  1   
 18   8  10  ar  
 19   8  36  1   
 20   9  10  ar  
 21   9  37  1   
 22  10  11  1   
 23  11  12  1   
 24  12  13  1   
 25  12  38  1   
 26  12  39  1   
 27  13  14  1   
 28  13  40  1   
 29  13  41  1   
 30  14  15  1   
 31  14  16  1   
 32  14  42  1   
 33  15  17  1   
 34  15  43  1   
 35  15  44  1   
 36  16  18  1   
 37  16  45  1   
 38  16  46  1   
 39  17  18  1   
 40  17  19  1   
 41  17  47  1   
 42  18  20  1   
 43  18  48  1   
 44  19  49  1   
 45  20  21  1   
 46  20  50  1   
 47  20  51  1   
 48  21  22  ar  
 49  21  23  ar  
 50  22  24  ar  
 51  23  25  ar  
 52  23  52  1   
 53  24  26  ar  
 54  24  53  1   
 55  25  26  ar  
 56  26  54  1   
@<TRIPOS>SUBSTRUCTURE
  1 ****  12 GROUP 4 **** **** 0

# MOE 2024.06 (io_trps.svl 2023.06)
