@<TRIPOS>MOLECULE
NONAME
46 48 1 0 0 
SMALL
USER_CHARGES


@<TRIPOS>ATOM
  1 S        0.9740     0.2600     1.8640 S.3   1 <1>  -0.0800 
  2 C        1.1770    -0.3180     0.2190 C.2   1 <1>   0.0960 
  3 C       -0.6160    -0.4890     1.9480 C.2   1 <1>  -0.1100 
  4 S        2.7190     0.0700    -0.6210 S.3   1 <1>  -0.1570 
  5 C        0.1150    -1.0260    -0.2010 C.2   1 <1>  -0.1500 
  6 C       -0.9140    -1.1170     0.7930 C.2   1 <1>  -0.1500 
  7 C        3.0270     1.8170    -0.4190 C.ar  1 <1>   0.4620 
  8 N        2.0660     2.5850     0.1190 N.ar  1 <1>  -0.1790 
  9 C        4.1880     2.3860    -0.8140 C.ar  1 <1>  -0.1500 
 10 C        2.2710     3.9020     0.2630 C.ar  1 <1>   0.7710 
 11 C        4.3470     3.7710    -0.6360 C.ar  1 <1>   0.4100 
 12 N        3.3840     4.5120    -0.1040 N.ar  1 <1>  -0.6200 
 13 N        1.3210     4.6610     0.8040 N.pl3 1 <1>  -0.9000 
 14 N        5.4960     4.4070    -1.0050 N.pl3 1 <1>  -0.8380 
 15 C        5.5320     5.8770    -1.2880 C.3   1 <1>   0.2090 
 16 C        6.7900     3.6970    -1.2710 C.3   1 <1>   0.1290 
 17 C        5.7990     6.6670     0.0080 C.3   1 <1>   0.3430 
 18 N        6.0290     8.1380    -0.2130 N.4   1 <1>  -0.9590 
 19 C        6.4450     8.8010     1.0750 C.3   1 <1>   0.3430 
 20 C        4.8210     8.8390    -0.7830 C.3   1 <1>   0.3430 
 21 C        6.5820    10.3270     0.9130 C.3   1 <1>   0.1200 
 22 C        5.0320    10.3640    -0.8620 C.3   1 <1>   0.1200 
 23 O        5.4040    10.8650     0.3880 O.3   1 <1>  -0.5600 
 24 H       -1.1680    -0.3870     2.8670 H     1 <1>   0.1500 
 25 H        0.0080    -1.4970    -1.1630 H     1 <1>   0.1500 
 26 H       -1.8260    -1.6560     0.5940 H     1 <1>   0.1500 
 27 H        1.1940     2.1720     0.4380 H     1 <1>   0.4570 
 28 H        4.9630     1.7950    -1.2640 H     1 <1>   0.1500 
 29 H        1.4900     5.6650     0.9090 H     1 <1>   0.4000 
 30 H        0.4020     4.3710     1.1500 H     1 <1>   0.4000 
 31 H        4.5890     6.1760    -1.7120 H     1 <1>   0.0800 
 32 H        6.3050     6.0800    -2.0090 H     1 <1>   0.0800 
 33 H        6.8660     2.8040    -0.6750 H     1 <1>   0.0800 
 34 H        7.6250     4.3280    -1.0210 H     1 <1>   0.0800 
 35 H        6.8560     3.4320    -2.3130 H     1 <1>   0.0800 
 36 H        6.6690     6.2420     0.4800 H     1 <1>   0.0800 
 37 H        4.9600     6.5270     0.6700 H     1 <1>   0.0800 
 38 H        6.8060     8.2630    -0.8770 H     1 <1>   0.4500 
 39 H        7.3840     8.3950     1.4150 H     1 <1>   0.0800 
 40 H        5.7080     8.6100     1.8380 H     1 <1>   0.0800 
 41 H        3.9630     8.6520    -0.1580 H     1 <1>   0.0800 
 42 H        4.6020     8.4630    -1.7690 H     1 <1>   0.0800 
 43 H        7.4010    10.5810     0.2620 H     1 <1>   0.0800 
 44 H        6.7520    10.7880     1.8710 H     1 <1>   0.0800 
 45 H        4.1160    10.8510    -1.1490 H     1 <1>   0.0800 
 46 H        5.7930    10.6180    -1.5800 H     1 <1>   0.0800 
@<TRIPOS>BOND
  1   1   2  1   
  2   1   3  1   
  3   2   4  1   
  4   2   5  2   
  5   3   6  2   
  6   3  24  1   
  7   4   7  1   
  8   5   6  1   
  9   5  25  1   
 10   6  26  1   
 11   7   8  ar  
 12   7   9  ar  
 13   8  10  ar  
 14   8  27  1   
 15   9  11  ar  
 16   9  28  1   
 17  10  12  ar  
 18  10  13  1   
 19  11  12  ar  
 20  11  14  1   
 21  13  29  1   
 22  13  30  1   
 23  14  15  1   
 24  14  16  1   
 25  15  17  1   
 26  15  31  1   
 27  15  32  1   
 28  16  33  1   
 29  16  34  1   
 30  16  35  1   
 31  17  18  1   
 32  17  36  1   
 33  17  37  1   
 34  18  19  1   
 35  18  20  1   
 36  18  38  1   
 37  19  21  1   
 38  19  39  1   
 39  19  40  1   
 40  20  22  1   
 41  20  41  1   
 42  20  42  1   
 43  21  23  1   
 44  21  43  1   
 45  21  44  1   
 46  22  23  1   
 47  22  45  1   
 48  22  46  1   
@<TRIPOS>SUBSTRUCTURE
  1 ****  12 GROUP 4 **** **** 0

# MOE 2024.06 (io_trps.svl 2023.06)
