@<TRIPOS>MOLECULE
NONAME
55 56 1 0 0 
SMALL
USER_CHARGES


@<TRIPOS>ATOM
  1 S        1.5610     1.6530    -0.0620 S.o2  1 <1>   1.3330 
  2 O        1.1670     2.2650    -1.3070 O.2   1 <1>  -0.6500 
  3 O        2.4440     2.4020     0.8080 O.2   1 <1>  -0.6500 
  4 N        2.2170     0.1220    -0.3570 N.am  1 <1>  -0.8490 
  5 C        0.0730     1.3160     0.8890 C.3   1 <1>  -0.0550 
  6 C        3.6770     0.1470    -0.5030 C.3   1 <1>   0.1160 
  7 C        1.6180    -0.5620    -1.5100 C.3   1 <1>   0.1160 
  8 C       -0.7240     2.5520     1.3880 C.3   1 <1>  -0.0800 
  9 C       -1.1990     3.4700     0.2550 C.3   1 <1>   0.2000 
 10 C        0.0910     3.4850     2.2910 C.3   1 <1>   0.3430 
 11 O       -2.4260     4.0100     0.6220 O.3   1 <1>  -0.6800 
 12 C       -0.1580     4.5950     0.1520 C.3   1 <1>   0.3430 
 13 N        0.6960     4.4880     1.3810 N.4   1 <1>  -0.9590 
 14 C        1.0540     5.7920     1.9900 C.3   1 <1>   0.5240 
 15 C        1.7240     6.6130     0.9160 C.2   1 <1>  -0.1810 
 16 C        1.1930     7.7480     0.3140 C.2   1 <1>   0.1080 
 17 C        2.9160     6.4160     0.3060 C.2   1 <1>  -0.3320 
 18 N        1.9700     8.2110    -0.6040 N.2   1 <1>  -0.7070 
 19 C       -0.1220     8.4260     0.6350 C.3   1 <1>  -0.0590 
 20 N        3.0480     7.3990    -0.6200 N.pl3 1 <1>   0.3140 
 21 C        3.9590     5.3320     0.5490 C.3   1 <1>  -0.0600 
 22 C        4.1780     7.6030    -1.5800 C.3   1 <1>   0.1760 
 23 C        4.7240     9.0360    -1.4950 C.3   1 <1>  -0.2400 
 24 C        3.7270     7.2750    -3.0100 C.3   1 <1>  -0.2400 
 25 H       -0.5830     0.7130     0.2920 H     1 <1>   0.0800 
 26 H        0.3470     0.7220     1.7410 H     1 <1>   0.0800 
 27 H        4.0540    -0.8510    -0.6540 H     1 <1>   0.0800 
 28 H        4.1330     0.5440     0.3890 H     1 <1>   0.0800 
 29 H        3.9610     0.7610    -1.3420 H     1 <1>   0.0800 
 30 H        2.0160    -1.5590    -1.5970 H     1 <1>   0.0800 
 31 H        1.8270    -0.0220    -2.4200 H     1 <1>   0.0800 
 32 H        0.5510    -0.6350    -1.3900 H     1 <1>   0.0800 
 33 H       -1.5680     2.1710     1.9380 H     1 <1>   0.0800 
 34 H       -1.3380     2.9620    -0.6850 H     1 <1>   0.0800 
 35 H        0.8470     2.9480     2.8440 H     1 <1>   0.0800 
 36 H       -0.5720     3.9770     2.9830 H     1 <1>   0.0800 
 37 H       -2.4060     4.4800     1.4770 H     1 <1>   0.4000 
 38 H       -0.6470     5.5520     0.0840 H     1 <1>   0.0800 
 39 H        0.4550     4.4580    -0.7250 H     1 <1>   0.0800 
 40 H        1.6050     4.0970     1.0580 H     1 <1>   0.4500 
 41 H        0.1750     6.2980     2.3520 H     1 <1>   0.0800 
 42 H        1.7390     5.6470     2.8090 H     1 <1>   0.0800 
 43 H       -0.8890     7.7060     0.8460 H     1 <1>   0.0800 
 44 H       -0.4330     9.0190    -0.2070 H     1 <1>   0.0800 
 45 H        0.0050     9.0780     1.4790 H     1 <1>   0.0800 
 46 H        3.6970     4.7210     1.3930 H     1 <1>   0.0800 
 47 H        4.9170     5.7780     0.7530 H     1 <1>   0.0800 
 48 H        4.0480     4.6990    -0.3170 H     1 <1>   0.0800 
 49 H        4.9690     6.9290    -1.3130 H     1 <1>   0.0800 
 50 H        3.9660     9.7440    -1.7840 H     1 <1>   0.0800 
 51 H        5.5680     9.1520    -2.1500 H     1 <1>   0.0800 
 52 H        5.0380     9.2530    -0.4900 H     1 <1>   0.0800 
 53 H        2.9360     7.9400    -3.3120 H     1 <1>   0.0800 
 54 H        3.3720     6.2620    -3.0640 H     1 <1>   0.0800 
 55 H        4.5490     7.3870    -3.6940 H     1 <1>   0.0800 
@<TRIPOS>BOND
  1   1   2  2   
  2   1   3  2   
  3   1   4  am  
  4   1   5  1   
  5   4   6  1   
  6   4   7  1   
  7   5   8  1   
  8   5  25  1   
  9   5  26  1   
 10   6  27  1   
 11   6  28  1   
 12   6  29  1   
 13   7  30  1   
 14   7  31  1   
 15   7  32  1   
 16   8   9  1   
 17   8  10  1   
 18   8  33  1   
 19   9  11  1   
 20   9  12  1   
 21   9  34  1   
 22  10  13  1   
 23  10  35  1   
 24  10  36  1   
 25  11  37  1   
 26  12  13  1   
 27  12  38  1   
 28  12  39  1   
 29  13  14  1   
 30  13  40  1   
 31  14  15  1   
 32  14  41  1   
 33  14  42  1   
 34  15  16  1   
 35  15  17  2   
 36  16  18  2   
 37  16  19  1   
 38  17  20  1   
 39  17  21  1   
 40  18  20  1   
 41  19  43  1   
 42  19  44  1   
 43  19  45  1   
 44  20  22  1   
 45  21  46  1   
 46  21  47  1   
 47  21  48  1   
 48  22  23  1   
 49  22  24  1   
 50  22  49  1   
 51  23  50  1   
 52  23  51  1   
 53  23  52  1   
 54  24  53  1   
 55  24  54  1   
 56  24  55  1   
@<TRIPOS>SUBSTRUCTURE
  1 ****  13 GROUP 4 **** **** 0

# MOE 2024.06 (io_trps.svl 2023.06)
