@<TRIPOS>MOLECULE
NONAME
45 47 1 0 0 
SMALL
USER_CHARGES


@<TRIPOS>ATOM
  1 F       -0.5880    -1.4410    -0.8830 F     1 <1>  -0.1900 
  2 C       -1.7440    -1.5410    -0.2770 C.ar  1 <1>   0.1900 
  3 C       -2.6240    -0.4580    -0.1800 C.ar  1 <1>   0.0820 
  4 C       -2.0460    -2.7820     0.2540 C.ar  1 <1>  -0.1500 
  5 O       -2.4380     0.8010    -0.6640 O.3   1 <1>  -0.3630 
  6 C       -3.8260    -0.6700     0.4780 C.ar  1 <1>  -0.1500 
  7 C       -3.2600    -2.9740     0.9000 C.ar  1 <1>  -0.1430 
  8 C       -1.2400     1.2220    -1.2790 C.3   1 <1>   0.0400 
  9 C       -4.1420    -1.9080     1.0130 C.ar  1 <1>  -0.1500 
 10 C       -3.6250    -4.3300     1.4750 C.3   1 <1>   0.4870 
 11 N       -3.9640    -5.2540     0.3550 N.4   1 <1>  -0.9590 
 12 C       -5.2220    -4.8100    -0.3300 C.3   1 <1>   0.3430 
 13 C       -4.2220    -6.6340     0.8780 C.3   1 <1>   0.3430 
 14 C       -6.3430    -5.6580     0.2750 C.3   1 <1>   0.2000 
 15 C       -5.6660    -7.0060     0.5050 C.3   1 <1>  -0.0800 
 16 O       -6.6770    -5.1250     1.5160 O.3   1 <1>  -0.6800 
 17 C       -5.7200    -7.8980    -0.7520 C.3   1 <1>  -0.0170 
 18 C       -4.8490    -9.1320    -0.5800 C.ar  1 <1>  -0.1430 
 19 C       -5.1460   -10.1110     0.3490 C.ar  1 <1>  -0.1500 
 20 C       -3.7150    -9.3390    -1.3410 C.ar  1 <1>  -0.1500 
 21 C       -4.3060   -11.2040     0.4840 C.ar  1 <1>   0.1600 
 22 C       -2.9430   -10.4690    -1.1280 C.ar  1 <1>   0.1600 
 23 N       -3.2080   -11.3980    -0.2250 N.ar  1 <1>  -0.6200 
 24 H       -1.3240    -3.5740     0.1550 H     1 <1>   0.1500 
 25 H       -4.5150     0.1530     0.5700 H     1 <1>   0.1500 
 26 H       -1.3380     2.2640    -1.5220 H     1 <1>   0.0800 
 27 H       -1.0880     0.6520    -2.1780 H     1 <1>   0.0800 
 28 H       -0.4250     1.0830    -0.5910 H     1 <1>   0.0800 
 29 H       -5.0860    -2.0260     1.5210 H     1 <1>   0.1500 
 30 H       -4.4680    -4.2310     2.1420 H     1 <1>   0.0800 
 31 H       -2.7900    -4.7160     2.0360 H     1 <1>   0.0800 
 32 H       -3.1820    -5.2410    -0.3100 H     1 <1>   0.4500 
 33 H       -5.4180    -3.7580    -0.2020 H     1 <1>   0.0800 
 34 H       -5.1500    -5.0240    -1.3830 H     1 <1>   0.0800 
 35 H       -3.5200    -7.3430     0.4700 H     1 <1>   0.0800 
 36 H       -4.1280    -6.6420     1.9520 H     1 <1>   0.0800 
 37 H       -7.2260    -5.6960    -0.3420 H     1 <1>   0.0800 
 38 H       -6.1300    -7.5390     1.3160 H     1 <1>   0.0800 
 39 H       -7.5200    -5.5020     1.8500 H     1 <1>   0.4000 
 40 H       -5.3960    -7.3540    -1.6220 H     1 <1>   0.0800 
 41 H       -6.7350    -8.2130    -0.9300 H     1 <1>   0.0800 
 42 H       -6.0200   -10.0440     0.9700 H     1 <1>   0.1500 
 43 H       -3.4170    -8.6430    -2.1040 H     1 <1>   0.1500 
 44 H       -4.5510   -11.9590     1.2130 H     1 <1>   0.1500 
 45 H       -2.0630   -10.6200    -1.7300 H     1 <1>   0.1500 
@<TRIPOS>BOND
  1   1   2  1   
  2   2   3  ar  
  3   2   4  ar  
  4   3   5  1   
  5   3   6  ar  
  6   4   7  ar  
  7   4  24  1   
  8   5   8  1   
  9   6   9  ar  
 10   6  25  1   
 11   7   9  ar  
 12   7  10  1   
 13   8  26  1   
 14   8  27  1   
 15   8  28  1   
 16   9  29  1   
 17  10  11  1   
 18  10  30  1   
 19  10  31  1   
 20  11  12  1   
 21  11  13  1   
 22  11  32  1   
 23  12  14  1   
 24  12  33  1   
 25  12  34  1   
 26  13  15  1   
 27  13  35  1   
 28  13  36  1   
 29  14  15  1   
 30  14  16  1   
 31  14  37  1   
 32  15  17  1   
 33  15  38  1   
 34  16  39  1   
 35  17  18  1   
 36  17  40  1   
 37  17  41  1   
 38  18  19  ar  
 39  18  20  ar  
 40  19  21  ar  
 41  19  42  1   
 42  20  22  ar  
 43  20  43  1   
 44  21  23  ar  
 45  21  44  1   
 46  22  23  ar  
 47  22  45  1   
@<TRIPOS>SUBSTRUCTURE
  1 ****  11 GROUP 4 **** **** 0

# MOE 2024.06 (io_trps.svl 2023.06)
