@<TRIPOS>MOLECULE
NONAME
32 33 1 0 0 
SMALL
USER_CHARGES


@<TRIPOS>ATOM
  1 F       -1.2050    -0.3140     1.4980 F     1 <1>  -0.1900 
  2 C       -2.1440    -1.0140     0.8990 C.ar  1 <1>   0.1900 
  3 C       -2.7980    -0.5910    -0.2540 C.ar  1 <1>   0.3920 
  4 C       -2.4930    -2.2230     1.4410 C.ar  1 <1>   0.1600 
  5 O       -2.5750     0.5700    -0.9120 O.3   1 <1>  -0.3630 
  6 N       -3.7280    -1.3420    -0.8050 N.ar  1 <1>  -0.6200 
  7 N       -3.4230    -2.9790     0.8970 N.ar  1 <1>  -0.6200 
  8 C       -1.6710     1.5700    -0.4940 C.3   1 <1>   0.0400 
  9 C       -3.9880    -2.4890    -0.2020 C.ar  1 <1>   0.7200 
 10 N       -4.9570    -3.2080    -0.8140 N.pl3 1 <1>  -0.8690 
 11 C       -5.0380    -4.6840    -0.9040 C.3   1 <1>   0.2890 
 12 C       -5.2650    -5.3230     0.4730 C.3   1 <1>   0.0960 
 13 C       -3.7920    -5.2090    -1.6210 C.3   1 <1>  -0.2400 
 14 N       -5.8720    -6.6550     0.3260 N.pl3 1 <1>   0.3140 
 15 N       -5.1380    -7.7760     0.1980 N.2   1 <1>  -0.7070 
 16 C       -7.1910    -6.9310     0.2900 C.2   1 <1>  -0.3020 
 17 C       -6.0070    -8.7340     0.0870 C.2   1 <1>   0.1390 
 18 C       -7.3140    -8.2660     0.1370 C.2   1 <1>  -0.1500 
 19 H       -2.0020    -2.5720     2.3320 H     1 <1>   0.1500 
 20 H       -1.7290     2.3840    -1.1940 H     1 <1>   0.0800 
 21 H       -0.6740     1.1650    -0.4920 H     1 <1>   0.0800 
 22 H       -1.9520     1.9120     0.4860 H     1 <1>   0.0800 
 23 H       -5.2360    -2.7320    -1.6720 H     1 <1>   0.4000 
 24 H       -5.8970    -4.9110    -1.5130 H     1 <1>   0.0800 
 25 H       -5.9290    -4.7110     1.0530 H     1 <1>   0.0800 
 26 H       -4.3350    -5.4290     0.9990 H     1 <1>   0.0800 
 27 H       -2.9120    -5.0400    -1.0260 H     1 <1>   0.0800 
 28 H       -3.6770    -4.7240    -2.5730 H     1 <1>   0.0800 
 29 H       -3.8840    -6.2670    -1.7890 H     1 <1>   0.0800 
 30 H       -7.9530    -6.1780     0.3750 H     1 <1>   0.1500 
 31 H       -5.7340    -9.7700    -0.0290 H     1 <1>   0.1500 
 32 H       -8.2050    -8.8630     0.0670 H     1 <1>   0.1500 
@<TRIPOS>BOND
  1   1   2  1   
  2   2   3  ar  
  3   2   4  ar  
  4   3   5  1   
  5   3   6  ar  
  6   4   7  ar  
  7   4  19  1   
  8   5   8  1   
  9   6   9  ar  
 10   7   9  ar  
 11   8  20  1   
 12   8  21  1   
 13   8  22  1   
 14   9  10  1   
 15  10  11  1   
 16  10  23  1   
 17  11  12  1   
 18  11  13  1   
 19  11  24  1   
 20  12  14  1   
 21  12  25  1   
 22  12  26  1   
 23  13  27  1   
 24  13  28  1   
 25  13  29  1   
 26  14  15  1   
 27  14  16  1   
 28  15  17  2   
 29  16  18  2   
 30  16  30  1   
 31  17  18  1   
 32  17  31  1   
 33  18  32  1   
@<TRIPOS>SUBSTRUCTURE
  1 ****   9 GROUP 4 **** **** 0

# MOE 2024.06 (io_trps.svl 2023.06)
