@<TRIPOS>MOLECULE
NONAME
46 49 1 0 0 
SMALL
USER_CHARGES


@<TRIPOS>ATOM
  1 O        0.4760    -1.6070    -2.0600 O.3   1 <1>  -0.6800 
  2 C        0.0750    -1.9670    -0.7840 C.3   1 <1>   0.1200 
  3 C        1.2130    -1.8270     0.2690 C.3   1 <1>   0.0000 
  4 C        2.5870    -2.4280    -0.1660 C.3   1 <1>   0.4230 
  5 C        1.4000    -0.3230     0.6280 C.3   1 <1>  -0.1600 
  6 C        0.7570    -2.5800     1.5530 C.3   1 <1>  -0.1600 
  7 N        2.5300    -3.9090    -0.5160 N.4   1 <1>  -0.9590 
  8 C        3.3700    -1.5500    -1.1730 C.3   1 <1>   0.2090 
  9 C        2.1870     0.4900    -0.4090 C.3   1 <1>   0.2090 
 10 C        1.3000    -4.0230     1.6580 C.3   1 <1>  -0.1600 
 11 C        1.5350    -4.6780     0.2950 C.3   1 <1>   0.3430 
 12 C        2.3210    -4.1730    -1.9760 C.3   1 <1>   0.2630 
 13 N        3.4960    -0.1710    -0.6350 N.pl3 1 <1>  -0.8380 
 14 C        4.5650     0.1560     0.1750 C.ar  1 <1>   0.4100 
 15 N        5.0860    -0.8010     0.9140 N.ar  1 <1>  -0.6200 
 16 C        5.0690     1.4640     0.2290 C.ar  1 <1>   0.0000 
 17 C        6.0990    -0.4370     1.7170 C.ar  1 <1>   0.4700 
 18 C        6.1060     1.6940     1.1040 C.ar  1 <1>   0.1050 
 19 C        4.8080     2.7010    -0.4060 C.2   1 <1>  -0.1500 
 20 N        6.6440     0.7430     1.8710 N.ar  1 <1>  -0.5670 
 21 N        6.4690     3.0040     1.0360 N.pl3 1 <1>   0.0330 
 22 C        5.6690     3.6150     0.1060 C.2   1 <1>  -0.3020 
 23 H       -0.3000    -1.3970    -2.6230 H     1 <1>   0.4000 
 24 H       -0.7560    -1.3380    -0.5110 H     1 <1>   0.0800 
 25 H       -0.2840    -2.9790    -0.8390 H     1 <1>   0.0800 
 26 H        3.1860    -2.3680     0.7270 H     1 <1>   0.0800 
 27 H        1.9460    -0.2330     1.5520 H     1 <1>   0.0800 
 28 H        0.4450     0.1450     0.7860 H     1 <1>   0.0800 
 29 H        1.0850    -2.0600     2.4370 H     1 <1>   0.0800 
 30 H       -0.3190    -2.5970     1.6040 H     1 <1>   0.0800 
 31 H        3.4620    -4.2660    -0.2670 H     1 <1>   0.4500 
 32 H        2.8850    -1.5020    -2.1290 H     1 <1>   0.0800 
 33 H        4.3550    -1.9580    -1.3170 H     1 <1>   0.0800 
 34 H        2.3360     1.4910    -0.0410 H     1 <1>   0.0800 
 35 H        1.6500     0.5560    -1.3400 H     1 <1>   0.0800 
 36 H        0.6050    -4.6200     2.2240 H     1 <1>   0.0800 
 37 H        2.2280    -4.0230     2.2040 H     1 <1>   0.0800 
 38 H        0.5950    -4.7190    -0.2300 H     1 <1>   0.0800 
 39 H        1.8800    -5.6910     0.4320 H     1 <1>   0.0800 
 40 H        1.3710    -3.7790    -2.2970 H     1 <1>   0.0800 
 41 H        2.3380    -5.2320    -2.1710 H     1 <1>   0.0800 
 42 H        3.0970    -3.7070    -2.5600 H     1 <1>   0.0800 
 43 H        6.5160    -1.2300     2.3160 H     1 <1>   0.1500 
 44 H        4.0550     2.8420    -1.1620 H     1 <1>   0.1500 
 45 H        7.2220     3.4200     1.5900 H     1 <1>   0.2700 
 46 H        5.7670     4.6590    -0.1350 H     1 <1>   0.1500 
@<TRIPOS>BOND
  1   1   2  1   
  2   1  23  1   
  3   2   3  1   
  4   2  24  1   
  5   2  25  1   
  6   3   4  1   
  7   3   5  1   
  8   3   6  1   
  9   4   7  1   
 10   4   8  1   
 11   4  26  1   
 12   5   9  1   
 13   5  27  1   
 14   5  28  1   
 15   6  10  1   
 16   6  29  1   
 17   6  30  1   
 18   7  11  1   
 19   7  12  1   
 20   7  31  1   
 21   8  13  1   
 22   8  32  1   
 23   8  33  1   
 24   9  13  1   
 25   9  34  1   
 26   9  35  1   
 27  10  11  1   
 28  10  36  1   
 29  10  37  1   
 30  11  38  1   
 31  11  39  1   
 32  12  40  1   
 33  12  41  1   
 34  12  42  1   
 35  13  14  1   
 36  14  15  ar  
 37  14  16  ar  
 38  15  17  ar  
 39  16  18  ar  
 40  16  19  1   
 41  17  20  ar  
 42  17  43  1   
 43  18  20  ar  
 44  18  21  1   
 45  19  22  2   
 46  19  44  1   
 47  21  22  1   
 48  21  45  1   
 49  22  46  1   
@<TRIPOS>SUBSTRUCTURE
  1 ****  13 GROUP 4 **** **** 0

# MOE 2024.06 (io_trps.svl 2023.06)
