@<TRIPOS>MOLECULE
NONAME
42 45 1 0 0 
SMALL
USER_CHARGES


@<TRIPOS>ATOM
  1 O        0.1110     0.7290     0.2480 O.2   1 <1>  -0.5700 
  2 C       -0.4480     1.8130     0.3090 C.2   1 <1>   0.7160 
  3 N       -1.8360     1.8060     0.3360 N.am  1 <1>  -0.6600 
  4 C        0.3840     3.0130     0.3560 C.2   1 <1>   0.2030 
  5 C       -2.6990     2.9710     0.7060 C.3   1 <1>   0.1400 
  6 C       -2.5860     0.5380     0.0720 C.3   1 <1>   0.1400 
  7 N        0.0710     4.2420     0.0530 N.2   1 <1>  -0.4100 
  8 C        1.7210     3.0020     0.7300 C.2   1 <1>  -0.1500 
  9 C       -3.6900     3.3100    -0.4310 C.3   1 <1>   0.1440 
 10 C       -4.0800     0.7860    -0.2080 C.3   1 <1>  -0.1600 
 11 O        1.1020     5.0350     0.2120 O.3   1 <1>  -0.0190 
 12 C        2.0960     4.2780     0.6180 C.2   1 <1>  -0.0400 
 13 C       -4.7470     4.2280     0.1620 C.ar  1 <1>   0.1660 
 14 C       -4.2840     2.0320    -1.0840 C.3   1 <1>  -0.1600 
 15 C       -3.0430     4.2290    -1.5000 C.3   1 <1>  -0.1600 
 16 C        3.4410     4.9220     0.8820 C.3   1 <1>  -0.0600 
 17 N       -5.7470     3.8530     0.9250 N.ar  1 <1>  -0.6200 
 18 C       -4.5220     5.5300    -0.1800 C.ar  1 <1>  -0.1440 
 19 C       -3.2990     5.6760    -1.0510 C.3   1 <1>  -0.0170 
 20 C       -6.5170     4.8520     1.3310 C.ar  1 <1>   0.7200 
 21 C       -5.3950     6.4780     0.2960 C.ar  1 <1>   0.1600 
 22 N       -6.4130     6.1450     1.0570 N.ar  1 <1>  -0.6200 
 23 N       -7.5510     4.5070     2.0990 N.pl3 1 <1>  -0.9000 
 24 H       -2.1280     3.8360     0.9760 H     1 <1>   0.0800 
 25 H       -3.2620     2.6970     1.5820 H     1 <1>   0.0800 
 26 H       -2.4760    -0.1230     0.9150 H     1 <1>   0.0800 
 27 H       -2.1460     0.0550    -0.7850 H     1 <1>   0.0800 
 28 H        2.2790     2.1330     1.0290 H     1 <1>   0.1500 
 29 H       -4.6040     0.9100     0.7240 H     1 <1>   0.0800 
 30 H       -4.4960    -0.0780    -0.6950 H     1 <1>   0.0800 
 31 H       -3.7950     1.8470    -2.0240 H     1 <1>   0.0800 
 32 H       -5.3320     2.1740    -1.2860 H     1 <1>   0.0800 
 33 H       -3.5460     4.0890    -2.4410 H     1 <1>   0.0800 
 34 H       -1.9980     4.0230    -1.6440 H     1 <1>   0.0800 
 35 H        4.1520     4.1830     1.2040 H     1 <1>   0.0800 
 36 H        3.3430     5.6700     1.6480 H     1 <1>   0.0800 
 37 H        3.8040     5.3870    -0.0170 H     1 <1>   0.0800 
 38 H       -3.4730     6.3280    -1.8890 H     1 <1>   0.0800 
 39 H       -2.4730     6.0420    -0.4640 H     1 <1>   0.0800 
 40 H       -5.2570     7.5170     0.0500 H     1 <1>   0.1500 
 41 H       -8.2970     5.1950     2.1470 H     1 <1>   0.4000 
 42 H       -7.8260     3.5310     2.0380 H     1 <1>   0.4000 
@<TRIPOS>BOND
  1   1   2  2   
  2   2   3  am  
  3   2   4  1   
  4   3   5  1   
  5   3   6  1   
  6   4   7  2   
  7   4   8  1   
  8   5   9  1   
  9   5  24  1   
 10   5  25  1   
 11   6  10  1   
 12   6  26  1   
 13   6  27  1   
 14   7  11  1   
 15   8  12  2   
 16   8  28  1   
 17   9  13  1   
 18   9  14  1   
 19   9  15  1   
 20  10  14  1   
 21  10  29  1   
 22  10  30  1   
 23  11  12  1   
 24  12  16  1   
 25  13  17  ar  
 26  13  18  ar  
 27  14  31  1   
 28  14  32  1   
 29  15  19  1   
 30  15  33  1   
 31  15  34  1   
 32  16  35  1   
 33  16  36  1   
 34  16  37  1   
 35  17  20  ar  
 36  18  19  1   
 37  18  21  ar  
 38  19  38  1   
 39  19  39  1   
 40  20  22  ar  
 41  20  23  1   
 42  21  22  ar  
 43  21  40  1   
 44  23  41  1   
 45  23  42  1   
@<TRIPOS>SUBSTRUCTURE
  1 ****   5 GROUP 4 **** **** 0

# MOE 2024.06 (io_trps.svl 2023.06)
