@<TRIPOS>MOLECULE
NONAME
55 57 1 0 0 
SMALL
USER_CHARGES


@<TRIPOS>ATOM
  1 O       -0.1120    -0.1360     0.0410 O.2   1 <1>  -0.5700 
  2 C        0.9510    -0.6310    -0.2790 C.2   1 <1>   0.7150 
  3 N        2.0570     0.1550    -0.4620 N.am  1 <1>  -0.4940 
  4 C        1.1070    -2.0460    -0.4560 C.2   1 <1>  -0.2370 
  5 C        2.3390     1.5190    -0.2250 C.2   1 <1>  -0.0880 
  6 N        0.1500    -2.9840    -0.2190 N.pl3 1 <1>   0.3140 
  7 C        2.1990    -2.7530    -0.8650 C.2   1 <1>  -0.1500 
  8 N        1.5060     2.5950    -0.2810 N.pl3 1 <1>   0.3140 
  9 C        3.5760     1.9970     0.0870 C.2   1 <1>  -0.0540 
 10 N        0.5930    -4.2280    -0.4510 N.2   1 <1>  -0.7070 
 11 C       -1.2320    -2.7810     0.2480 C.3   1 <1>   0.0160 
 12 C        1.8240    -4.0820    -0.8340 C.2   1 <1>   0.1080 
 13 N        2.1690     3.7400    -0.0080 N.2   1 <1>  -0.7070 
 14 C        0.0890     2.6580    -0.6620 C.3   1 <1>   0.0160 
 15 C        4.7940     1.2410     0.2420 C.ar  1 <1>   0.0540 
 16 C        3.3880     3.3760     0.2140 C.2   1 <1>   0.1080 
 17 C        2.7120    -5.2610    -1.1970 C.3   1 <1>   0.0210 
 18 C        4.8820     0.2130     1.1770 C.ar  1 <1>  -0.1500 
 19 C        5.9090     1.5020    -0.5490 C.ar  1 <1>  -0.1500 
 20 C        4.4630     4.3760     0.5770 C.3   1 <1>  -0.0590 
 21 C        4.0770    -5.2420    -0.4790 C.3   1 <1>  -0.0800 
 22 C        6.0390    -0.5310     1.3110 C.ar  1 <1>  -0.1500 
 23 C        7.0720     0.7640    -0.4190 C.ar  1 <1>  -0.1500 
 24 C        4.9370    -6.4260    -0.9370 C.3   1 <1>  -0.2400 
 25 C        3.9170    -5.2810     1.0480 C.3   1 <1>  -0.2400 
 26 C        7.1420    -0.2640     0.5170 C.ar  1 <1>   0.0830 
 27 O        8.2390    -1.0380     0.7110 O.3   1 <1>  -0.3630 
 28 C        9.4370    -0.8000     0.0070 C.3   1 <1>   0.0400 
 29 H        2.8920    -0.4010    -0.6410 H     1 <1>   0.3700 
 30 H        3.1700    -2.3940    -1.1560 H     1 <1>   0.1500 
 31 H       -1.7610    -2.1800    -0.4670 H     1 <1>   0.0800 
 32 H       -1.2140    -2.2850     1.2000 H     1 <1>   0.0800 
 33 H       -1.7170    -3.7340     0.3470 H     1 <1>   0.0800 
 34 H       -0.0950     1.9720    -1.4670 H     1 <1>   0.0800 
 35 H       -0.1470     3.6560    -0.9790 H     1 <1>   0.0800 
 36 H       -0.5130     2.3990     0.1880 H     1 <1>   0.0800 
 37 H        2.8610    -5.2520    -2.2610 H     1 <1>   0.0800 
 38 H        2.1910    -6.1700    -0.9500 H     1 <1>   0.0800 
 39 H        4.0330     0.0030     1.8050 H     1 <1>   0.1500 
 40 H        5.8550     2.2910    -1.2790 H     1 <1>   0.1500 
 41 H        5.2010     3.9190     1.2110 H     1 <1>   0.0800 
 42 H        4.0230     5.2050     1.1000 H     1 <1>   0.0800 
 43 H        4.9350     4.7390    -0.3170 H     1 <1>   0.0800 
 44 H        4.5940    -4.3340    -0.7430 H     1 <1>   0.0800 
 45 H        6.0970    -1.3230     2.0360 H     1 <1>   0.1500 
 46 H        7.9070     0.9990    -1.0510 H     1 <1>   0.1500 
 47 H        4.4630    -7.3590    -0.6850 H     1 <1>   0.0800 
 48 H        5.9020    -6.3930    -0.4620 H     1 <1>   0.0800 
 49 H        5.0860    -6.3930    -2.0020 H     1 <1>   0.0800 
 50 H        3.3870    -6.1680     1.3490 H     1 <1>   0.0800 
 51 H        3.3660    -4.4240     1.3940 H     1 <1>   0.0800 
 52 H        4.8800    -5.2760     1.5270 H     1 <1>   0.0800 
 53 H       10.1690    -1.5120     0.3430 H     1 <1>   0.0800 
 54 H        9.7750     0.1990     0.2220 H     1 <1>   0.0800 
 55 H        9.2570    -0.9300    -1.0450 H     1 <1>   0.0800 
@<TRIPOS>BOND
  1   1   2  2   
  2   2   3  am  
  3   2   4  1   
  4   3   5  1   
  5   3  29  1   
  6   4   6  1   
  7   4   7  2   
  8   5   8  1   
  9   5   9  2   
 10   6  10  1   
 11   6  11  1   
 12   7  12  1   
 13   7  30  1   
 14   8  13  1   
 15   8  14  1   
 16   9  15  1   
 17   9  16  1   
 18  10  12  2   
 19  11  31  1   
 20  11  32  1   
 21  11  33  1   
 22  12  17  1   
 23  13  16  2   
 24  14  34  1   
 25  14  35  1   
 26  14  36  1   
 27  15  18  ar  
 28  15  19  ar  
 29  16  20  1   
 30  17  21  1   
 31  17  37  1   
 32  17  38  1   
 33  18  22  ar  
 34  18  39  1   
 35  19  23  ar  
 36  19  40  1   
 37  20  41  1   
 38  20  42  1   
 39  20  43  1   
 40  21  24  1   
 41  21  25  1   
 42  21  44  1   
 43  22  26  ar  
 44  22  45  1   
 45  23  26  ar  
 46  23  46  1   
 47  24  47  1   
 48  24  48  1   
 49  24  49  1   
 50  25  50  1   
 51  25  51  1   
 52  25  52  1   
 53  26  27  1   
 54  27  28  1   
 55  28  53  1   
 56  28  54  1   
 57  28  55  1   
@<TRIPOS>SUBSTRUCTURE
  1 ****   3 GROUP 4 **** **** 0

# MOE 2024.06 (io_trps.svl 2023.06)
