@<TRIPOS>MOLECULE
NONAME
62 65 1 0 0 
SMALL
USER_CHARGES


@<TRIPOS>ATOM
  1 O       -2.9070     1.9140     2.6580 O.2   1 <1>  -0.5700 
  2 C       -2.4200     2.6140     1.8010 C.2   1 <1>   0.5690 
  3 N       -2.5760     2.3410     0.4680 N.am  1 <1>  -0.6600 
  4 C       -1.6350     3.8320     2.2540 C.3   1 <1>  -0.0990 
  5 C       -2.0470     3.2050    -0.6180 C.3   1 <1>   0.1400 
  6 C       -3.3050     1.1150     0.0310 C.3   1 <1>   0.1400 
  7 C       -2.3160     5.1590     1.8830 C.3   1 <1>  -0.1600 
  8 C       -2.7190     4.5820    -0.6030 C.3   1 <1>  -0.1600 
  9 C       -4.8060     1.4060    -0.0150 C.3   1 <1>  -0.0990 
 10 C       -2.1130     5.5610     0.4160 C.3   1 <1>  -0.1600 
 11 C       -5.6200     0.2460    -0.5630 C.2   1 <1>   0.5690 
 12 O       -5.0330    -0.6590    -1.1090 O.2   1 <1>  -0.5700 
 13 N       -6.9890     0.2580    -0.4600 N.am  1 <1>  -0.6600 
 14 C       -7.8040     1.3780     0.1140 C.3   1 <1>   0.1400 
 15 C       -7.8140    -0.8860    -0.9450 C.3   1 <1>   0.1400 
 16 C       -8.8050     1.9180    -0.9250 C.3   1 <1>   0.1430 
 17 C       -8.8300    -0.3980    -1.9850 C.3   1 <1>  -0.1600 
 18 C       -9.6160     3.0190    -0.2700 C.ar  1 <1>   0.1670 
 19 C       -9.6860     0.7630    -1.4480 C.3   1 <1>  -0.1600 
 20 C       -8.0900     2.6720    -2.0800 C.3   1 <1>  -0.1600 
 21 N      -10.5410     2.8380     0.6390 N.ar  1 <1>  -0.6200 
 22 C       -9.2520     4.2500    -0.7230 C.ar  1 <1>  -0.1440 
 23 C       -8.1450     4.1720    -1.7440 C.3   1 <1>  -0.0170 
 24 C      -11.1220     3.9520     1.0910 C.ar  1 <1>   0.7200 
 25 C       -9.9050     5.3390    -0.2030 C.ar  1 <1>   0.1600 
 26 N      -10.8430     5.2010     0.7040 N.ar  1 <1>  -0.6200 
 27 N      -12.1010     3.7970     2.0530 N.pl3 1 <1>  -0.8380 
 28 C      -12.6280     4.9480     2.8370 C.3   1 <1>   0.1290 
 29 C      -12.7420     2.4810     2.3270 C.3   1 <1>   0.1290 
 30 H       -0.6400     3.7880     1.8530 H     1 <1>   0.0800 
 31 H       -1.5480     3.7820     3.3250 H     1 <1>   0.0800 
 32 H       -2.2380     2.7380    -1.5690 H     1 <1>   0.0800 
 33 H       -0.9800     3.3050    -0.5160 H     1 <1>   0.0800 
 34 H       -3.1170     0.3130     0.7260 H     1 <1>   0.0800 
 35 H       -2.9510     0.7980    -0.9350 H     1 <1>   0.0800 
 36 H       -1.9020     5.9360     2.5020 H     1 <1>   0.0800 
 37 H       -3.3680     5.0960     2.1060 H     1 <1>   0.0800 
 38 H       -3.7760     4.4730    -0.4370 H     1 <1>   0.0800 
 39 H       -2.5930     5.0160    -1.5800 H     1 <1>   0.0800 
 40 H       -4.9850     2.2620    -0.6340 H     1 <1>   0.0800 
 41 H       -5.1300     1.6140     0.9870 H     1 <1>   0.0800 
 42 H       -1.0600     5.6740     0.2200 H     1 <1>   0.0800 
 43 H       -2.5680     6.5260     0.2680 H     1 <1>   0.0800 
 44 H       -7.1860     2.1860     0.4560 H     1 <1>   0.0800 
 45 H       -8.3490     1.0060     0.9650 H     1 <1>   0.0800 
 46 H       -8.3300    -1.3210    -0.1060 H     1 <1>   0.0800 
 47 H       -7.1910    -1.6490    -1.3800 H     1 <1>   0.0800 
 48 H       -9.4690    -1.2180    -2.2610 H     1 <1>   0.0800 
 49 H       -8.2980    -0.0910    -2.8690 H     1 <1>   0.0800 
 50 H      -10.3520     1.1200    -2.2130 H     1 <1>   0.0800 
 51 H      -10.2940     0.3970    -0.6380 H     1 <1>   0.0800 
 52 H       -8.6330     2.5190    -2.9960 H     1 <1>   0.0800 
 53 H       -7.0800     2.3340    -2.2330 H     1 <1>   0.0800 
 54 H       -8.3640     4.7650    -2.6150 H     1 <1>   0.0800 
 55 H       -7.2200     4.4980    -1.3010 H     1 <1>   0.0800 
 56 H       -9.6550     6.3330    -0.5310 H     1 <1>   0.1500 
 57 H      -11.8690     5.7030     2.9560 H     1 <1>   0.0800 
 58 H      -12.9330     4.6210     3.8150 H     1 <1>   0.0800 
 59 H      -13.4700     5.3780     2.3240 H     1 <1>   0.0800 
 60 H      -12.7160     1.8580     1.4500 H     1 <1>   0.0800 
 61 H      -13.7700     2.6220     2.6110 H     1 <1>   0.0800 
 62 H      -12.2160     1.9860     3.1240 H     1 <1>   0.0800 
@<TRIPOS>BOND
  1   1   2  2   
  2   2   3  am  
  3   2   4  1   
  4   3   5  1   
  5   3   6  1   
  6   4   7  1   
  7   4  30  1   
  8   4  31  1   
  9   5   8  1   
 10   5  32  1   
 11   5  33  1   
 12   6   9  1   
 13   6  34  1   
 14   6  35  1   
 15   7  10  1   
 16   7  36  1   
 17   7  37  1   
 18   8  10  1   
 19   8  38  1   
 20   8  39  1   
 21   9  11  1   
 22   9  40  1   
 23   9  41  1   
 24  10  42  1   
 25  10  43  1   
 26  11  12  2   
 27  11  13  am  
 28  13  14  1   
 29  13  15  1   
 30  14  16  1   
 31  14  44  1   
 32  14  45  1   
 33  15  17  1   
 34  15  46  1   
 35  15  47  1   
 36  16  18  1   
 37  16  19  1   
 38  16  20  1   
 39  17  19  1   
 40  17  48  1   
 41  17  49  1   
 42  18  21  ar  
 43  18  22  ar  
 44  19  50  1   
 45  19  51  1   
 46  20  23  1   
 47  20  52  1   
 48  20  53  1   
 49  21  24  ar  
 50  22  23  1   
 51  22  25  ar  
 52  23  54  1   
 53  23  55  1   
 54  24  26  ar  
 55  24  27  1   
 56  25  26  ar  
 57  25  56  1   
 58  27  28  1   
 59  27  29  1   
 60  28  57  1   
 61  28  58  1   
 62  28  59  1   
 63  29  60  1   
 64  29  61  1   
 65  29  62  1   
@<TRIPOS>SUBSTRUCTURE
  1 ****  14 GROUP 4 **** **** 0

# MOE 2024.06 (io_trps.svl 2023.06)
