@<TRIPOS>MOLECULE
NONAME
39 41 1 0 0 
SMALL
USER_CHARGES


@<TRIPOS>ATOM
  1 S       -0.9390    -0.0230    -1.5710 S.3   1 <1>  -0.0800 
  2 C       -0.6010    -1.7360    -1.4120 C.2   1 <1>  -0.1100 
  3 C       -2.1220    -0.0920    -0.2780 C.2   1 <1>  -0.1100 
  4 C       -1.3610    -2.2870    -0.4450 C.2   1 <1>  -0.1810 
  5 C       -2.2240    -1.3430     0.2070 C.2   1 <1>  -0.1500 
  6 C       -1.3430    -3.7460    -0.0370 C.3   1 <1>   0.5240 
  7 N       -2.2030    -4.5110    -0.9800 N.4   1 <1>  -0.9590 
  8 C       -3.6490    -4.1700    -0.8040 C.3   1 <1>   0.3430 
  9 C       -2.0790    -5.9760    -0.7100 C.3   1 <1>   0.3430 
 10 C       -4.1980    -5.2030     0.1830 C.3   1 <1>   0.2000 
 11 C       -3.4480    -6.4720    -0.2230 C.3   1 <1>  -0.0800 
 12 O       -3.8300    -4.8170     1.4710 O.3   1 <1>  -0.6800 
 13 C       -3.3310    -7.5670     0.8550 C.3   1 <1>   0.0210 
 14 C       -2.5960    -8.7820     0.3230 C.2   1 <1>   0.1080 
 15 N       -1.3790    -8.7320    -0.1270 N.2   1 <1>  -0.7070 
 16 C       -3.1280   -10.0650     0.2600 C.2   1 <1>  -0.1500 
 17 N       -1.0950   -10.0040    -0.4800 N.pl3 1 <1>   0.3000 
 18 C       -2.1420   -10.8250    -0.2600 C.2   1 <1>  -0.3320 
 19 C       -2.1340   -12.3140    -0.5590 C.3   1 <1>  -0.0600 
 20 H        0.1450    -2.1410    -2.0760 H     1 <1>   0.1500 
 21 H       -2.6160     0.8270    -0.0130 H     1 <1>   0.1500 
 22 H       -2.8770    -1.6340     1.0130 H     1 <1>   0.1500 
 23 H       -1.6940    -3.8560     0.9760 H     1 <1>   0.0800 
 24 H       -0.3310    -4.1140    -0.0890 H     1 <1>   0.0800 
 25 H       -1.8960    -4.2750    -1.9310 H     1 <1>   0.4500 
 26 H       -3.7990    -3.1650    -0.4460 H     1 <1>   0.0800 
 27 H       -4.1590    -4.2840    -1.7460 H     1 <1>   0.0800 
 28 H       -1.7860    -6.5170    -1.5960 H     1 <1>   0.0800 
 29 H       -1.3400    -6.1580     0.0540 H     1 <1>   0.0800 
 30 H       -5.2700    -5.2930     0.1350 H     1 <1>   0.0800 
 31 H       -3.9490    -6.8990    -1.0740 H     1 <1>   0.0800 
 32 H       -4.3290    -5.3210     2.1490 H     1 <1>   0.4000 
 33 H       -4.3120    -7.8640     1.1810 H     1 <1>   0.0800 
 34 H       -2.7900    -7.2040     1.7110 H     1 <1>   0.0800 
 35 H       -4.1130   -10.3680     0.5690 H     1 <1>   0.1500 
 36 H       -0.1830   -10.2850    -0.8610 H     1 <1>   0.2700 
 37 H       -3.0820   -12.7500    -0.2950 H     1 <1>   0.0800 
 38 H       -1.3640   -12.8040     0.0100 H     1 <1>   0.0800 
 39 H       -1.9600   -12.4840    -1.6060 H     1 <1>   0.0800 
@<TRIPOS>BOND
  1   1   2  1   
  2   1   3  1   
  3   2   4  2   
  4   2  20  1   
  5   3   5  2   
  6   3  21  1   
  7   4   5  1   
  8   4   6  1   
  9   5  22  1   
 10   6   7  1   
 11   6  23  1   
 12   6  24  1   
 13   7   8  1   
 14   7   9  1   
 15   7  25  1   
 16   8  10  1   
 17   8  26  1   
 18   8  27  1   
 19   9  11  1   
 20   9  28  1   
 21   9  29  1   
 22  10  11  1   
 23  10  12  1   
 24  10  30  1   
 25  11  13  1   
 26  11  31  1   
 27  12  32  1   
 28  13  14  1   
 29  13  33  1   
 30  13  34  1   
 31  14  15  2   
 32  14  16  1   
 33  15  17  1   
 34  16  18  2   
 35  16  35  1   
 36  17  18  1   
 37  17  36  1   
 38  18  19  1   
 39  19  37  1   
 40  19  38  1   
 41  19  39  1   
@<TRIPOS>SUBSTRUCTURE
  1 ****   9 GROUP 4 **** **** 0

# MOE 2024.06 (io_trps.svl 2023.06)
