@<TRIPOS>MOLECULE
NONAME
52 55 1 0 0 
SMALL
USER_CHARGES


@<TRIPOS>ATOM
  1 O       -2.3270     0.0300     2.0830 O.2   1 <1>  -0.5700 
  2 C       -2.0250     1.0930     1.6010 C.2   1 <1>   0.4950 
  3 C       -2.8630     2.0250     0.9340 C.2   1 <1>  -0.1240 
  4 C       -0.6140     1.6330     1.6270 C.3   1 <1>  -0.0990 
  5 C       -2.1820     3.1110     0.5190 C.2   1 <1>  -0.1670 
  6 C       -4.3550     1.7500     0.7470 C.3   1 <1>   0.0390 
  7 C       -0.7110     2.9810     0.8830 C.3   1 <1>  -0.0220 
  8 C       -2.6350     4.2910    -0.1660 C.ar  1 <1>   0.0280 
  9 C       -4.6400     0.6200    -0.2300 C.2   1 <1>   0.5690 
 10 C       -2.1070     4.6550    -1.4020 C.ar  1 <1>  -0.1500 
 11 C       -3.6130     5.1110     0.3910 C.ar  1 <1>  -0.1500 
 12 O       -5.3410     0.8320    -1.1890 O.2   1 <1>  -0.5700 
 13 N       -4.1250    -0.6100     0.0110 N.am  1 <1>  -0.7300 
 14 C       -2.5400     5.7920    -2.0590 C.ar  1 <1>  -0.1500 
 15 C       -4.0520     6.2480    -0.2610 C.ar  1 <1>  -0.1500 
 16 C       -4.2880    -1.7880    -0.8660 C.3   1 <1>   0.2200 
 17 C       -3.5160     6.5910    -1.4900 C.ar  1 <1>  -0.1500 
 18 C       -5.2410    -2.7920    -0.2490 C.3   1 <1>  -0.0800 
 19 C       -2.9930    -2.5820    -1.0340 C.3   1 <1>   0.1200 
 20 C       -4.6960    -4.1110    -0.7800 C.3   1 <1>   0.1200 
 21 C       -6.7100    -2.5240    -0.6090 C.3   1 <1>  -0.0170 
 22 O       -3.3180    -3.9340    -0.8830 O.3   1 <1>  -0.5600 
 23 C       -7.6170    -3.6160    -0.0620 C.ar  1 <1>  -0.1430 
 24 C       -8.1690    -4.5860    -0.8740 C.ar  1 <1>  -0.1500 
 25 C       -7.9300    -3.6940     1.2790 C.ar  1 <1>  -0.1500 
 26 C       -8.9830    -5.5610    -0.3200 C.ar  1 <1>   0.1600 
 27 C       -8.7540    -4.7110     1.7330 C.ar  1 <1>   0.1600 
 28 N       -9.2880    -5.6470     0.9650 N.ar  1 <1>  -0.6200 
 29 H       -0.2960     1.7700     2.6440 H     1 <1>   0.0800 
 30 H        0.0480     0.9540     1.1230 H     1 <1>   0.0800 
 31 H       -4.8470     2.6330     0.3820 H     1 <1>   0.0800 
 32 H       -4.7950     1.5010     1.6940 H     1 <1>   0.0800 
 33 H       -0.0990     2.9730    -0.0020 H     1 <1>   0.0800 
 34 H       -0.4100     3.7950     1.5200 H     1 <1>   0.0800 
 35 H       -1.3550     4.0370    -1.8580 H     1 <1>   0.1500 
 36 H       -4.0300     4.8550     1.3480 H     1 <1>   0.1500 
 37 H       -3.5340    -0.7450     0.8460 H     1 <1>   0.3700 
 38 H       -2.1230     6.0560    -3.0160 H     1 <1>   0.1500 
 39 H       -4.8100     6.8680     0.1850 H     1 <1>   0.1500 
 40 H       -4.6340    -1.4820    -1.8390 H     1 <1>   0.0800 
 41 H       -3.8560     7.4750    -2.0000 H     1 <1>   0.1500 
 42 H       -5.1210    -2.7990     0.8200 H     1 <1>   0.0800 
 43 H       -2.2710    -2.3320    -0.2770 H     1 <1>   0.0800 
 44 H       -2.5730    -2.4400    -2.0140 H     1 <1>   0.0800 
 45 H       -5.0750    -4.3240    -1.7650 H     1 <1>   0.0800 
 46 H       -4.9010    -4.9360    -0.1200 H     1 <1>   0.0800 
 47 H       -6.8210    -2.4610    -1.6770 H     1 <1>   0.0800 
 48 H       -7.0090    -1.5750    -0.1990 H     1 <1>   0.0800 
 49 H       -7.9770    -4.5950    -1.9310 H     1 <1>   0.1500 
 50 H       -7.5410    -2.9740     1.9750 H     1 <1>   0.1500 
 51 H       -9.4060    -6.3090    -0.9680 H     1 <1>   0.1500 
 52 H       -8.9870    -4.7550     2.7830 H     1 <1>   0.1500 
@<TRIPOS>BOND
  1   1   2  2   
  2   2   3  1   
  3   2   4  1   
  4   3   5  2   
  5   3   6  1   
  6   4   7  1   
  7   4  29  1   
  8   4  30  1   
  9   5   7  1   
 10   5   8  1   
 11   6   9  1   
 12   6  31  1   
 13   6  32  1   
 14   7  33  1   
 15   7  34  1   
 16   8  10  ar  
 17   8  11  ar  
 18   9  12  2   
 19   9  13  am  
 20  10  14  ar  
 21  10  35  1   
 22  11  15  ar  
 23  11  36  1   
 24  13  16  1   
 25  13  37  1   
 26  14  17  ar  
 27  14  38  1   
 28  15  17  ar  
 29  15  39  1   
 30  16  18  1   
 31  16  19  1   
 32  16  40  1   
 33  17  41  1   
 34  18  20  1   
 35  18  21  1   
 36  18  42  1   
 37  19  22  1   
 38  19  43  1   
 39  19  44  1   
 40  20  22  1   
 41  20  45  1   
 42  20  46  1   
 43  21  23  1   
 44  21  47  1   
 45  21  48  1   
 46  23  24  ar  
 47  23  25  ar  
 48  24  26  ar  
 49  24  49  1   
 50  25  27  ar  
 51  25  50  1   
 52  26  28  ar  
 53  26  51  1   
 54  27  28  ar  
 55  27  52  1   
@<TRIPOS>SUBSTRUCTURE
  1 ****   9 GROUP 4 **** **** 0

# MOE 2024.06 (io_trps.svl 2023.06)
