@<TRIPOS>MOLECULE
NONAME
37 38 1 0 0 
SMALL
USER_CHARGES


@<TRIPOS>ATOM
  1 F        0.7550     0.2330     1.5750 F     1 <1>  -0.1900 
  2 C        1.5830    -0.7280     1.2690 C.ar  1 <1>   0.1900 
  3 C        1.1900    -1.6700     0.3400 C.ar  1 <1>  -0.1500 
  4 C        2.8160    -0.7710     1.8840 C.ar  1 <1>  -0.1500 
  5 C        2.0580    -2.7050     0.0160 C.ar  1 <1>  -0.1440 
  6 C        3.6830    -1.7960     1.5490 C.ar  1 <1>  -0.1500 
  7 C        3.3160    -2.7620     0.6190 C.ar  1 <1>  -0.1430 
  8 C        1.6030    -3.7520    -0.9890 C.3   1 <1>   0.4870 
  9 C        4.3230    -3.8570     0.2840 C.3   1 <1>  -0.0960 
 10 N        0.4660    -4.5130    -0.4170 N.4   1 <1>  -0.9590 
 11 C        0.8550    -5.1900     0.8840 C.3   1 <1>   0.3430 
 12 C       -0.1040    -5.4770    -1.4010 C.3   1 <1>   0.3430 
 13 C        0.0630    -6.4770     1.1830 C.3   1 <1>   0.2000 
 14 C       -1.4190    -6.0420    -0.8570 C.3   1 <1>  -0.1600 
 15 O        0.6820    -7.5280     0.5260 O.3   1 <1>  -0.6800 
 16 C       -1.3730    -6.3620     0.6600 C.3   1 <1>  -0.1860 
 17 C       -2.1420    -7.6170     1.0040 C.2   1 <1>   0.9060 
 18 O       -3.2040    -7.5010     1.6110 O.co2 1 <1>  -0.9000 
 19 O       -1.6500    -8.7010     0.6700 O.co2 1 <1>  -0.9000 
 20 H        0.2180    -1.5730    -0.1100 H     1 <1>   0.1500 
 21 H        3.0900    -0.0190     2.6030 H     1 <1>   0.1500 
 22 H        4.6510    -1.8300     2.0210 H     1 <1>   0.1500 
 23 H        2.4110    -4.4250    -1.2220 H     1 <1>   0.0800 
 24 H        1.2990    -3.2620    -1.8990 H     1 <1>   0.0800 
 25 H        5.2380    -3.7180     0.8330 H     1 <1>   0.0800 
 26 H        4.5650    -3.8330    -0.7640 H     1 <1>   0.0800 
 27 H        3.9340    -4.8260     0.5360 H     1 <1>   0.0800 
 28 H       -0.2820    -3.8520    -0.1850 H     1 <1>   0.4500 
 29 H        1.8990    -5.4470     0.8750 H     1 <1>   0.0800 
 30 H        0.6980    -4.4950     1.6930 H     1 <1>   0.0800 
 31 H       -0.2800    -5.0010    -2.3520 H     1 <1>   0.0800 
 32 H        0.5910    -6.2900    -1.5480 H     1 <1>   0.0800 
 33 H        0.0750    -6.7030     2.2360 H     1 <1>   0.0800 
 34 H       -2.2300    -5.3640    -1.0570 H     1 <1>   0.0800 
 35 H       -1.6300    -6.9470    -1.4030 H     1 <1>   0.0800 
 36 H        0.0030    -8.2740     0.5130 H     1 <1>   0.4000 
 37 H       -1.8490    -5.5590     1.1920 H     1 <1>   0.0800 
@<TRIPOS>BOND
  1   1   2  1   
  2   2   3  ar  
  3   2   4  ar  
  4   3   5  ar  
  5   3  20  1   
  6   4   6  ar  
  7   4  21  1   
  8   5   7  ar  
  9   5   8  1   
 10   6   7  ar  
 11   6  22  1   
 12   7   9  1   
 13   8  10  1   
 14   8  23  1   
 15   8  24  1   
 16   9  25  1   
 17   9  26  1   
 18   9  27  1   
 19  10  11  1   
 20  10  12  1   
 21  10  28  1   
 22  11  13  1   
 23  11  29  1   
 24  11  30  1   
 25  12  14  1   
 26  12  31  1   
 27  12  32  1   
 28  13  15  1   
 29  13  16  1   
 30  13  33  1   
 31  14  16  1   
 32  14  34  1   
 33  14  35  1   
 34  15  36  1   
 35  16  17  1   
 36  16  37  1   
 37  17  18  ar  
 38  17  19  ar  
@<TRIPOS>SUBSTRUCTURE
  1 ****  11 GROUP 4 **** **** 0

# MOE 2024.06 (io_trps.svl 2023.06)
