@<TRIPOS>MOLECULE
NONAME
45 47 1 0 0 
SMALL
USER_CHARGES


@<TRIPOS>ATOM
  1 CL      -0.3920     0.2210     1.0760 Cl    1 <1>  -0.1770 
  2 C       -1.8190    -0.7360     0.7890 C.ar  1 <1>   0.1770 
  3 C       -1.7420    -2.1060     0.8250 C.ar  1 <1>  -0.1500 
  4 C       -3.0210    -0.0850     0.5280 C.ar  1 <1>  -0.1500 
  5 C       -2.8880    -2.8800     0.5950 C.ar  1 <1>   0.0000 
  6 C       -4.1570    -0.8290     0.3000 C.ar  1 <1>  -0.1500 
  7 C       -4.1080    -2.2300     0.3300 C.ar  1 <1>   0.3610 
  8 C       -2.8780    -4.3000     0.6160 C.ar  1 <1>  -0.1500 
  9 N       -5.2360    -3.0040     0.1050 N.ar  1 <1>  -0.1790 
 10 C       -4.0230    -4.9970     0.3860 C.ar  1 <1>  -0.1500 
 11 C       -5.2560    -4.3410     0.1230 C.ar  1 <1>   0.4610 
 12 N       -6.4130    -4.9980    -0.1040 N.pl3 1 <1>  -0.8380 
 13 C       -7.7480    -4.4110    -0.4530 C.3   1 <1>   0.2090 
 14 C       -6.5480    -6.4860    -0.0430 C.3   1 <1>   0.2090 
 15 C       -8.6600    -5.6030    -0.7520 C.3   1 <1>   0.2000 
 16 C       -8.0500    -6.7710     0.0070 C.3   1 <1>  -0.0800 
 17 O       -9.9580    -5.3770    -0.3260 O.3   1 <1>  -0.6800 
 18 C       -8.4550    -8.1410    -0.5680 C.3   1 <1>  -0.0550 
 19 S       -7.6640    -9.5030     0.2860 S.o2  1 <1>   1.3330 
 20 O       -8.0440    -9.4060     1.6760 O.2   1 <1>  -0.6500 
 21 O       -6.2610    -9.4910    -0.0680 O.2   1 <1>  -0.6500 
 22 N       -8.3900   -10.8730    -0.4000 N.am  1 <1>  -0.8490 
 23 C       -7.7430   -11.3230    -1.6370 C.3   1 <1>   0.1160 
 24 C       -8.4870   -11.9880     0.5480 C.3   1 <1>   0.1160 
 25 H       -0.7980    -2.5820     1.0290 H     1 <1>   0.1500 
 26 H       -3.0350     0.9930     0.5100 H     1 <1>   0.1500 
 27 H       -5.0840    -0.3220     0.0980 H     1 <1>   0.1500 
 28 H       -1.9460    -4.8040     0.8160 H     1 <1>   0.1500 
 29 H       -6.1170    -2.5380    -0.0770 H     1 <1>   0.4570 
 30 H       -4.0020    -6.0720     0.4000 H     1 <1>   0.1500 
 31 H       -8.1320    -3.8590     0.3880 H     1 <1>   0.0800 
 32 H       -7.6780    -3.7790    -1.3220 H     1 <1>   0.0800 
 33 H       -6.1100    -6.9190    -0.9280 H     1 <1>   0.0800 
 34 H       -6.0600    -6.8910     0.8300 H     1 <1>   0.0800 
 35 H       -8.6810    -5.7870    -1.8140 H     1 <1>   0.0800 
 36 H       -8.3460    -6.7220     1.0420 H     1 <1>   0.0800 
 37 H      -10.0350    -5.4400     0.6470 H     1 <1>   0.4000 
 38 H       -8.2070    -8.1850    -1.6100 H     1 <1>   0.0800 
 39 H       -9.5190    -8.2490    -0.4800 H     1 <1>   0.0800 
 40 H       -8.2980   -12.1370    -2.0700 H     1 <1>   0.0800 
 41 H       -6.7360   -11.6520    -1.4380 H     1 <1>   0.0800 
 42 H       -7.7080   -10.5190    -2.3520 H     1 <1>   0.0800 
 43 H       -8.9740   -12.8290     0.0860 H     1 <1>   0.0800 
 44 H       -9.0700   -11.6930     1.4050 H     1 <1>   0.0800 
 45 H       -7.5060   -12.2830     0.8810 H     1 <1>   0.0800 
@<TRIPOS>BOND
  1   1   2  1   
  2   2   3  ar  
  3   2   4  ar  
  4   3   5  ar  
  5   3  25  1   
  6   4   6  ar  
  7   4  26  1   
  8   5   7  ar  
  9   5   8  ar  
 10   6   7  ar  
 11   6  27  1   
 12   7   9  ar  
 13   8  10  ar  
 14   8  28  1   
 15   9  11  ar  
 16   9  29  1   
 17  10  11  ar  
 18  10  30  1   
 19  11  12  1   
 20  12  13  1   
 21  12  14  1   
 22  13  15  1   
 23  13  31  1   
 24  13  32  1   
 25  14  16  1   
 26  14  33  1   
 27  14  34  1   
 28  15  16  1   
 29  15  17  1   
 30  15  35  1   
 31  16  18  1   
 32  16  36  1   
 33  17  37  1   
 34  18  19  1   
 35  18  38  1   
 36  18  39  1   
 37  19  20  2   
 38  19  21  2   
 39  19  22  am  
 40  22  23  1   
 41  22  24  1   
 42  23  40  1   
 43  23  41  1   
 44  23  42  1   
 45  24  43  1   
 46  24  44  1   
 47  24  45  1   
@<TRIPOS>SUBSTRUCTURE
  1 ****  12 GROUP 4 **** **** 0

# MOE 2024.06 (io_trps.svl 2023.06)
