@<TRIPOS>MOLECULE
NONAME
53 55 1 0 0 
SMALL
USER_CHARGES


@<TRIPOS>ATOM
  1 CL       1.3150     2.4040    -2.6590 Cl    1 <1>  -0.1770 
  2 C        0.7640     2.9150    -1.0780 C.ar  1 <1>   0.1770 
  3 C        1.5650     2.7800     0.0540 C.ar  1 <1>  -0.1440 
  4 C       -0.5040     3.4620    -1.0050 C.ar  1 <1>  -0.1500 
  5 C        1.0510     3.2130     1.2710 C.ar  1 <1>  -0.1500 
  6 C        2.9700     2.1850     0.0210 C.3   1 <1>   0.3640 
  7 C       -0.9970     3.8880     0.2140 C.ar  1 <1>  -0.1500 
  8 C       -0.2180     3.7620     1.3500 C.ar  1 <1>  -0.1500 
  9 N        2.9130     0.7920    -0.4770 N.am  1 <1>  -0.7300 
 10 C        3.9740     3.0630    -0.7710 C.3   1 <1>   0.2610 
 11 C        3.7660     0.2960    -1.4010 C.2   1 <1>   0.5690 
 12 O        5.1170     2.3310    -1.1890 O.3   1 <1>  -0.5600 
 13 C        4.3600     4.2950     0.0590 C.2   1 <1>   0.5690 
 14 O        3.6960    -0.8560    -1.7450 O.2   1 <1>  -0.5700 
 15 C        4.8180     1.2240    -2.0160 C.3   1 <1>   0.1810 
 16 O        3.9500     5.3650    -0.3360 O.2   1 <1>  -0.5700 
 17 N        5.1510     4.2420     1.1940 N.am  1 <1>  -0.6600 
 18 C        5.3400     5.4520     2.0460 C.3   1 <1>   0.1400 
 19 C        5.8560     3.0240     1.7060 C.3   1 <1>   0.0600 
 20 C        6.5920     6.2300     1.6260 C.3   1 <1>  -0.1600 
 21 C        6.4950     6.6670     0.1640 C.3   1 <1>   0.3430 
 22 N        7.6950     7.4430    -0.2490 N.4   1 <1>  -0.9590 
 23 C        7.7860     8.7950     0.3550 C.3   1 <1>   0.3430 
 24 C        7.7220     7.6570    -1.7150 C.3   1 <1>   0.3430 
 25 C        8.7240     9.5590    -0.5690 C.3   1 <1>  -0.1600 
 26 C        8.6810     8.8230    -1.9110 C.3   1 <1>  -0.1600 
 27 H       -1.0970     3.5530    -1.8970 H     1 <1>   0.1500 
 28 H        1.6320     3.1290     2.1730 H     1 <1>   0.1500 
 29 H        3.3220     2.1300     1.0360 H     1 <1>   0.0800 
 30 H       -1.9840     4.3160     0.2790 H     1 <1>   0.1500 
 31 H       -0.6020     4.0950     2.3000 H     1 <1>   0.1500 
 32 H        2.1740     0.1840    -0.1220 H     1 <1>   0.3700 
 33 H        3.5010     3.4250    -1.6640 H     1 <1>   0.0800 
 34 H        4.4620     1.5900    -2.9620 H     1 <1>   0.0800 
 35 H        5.7280     0.6750    -2.1750 H     1 <1>   0.0800 
 36 H        4.4720     6.0880     1.9650 H     1 <1>   0.0800 
 37 H        5.4220     5.1570     3.0790 H     1 <1>   0.0800 
 38 H        5.5930     2.8550     2.7360 H     1 <1>   0.0800 
 39 H        6.9200     3.1650     1.6380 H     1 <1>   0.0800 
 40 H        5.6000     2.1420     1.1490 H     1 <1>   0.0800 
 41 H        7.4570     5.6090     1.7710 H     1 <1>   0.0800 
 42 H        6.6740     7.0910     2.2640 H     1 <1>   0.0800 
 43 H        5.6020     7.2540     0.0170 H     1 <1>   0.0800 
 44 H        6.4090     5.7870    -0.4530 H     1 <1>   0.0800 
 45 H        8.5410     6.9180     0.0030 H     1 <1>   0.4500 
 46 H        6.8150     9.2630     0.3490 H     1 <1>   0.0800 
 47 H        8.1610     8.7580     1.3660 H     1 <1>   0.0800 
 48 H        8.0480     6.7740    -2.2430 H     1 <1>   0.0800 
 49 H        6.7390     7.9370    -2.0610 H     1 <1>   0.0800 
 50 H        8.4050    10.5830    -0.6630 H     1 <1>   0.0800 
 51 H        9.7220     9.5480    -0.1660 H     1 <1>   0.0800 
 52 H        9.6590     8.4520    -2.1680 H     1 <1>   0.0800 
 53 H        8.3380     9.4600    -2.7070 H     1 <1>   0.0800 
@<TRIPOS>BOND
  1   1   2  1   
  2   2   3  ar  
  3   2   4  ar  
  4   3   5  ar  
  5   3   6  1   
  6   4   7  ar  
  7   4  27  1   
  8   5   8  ar  
  9   5  28  1   
 10   6   9  1   
 11   6  10  1   
 12   6  29  1   
 13   7   8  ar  
 14   7  30  1   
 15   8  31  1   
 16   9  11  am  
 17   9  32  1   
 18  10  12  1   
 19  10  13  1   
 20  10  33  1   
 21  11  14  2   
 22  11  15  1   
 23  12  15  1   
 24  13  16  2   
 25  13  17  am  
 26  15  34  1   
 27  15  35  1   
 28  17  18  1   
 29  17  19  1   
 30  18  20  1   
 31  18  36  1   
 32  18  37  1   
 33  19  38  1   
 34  19  39  1   
 35  19  40  1   
 36  20  21  1   
 37  20  41  1   
 38  20  42  1   
 39  21  22  1   
 40  21  43  1   
 41  21  44  1   
 42  22  23  1   
 43  22  24  1   
 44  22  45  1   
 45  23  25  1   
 46  23  46  1   
 47  23  47  1   
 48  24  26  1   
 49  24  48  1   
 50  24  49  1   
 51  25  26  1   
 52  25  50  1   
 53  25  51  1   
 54  26  52  1   
 55  26  53  1   
@<TRIPOS>SUBSTRUCTURE
  1 ****  13 GROUP 4 **** **** 0

# MOE 2024.06 (io_trps.svl 2023.06)
