@<TRIPOS>MOLECULE
NONAME
46 49 1 0 0 
SMALL
USER_CHARGES


@<TRIPOS>ATOM
  1 S       -0.3180    -0.2430    -0.7000 S.3   1 <1>  -0.0800 
  2 C       -1.0890     1.3060    -0.3910 C.2   1 <1>  -0.1400 
  3 C       -1.8480    -0.9380    -1.2180 C.2   1 <1>  -0.1100 
  4 C       -2.3940     1.2520    -0.6890 C.2   1 <1>  -0.1810 
  5 C       -0.3250     2.5190     0.1350 C.3   1 <1>   0.4600 
  6 C       -2.8380    -0.0260    -1.1530 C.2   1 <1>  -0.1500 
  7 C       -3.2460     2.4890    -0.5240 C.3   1 <1>   0.0210 
  8 O       -1.2490     3.5670     0.3700 O.3   1 <1>  -0.5600 
  9 C        0.3390     2.2160     1.4940 C.3   1 <1>  -0.1600 
 10 C        0.7000     3.0090    -0.8960 C.3   1 <1>  -0.1600 
 11 C       -2.3280     3.7270    -0.5220 C.3   1 <1>   0.1200 
 12 C        1.7900     2.7010     1.6030 C.3   1 <1>   0.1400 
 13 C        1.4510     4.2400    -0.3820 C.3   1 <1>   0.1400 
 14 N        1.9250     4.0680     1.0270 N.am  1 <1>  -0.6600 
 15 C        2.4510     5.0960     1.7730 C.2   1 <1>   0.5690 
 16 O        2.9500     4.9040     2.8580 O.2   1 <1>  -0.5700 
 17 C        2.4290     6.5380     1.2750 C.3   1 <1>   0.0820 
 18 C        3.2260     6.7570    -0.0060 C.2   1 <1>  -0.1810 
 19 C        2.8570     7.3270    -1.1650 C.2   1 <1>  -0.0400 
 20 C        4.5500     6.3830    -0.2420 C.2   1 <1>   0.1080 
 21 O        3.8740     7.2730    -1.9810 O.3   1 <1>  -0.0190 
 22 C        1.5670     7.9630    -1.6420 C.3   1 <1>  -0.0600 
 23 N        4.9060     6.7010    -1.4340 N.2   1 <1>  -0.4100 
 24 C        5.4690     5.6910     0.7440 C.3   1 <1>  -0.0590 
 25 H       -1.8440    -1.9700    -1.5200 H     1 <1>   0.1500 
 26 H       -3.8670    -0.1990    -1.4140 H     1 <1>   0.1500 
 27 H       -3.7940     2.4360     0.3990 H     1 <1>   0.0800 
 28 H       -3.9470     2.5670    -1.3350 H     1 <1>   0.0800 
 29 H        0.3420     1.1580     1.6760 H     1 <1>   0.0800 
 30 H       -0.2390     2.6600     2.2840 H     1 <1>   0.0800 
 31 H        0.2150     3.2350    -1.8260 H     1 <1>   0.0800 
 32 H        1.4060     2.2250    -1.0980 H     1 <1>   0.0800 
 33 H       -2.8800     4.5970    -0.2140 H     1 <1>   0.0800 
 34 H       -1.9320     3.9000    -1.5070 H     1 <1>   0.0800 
 35 H        2.4410     2.0350     1.0630 H     1 <1>   0.0800 
 36 H        2.0930     2.6860     2.6360 H     1 <1>   0.0800 
 37 H        0.7910     5.0890    -0.4250 H     1 <1>   0.0800 
 38 H        2.2960     4.4320    -1.0220 H     1 <1>   0.0800 
 39 H        2.8370     7.1700     2.0410 H     1 <1>   0.0800 
 40 H        1.4060     6.8270     1.1330 H     1 <1>   0.0800 
 41 H        0.8210     7.9430    -0.8700 H     1 <1>   0.0800 
 42 H        1.1980     7.4320    -2.5000 H     1 <1>   0.0800 
 43 H        1.7520     8.9850    -1.9200 H     1 <1>   0.0800 
 44 H        5.3980     6.1590     1.7090 H     1 <1>   0.0800 
 45 H        6.4860     5.7510     0.4030 H     1 <1>   0.0800 
 46 H        5.1930     4.6560     0.8340 H     1 <1>   0.0800 
@<TRIPOS>BOND
  1   1   2  1   
  2   1   3  1   
  3   2   4  2   
  4   2   5  1   
  5   3   6  2   
  6   3  25  1   
  7   4   6  1   
  8   4   7  1   
  9   5   8  1   
 10   5   9  1   
 11   5  10  1   
 12   6  26  1   
 13   7  11  1   
 14   7  27  1   
 15   7  28  1   
 16   8  11  1   
 17   9  12  1   
 18   9  29  1   
 19   9  30  1   
 20  10  13  1   
 21  10  31  1   
 22  10  32  1   
 23  11  33  1   
 24  11  34  1   
 25  12  14  1   
 26  12  35  1   
 27  12  36  1   
 28  13  14  1   
 29  13  37  1   
 30  13  38  1   
 31  14  15  am  
 32  15  16  2   
 33  15  17  1   
 34  17  18  1   
 35  17  39  1   
 36  17  40  1   
 37  18  19  2   
 38  18  20  1   
 39  19  21  1   
 40  19  22  1   
 41  20  23  2   
 42  20  24  1   
 43  21  23  1   
 44  22  41  1   
 45  22  42  1   
 46  22  43  1   
 47  24  44  1   
 48  24  45  1   
 49  24  46  1   
@<TRIPOS>SUBSTRUCTURE
  1 ****  13 GROUP 4 **** **** 0

# MOE 2024.06 (io_trps.svl 2023.06)
