@<TRIPOS>MOLECULE
NONAME
53 55 1 0 0 
SMALL
USER_CHARGES


@<TRIPOS>ATOM
  1 S        0.6820    -0.6800    -2.4380 S.3   1 <1>   0.1810 
  2 N        1.4870     0.7780    -2.1660 N.2   1 <1>  -0.2210 
  3 C        1.4780    -1.4920    -1.1340 C.2   1 <1>  -0.0450 
  4 N        2.2950     0.6610    -1.2110 N.2   1 <1>  -0.2270 
  5 C        2.3350    -0.5840    -0.6210 C.2   1 <1>   0.0460 
  6 C        1.0710    -2.8490    -0.9110 C.2   1 <1>   0.7150 
  7 C        3.3640    -0.7350     0.5030 C.3   1 <1>   0.1010 
  8 O        1.1990    -3.6660    -1.8000 O.2   1 <1>  -0.5700 
  9 N        0.3940    -3.2000     0.2320 N.am  1 <1>  -0.6600 
 10 C        4.7800    -0.7710    -0.0880 C.3   1 <1>  -0.2400 
 11 C        3.1610    -1.9660     1.3890 C.3   1 <1>  -0.2400 
 12 C        0.3380    -4.6110     0.7310 C.3   1 <1>   0.3640 
 13 C       -0.9040    -2.5160     0.4890 C.3   1 <1>   0.1400 
 14 C        1.6940    -5.3260     0.7330 C.ar  1 <1>  -0.1440 
 15 C       -0.8260    -5.3550     0.0370 C.3   1 <1>   0.2000 
 16 C       -2.0450    -3.3230    -0.1650 C.3   1 <1>   0.1200 
 17 C        2.1660    -6.0490    -0.3570 C.ar  1 <1>  -0.1500 
 18 C        2.4730    -5.2720     1.8820 C.ar  1 <1>  -0.1500 
 19 O       -2.0360    -4.6560     0.2750 O.3   1 <1>  -0.5600 
 20 C       -0.9860    -6.7920     0.5600 C.3   1 <1>   0.1200 
 21 C        3.3840    -6.7040    -0.3050 C.ar  1 <1>   0.0820 
 22 C        3.7020    -5.9070     1.9370 C.ar  1 <1>  -0.1500 
 23 O       -2.1960    -7.3060     0.1230 O.3   1 <1>  -0.6800 
 24 O        3.7520    -7.4260    -1.3920 O.3   1 <1>  -0.3630 
 25 C        4.1750    -6.6100     0.8440 C.ar  1 <1>   0.0820 
 26 C        3.7950    -8.8250    -1.2240 C.3   1 <1>   0.0400 
 27 O        5.4030    -7.1760     0.9500 O.3   1 <1>  -0.3630 
 28 C        6.3930    -6.6990     0.0650 C.3   1 <1>   0.0400 
 29 H        3.2850     0.1350     1.1350 H     1 <1>   0.0800 
 30 H        4.8910    -1.6210    -0.7390 H     1 <1>   0.0800 
 31 H        5.5150    -0.8340     0.6950 H     1 <1>   0.0800 
 32 H        4.9680     0.1220    -0.6580 H     1 <1>   0.0800 
 33 H        3.2840    -2.8640     0.8120 H     1 <1>   0.0800 
 34 H        2.1820    -1.9510     1.8310 H     1 <1>   0.0800 
 35 H        3.8870    -1.9750     2.1830 H     1 <1>   0.0800 
 36 H        0.0520    -4.5550     1.7670 H     1 <1>   0.0800 
 37 H       -1.0740    -2.4420     1.5490 H     1 <1>   0.0800 
 38 H       -0.8940    -1.5180     0.0870 H     1 <1>   0.0800 
 39 H       -0.6550    -5.3890    -1.0250 H     1 <1>   0.0800 
 40 H       -1.9470    -3.3180    -1.2380 H     1 <1>   0.0800 
 41 H       -2.9990    -2.8990     0.0950 H     1 <1>   0.0800 
 42 H        1.5970    -6.1170    -1.2670 H     1 <1>   0.1500 
 43 H        2.1320    -4.7280     2.7460 H     1 <1>   0.1500 
 44 H       -0.9890    -6.8030     1.6360 H     1 <1>   0.0800 
 45 H       -0.1980    -7.4320     0.2030 H     1 <1>   0.0800 
 46 H        4.3040    -5.8560     2.8260 H     1 <1>   0.1500 
 47 H       -2.8570    -6.5800     0.1640 H     1 <1>   0.4000 
 48 H        4.0270    -9.2710    -2.1740 H     1 <1>   0.0800 
 49 H        2.8320    -9.1630    -0.8830 H     1 <1>   0.0800 
 50 H        4.5540    -9.0750    -0.5050 H     1 <1>   0.0800 
 51 H        7.3390    -7.1130     0.3640 H     1 <1>   0.0800 
 52 H        6.4240    -5.6260     0.1220 H     1 <1>   0.0800 
 53 H        6.1590    -7.0120    -0.9360 H     1 <1>   0.0800 
@<TRIPOS>BOND
  1   1   2  1   
  2   1   3  1   
  3   2   4  2   
  4   3   5  2   
  5   3   6  1   
  6   4   5  1   
  7   5   7  1   
  8   6   8  2   
  9   6   9  am  
 10   7  10  1   
 11   7  11  1   
 12   7  29  1   
 13   9  12  1   
 14   9  13  1   
 15  10  30  1   
 16  10  31  1   
 17  10  32  1   
 18  11  33  1   
 19  11  34  1   
 20  11  35  1   
 21  12  14  1   
 22  12  15  1   
 23  12  36  1   
 24  13  16  1   
 25  13  37  1   
 26  13  38  1   
 27  14  17  ar  
 28  14  18  ar  
 29  15  19  1   
 30  15  20  1   
 31  15  39  1   
 32  16  19  1   
 33  16  40  1   
 34  16  41  1   
 35  17  21  ar  
 36  17  42  1   
 37  18  22  ar  
 38  18  43  1   
 39  20  23  1   
 40  20  44  1   
 41  20  45  1   
 42  21  24  1   
 43  21  25  ar  
 44  22  25  ar  
 45  22  46  1   
 46  23  47  1   
 47  24  26  1   
 48  25  27  1   
 49  26  48  1   
 50  26  49  1   
 51  26  50  1   
 52  27  28  1   
 53  28  51  1   
 54  28  52  1   
 55  28  53  1   
@<TRIPOS>SUBSTRUCTURE
  1 ****  14 GROUP 4 **** **** 0

# MOE 2024.06 (io_trps.svl 2023.06)
