@<TRIPOS>MOLECULE
NONAME
56 58 1 0 0 
SMALL
USER_CHARGES


@<TRIPOS>ATOM
  1 O       -3.3880    -0.1450    -2.7570 O.2   1 <1>  -0.5700 
  2 C       -3.0690    -0.6110    -1.6930 C.2   1 <1>   0.5690 
  3 N       -2.7250     0.1710    -0.6260 N.am  1 <1>  -0.6600 
  4 C       -3.1110    -2.1100    -1.5560 C.3   1 <1>  -0.0190 
  5 C       -2.4230    -0.3860     0.7230 C.3   1 <1>   0.2200 
  6 C       -2.5930     1.6540    -0.7630 C.3   1 <1>   0.0600 
  7 C       -1.7410    -2.7060    -1.1690 C.3   1 <1>   0.1200 
  8 C       -4.3090    -2.4820    -0.6760 C.3   1 <1>   0.3430 
  9 C       -1.1770    -1.3040     0.6780 C.3   1 <1>   0.1200 
 10 C       -3.6820    -1.0540     1.3420 C.3   1 <1>   0.3430 
 11 O       -1.4610    -2.5930     0.1990 O.3   1 <1>  -0.5600 
 12 N       -4.0240    -2.4150     0.7950 N.4   1 <1>  -0.9590 
 13 C       -5.0520    -3.1220     1.6030 C.3   1 <1>   0.4860 
 14 C       -5.0920    -4.5780     1.1820 C.ar  1 <1>  -0.1440 
 15 C       -6.2240    -5.1090     0.5700 C.ar  1 <1>   0.0820 
 16 C       -3.9820    -5.3830     1.4020 C.ar  1 <1>  -0.1500 
 17 O       -7.2980    -4.2900     0.3930 O.3   1 <1>  -0.3620 
 18 C       -6.2200    -6.4430     0.1660 C.ar  1 <1>  -0.1500 
 19 C       -3.9900    -6.7060     1.0020 C.ar  1 <1>  -0.1500 
 20 C       -8.5520    -4.8290     0.0120 C.3   1 <1>   0.1200 
 21 C       -5.1070    -7.2340     0.3820 C.ar  1 <1>  -0.1500 
 22 C       -9.6130    -3.7220     0.0850 C.3   1 <1>   0.3430 
 23 N      -11.0030    -4.2250    -0.1940 N.4   1 <1>  -0.9590 
 24 C      -11.1810    -4.6870    -1.6100 C.3   1 <1>   0.2630 
 25 C      -12.0120    -3.1630     0.1210 C.3   1 <1>   0.2630 
 26 H       -3.3310    -2.4840    -2.5400 H     1 <1>   0.0800 
 27 H       -2.1690     0.4460     1.3580 H     1 <1>   0.0800 
 28 H       -3.2920     2.1510    -0.1130 H     1 <1>   0.0800 
 29 H       -2.7910     1.9690    -1.7750 H     1 <1>   0.0800 
 30 H       -1.5920     1.9590    -0.5090 H     1 <1>   0.0800 
 31 H       -0.9460    -2.2380    -1.7280 H     1 <1>   0.0800 
 32 H       -1.7320    -3.7580    -1.4010 H     1 <1>   0.0800 
 33 H       -4.5900    -3.4910    -0.9290 H     1 <1>   0.0800 
 34 H       -5.1410    -1.8420    -0.9200 H     1 <1>   0.0800 
 35 H       -0.7930    -1.4270     1.6760 H     1 <1>   0.0800 
 36 H       -0.3980    -0.8660     0.0760 H     1 <1>   0.0800 
 37 H       -4.5190    -0.3870     1.2160 H     1 <1>   0.0800 
 38 H       -3.5040    -1.1530     2.4000 H     1 <1>   0.0800 
 39 H       -3.1420    -2.9570     0.8830 H     1 <1>   0.4500 
 40 H       -4.8020    -3.0680     2.6500 H     1 <1>   0.0800 
 41 H       -6.0170    -2.6650     1.4590 H     1 <1>   0.0800 
 42 H       -3.0990    -4.9990     1.8850 H     1 <1>   0.1500 
 43 H       -7.0620    -6.8980    -0.3210 H     1 <1>   0.1500 
 44 H       -3.1280    -7.3300     1.1730 H     1 <1>   0.1500 
 45 H       -8.4590    -5.2060    -0.9910 H     1 <1>   0.0800 
 46 H       -8.7930    -5.6230     0.6970 H     1 <1>   0.0800 
 47 H       -5.1060    -8.2660     0.0710 H     1 <1>   0.1500 
 48 H       -9.3630    -2.9470    -0.6210 H     1 <1>   0.0800 
 49 H       -9.5870    -3.2990     1.0770 H     1 <1>   0.0800 
 50 H      -11.1970    -5.0230     0.4330 H     1 <1>   0.4500 
 51 H      -10.9850    -3.8790    -2.2970 H     1 <1>   0.0800 
 52 H      -12.1910    -5.0300    -1.7660 H     1 <1>   0.0800 
 53 H      -10.5090    -5.5000    -1.8320 H     1 <1>   0.0800 
 54 H      -11.8610    -2.3010    -0.5100 H     1 <1>   0.0800 
 55 H      -11.9260    -2.8560     1.1510 H     1 <1>   0.0800 
 56 H      -13.0110    -3.5350    -0.0410 H     1 <1>   0.0800 
@<TRIPOS>BOND
  1   1   2  2   
  2   2   3  am  
  3   2   4  1   
  4   3   5  1   
  5   3   6  1   
  6   4   7  1   
  7   4   8  1   
  8   4  26  1   
  9   5   9  1   
 10   5  10  1   
 11   5  27  1   
 12   6  28  1   
 13   6  29  1   
 14   6  30  1   
 15   7  11  1   
 16   7  31  1   
 17   7  32  1   
 18   8  12  1   
 19   8  33  1   
 20   8  34  1   
 21   9  11  1   
 22   9  35  1   
 23   9  36  1   
 24  10  12  1   
 25  10  37  1   
 26  10  38  1   
 27  12  13  1   
 28  12  39  1   
 29  13  14  1   
 30  13  40  1   
 31  13  41  1   
 32  14  15  ar  
 33  14  16  ar  
 34  15  17  1   
 35  15  18  ar  
 36  16  19  ar  
 37  16  42  1   
 38  17  20  1   
 39  18  21  ar  
 40  18  43  1   
 41  19  21  ar  
 42  19  44  1   
 43  20  22  1   
 44  20  45  1   
 45  20  46  1   
 46  21  47  1   
 47  22  23  1   
 48  22  48  1   
 49  22  49  1   
 50  23  24  1   
 51  23  25  1   
 52  23  50  1   
 53  24  51  1   
 54  24  52  1   
 55  24  53  1   
 56  25  54  1   
 57  25  55  1   
 58  25  56  1   
@<TRIPOS>SUBSTRUCTURE
  1 ****   8 GROUP 4 **** **** 0

# MOE 2024.06 (io_trps.svl 2023.06)
