@<TRIPOS>MOLECULE
NONAME
45 47 1 0 0 
SMALL
USER_CHARGES


@<TRIPOS>ATOM
  1 O       -0.1280    -0.7120    -1.5450 O.2   1 <1>  -0.5700 
  2 C        0.3610    -1.5000    -0.7510 C.2   1 <1>   0.5440 
  3 N        0.7080    -1.0170     0.5050 N.am  1 <1>  -0.6600 
  4 C        0.5710    -2.8830    -1.1830 C.ar  1 <1>   0.3960 
  5 C        0.2910     0.3350     0.9740 C.3   1 <1>   0.0600 
  6 C        1.5530    -1.7690     1.4740 C.3   1 <1>   0.0600 
  7 N        0.4140    -3.9100    -0.3290 N.ar  1 <1>  -0.6200 
  8 C        0.9240    -3.0970    -2.5200 C.ar  1 <1>   0.1600 
  9 C        0.6320    -5.0880    -0.8710 C.ar  1 <1>   0.4100 
 10 N        1.1590    -4.2780    -3.0790 N.ar  1 <1>  -0.6200 
 11 N        0.4460    -6.1260     0.0030 N.pl3 1 <1>  -0.8690 
 12 C        1.0090    -5.2570    -2.2130 C.ar  1 <1>   0.1600 
 13 C       -0.2820    -7.3750    -0.3370 C.3   1 <1>   0.2890 
 14 C       -1.7850    -7.2500    -0.1070 C.3   1 <1>  -0.0800 
 15 C        0.0680    -8.4430     0.6940 C.3   1 <1>   0.1200 
 16 C       -1.9340    -7.5480     1.3870 C.3   1 <1>   0.1200 
 17 C       -2.4560    -5.9340    -0.5440 C.3   1 <1>  -0.0170 
 18 O       -0.7760    -8.2210     1.7850 O.3   1 <1>  -0.5600 
 19 C       -3.9610    -5.9990    -0.3350 C.ar  1 <1>  -0.1430 
 20 C       -4.7920    -6.6580    -1.2170 C.ar  1 <1>  -0.1500 
 21 C       -4.5730    -5.4020     0.7490 C.ar  1 <1>  -0.1500 
 22 C       -6.1560    -6.6950    -0.9760 C.ar  1 <1>   0.1600 
 23 C       -5.9460    -5.4970     0.8970 C.ar  1 <1>   0.1600 
 24 N       -6.7530    -6.1330     0.0630 N.ar  1 <1>  -0.6200 
 25 H       -0.0970     0.2710     1.9750 H     1 <1>   0.0800 
 26 H       -0.4760     0.7430     0.3380 H     1 <1>   0.0800 
 27 H        1.1380     0.9990     0.9620 H     1 <1>   0.0800 
 28 H        2.1530    -1.0870     2.0510 H     1 <1>   0.0800 
 29 H        2.2120    -2.4450     0.9570 H     1 <1>   0.0800 
 30 H        0.9220    -2.3340     2.1380 H     1 <1>   0.0800 
 31 H        1.0190    -2.2350    -3.1580 H     1 <1>   0.1500 
 32 H        0.2310    -5.8080     0.9530 H     1 <1>   0.4000 
 33 H        1.1930    -6.2550    -2.5610 H     1 <1>   0.1500 
 34 H       -0.0440    -7.6980    -1.3350 H     1 <1>   0.0800 
 35 H       -2.2600    -8.0570    -0.6370 H     1 <1>   0.0800 
 36 H        1.0940    -8.3880     1.0140 H     1 <1>   0.0800 
 37 H       -0.1460    -9.4260     0.3120 H     1 <1>   0.0800 
 38 H       -2.7900    -8.1670     1.5910 H     1 <1>   0.0800 
 39 H       -1.9950    -6.6420     1.9660 H     1 <1>   0.0800 
 40 H       -2.2500    -5.7490    -1.5840 H     1 <1>   0.0800 
 41 H       -2.0600    -5.1070     0.0170 H     1 <1>   0.0800 
 42 H       -4.3940    -7.1430    -2.0900 H     1 <1>   0.1500 
 43 H       -3.9970    -4.8620     1.4780 H     1 <1>   0.1500 
 44 H       -6.7890    -7.2150    -1.6740 H     1 <1>   0.1500 
 45 H       -6.4060    -5.0250     1.7490 H     1 <1>   0.1500 
@<TRIPOS>BOND
  1   1   2  2   
  2   2   3  am  
  3   2   4  1   
  4   3   5  1   
  5   3   6  1   
  6   4   7  ar  
  7   4   8  ar  
  8   5  25  1   
  9   5  26  1   
 10   5  27  1   
 11   6  28  1   
 12   6  29  1   
 13   6  30  1   
 14   7   9  ar  
 15   8  10  ar  
 16   8  31  1   
 17   9  11  1   
 18   9  12  ar  
 19  10  12  ar  
 20  11  13  1   
 21  11  32  1   
 22  12  33  1   
 23  13  14  1   
 24  13  15  1   
 25  13  34  1   
 26  14  16  1   
 27  14  17  1   
 28  14  35  1   
 29  15  18  1   
 30  15  36  1   
 31  15  37  1   
 32  16  18  1   
 33  16  38  1   
 34  16  39  1   
 35  17  19  1   
 36  17  40  1   
 37  17  41  1   
 38  19  20  ar  
 39  19  21  ar  
 40  20  22  ar  
 41  20  42  1   
 42  21  23  ar  
 43  21  43  1   
 44  22  24  ar  
 45  22  44  1   
 46  23  24  ar  
 47  23  45  1   
@<TRIPOS>SUBSTRUCTURE
  1 ****  17 GROUP 4 **** **** 0

# MOE 2024.06 (io_trps.svl 2023.06)
