@<TRIPOS>MOLECULE
NONAME
43 45 1 0 0 
SMALL
USER_CHARGES


@<TRIPOS>ATOM
  1 F        0.5250     1.8570    -1.9500 F     1 <1>  -0.1900 
  2 C       -0.6000     1.6870    -1.2950 C.ar  1 <1>   0.1900 
  3 C       -0.8710     2.4630    -0.1600 C.ar  1 <1>   0.1000 
  4 C       -1.4730     0.7300    -1.7740 C.ar  1 <1>  -0.1500 
  5 N       -0.0220     3.4440     0.3670 N.pl3 1 <1>  -0.8380 
  6 C       -2.0790     2.2280     0.4830 C.ar  1 <1>  -0.1500 
  7 C       -2.6710     0.5220    -1.1080 C.ar  1 <1>  -0.1500 
  8 C        0.2200     4.6410    -0.4980 C.3   1 <1>   0.2090 
  9 C        1.2670     2.9520     0.9500 C.3   1 <1>   0.2090 
 10 C       -2.9690     1.2720     0.0190 C.ar  1 <1>  -0.1500 
 11 C        0.9200     5.7720     0.2840 C.3   1 <1>   0.2090 
 12 C        1.9810     4.0580     1.7520 C.3   1 <1>   0.2090 
 13 N        2.1830     5.3020     0.9360 N.pl3 1 <1>  -0.8380 
 14 C        3.3820     5.5180     0.2940 C.ar  1 <1>   0.4100 
 15 N        4.0920     4.4690    -0.0730 N.ar  1 <1>  -0.6200 
 16 C        3.8230     6.8000     0.0310 C.ar  1 <1>  -0.1500 
 17 C        5.2160     4.7400    -0.7060 C.ar  1 <1>   0.4700 
 18 C        5.0110     6.9630    -0.6320 C.ar  1 <1>   0.1670 
 19 N        5.7250     5.9200    -1.0150 N.ar  1 <1>  -0.6200 
 20 C        5.5640     8.3500    -0.9580 C.3   1 <1>   0.0630 
 21 C        5.8620     9.1460     0.3200 C.3   1 <1>  -0.2400 
 22 C        4.6120     9.1340    -1.8720 C.3   1 <1>  -0.2400 
 23 H       -1.2200     0.1600    -2.6490 H     1 <1>   0.1500 
 24 H       -2.3140     2.8080     1.3570 H     1 <1>   0.1500 
 25 H       -3.3650    -0.2190    -1.4640 H     1 <1>   0.1500 
 26 H       -0.7200     4.9980    -0.8800 H     1 <1>   0.0800 
 27 H        0.8390     4.3630    -1.3330 H     1 <1>   0.0800 
 28 H        1.9190     2.6200     0.1600 H     1 <1>   0.0800 
 29 H        1.0690     2.1140     1.5950 H     1 <1>   0.0800 
 30 H       -3.8980     1.1120     0.5380 H     1 <1>   0.1500 
 31 H        0.2490     6.1390     1.0410 H     1 <1>   0.0800 
 32 H        1.1330     6.5810    -0.3920 H     1 <1>   0.0800 
 33 H        2.9300     3.6900     2.1000 H     1 <1>   0.0800 
 34 H        1.3870     4.2990     2.6150 H     1 <1>   0.0800 
 35 H        3.2350     7.6340     0.3550 H     1 <1>   0.1500 
 36 H        5.7970     3.8860    -1.0130 H     1 <1>   0.1500 
 37 H        6.4930     8.2210    -1.4870 H     1 <1>   0.0800 
 38 H        4.9600     9.3400     0.8720 H     1 <1>   0.0800 
 39 H        6.3260    10.0840     0.0750 H     1 <1>   0.0800 
 40 H        6.5340     8.5870     0.9470 H     1 <1>   0.0800 
 41 H        3.6780     9.3320    -1.3770 H     1 <1>   0.0800 
 42 H        4.4160     8.5650    -2.7640 H     1 <1>   0.0800 
 43 H        5.0570    10.0700    -2.1560 H     1 <1>   0.0800 
@<TRIPOS>BOND
  1   1   2  1   
  2   2   3  ar  
  3   2   4  ar  
  4   3   5  1   
  5   3   6  ar  
  6   4   7  ar  
  7   4  23  1   
  8   5   8  1   
  9   5   9  1   
 10   6  10  ar  
 11   6  24  1   
 12   7  10  ar  
 13   7  25  1   
 14   8  11  1   
 15   8  26  1   
 16   8  27  1   
 17   9  12  1   
 18   9  28  1   
 19   9  29  1   
 20  10  30  1   
 21  11  13  1   
 22  11  31  1   
 23  11  32  1   
 24  12  13  1   
 25  12  33  1   
 26  12  34  1   
 27  13  14  1   
 28  14  15  ar  
 29  14  16  ar  
 30  15  17  ar  
 31  16  18  ar  
 32  16  35  1   
 33  17  19  ar  
 34  17  36  1   
 35  18  19  ar  
 36  18  20  1   
 37  20  21  1   
 38  20  22  1   
 39  20  37  1   
 40  21  38  1   
 41  21  39  1   
 42  21  40  1   
 43  22  41  1   
 44  22  42  1   
 45  22  43  1   
@<TRIPOS>SUBSTRUCTURE
  1 ****  13 GROUP 4 **** **** 0

# MOE 2024.06 (io_trps.svl 2023.06)
