@<TRIPOS>MOLECULE
NONAME
41 43 1 0 0 
SMALL
USER_CHARGES


@<TRIPOS>ATOM
  1 O        2.0000    -2.6170    -0.0090 O.2   1 <1>  -0.5700 
  2 C        1.2460    -3.1950     0.7380 C.2   1 <1>   0.6900 
  3 N       -0.1120    -3.2400     0.6020 N.am  1 <1>  -0.4200 
  4 N        1.6580    -3.9280     1.7920 N.am  1 <1>  -0.7300 
  5 C       -0.6300    -4.0950     1.5310 C.2   1 <1>   0.5690 
  6 C       -0.8290    -2.7610    -0.6150 C.3   1 <1>   0.2010 
  7 C        0.5030    -4.6490     2.3810 C.3   1 <1>   0.2010 
  8 O       -1.7950    -4.4040     1.6370 O.2   1 <1>  -0.5700 
  9 C       -1.0700    -3.9050    -1.5960 C.2   1 <1>   0.5690 
 10 O       -0.6330    -3.8460    -2.7190 O.2   1 <1>  -0.5700 
 11 N       -1.7260    -5.0030    -1.1470 N.am  1 <1>  -0.7300 
 12 C       -1.4900    -6.3670    -1.6580 C.3   1 <1>   0.2200 
 13 C       -2.3620    -7.3710    -0.9140 C.3   1 <1>  -0.0800 
 14 C       -0.1070    -6.8250    -1.2030 C.3   1 <1>   0.1200 
 15 C       -1.5580    -7.6490     0.3640 C.3   1 <1>   0.1200 
 16 C       -3.8210    -6.9440    -0.6570 C.3   1 <1>  -0.0170 
 17 O       -0.2610    -7.1730     0.1420 O.3   1 <1>  -0.5600 
 18 C       -4.5700    -8.0200     0.1120 C.ar  1 <1>  -0.1430 
 19 C       -4.8010    -7.9150     1.4690 C.ar  1 <1>  -0.1500 
 20 C       -5.0520    -9.1570    -0.5040 C.ar  1 <1>  -0.1500 
 21 C       -5.4780    -8.9280     2.1270 C.ar  1 <1>   0.1600 
 22 C       -5.7170   -10.1120     0.2480 C.ar  1 <1>   0.1600 
 23 N       -5.9390   -10.0250     1.5490 N.ar  1 <1>  -0.6200 
 24 H        2.6230    -4.2550     1.8580 H     1 <1>   0.3700 
 25 H       -1.7740    -2.3390    -0.3290 H     1 <1>   0.0800 
 26 H       -0.2460    -1.9990    -1.1020 H     1 <1>   0.0800 
 27 H        0.5980    -5.7120     2.2430 H     1 <1>   0.0800 
 28 H        0.3720    -4.3960     3.4180 H     1 <1>   0.0800 
 29 H       -2.0050    -4.9970    -0.1550 H     1 <1>   0.3700 
 30 H       -1.6070    -6.3980    -2.7290 H     1 <1>   0.0800 
 31 H       -2.3760    -8.2820    -1.4860 H     1 <1>   0.0800 
 32 H        0.6440    -6.0600    -1.3000 H     1 <1>   0.0800 
 33 H        0.2000    -7.7060    -1.7400 H     1 <1>   0.0800 
 34 H       -1.5130    -8.7020     0.5840 H     1 <1>   0.0800 
 35 H       -1.9590    -7.1190     1.2100 H     1 <1>   0.0800 
 36 H       -4.3140    -6.7660    -1.5970 H     1 <1>   0.0800 
 37 H       -3.8580    -6.0280    -0.0950 H     1 <1>   0.0800 
 38 H       -4.4630    -7.0570     2.0210 H     1 <1>   0.1500 
 39 H       -4.9170    -9.3110    -1.5590 H     1 <1>   0.1500 
 40 H       -5.6500    -8.8300     3.1860 H     1 <1>   0.1500 
 41 H       -6.0860   -10.9930    -0.2480 H     1 <1>   0.1500 
@<TRIPOS>BOND
  1   1   2  2   
  2   2   3  am  
  3   2   4  am  
  4   3   5  am  
  5   3   6  1   
  6   4   7  1   
  7   4  24  1   
  8   5   7  1   
  9   5   8  2   
 10   6   9  1   
 11   6  25  1   
 12   6  26  1   
 13   7  27  1   
 14   7  28  1   
 15   9  10  2   
 16   9  11  am  
 17  11  12  1   
 18  11  29  1   
 19  12  13  1   
 20  12  14  1   
 21  12  30  1   
 22  13  15  1   
 23  13  16  1   
 24  13  31  1   
 25  14  17  1   
 26  14  32  1   
 27  14  33  1   
 28  15  17  1   
 29  15  34  1   
 30  15  35  1   
 31  16  18  1   
 32  16  36  1   
 33  16  37  1   
 34  18  19  ar  
 35  18  20  ar  
 36  19  21  ar  
 37  19  38  1   
 38  20  22  ar  
 39  20  39  1   
 40  21  23  ar  
 41  21  40  1   
 42  22  23  ar  
 43  22  41  1   
@<TRIPOS>SUBSTRUCTURE
  1 ****  11 GROUP 4 **** **** 0

# MOE 2024.06 (io_trps.svl 2023.06)
