@<TRIPOS>MOLECULE
NONAME
42 44 1 0 0 
SMALL
USER_CHARGES


@<TRIPOS>ATOM
  1 S       -2.1680    -0.4170    -2.6060 S.3   1 <1>  -0.0800 
  2 C       -2.5010    -1.4600    -1.2370 C.2   1 <1>  -0.1100 
  3 C       -2.6400     1.0020    -1.6890 C.2   1 <1>  -0.1100 
  4 C       -2.9460    -0.7480    -0.1830 C.2   1 <1>  -0.1810 
  5 C       -3.0180     0.6600    -0.4440 C.2   1 <1>  -0.1500 
  6 C       -3.3460    -1.3050     1.1810 C.3   1 <1>   0.0820 
  7 C       -3.6010    -2.8080     1.1870 C.2   1 <1>   0.5690 
  8 O       -2.8460    -3.5110     1.8170 O.2   1 <1>  -0.5700 
  9 N       -4.6660    -3.3350     0.5060 N.am  1 <1>  -0.6600 
 10 C       -5.6580    -2.5920    -0.3130 C.3   1 <1>   0.1400 
 11 C       -4.9790    -4.7810     0.5020 C.3   1 <1>   0.1400 
 12 C       -6.7460    -3.6130    -0.6710 C.3   1 <1>   0.2000 
 13 C       -6.0180    -4.9590    -0.6070 C.3   1 <1>  -0.0800 
 14 O       -7.7550    -3.5950     0.3000 O.3   1 <1>  -0.5600 
 15 C       -6.9280    -6.1810    -0.3940 C.3   1 <1>   0.0200 
 16 C       -8.7630    -2.6560     0.0920 C.3   1 <1>   0.0400 
 17 C       -6.1230    -7.4650    -0.4010 C.2   1 <1>  -0.0400 
 18 O       -5.5070    -7.8470    -1.4880 O.3   1 <1>  -0.0190 
 19 C       -5.8790    -8.3750     0.5530 C.2   1 <1>  -0.1500 
 20 N       -4.8600    -8.9630    -1.3110 N.2   1 <1>  -0.4100 
 21 C       -5.0670    -9.3050    -0.0900 C.2   1 <1>   0.1080 
 22 C       -4.4980   -10.5500     0.5530 C.3   1 <1>  -0.0590 
 23 H       -2.3270    -2.5150    -1.3660 H     1 <1>   0.1500 
 24 H       -2.5800     1.9540    -2.1860 H     1 <1>   0.1500 
 25 H       -3.3470     1.3510     0.3130 H     1 <1>   0.1500 
 26 H       -4.2380    -0.8160     1.5220 H     1 <1>   0.0800 
 27 H       -2.5660    -1.0850     1.8870 H     1 <1>   0.0800 
 28 H       -6.0620    -1.7540     0.2260 H     1 <1>   0.0800 
 29 H       -5.1790    -2.2490    -1.2120 H     1 <1>   0.0800 
 30 H       -4.0950    -5.3680     0.3190 H     1 <1>   0.0800 
 31 H       -5.3950    -5.0450     1.4590 H     1 <1>   0.0800 
 32 H       -7.1800    -3.4370    -1.6410 H     1 <1>   0.0800 
 33 H       -5.4810    -5.0870    -1.5310 H     1 <1>   0.0800 
 34 H       -7.6660    -6.2250    -1.1750 H     1 <1>   0.0800 
 35 H       -7.4440    -6.0980     0.5460 H     1 <1>   0.0800 
 36 H       -9.4610    -2.7310     0.9070 H     1 <1>   0.0800 
 37 H       -9.2660    -2.8750    -0.8340 H     1 <1>   0.0800 
 38 H       -8.3390    -1.6680     0.0700 H     1 <1>   0.0800 
 39 H       -6.2090    -8.4090     1.5740 H     1 <1>   0.1500 
 40 H       -5.2970   -11.1710     0.9130 H     1 <1>   0.0800 
 41 H       -3.8610   -10.2770     1.3740 H     1 <1>   0.0800 
 42 H       -3.9220   -11.1040    -0.1660 H     1 <1>   0.0800 
@<TRIPOS>BOND
  1   1   2  1   
  2   1   3  1   
  3   2   4  2   
  4   2  23  1   
  5   3   5  2   
  6   3  24  1   
  7   4   5  1   
  8   4   6  1   
  9   5  25  1   
 10   6   7  1   
 11   6  26  1   
 12   6  27  1   
 13   7   8  2   
 14   7   9  am  
 15   9  10  1   
 16   9  11  1   
 17  10  12  1   
 18  10  28  1   
 19  10  29  1   
 20  11  13  1   
 21  11  30  1   
 22  11  31  1   
 23  12  13  1   
 24  12  14  1   
 25  12  32  1   
 26  13  15  1   
 27  13  33  1   
 28  14  16  1   
 29  15  17  1   
 30  15  34  1   
 31  15  35  1   
 32  16  36  1   
 33  16  37  1   
 34  16  38  1   
 35  17  18  1   
 36  17  19  2   
 37  18  20  1   
 38  19  21  1   
 39  19  39  1   
 40  20  21  2   
 41  21  22  1   
 42  22  40  1   
 43  22  41  1   
 44  22  42  1   
@<TRIPOS>SUBSTRUCTURE
  1 ****  11 GROUP 4 **** **** 0

# MOE 2024.06 (io_trps.svl 2023.06)
