@<TRIPOS>MOLECULE
NONAME
57 60 1 0 0 
SMALL
USER_CHARGES


@<TRIPOS>ATOM
  1 O       -2.3290     0.4700     2.2590 O.2   1 <1>  -0.5700 
  2 C       -2.4110     0.9450     1.1400 C.2   1 <1>   0.5440 
  3 N       -2.8460     0.1430     0.1080 N.am  1 <1>  -0.6600 
  4 C       -2.0920     2.3400     0.9230 C.ar  1 <1>   0.0860 
  5 C       -2.6790    -1.3470     0.2340 C.3   1 <1>   0.3640 
  6 C       -3.8800     0.6650    -0.8330 C.3   1 <1>   0.1400 
  7 C       -1.3670     2.7600    -0.1940 C.ar  1 <1>  -0.1500 
  8 C       -2.4950     3.3230     1.8270 C.ar  1 <1>  -0.1500 
  9 C       -1.1830    -1.6630     0.1390 C.ar  1 <1>  -0.1430 
 10 C       -3.4410    -2.2120    -0.8180 C.3   1 <1>   0.2000 
 11 C       -4.1910    -0.3140    -1.9650 C.3   1 <1>   0.1200 
 12 C       -1.0750     4.0920    -0.4220 C.ar  1 <1>  -0.1440 
 13 C       -2.2070     4.6550     1.6130 C.ar  1 <1>  -0.1500 
 14 C       -0.4350    -1.2670    -0.9620 C.ar  1 <1>  -0.1500 
 15 C       -0.5530    -2.3580     1.1620 C.ar  1 <1>  -0.1500 
 16 O       -4.5210    -1.5500    -1.4220 O.3   1 <1>  -0.5600 
 17 C       -4.0050    -3.5100    -0.2190 C.3   1 <1>   0.1200 
 18 C       -1.5000     5.0630     0.4870 C.ar  1 <1>   0.1000 
 19 C       -0.2860     4.4940    -1.6590 C.3   1 <1>  -0.0970 
 20 C        0.9130    -1.5700    -1.0450 C.ar  1 <1>  -0.1500 
 21 C        0.7940    -2.6620     1.0820 C.ar  1 <1>  -0.1500 
 22 O       -3.0200    -4.2500     0.4300 O.3   1 <1>  -0.6800 
 23 N       -1.2150     6.4050     0.2870 N.pl3 1 <1>  -0.8380 
 24 C        1.5280    -2.2700    -0.0230 C.ar  1 <1>  -0.1500 
 25 C       -0.1200     6.9920     1.1100 C.3   1 <1>   0.2090 
 26 C       -2.3560     7.3480     0.1090 C.3   1 <1>   0.2090 
 27 C        0.2630     8.3900     0.5890 C.3   1 <1>   0.1200 
 28 C       -1.8540     8.7240    -0.3620 C.3   1 <1>   0.1200 
 29 O       -0.8630     9.2200     0.4980 O.3   1 <1>  -0.5600 
 30 H       -3.0320    -1.6360     1.2100 H     1 <1>   0.0800 
 31 H       -4.7850     0.8530    -0.2820 H     1 <1>   0.0800 
 32 H       -3.5530     1.5970    -1.2580 H     1 <1>   0.0800 
 33 H       -1.0270     2.0100    -0.8860 H     1 <1>   0.1500 
 34 H       -3.0370     3.0230     2.7070 H     1 <1>   0.1500 
 35 H       -2.7680    -2.4800    -1.6130 H     1 <1>   0.0800 
 36 H       -3.3500    -0.4270    -2.6280 H     1 <1>   0.0800 
 37 H       -5.0370     0.0330    -2.5320 H     1 <1>   0.0800 
 38 H       -2.5250     5.3940     2.3240 H     1 <1>   0.1500 
 39 H       -0.9020    -0.7150    -1.7590 H     1 <1>   0.1500 
 40 H       -1.1150    -2.6620     2.0300 H     1 <1>   0.1500 
 41 H       -4.4260    -4.1250    -0.9960 H     1 <1>   0.0800 
 42 H       -4.7670    -3.2810     0.5060 H     1 <1>   0.0800 
 43 H       -0.0550     3.6420    -2.2720 H     1 <1>   0.0800 
 44 H        0.6340     4.9660    -1.3630 H     1 <1>   0.0800 
 45 H       -0.8570     5.1940    -2.2410 H     1 <1>   0.0800 
 46 H        1.4840    -1.2580    -1.9020 H     1 <1>   0.1500 
 47 H        1.2700    -3.2010     1.8830 H     1 <1>   0.1500 
 48 H       -2.2570    -4.4220    -0.1580 H     1 <1>   0.4000 
 49 H        2.5760    -2.5060    -0.0840 H     1 <1>   0.1500 
 50 H       -0.4400     7.0700     2.1340 H     1 <1>   0.0800 
 51 H        0.7390     6.3450     1.0740 H     1 <1>   0.0800 
 52 H       -3.0410     6.9440    -0.6160 H     1 <1>   0.0800 
 53 H       -2.8800     7.4640     1.0410 H     1 <1>   0.0800 
 54 H        0.7130     8.3130    -0.3850 H     1 <1>   0.0800 
 55 H        0.9620     8.8560     1.2590 H     1 <1>   0.0800 
 56 H       -2.6630     9.4310    -0.3730 H     1 <1>   0.0800 
 57 H       -1.4430     8.6510    -1.3540 H     1 <1>   0.0800 
@<TRIPOS>BOND
  1   1   2  2   
  2   2   3  am  
  3   2   4  1   
  4   3   5  1   
  5   3   6  1   
  6   4   7  ar  
  7   4   8  ar  
  8   5   9  1   
  9   5  10  1   
 10   5  30  1   
 11   6  11  1   
 12   6  31  1   
 13   6  32  1   
 14   7  12  ar  
 15   7  33  1   
 16   8  13  ar  
 17   8  34  1   
 18   9  14  ar  
 19   9  15  ar  
 20  10  16  1   
 21  10  17  1   
 22  10  35  1   
 23  11  16  1   
 24  11  36  1   
 25  11  37  1   
 26  12  18  ar  
 27  12  19  1   
 28  13  18  ar  
 29  13  38  1   
 30  14  20  ar  
 31  14  39  1   
 32  15  21  ar  
 33  15  40  1   
 34  17  22  1   
 35  17  41  1   
 36  17  42  1   
 37  18  23  1   
 38  19  43  1   
 39  19  44  1   
 40  19  45  1   
 41  20  24  ar  
 42  20  46  1   
 43  21  24  ar  
 44  21  47  1   
 45  22  48  1   
 46  23  25  1   
 47  23  26  1   
 48  24  49  1   
 49  25  27  1   
 50  25  50  1   
 51  25  51  1   
 52  26  28  1   
 53  26  52  1   
 54  26  53  1   
 55  27  29  1   
 56  27  54  1   
 57  27  55  1   
 58  28  29  1   
 59  28  56  1   
 60  28  57  1   
@<TRIPOS>SUBSTRUCTURE
  1 ****   4 GROUP 4 **** **** 0

# MOE 2024.06 (io_trps.svl 2023.06)
