@<TRIPOS>MOLECULE
NONAME
41 43 1 0 0 
SMALL
USER_CHARGES


@<TRIPOS>ATOM
  1 O        0.3170    -0.2840     1.2760 O.2   1 <1>  -0.5700 
  2 C        1.2250    -0.8510     0.7280 C.2   1 <1>   0.4230 
  3 C        1.1430    -2.2290     0.2870 C.ar  1 <1>   0.0860 
  4 C        2.4940    -0.0520     0.5060 C.3   1 <1>  -0.1790 
  5 C        0.0350    -3.0100     0.5670 C.ar  1 <1>  -0.1500 
  6 C        2.1350    -2.8820    -0.4380 C.ar  1 <1>  -0.1500 
  7 C       -0.0570    -4.3290     0.1420 C.ar  1 <1>   0.4100 
  8 C        1.9680    -4.1980    -0.8170 C.ar  1 <1>   0.1600 
  9 N        0.9040    -4.9300    -0.5470 N.ar  1 <1>  -0.6200 
 10 N       -1.1890    -5.0700     0.4420 N.pl3 1 <1>  -0.8380 
 11 C       -2.5370    -4.4930     0.1850 C.3   1 <1>   0.2090 
 12 C       -1.2250    -6.5420     0.2180 C.3   1 <1>   0.2090 
 13 C       -3.3990    -5.6630    -0.2950 C.3   1 <1>   0.2000 
 14 C       -2.7050    -6.9170     0.2250 C.3   1 <1>  -0.0800 
 15 O       -4.6930    -5.5950     0.2010 O.3   1 <1>  -0.6800 
 16 C       -3.0260    -8.1680    -0.6050 C.3   1 <1>   0.0200 
 17 C       -2.2470    -9.3690    -0.1050 C.2   1 <1>  -0.0400 
 18 O       -2.4570    -9.8310     1.0980 O.3   1 <1>  -0.0190 
 19 C       -1.2980   -10.1240    -0.6780 C.2   1 <1>  -0.1500 
 20 N       -1.6970   -10.8540     1.3640 N.2   1 <1>  -0.4100 
 21 C       -0.9880   -11.0540     0.3110 C.2   1 <1>   0.1080 
 22 C        0.0430   -12.1520     0.1760 C.3   1 <1>  -0.0590 
 23 H        3.3300    -0.5550     0.9540 H     1 <1>   0.0800 
 24 H        2.3970     0.9180     0.9580 H     1 <1>   0.0800 
 25 H        2.6680     0.0770    -0.5460 H     1 <1>   0.0800 
 26 H       -0.7730    -2.5920     1.1360 H     1 <1>   0.1500 
 27 H        3.0410    -2.3750    -0.7140 H     1 <1>   0.1500 
 28 H        2.7530    -4.6800    -1.3750 H     1 <1>   0.1500 
 29 H       -2.9230    -4.0840     1.1020 H     1 <1>   0.0800 
 30 H       -2.4860    -3.7270    -0.5700 H     1 <1>   0.0800 
 31 H       -0.7870    -6.7770    -0.7380 H     1 <1>   0.0800 
 32 H       -0.6830    -7.0570     0.9940 H     1 <1>   0.0800 
 33 H       -3.4460    -5.6560    -1.3710 H     1 <1>   0.0800 
 34 H       -2.9820    -7.0840     1.2510 H     1 <1>   0.0800 
 35 H       -4.6830    -5.6550     1.1760 H     1 <1>   0.4000 
 36 H       -2.7820    -7.9950    -1.6380 H     1 <1>   0.0800 
 37 H       -4.0790    -8.3820    -0.5420 H     1 <1>   0.0800 
 38 H       -0.8570   -10.0570    -1.6540 H     1 <1>   0.1500 
 39 H       -0.2180   -12.7990    -0.6400 H     1 <1>   0.0800 
 40 H        0.0820   -12.7310     1.0810 H     1 <1>   0.0800 
 41 H        1.0110   -11.7220    -0.0050 H     1 <1>   0.0800 
@<TRIPOS>BOND
  1   1   2  2   
  2   2   3  1   
  3   2   4  1   
  4   3   5  ar  
  5   3   6  ar  
  6   4  23  1   
  7   4  24  1   
  8   4  25  1   
  9   5   7  ar  
 10   5  26  1   
 11   6   8  ar  
 12   6  27  1   
 13   7   9  ar  
 14   7  10  1   
 15   8   9  ar  
 16   8  28  1   
 17  10  11  1   
 18  10  12  1   
 19  11  13  1   
 20  11  29  1   
 21  11  30  1   
 22  12  14  1   
 23  12  31  1   
 24  12  32  1   
 25  13  14  1   
 26  13  15  1   
 27  13  33  1   
 28  14  16  1   
 29  14  34  1   
 30  15  35  1   
 31  16  17  1   
 32  16  36  1   
 33  16  37  1   
 34  17  18  1   
 35  17  19  2   
 36  18  20  1   
 37  19  21  1   
 38  19  38  1   
 39  20  21  2   
 40  21  22  1   
 41  22  39  1   
 42  22  40  1   
 43  22  41  1   
@<TRIPOS>SUBSTRUCTURE
  1 ****  12 GROUP 4 **** **** 0

# MOE 2024.06 (io_trps.svl 2023.06)
