@<TRIPOS>MOLECULE
NONAME
39 40 1 0 0 
SMALL
USER_CHARGES


@<TRIPOS>ATOM
  1 F        0.5000     0.8700     0.9350 F     1 <1>  -0.1900 
  2 C        1.6990     1.3600     0.6940 C.ar  1 <1>   0.1900 
  3 C        2.7450     0.5600     0.2330 C.ar  1 <1>   0.4100 
  4 C        1.9230     2.6910     0.9150 C.ar  1 <1>   0.1600 
  5 N        3.9330     1.1010     0.0280 N.ar  1 <1>  -0.6200 
  6 N        2.6250    -0.8020    -0.0350 N.pl3 1 <1>  -0.8380 
  7 N        3.1050     3.2360     0.7030 N.ar  1 <1>  -0.6200 
  8 C        4.0400     2.3930     0.2740 C.ar  1 <1>   0.7200 
  9 C        1.4540    -1.3470    -0.7750 C.3   1 <1>   0.1290 
 10 C        3.8090    -1.7030     0.0330 C.3   1 <1>   0.1290 
 11 N        5.2770     2.8910     0.0400 N.pl3 1 <1>  -0.8690 
 12 C        5.4950     4.2870    -0.4090 C.3   1 <1>   0.2090 
 13 C        5.6900     5.1960     0.8030 C.3   1 <1>   0.0960 
 14 N        5.8420     6.5890     0.3490 N.pl3 1 <1>   0.0480 
 15 C        6.9680     7.2600     0.0260 C.2   1 <1>  -0.3320 
 16 C        4.8390     7.4630     0.1200 C.2   1 <1>   0.0360 
 17 C        6.5700     8.4910    -0.3740 C.2   1 <1>   0.0460 
 18 C        8.3620     6.6590     0.1320 C.3   1 <1>  -0.0600 
 19 N        5.2340     8.6130    -0.3160 N.2   1 <1>  -0.5650 
 20 C        7.3930     9.6690    -0.8460 C.3   1 <1>  -0.0590 
 21 H        1.1240     3.3170     1.2710 H     1 <1>   0.1500 
 22 H        0.8550    -0.5480    -1.1760 H     1 <1>   0.0800 
 23 H        0.8510    -1.9390    -0.1100 H     1 <1>   0.0800 
 24 H        1.7880    -1.9630    -1.5920 H     1 <1>   0.0800 
 25 H        4.5180    -1.3320     0.7540 H     1 <1>   0.0800 
 26 H        4.2850    -1.7520    -0.9310 H     1 <1>   0.0800 
 27 H        3.5030    -2.6910     0.3320 H     1 <1>   0.0800 
 28 H        5.8460     2.1860    -0.4300 H     1 <1>   0.4000 
 29 H        4.6430     4.6180    -0.9810 H     1 <1>   0.0800 
 30 H        6.3680     4.3260    -1.0370 H     1 <1>   0.0800 
 31 H        6.5640     4.9020     1.3520 H     1 <1>   0.0800 
 32 H        4.8330     5.1380     1.4490 H     1 <1>   0.0800 
 33 H        3.8090     7.2040     0.2870 H     1 <1>   0.1500 
 34 H        8.4370     5.7810    -0.4840 H     1 <1>   0.0800 
 35 H        8.5710     6.3910     1.1520 H     1 <1>   0.0800 
 36 H        9.1080     7.3610    -0.1900 H     1 <1>   0.0800 
 37 H        8.4400     9.4400    -0.8410 H     1 <1>   0.0800 
 38 H        7.2140    10.5090    -0.2000 H     1 <1>   0.0800 
 39 H        7.0960     9.9330    -1.8450 H     1 <1>   0.0800 
@<TRIPOS>BOND
  1   1   2  1   
  2   2   3  ar  
  3   2   4  ar  
  4   3   5  ar  
  5   3   6  1   
  6   4   7  ar  
  7   4  21  1   
  8   5   8  ar  
  9   6   9  1   
 10   6  10  1   
 11   7   8  ar  
 12   8  11  1   
 13   9  22  1   
 14   9  23  1   
 15   9  24  1   
 16  10  25  1   
 17  10  26  1   
 18  10  27  1   
 19  11  12  1   
 20  11  28  1   
 21  12  13  1   
 22  12  29  1   
 23  12  30  1   
 24  13  14  1   
 25  13  31  1   
 26  13  32  1   
 27  14  15  1   
 28  14  16  1   
 29  15  17  2   
 30  15  18  1   
 31  16  19  2   
 32  16  33  1   
 33  17  19  1   
 34  17  20  1   
 35  18  34  1   
 36  18  35  1   
 37  18  36  1   
 38  20  37  1   
 39  20  38  1   
 40  20  39  1   
@<TRIPOS>SUBSTRUCTURE
  1 ****  11 GROUP 4 **** **** 0

# MOE 2024.06 (io_trps.svl 2023.06)
