@<TRIPOS>MOLECULE
Untitled Document
23 23 1 0 0 
SMALL
USER_CHARGES


@<TRIPOS>ATOM
  1 O       -0.3400    -0.4390    -0.5510 O.2   1 <1>  -0.5700 
  2 C       -0.0720    -1.5970    -0.2780 C.2   1 <1>   0.5410 
  3 C        1.0150    -2.2130    -0.9650 C.2   1 <1>  -0.1360 
  4 C       -0.8640    -2.2530     0.7070 C.2   1 <1>  -0.1360 
  5 C        1.5360    -3.4620    -0.8750 C.2   1 <1>  -0.1500 
  6 C       -0.7840    -3.5160     1.1920 C.2   1 <1>  -0.1500 
  7 C        1.1460    -4.5610    -0.0490 C.2   1 <1>  -0.1380 
  8 C        0.1240    -4.5550     0.8490 C.2   1 <1>  -0.1500 
  9 C        1.9770    -5.8410    -0.2190 C.3   1 <1>   0.0580 
 10 C        1.1110    -7.0050    -0.7150 C.3   1 <1>  -0.2400 
 11 C        2.6950    -6.2140     1.0840 C.3   1 <1>  -0.2400 
 12 H        1.4720    -1.5380    -1.6640 H     1 <1>   0.1500 
 13 H       -1.6300    -1.6120     1.1010 H     1 <1>   0.1500 
 14 H        2.3720    -3.6610    -1.5240 H     1 <1>   0.1500 
 15 H       -1.4990    -3.8000     1.9460 H     1 <1>   0.1500 
 16 H       -0.0580    -5.4580     1.4050 H     1 <1>   0.1500 
 17 H        2.7410    -5.6830    -0.9610 H     1 <1>   0.0800 
 18 H        0.3700    -7.2770     0.0150 H     1 <1>   0.0800 
 19 H        1.7240    -7.8650    -0.9160 H     1 <1>   0.0800 
 20 H        0.6080    -6.7240    -1.6240 H     1 <1>   0.0800 
 21 H        1.9920    -6.4680     1.8560 H     1 <1>   0.0800 
 22 H        3.2910    -5.3860     1.4220 H     1 <1>   0.0800 
 23 H        3.3430    -7.0570     0.9220 H     1 <1>   0.0800 
@<TRIPOS>BOND
  1   1   2  2   
  2   2   3  1   
  3   2   4  1   
  4   3   5  2   
  5   3  12  1   
  6   4   6  2   
  7   4  13  1   
  8   5   7  1   
  9   5  14  1   
 10   6   8  1   
 11   6  15  1   
 12   7   8  2   
 13   7   9  1   
 14   8  16  1   
 15   9  10  1   
 16   9  11  1   
 17   9  17  1   
 18  10  18  1   
 19  10  19  1   
 20  10  20  1   
 21  11  21  1   
 22  11  22  1   
 23  11  23  1   
@<TRIPOS>SUBSTRUCTURE
  1 ****   7 GROUP 4 **** **** 0

# MOE 2024.06 (io_trps.svl 2023.06)
