@<TRIPOS>MOLECULE
NONAME
47 49 1 0 0 
SMALL
USER_CHARGES


@<TRIPOS>ATOM
  1 O        0.0860     0.3210    -1.6980 O.2   1 <1>  -0.5700 
  2 C        0.5580    -0.7020    -1.2590 C.2   1 <1>   0.5690 
  3 N        1.6990    -0.7300    -0.4800 N.am  1 <1>  -0.4770 
  4 C       -0.1650    -2.0090    -1.6340 C.3   1 <1>   0.1710 
  5 C        2.5380     0.3270    -0.1010 C.ar  1 <1>   0.1170 
  6 C        2.1930    -1.9760     0.1680 C.3   1 <1>   0.1400 
  7 N       -0.7750    -2.7830    -0.5100 N.3   1 <1>  -0.8100 
  8 C        3.5760    -0.1100     0.6950 C.ar  1 <1>  -0.1430 
  9 C        2.4500     1.6780    -0.4160 C.ar  1 <1>  -0.1500 
 10 C        3.4850    -1.5990     0.9070 C.3   1 <1>  -0.0170 
 11 C       -1.4240    -4.0040    -1.0350 C.3   1 <1>   0.2900 
 12 C       -1.7560    -1.9460     0.2070 C.3   1 <1>   0.0300 
 13 C        4.5290     0.7580     1.1900 C.ar  1 <1>  -0.1500 
 14 C        3.3990     2.5610     0.0730 C.ar  1 <1>  -0.1500 
 15 C       -1.9140    -4.9470     0.0590 C.2   1 <1>   0.0060 
 16 C        4.4360     2.1040     0.8740 C.ar  1 <1>  -0.1500 
 17 N       -3.0590    -5.5400     0.0020 N.2   1 <1>  -0.3380 
 18 N       -1.2440    -5.2870     1.1700 N.pl3 1 <1>   0.0480 
 19 N       -3.1690    -6.2930     1.0960 N.2   1 <1>  -0.3380 
 20 C       -2.0880    -6.1270     1.7720 C.2   1 <1>   0.0360 
 21 C        0.0780    -4.8630     1.6730 C.3   1 <1>   0.0960 
 22 C        1.1930    -5.4220     0.7920 C.3   1 <1>   0.1200 
 23 O        2.4070    -4.9320     1.2640 O.3   1 <1>  -0.5600 
 24 C        3.5210    -5.4760     0.6290 C.3   1 <1>   0.0400 
 25 H        0.5460    -2.6320    -2.1440 H     1 <1>   0.0800 
 26 H       -0.9350    -1.7580    -2.3430 H     1 <1>   0.0800 
 27 H        2.3820    -2.7360    -0.5680 H     1 <1>   0.0800 
 28 H        1.4610    -2.3220     0.8730 H     1 <1>   0.0800 
 29 H        1.6520     2.0410    -1.0350 H     1 <1>   0.1500 
 30 H        4.3310    -2.1000     0.4730 H     1 <1>   0.0800 
 31 H        3.4130    -1.8450     1.9510 H     1 <1>   0.0800 
 32 H       -0.7250    -4.5450    -1.6480 H     1 <1>   0.0800 
 33 H       -2.2600    -3.7320    -1.6570 H     1 <1>   0.0800 
 34 H       -1.2710    -1.0850     0.6350 H     1 <1>   0.0800 
 35 H       -2.2120    -2.5010     1.0100 H     1 <1>   0.0800 
 36 H       -2.5300    -1.6100    -0.4620 H     1 <1>   0.0800 
 37 H        5.3310     0.3980     1.8110 H     1 <1>   0.1500 
 38 H        3.3300     3.6060    -0.1700 H     1 <1>   0.1500 
 39 H        5.1680     2.7960     1.2510 H     1 <1>   0.1500 
 40 H       -1.8770    -6.6020     2.7130 H     1 <1>   0.1500 
 41 H        0.2010    -5.2250     2.6770 H     1 <1>   0.0800 
 42 H        0.1110    -3.7910     1.6880 H     1 <1>   0.0800 
 43 H        1.0750    -5.0970    -0.2270 H     1 <1>   0.0800 
 44 H        1.2060    -6.4970     0.8450 H     1 <1>   0.0800 
 45 H        4.4020    -5.0270     1.0530 H     1 <1>   0.0800 
 46 H        3.4740    -5.2600    -0.4240 H     1 <1>   0.0800 
 47 H        3.5430    -6.5390     0.7970 H     1 <1>   0.0800 
@<TRIPOS>BOND
  1   1   2  2   
  2   2   3  am  
  3   2   4  1   
  4   3   5  1   
  5   3   6  1   
  6   4   7  1   
  7   4  25  1   
  8   4  26  1   
  9   5   8  ar  
 10   5   9  ar  
 11   6  10  1   
 12   6  27  1   
 13   6  28  1   
 14   7  11  1   
 15   7  12  1   
 16   8  10  1   
 17   8  13  ar  
 18   9  14  ar  
 19   9  29  1   
 20  10  30  1   
 21  10  31  1   
 22  11  15  1   
 23  11  32  1   
 24  11  33  1   
 25  12  34  1   
 26  12  35  1   
 27  12  36  1   
 28  13  16  ar  
 29  13  37  1   
 30  14  16  ar  
 31  14  38  1   
 32  15  17  2   
 33  15  18  1   
 34  16  39  1   
 35  17  19  1   
 36  18  20  1   
 37  18  21  1   
 38  19  20  2   
 39  20  40  1   
 40  21  22  1   
 41  21  41  1   
 42  21  42  1   
 43  22  23  1   
 44  22  43  1   
 45  22  44  1   
 46  23  24  1   
 47  24  45  1   
 48  24  46  1   
 49  24  47  1   
@<TRIPOS>SUBSTRUCTURE
  1 ****   6 GROUP 4 **** **** 0

# MOE 2024.06 (io_trps.svl 2023.06)
