@<TRIPOS>MOLECULE
NONAME
45 46 1 0 0 
SMALL
USER_CHARGES


@<TRIPOS>ATOM
  1 O       -1.3510    -0.8190     2.1130 O.3   1 <1>  -0.8500 
  2 C       -1.0780    -1.6940     1.2720 C.2   1 <1>  -0.1500 
  3 C       -1.8350    -1.9340     0.1240 C.2   1 <1>  -0.1240 
  4 C        0.0750    -2.4930     1.4860 C.2   1 <1>  -0.1500 
  5 C       -1.4550    -2.9420    -0.7750 C.2   1 <1>   0.6160 
  6 C       -3.0790    -1.0810    -0.1370 C.3   1 <1>   0.2020 
  7 C        0.4410    -3.4750     0.6270 C.2   1 <1>  -0.0290 
  8 O       -2.0750    -3.1690    -1.8360 O.2   1 <1>  -0.5700 
  9 N       -0.3240    -3.7390    -0.5100 N.am  1 <1>  -0.4690 
 10 C       -4.3490    -1.9400    -0.1080 C.ar  1 <1>  -0.1440 
 11 C       -2.9230    -0.1910    -1.3810 C.3   1 <1>  -0.0990 
 12 C        1.6940    -4.2920     0.8950 C.3   1 <1>  -0.1020 
 13 C        0.0450    -4.8040    -1.4860 C.3   1 <1>   0.0600 
 14 C       -5.1450    -2.1960    -1.2180 C.ar  1 <1>  -0.1500 
 15 C       -4.7120    -2.4900     1.1140 C.ar  1 <1>  -0.1500 
 16 C       -1.7140     0.7000    -1.2340 C.2   1 <1>   0.6590 
 17 C       -6.2850    -2.9680    -1.0900 C.ar  1 <1>   0.0820 
 18 C       -5.8490    -3.2710     1.2440 C.ar  1 <1>  -0.1500 
 19 O       -0.7620     0.6140    -1.9690 O.2   1 <1>  -0.5700 
 20 O       -1.7650     1.5720    -0.2380 O.3   1 <1>  -0.4300 
 21 O       -7.0610    -3.2000    -2.1630 O.3   1 <1>  -0.5320 
 22 C       -6.6520    -3.5170     0.1360 C.ar  1 <1>   0.0820 
 23 C       -0.5820     2.0500     0.3590 C.3   1 <1>   0.0400 
 24 O       -7.7900    -4.2730     0.1750 O.3   1 <1>  -0.3630 
 25 C       -8.1810    -4.9160     1.3680 C.3   1 <1>   0.0400 
 26 H        0.6290    -2.2560     2.3730 H     1 <1>   0.1500 
 27 H       -3.1930    -0.4000     0.6880 H     1 <1>   0.0800 
 28 H       -3.7930     0.4260    -1.4940 H     1 <1>   0.0800 
 29 H       -2.8060    -0.7880    -2.2640 H     1 <1>   0.0800 
 30 H        2.3650    -4.2230     0.0590 H     1 <1>   0.0800 
 31 H        1.4340    -5.3200     1.0700 H     1 <1>   0.0800 
 32 H        2.2020    -3.9200     1.7660 H     1 <1>   0.0800 
 33 H       -0.8380    -5.2080    -1.9480 H     1 <1>   0.0800 
 34 H        0.5580    -5.6110    -1.0010 H     1 <1>   0.0800 
 35 H        0.6740    -4.3790    -2.2480 H     1 <1>   0.0800 
 36 H       -4.8930    -1.8130    -2.1890 H     1 <1>   0.1500 
 37 H       -4.0820    -2.3030     1.9730 H     1 <1>   0.1500 
 38 H       -6.0780    -3.6720     2.2120 H     1 <1>   0.1500 
 39 H       -7.7990    -3.7790    -1.8920 H     1 <1>   0.4500 
 40 H       -0.8500     2.7440     1.1340 H     1 <1>   0.0800 
 41 H        0.0260     2.5260    -0.3890 H     1 <1>   0.0800 
 42 H       -0.0640     1.2080     0.7900 H     1 <1>   0.0800 
 43 H       -9.0810    -5.4700     1.1710 H     1 <1>   0.0800 
 44 H       -8.3680    -4.1700     2.1210 H     1 <1>   0.0800 
 45 H       -7.3980    -5.5860     1.6750 H     1 <1>   0.0800 
@<TRIPOS>BOND
  1   1   2  1   
  2   2   3  2   
  3   2   4  1   
  4   3   5  1   
  5   3   6  1   
  6   4   7  2   
  7   4  26  1   
  8   5   8  2   
  9   5   9  am  
 10   6  10  1   
 11   6  11  1   
 12   6  27  1   
 13   7   9  1   
 14   7  12  1   
 15   9  13  1   
 16  10  14  ar  
 17  10  15  ar  
 18  11  16  1   
 19  11  28  1   
 20  11  29  1   
 21  12  30  1   
 22  12  31  1   
 23  12  32  1   
 24  13  33  1   
 25  13  34  1   
 26  13  35  1   
 27  14  17  ar  
 28  14  36  1   
 29  15  18  ar  
 30  15  37  1   
 31  16  19  2   
 32  16  20  1   
 33  17  21  1   
 34  17  22  ar  
 35  18  22  ar  
 36  18  38  1   
 37  20  23  1   
 38  21  39  1   
 39  22  24  1   
 40  23  40  1   
 41  23  41  1   
 42  23  42  1   
 43  24  25  1   
 44  25  43  1   
 45  25  44  1   
 46  25  45  1   
@<TRIPOS>SUBSTRUCTURE
  1 ****   6 GROUP 4 **** **** 0

# MOE 2024.06 (io_trps.svl 2023.06)
