@<TRIPOS>MOLECULE
NONAME
59 61 1 0 0 
SMALL
USER_CHARGES


@<TRIPOS>ATOM
  1 O        0.6580    -0.1390    -0.1230 O.2   1 <1>  -0.5700 
  2 C        1.6110    -0.6040     0.4580 C.2   1 <1>   0.5690 
  3 N        2.6540     0.2060     0.8700 N.am  1 <1>  -0.6600 
  4 C        1.5630    -2.1270     0.7310 C.3   1 <1>   0.4040 
  5 C        3.9150    -0.2820     1.5250 C.3   1 <1>   0.1400 
  6 C        2.3990     1.6860     0.9310 C.3   1 <1>   0.1400 
  7 N        0.2940    -2.8090     0.2500 N.4   1 <1>  -0.9590 
  8 C        5.1410    -0.2120     0.5830 C.3   1 <1>   0.3430 
  9 C        3.6490     2.5600     0.8070 C.3   1 <1>  -0.1600 
 10 C       -0.0340    -4.1070     0.9100 C.3   1 <1>   0.4230 
 11 C        0.2920    -2.9140    -1.2430 C.3   1 <1>   0.3430 
 12 N        5.6170     1.1750     0.2760 N.4   1 <1>  -0.9590 
 13 C        4.6010     2.1070    -0.2920 C.3   1 <1>   0.3430 
 14 C       -1.4100    -4.5890     0.4300 C.3   1 <1>  -0.1600 
 15 C       -0.0540    -3.9470     2.4310 C.3   1 <1>  -0.2400 
 16 C       -1.0790    -3.3710    -1.7380 C.3   1 <1>  -0.1600 
 17 C        6.8690     1.1970    -0.5410 C.3   1 <1>   0.5230 
 18 C       -1.4920    -4.6980    -1.0960 C.3   1 <1>  -0.1600 
 19 C        7.6670     2.4280    -0.1400 C.2   1 <1>   0.0060 
 20 N        7.4100     3.1230     0.9160 N.2   1 <1>  -0.3380 
 21 N        8.7120     2.9310    -0.8060 N.pl3 1 <1>   0.0330 
 22 N        8.2940     4.1140     0.9560 N.2   1 <1>  -0.3380 
 23 C        9.0610     3.9860    -0.0700 C.2   1 <1>   0.0060 
 24 C       10.2170     4.9130    -0.4070 C.3   1 <1>   0.0200 
 25 C       11.5610     4.1780    -0.3690 C.3   1 <1>  -0.2400 
 26 H        1.6530    -2.2470     1.7940 H     1 <1>   0.0800 
 27 H        2.4160    -2.5920     0.2710 H     1 <1>   0.0800 
 28 H        3.7920    -1.3040     1.8350 H     1 <1>   0.0800 
 29 H        4.1090     0.2890     2.4180 H     1 <1>   0.0800 
 30 H        1.8970     1.9180     1.8560 H     1 <1>   0.0800 
 31 H        1.7280     1.9640     0.1340 H     1 <1>   0.0800 
 32 H       -0.4740    -2.1550     0.4670 H     1 <1>   0.4500 
 33 H        4.8990    -0.7210    -0.3350 H     1 <1>   0.0800 
 34 H        5.9480    -0.7520     1.0510 H     1 <1>   0.0800 
 35 H        4.1560     2.6450     1.7520 H     1 <1>   0.0800 
 36 H        3.3110     3.5520     0.5610 H     1 <1>   0.0800 
 37 H        0.7030    -4.8470     0.6400 H     1 <1>   0.0800 
 38 H        1.0400    -3.6220    -1.5620 H     1 <1>   0.0800 
 39 H        0.5180    -1.9550    -1.6820 H     1 <1>   0.0800 
 40 H        5.9300     1.6360     1.1510 H     1 <1>   0.4500 
 41 H        5.1040     2.9830    -0.6750 H     1 <1>   0.0800 
 42 H        4.0560     1.6460    -1.1010 H     1 <1>   0.0800 
 43 H       -2.1740    -3.9170     0.7830 H     1 <1>   0.0800 
 44 H       -1.6160    -5.5560     0.8560 H     1 <1>   0.0800 
 45 H       -0.6890    -3.1320     2.7280 H     1 <1>   0.0800 
 46 H        0.9340    -3.8080     2.8280 H     1 <1>   0.0800 
 47 H       -0.4400    -4.8460     2.8800 H     1 <1>   0.0800 
 48 H       -1.0450    -3.4860    -2.8080 H     1 <1>   0.0800 
 49 H       -1.8080    -2.6090    -1.5210 H     1 <1>   0.0800 
 50 H        6.6340     1.2220    -1.5920 H     1 <1>   0.0800 
 51 H        7.4620     0.3220    -0.3340 H     1 <1>   0.0800 
 52 H       -2.4970    -4.9500    -1.3930 H     1 <1>   0.0800 
 53 H       -0.8420    -5.4860    -1.4400 H     1 <1>   0.0800 
 54 H        9.1720     2.6180    -1.6660 H     1 <1>   0.2700 
 55 H       10.2360     5.7170     0.3100 H     1 <1>   0.0800 
 56 H       10.0610     5.3470    -1.3790 H     1 <1>   0.0800 
 57 H       11.7140     3.7430     0.6030 H     1 <1>   0.0800 
 58 H       12.3620     4.8700    -0.5610 H     1 <1>   0.0800 
 59 H       11.5970     3.4000    -1.1100 H     1 <1>   0.0800 
@<TRIPOS>BOND
  1   1   2  2   
  2   2   3  am  
  3   2   4  1   
  4   3   5  1   
  5   3   6  1   
  6   4   7  1   
  7   4  26  1   
  8   4  27  1   
  9   5   8  1   
 10   5  28  1   
 11   5  29  1   
 12   6   9  1   
 13   6  30  1   
 14   6  31  1   
 15   7  10  1   
 16   7  11  1   
 17   7  32  1   
 18   8  12  1   
 19   8  33  1   
 20   8  34  1   
 21   9  13  1   
 22   9  35  1   
 23   9  36  1   
 24  10  14  1   
 25  10  15  1   
 26  10  37  1   
 27  11  16  1   
 28  11  38  1   
 29  11  39  1   
 30  12  13  1   
 31  12  17  1   
 32  12  40  1   
 33  13  41  1   
 34  13  42  1   
 35  14  18  1   
 36  14  43  1   
 37  14  44  1   
 38  15  45  1   
 39  15  46  1   
 40  15  47  1   
 41  16  18  1   
 42  16  48  1   
 43  16  49  1   
 44  17  19  1   
 45  17  50  1   
 46  17  51  1   
 47  18  52  1   
 48  18  53  1   
 49  19  20  2   
 50  19  21  1   
 51  20  22  1   
 52  21  23  1   
 53  21  54  1   
 54  22  23  2   
 55  23  24  1   
 56  24  25  1   
 57  24  55  1   
 58  24  56  1   
 59  25  57  1   
 60  25  58  1   
 61  25  59  1   
@<TRIPOS>SUBSTRUCTURE
  1 ****   8 GROUP 4 **** **** 0

# MOE 2024.06 (io_trps.svl 2023.06)
