@<TRIPOS>MOLECULE
NONAME
42 44 1 0 0 
SMALL
USER_CHARGES


@<TRIPOS>ATOM
  1 CL      -1.0930    -1.3160     0.6340 Cl    1 <1>  -0.1770 
  2 C       -2.3100    -0.0670     0.4950 C.ar  1 <1>   0.1770 
  3 C       -3.4410    -0.2360    -0.3090 C.ar  1 <1>   0.0860 
  4 C       -2.0870     1.0930     1.2130 C.ar  1 <1>  -0.1500 
  5 C       -3.7250    -1.4410    -1.0650 C.2   1 <1>   0.5440 
  6 C       -4.3310     0.8380    -0.3660 C.ar  1 <1>  -0.1500 
  7 C       -2.9950     2.1330     1.1400 C.ar  1 <1>  -0.1500 
  8 O       -4.2470    -1.3690    -2.1600 O.2   1 <1>  -0.5700 
  9 N       -3.4730    -2.6820    -0.5610 N.am  1 <1>  -0.7300 
 10 C       -4.1220     2.0090     0.3450 C.ar  1 <1>  -0.1430 
 11 C       -3.6520    -3.9610    -1.2880 C.3   1 <1>   0.2200 
 12 C       -5.1150     3.1540     0.2590 C.3   1 <1>  -0.0970 
 13 C       -4.8610    -4.7270    -0.7700 C.3   1 <1>  -0.0800 
 14 C       -2.5290    -4.9110    -0.8970 C.3   1 <1>   0.1200 
 15 C       -4.3020    -5.4650     0.4510 C.3   1 <1>   0.1200 
 16 C       -6.1160    -3.8830    -0.4810 C.3   1 <1>  -0.0170 
 17 O       -2.9080    -5.4420     0.3370 O.3   1 <1>  -0.5600 
 18 C       -7.2810    -4.7680    -0.0650 C.ar  1 <1>  -0.1430 
 19 C       -8.0600    -5.4260    -0.9950 C.ar  1 <1>  -0.1500 
 20 C       -7.6190    -4.9610     1.2600 C.ar  1 <1>  -0.1500 
 21 C       -9.1060    -6.2270    -0.5680 C.ar  1 <1>   0.1600 
 22 C       -8.6860    -5.7840     1.5800 C.ar  1 <1>   0.1600 
 23 N       -9.4370    -6.4230     0.6980 N.ar  1 <1>  -0.6200 
 24 H       -1.2060     1.1830     1.8220 H     1 <1>   0.1500 
 25 H       -5.2060     0.7420    -0.9870 H     1 <1>   0.1500 
 26 H       -2.8220     3.0370     1.6990 H     1 <1>   0.1500 
 27 H       -2.9940    -2.7840     0.3390 H     1 <1>   0.3700 
 28 H       -3.6910    -3.7930    -2.3510 H     1 <1>   0.0800 
 29 H       -4.5950     4.0860     0.1300 H     1 <1>   0.0800 
 30 H       -5.6960     3.2020     1.1630 H     1 <1>   0.0800 
 31 H       -5.7830     3.0210    -0.5730 H     1 <1>   0.0800 
 32 H       -5.1170    -5.4690    -1.5040 H     1 <1>   0.0800 
 33 H       -1.5770    -4.4180    -0.8060 H     1 <1>   0.0800 
 34 H       -2.4570    -5.7250    -1.5970 H     1 <1>   0.0800 
 35 H       -4.6350    -6.4880     0.4870 H     1 <1>   0.0800 
 36 H       -4.5590    -4.9660     1.3690 H     1 <1>   0.0800 
 37 H       -6.3850    -3.3310    -1.3660 H     1 <1>   0.0800 
 38 H       -5.9180    -3.1660     0.2950 H     1 <1>   0.0800 
 39 H       -7.8630    -5.3230    -2.0460 H     1 <1>   0.1500 
 40 H       -7.0660    -4.4800     2.0450 H     1 <1>   0.1500 
 41 H       -9.7030    -6.7320    -1.3080 H     1 <1>   0.1500 
 42 H       -8.9360    -5.9230     2.6180 H     1 <1>   0.1500 
@<TRIPOS>BOND
  1   1   2  1   
  2   2   3  ar  
  3   2   4  ar  
  4   3   5  1   
  5   3   6  ar  
  6   4   7  ar  
  7   4  24  1   
  8   5   8  2   
  9   5   9  am  
 10   6  10  ar  
 11   6  25  1   
 12   7  10  ar  
 13   7  26  1   
 14   9  11  1   
 15   9  27  1   
 16  10  12  1   
 17  11  13  1   
 18  11  14  1   
 19  11  28  1   
 20  12  29  1   
 21  12  30  1   
 22  12  31  1   
 23  13  15  1   
 24  13  16  1   
 25  13  32  1   
 26  14  17  1   
 27  14  33  1   
 28  14  34  1   
 29  15  17  1   
 30  15  35  1   
 31  15  36  1   
 32  16  18  1   
 33  16  37  1   
 34  16  38  1   
 35  18  19  ar  
 36  18  20  ar  
 37  19  21  ar  
 38  19  39  1   
 39  20  22  ar  
 40  20  40  1   
 41  21  23  ar  
 42  21  41  1   
 43  22  23  ar  
 44  22  42  1   
@<TRIPOS>SUBSTRUCTURE
  1 ****   9 GROUP 4 **** **** 0

# MOE 2024.06 (io_trps.svl 2023.06)
