@<TRIPOS>MOLECULE
NONAME
39 41 1 0 0 
SMALL
USER_CHARGES


@<TRIPOS>ATOM
  1 O       -0.4300     0.2170    -0.3180 O.2   1 <1>  -0.5700 
  2 C       -1.4490     0.8070    -0.0180 C.2   1 <1>   0.5440 
  3 N       -2.5980     0.0780     0.1880 N.am  1 <1>  -0.6600 
  4 C       -1.4310     2.2540     0.0920 C.ar  1 <1>   0.0860 
  5 C       -3.9760     0.6140     0.0410 C.3   1 <1>   0.1400 
  6 C       -2.6100    -1.4060     0.1090 C.3   1 <1>   0.1400 
  7 C       -0.7780     3.0500    -0.8370 C.ar  1 <1>  -0.1500 
  8 C       -2.0450     2.9470     1.1250 C.ar  1 <1>  -0.1500 
  9 C       -4.8090    -0.5780    -0.4260 C.3   1 <1>   0.2000 
 10 C       -4.0860    -1.8050     0.1230 C.3   1 <1>  -0.0800 
 11 C       -0.7880     4.4250    -0.7100 C.ar  1 <1>   0.1600 
 12 C       -1.9990     4.3280     1.1640 C.ar  1 <1>   0.1600 
 13 O       -6.1030    -0.5200     0.0640 O.3   1 <1>  -0.6800 
 14 C       -4.3830    -3.0890    -0.6660 C.3   1 <1>   0.0210 
 15 N       -1.3910     5.0840     0.2660 N.ar  1 <1>  -0.6200 
 16 C       -3.5710    -4.2510    -0.1290 C.2   1 <1>   0.1080 
 17 N       -3.7000    -4.6990     1.0810 N.2   1 <1>  -0.7070 
 18 C       -2.6060    -4.9490    -0.8480 C.2   1 <1>  -0.1500 
 19 N       -2.8130    -5.7080     1.1670 N.pl3 1 <1>   0.3000 
 20 C       -2.1360    -5.8770     0.0110 C.2   1 <1>  -0.3320 
 21 C       -1.0660    -6.9310    -0.2040 C.3   1 <1>  -0.0600 
 22 H       -4.3230     0.9630     0.9980 H     1 <1>   0.0800 
 23 H       -4.0060     1.4090    -0.6830 H     1 <1>   0.0800 
 24 H       -2.1350    -1.7130    -0.8080 H     1 <1>   0.0800 
 25 H       -2.0800    -1.8370     0.9420 H     1 <1>   0.0800 
 26 H       -0.2600     2.5850    -1.6570 H     1 <1>   0.1500 
 27 H       -2.5520     2.4060     1.9020 H     1 <1>   0.1500 
 28 H       -4.8500    -0.5910    -1.5020 H     1 <1>   0.0800 
 29 H       -4.3610    -1.9550     1.1530 H     1 <1>   0.0800 
 30 H       -0.2740     5.0170    -1.4490 H     1 <1>   0.1500 
 31 H       -2.4860     4.8410     1.9760 H     1 <1>   0.1500 
 32 H       -6.1150    -0.7330     1.0170 H     1 <1>   0.4000 
 33 H       -4.1570    -2.9460    -1.7070 H     1 <1>   0.0800 
 34 H       -5.4270    -3.3310    -0.5800 H     1 <1>   0.0800 
 35 H       -2.3150    -4.7650    -1.8670 H     1 <1>   0.1500 
 36 H       -2.6930    -6.2590     2.0250 H     1 <1>   0.2700 
 37 H       -0.6770    -6.8630    -1.2040 H     1 <1>   0.0800 
 38 H       -1.4770    -7.9140    -0.0620 H     1 <1>   0.0800 
 39 H       -0.2560    -6.7840     0.4890 H     1 <1>   0.0800 
@<TRIPOS>BOND
  1   1   2  2   
  2   2   3  am  
  3   2   4  1   
  4   3   5  1   
  5   3   6  1   
  6   4   7  ar  
  7   4   8  ar  
  8   5   9  1   
  9   5  22  1   
 10   5  23  1   
 11   6  10  1   
 12   6  24  1   
 13   6  25  1   
 14   7  11  ar  
 15   7  26  1   
 16   8  12  ar  
 17   8  27  1   
 18   9  10  1   
 19   9  13  1   
 20   9  28  1   
 21  10  14  1   
 22  10  29  1   
 23  11  15  ar  
 24  11  30  1   
 25  12  15  ar  
 26  12  31  1   
 27  13  32  1   
 28  14  16  1   
 29  14  33  1   
 30  14  34  1   
 31  16  17  2   
 32  16  18  1   
 33  17  19  1   
 34  18  20  2   
 35  18  35  1   
 36  19  20  1   
 37  19  36  1   
 38  20  21  1   
 39  21  37  1   
 40  21  38  1   
 41  21  39  1   
@<TRIPOS>SUBSTRUCTURE
  1 ****   6 GROUP 4 **** **** 0

# MOE 2024.06 (io_trps.svl 2023.06)
