@<TRIPOS>MOLECULE
NONAME
48 50 1 0 0 
SMALL
USER_CHARGES


@<TRIPOS>ATOM
  1 S        0.3280    -0.1480    -0.4980 S.o2  1 <1>   1.3330 
  2 O       -0.1920    -0.6570     0.7510 O.2   1 <1>  -0.6500 
  3 O       -0.2730     1.0200    -1.1010 O.2   1 <1>  -0.6500 
  4 N        0.2980    -1.4120    -1.6310 N.am  1 <1>  -0.8490 
  5 C        2.0830     0.1710    -0.3160 C.3   1 <1>  -0.0550 
  6 C        0.4580    -2.7400    -1.0290 C.3   1 <1>   0.1160 
  7 C       -0.9080    -1.3850    -2.4640 C.3   1 <1>   0.1160 
  8 C        2.3870     1.3720     0.5960 C.3   1 <1>  -0.0800 
  9 C        3.8740     1.7100     0.5920 C.3   1 <1>   0.2200 
 10 C        2.0770     1.0980     2.0770 C.3   1 <1>   0.1200 
 11 N        4.0250     3.1780     0.5960 N.am  1 <1>  -0.7300 
 12 C        4.3460     1.1380     1.9210 C.3   1 <1>   0.1200 
 13 O        3.2650     1.3030     2.7780 O.3   1 <1>  -0.5600 
 14 C        4.0760     3.9450    -0.5230 C.2   1 <1>   0.7150 
 15 O        4.1680     3.3920    -1.6020 O.2   1 <1>  -0.5700 
 16 C        3.9900     5.3700    -0.3960 C.2   1 <1>  -0.2370 
 17 N        3.6730     6.2240    -1.4030 N.pl3 1 <1>   0.3140 
 18 C        4.1760     6.1660     0.6910 C.2   1 <1>  -0.1500 
 19 N        3.6460     7.4970    -0.9990 N.2   1 <1>  -0.7070 
 20 C        3.3530     5.8930    -2.8020 C.3   1 <1>   0.0160 
 21 C        3.9550     7.4740     0.2750 C.2   1 <1>   0.2880 
 22 C        4.0500     8.6350     1.1260 C.2   1 <1>   0.0410 
 23 S        3.7150    10.2330     0.4490 S.3   1 <1>  -0.0800 
 24 C        4.3660     8.7800     2.4380 C.2   1 <1>  -0.1500 
 25 C        4.0190    11.0280     1.9820 C.2   1 <1>  -0.1100 
 26 C        4.3480    10.1230     2.9200 C.2   1 <1>  -0.1500 
 27 H        2.5710    -0.7050     0.0630 H     1 <1>   0.0800 
 28 H        2.4840     0.3760    -1.2900 H     1 <1>   0.0800 
 29 H        0.5250    -3.4900    -1.7990 H     1 <1>   0.0800 
 30 H       -0.3790    -2.9680    -0.3890 H     1 <1>   0.0800 
 31 H        1.3600    -2.7760    -0.4420 H     1 <1>   0.0800 
 32 H       -0.8870    -2.1900    -3.1790 H     1 <1>   0.0800 
 33 H       -0.9610    -0.4560    -3.0070 H     1 <1>   0.0800 
 34 H       -1.7890    -1.4770    -1.8510 H     1 <1>   0.0800 
 35 H        1.8050     2.2100     0.2490 H     1 <1>   0.0800 
 36 H        4.4120     1.2840    -0.2400 H     1 <1>   0.0800 
 37 H        1.7650     0.0820     2.2500 H     1 <1>   0.0800 
 38 H        1.3330     1.7730     2.4630 H     1 <1>   0.0800 
 39 H        3.7890     3.6220     1.4840 H     1 <1>   0.3700 
 40 H        5.2070     1.6480     2.3150 H     1 <1>   0.0800 
 41 H        4.5450     0.0840     1.8380 H     1 <1>   0.0800 
 42 H        4.4440     5.8750     1.6890 H     1 <1>   0.1500 
 43 H        2.5380     5.1950    -2.8240 H     1 <1>   0.0800 
 44 H        4.2170     5.4580    -3.2690 H     1 <1>   0.0800 
 45 H        3.0750     6.7890    -3.3250 H     1 <1>   0.0800 
 46 H        4.6160     7.9690     3.0980 H     1 <1>   0.1500 
 47 H        3.9170    12.0980     2.0140 H     1 <1>   0.1500 
 48 H        4.5830    10.3490     3.9460 H     1 <1>   0.1500 
@<TRIPOS>BOND
  1   1   2  2   
  2   1   3  2   
  3   1   4  am  
  4   1   5  1   
  5   4   6  1   
  6   4   7  1   
  7   5   8  1   
  8   5  27  1   
  9   5  28  1   
 10   6  29  1   
 11   6  30  1   
 12   6  31  1   
 13   7  32  1   
 14   7  33  1   
 15   7  34  1   
 16   8   9  1   
 17   8  10  1   
 18   8  35  1   
 19   9  11  1   
 20   9  12  1   
 21   9  36  1   
 22  10  13  1   
 23  10  37  1   
 24  10  38  1   
 25  11  14  am  
 26  11  39  1   
 27  12  13  1   
 28  12  40  1   
 29  12  41  1   
 30  14  15  2   
 31  14  16  1   
 32  16  17  1   
 33  16  18  2   
 34  17  19  1   
 35  17  20  1   
 36  18  21  1   
 37  18  42  1   
 38  19  21  2   
 39  20  43  1   
 40  20  44  1   
 41  20  45  1   
 42  21  22  1   
 43  22  23  1   
 44  22  24  2   
 45  23  25  1   
 46  24  26  1   
 47  24  46  1   
 48  25  26  2   
 49  25  47  1   
 50  26  48  1   
@<TRIPOS>SUBSTRUCTURE
  1 ****  11 GROUP 4 **** **** 0

# MOE 2024.06 (io_trps.svl 2023.06)
