@<TRIPOS>MOLECULE
NONAME
44 47 1 0 0 
SMALL
USER_CHARGES


@<TRIPOS>ATOM
  1 O       -1.5060     0.4220    -2.0620 O.2   1 <1>  -0.5700 
  2 C       -2.1530     0.9720    -1.1900 C.2   1 <1>   0.5440 
  3 N       -1.5460     1.9550    -0.4370 N.am  1 <1>  -0.6600 
  4 C       -3.5210     0.5640    -0.9700 C.ar  1 <1>   0.0860 
  5 C       -0.2580     2.5880    -0.8560 C.3   1 <1>   0.1400 
  6 C       -1.9140     2.2640     0.9790 C.3   1 <1>   0.1400 
  7 C       -3.8720    -0.7830    -1.0320 C.ar  1 <1>   0.1600 
  8 C       -4.5470     1.4650    -0.7010 C.ar  1 <1>  -0.1500 
  9 C        0.8400     2.3240     0.1860 C.3   1 <1>   0.1200 
 10 C       -0.7150     2.0320     1.9150 C.3   1 <1>   0.1200 
 11 N       -5.0790    -1.2830    -0.8300 N.ar  1 <1>  -0.6200 
 12 C       -5.8090     0.9650    -0.4950 C.ar  1 <1>  -0.1500 
 13 O        0.4140     2.7210     1.4590 O.3   1 <1>  -0.5600 
 14 C       -6.0440    -0.4060    -0.5620 C.ar  1 <1>   0.4100 
 15 N       -7.3160    -0.8770    -0.3340 N.3   1 <1>  -0.5900 
 16 C       -7.5910    -1.6420     0.9360 C.3   1 <1>   0.2450 
 17 C       -7.8620    -2.0470    -1.1140 C.3   1 <1>   0.2450 
 18 C       -7.6330    -2.9500     0.1170 C.3   1 <1>   0.1080 
 19 C       -8.7910    -3.8800     0.4550 C.ar  1 <1>   0.2020 
 20 N       -9.1280    -3.9760     1.7350 N.ar  1 <1>  -0.6200 
 21 C       -9.4200    -4.5910    -0.5590 C.ar  1 <1>  -0.1500 
 22 C      -10.1310    -4.7950     2.0110 C.ar  1 <1>   0.1600 
 23 C      -10.4640    -5.4400    -0.2580 C.ar  1 <1>  -0.1500 
 24 C      -10.8220    -5.5360     1.0690 C.ar  1 <1>  -0.1500 
 25 H       -0.4030     3.6500    -0.9540 H     1 <1>   0.0800 
 26 H        0.0600     2.2120    -1.8130 H     1 <1>   0.0800 
 27 H       -2.7310     1.6450     1.3050 H     1 <1>   0.0800 
 28 H       -2.2220     3.2920     1.0490 H     1 <1>   0.0800 
 29 H       -3.0890    -1.4870    -1.2620 H     1 <1>   0.1500 
 30 H       -4.3500     2.5220    -0.6640 H     1 <1>   0.1500 
 31 H        1.7240     2.8870    -0.0560 H     1 <1>   0.0800 
 32 H        1.0900     1.2780     0.2120 H     1 <1>   0.0800 
 33 H       -0.4780     0.9830     1.9740 H     1 <1>   0.0800 
 34 H       -0.9410     2.3900     2.9040 H     1 <1>   0.0800 
 35 H       -6.6380     1.6150    -0.2830 H     1 <1>   0.1500 
 36 H       -8.5370    -1.3480     1.3560 H     1 <1>   0.0000 
 37 H       -6.7720    -1.5940     1.6320 H     1 <1>   0.0000 
 38 H       -7.2580    -2.3070    -1.9640 H     1 <1>   0.0000 
 39 H       -8.8990    -1.8900    -1.3540 H     1 <1>   0.0000 
 40 H       -6.6820    -3.4540     0.0960 H     1 <1>   0.0000 
 41 H       -9.0990    -4.4880    -1.5790 H     1 <1>   0.1500 
 42 H      -10.4170    -4.8800     3.0450 H     1 <1>   0.1500 
 43 H      -10.9730    -6.0020    -1.0220 H     1 <1>   0.1500 
 44 H      -11.6270    -6.1800     1.3740 H     1 <1>   0.1500 
@<TRIPOS>BOND
  1   1   2  2   
  2   2   3  am  
  3   2   4  1   
  4   3   5  1   
  5   3   6  1   
  6   4   7  ar  
  7   4   8  ar  
  8   5   9  1   
  9   5  25  1   
 10   5  26  1   
 11   6  10  1   
 12   6  27  1   
 13   6  28  1   
 14   7  11  ar  
 15   7  29  1   
 16   8  12  ar  
 17   8  30  1   
 18   9  13  1   
 19   9  31  1   
 20   9  32  1   
 21  10  13  1   
 22  10  33  1   
 23  10  34  1   
 24  11  14  ar  
 25  12  14  ar  
 26  12  35  1   
 27  14  15  1   
 28  15  16  1   
 29  15  17  1   
 30  16  18  1   
 31  16  36  1   
 32  16  37  1   
 33  17  18  1   
 34  17  38  1   
 35  17  39  1   
 36  18  19  1   
 37  18  40  1   
 38  19  20  ar  
 39  19  21  ar  
 40  20  22  ar  
 41  21  23  ar  
 42  21  41  1   
 43  22  24  ar  
 44  22  42  1   
 45  23  24  ar  
 46  23  43  1   
 47  24  44  1   
@<TRIPOS>SUBSTRUCTURE
  1 ****  11 GROUP 4 **** **** 0

# MOE 2024.06 (io_trps.svl 2023.06)
