@<TRIPOS>MOLECULE
NONAME
43 44 1 0 0 
SMALL
USER_CHARGES


@<TRIPOS>ATOM
  1 O        2.1730    -0.2530     2.1040 O.2   1 <1>  -0.5700 
  2 C        2.1430    -0.7940     1.0270 C.2   1 <1>   0.5690 
  3 N        2.2640    -0.1010    -0.1250 N.am  1 <1>  -0.7300 
  4 C        1.9290    -2.2920     0.9560 C.3   1 <1>  -0.0990 
  5 C        2.3730     1.3660    -0.2040 C.3   1 <1>   0.4000 
  6 C        0.4700    -2.6380     0.6150 C.3   1 <1>  -0.1600 
  7 C        1.0000     1.8960    -0.6140 C.2   1 <1>   0.0060 
  8 C        3.5130     1.7720    -1.1730 C.3   1 <1>  -0.0800 
  9 C        0.2410    -4.1560     0.6050 C.3   1 <1>   0.0960 
 10 N        0.5810     2.0650    -1.8220 N.2   1 <1>  -0.5650 
 11 N        0.0500     2.2200     0.2750 N.pl3 1 <1>   0.3140 
 12 C        4.8640     1.1360    -0.7930 C.3   1 <1>  -0.2400 
 13 C        3.6920     3.3010    -1.2190 C.3   1 <1>  -0.2400 
 14 N       -1.1420    -4.4690     0.2010 N.pl3 1 <1>   0.3140 
 15 C       -0.6610     2.5170    -1.6140 C.2   1 <1>   0.3660 
 16 N       -1.0250     2.6270    -0.3810 N.2   1 <1>  -0.7070 
 17 C        0.0610     2.1340     1.7450 C.3   1 <1>   0.0160 
 18 N       -1.4620    -4.7340    -1.0780 N.2   1 <1>  -0.7070 
 19 C       -2.2270    -4.5190     0.9980 C.2   1 <1>  -0.3020 
 20 C       -2.7430    -4.9470    -1.0630 C.2   1 <1>   0.1390 
 21 C       -3.2800    -4.8260     0.2120 C.2   1 <1>  -0.1500 
 22 H        2.0860    -0.5450    -1.0270 H     1 <1>   0.3700 
 23 H        2.1910    -2.7150     1.9100 H     1 <1>   0.0800 
 24 H        2.5910    -2.7030     0.2170 H     1 <1>   0.0800 
 25 H        2.6250     1.7540     0.7680 H     1 <1>   0.0800 
 26 H        0.2250    -2.2380    -0.3550 H     1 <1>   0.0800 
 27 H       -0.1810    -2.1850     1.3430 H     1 <1>   0.0800 
 28 H        3.2460     1.4430    -2.1630 H     1 <1>   0.0800 
 29 H        0.4160    -4.5720     1.5800 H     1 <1>   0.0800 
 30 H        0.9050    -4.6270    -0.0970 H     1 <1>   0.0800 
 31 H        5.1450     1.4140     0.2070 H     1 <1>   0.0800 
 32 H        5.6350     1.4620    -1.4690 H     1 <1>   0.0800 
 33 H        4.8110     0.0630    -0.8470 H     1 <1>   0.0800 
 34 H        3.9510     3.6850    -0.2480 H     1 <1>   0.0800 
 35 H        2.7870     3.7810    -1.5490 H     1 <1>   0.0800 
 36 H        4.4730     3.5640    -1.9110 H     1 <1>   0.0800 
 37 H       -1.3020     2.7660    -2.4450 H     1 <1>   0.1500 
 38 H        0.9970     2.4960     2.1260 H     1 <1>   0.0800 
 39 H       -0.0800     1.1110     2.0380 H     1 <1>   0.0800 
 40 H       -0.7400     2.7320     2.1380 H     1 <1>   0.0800 
 41 H       -2.1910    -4.3370     2.0560 H     1 <1>   0.1500 
 42 H       -3.3130    -5.1870    -1.9450 H     1 <1>   0.1500 
 43 H       -4.3140    -4.9540     0.4810 H     1 <1>   0.1500 
@<TRIPOS>BOND
  1   1   2  2   
  2   2   3  am  
  3   2   4  1   
  4   3   5  1   
  5   3  22  1   
  6   4   6  1   
  7   4  23  1   
  8   4  24  1   
  9   5   7  1   
 10   5   8  1   
 11   5  25  1   
 12   6   9  1   
 13   6  26  1   
 14   6  27  1   
 15   7  10  2   
 16   7  11  1   
 17   8  12  1   
 18   8  13  1   
 19   8  28  1   
 20   9  14  1   
 21   9  29  1   
 22   9  30  1   
 23  10  15  1   
 24  11  16  1   
 25  11  17  1   
 26  12  31  1   
 27  12  32  1   
 28  12  33  1   
 29  13  34  1   
 30  13  35  1   
 31  13  36  1   
 32  14  18  1   
 33  14  19  1   
 34  15  16  2   
 35  15  37  1   
 36  17  38  1   
 37  17  39  1   
 38  17  40  1   
 39  18  20  2   
 40  19  21  2   
 41  19  41  1   
 42  20  21  1   
 43  20  42  1   
 44  21  43  1   
@<TRIPOS>SUBSTRUCTURE
  1 ****   3 GROUP 4 **** **** 0

# MOE 2024.06 (io_trps.svl 2023.06)
