@<TRIPOS>MOLECULE
NONAME
59 62 1 0 0 
SMALL
USER_CHARGES


@<TRIPOS>ATOM
  1 O        0.4850    -1.2940     1.4390 O.2   1 <1>  -0.5700 
  2 C        1.6090    -1.6360     1.1230 C.2   1 <1>   0.5440 
  3 N        2.0180    -2.9280     1.3920 N.am  1 <1>  -0.6600 
  4 C        2.4790    -0.6760     0.4680 C.ar  1 <1>   0.0860 
  5 C        1.2010    -3.8440     2.2340 C.3   1 <1>   0.1400 
  6 C        3.1950    -3.5700     0.7410 C.3   1 <1>   0.1400 
  7 C        3.7250    -0.3420     0.9970 C.ar  1 <1>  -0.1500 
  8 C        2.0930    -0.0500    -0.7150 C.ar  1 <1>  -0.1500 
  9 C        0.7150    -5.0240     1.3880 C.3   1 <1>  -0.1600 
 10 C        2.7280    -4.7570    -0.1060 C.3   1 <1>  -0.1600 
 11 C        4.5570     0.5630     0.3630 C.ar  1 <1>  -0.1500 
 12 C        2.9210     0.8550    -1.3540 C.ar  1 <1>  -0.1500 
 13 C        1.8890    -5.7580     0.7140 C.3   1 <1>  -0.0190 
 14 C        4.1610     1.1640    -0.8200 C.ar  1 <1>  -0.1440 
 15 C        1.3900    -6.9410    -0.1170 C.2   1 <1>   0.5690 
 16 C        5.0700     2.1590    -1.5190 C.3   1 <1>  -0.0970 
 17 O        1.3500    -6.8760    -1.3220 O.2   1 <1>  -0.5700 
 18 N        0.9850    -8.0570     0.5380 N.am  1 <1>  -0.7300 
 19 C        0.4470    -9.2680    -0.1180 C.3   1 <1>   0.2200 
 20 C       -1.0700    -9.2370    -0.0510 C.3   1 <1>  -0.0800 
 21 C        0.7670   -10.4900     0.7330 C.3   1 <1>   0.1200 
 22 C       -1.3530    -9.8300     1.3360 C.3   1 <1>   0.1200 
 23 C       -1.7010   -10.0670    -1.1850 C.3   1 <1>  -0.0160 
 24 O       -0.1980   -10.5090     1.7410 O.3   1 <1>  -0.5600 
 25 C       -3.2200   -10.0180    -1.1340 C.ar  1 <1>  -0.1440 
 26 C       -3.9760   -11.0870    -0.6950 C.ar  1 <1>  -0.1500 
 27 C       -3.9230    -8.8980    -1.5290 C.ar  1 <1>  -0.1500 
 28 C       -5.3570   -10.9850    -0.6680 C.ar  1 <1>   0.1600 
 29 C       -5.3060    -8.8980    -1.4640 C.ar  1 <1>   0.1600 
 30 N       -6.0410    -9.9150    -1.0400 N.ar  1 <1>  -0.6200 
 31 H        1.8050    -4.1990     3.0510 H     1 <1>   0.0800 
 32 H        0.3540    -3.3260     2.6520 H     1 <1>   0.0800 
 33 H        3.7160    -2.8740     0.1080 H     1 <1>   0.0800 
 34 H        3.8770    -3.9060     1.5030 H     1 <1>   0.0800 
 35 H        4.0370    -0.7990     1.9190 H     1 <1>   0.1500 
 36 H        1.1270    -0.2820    -1.1300 H     1 <1>   0.1500 
 37 H        0.1670    -5.7020     2.0170 H     1 <1>   0.0800 
 38 H        0.0380    -4.6540     0.6370 H     1 <1>   0.0800 
 39 H        2.1440    -4.3810    -0.9290 H     1 <1>   0.0800 
 40 H        3.5850    -5.2580    -0.5200 H     1 <1>   0.0800 
 41 H        5.5130     0.8010     0.7950 H     1 <1>   0.1500 
 42 H        2.5940     1.3200    -2.2670 H     1 <1>   0.1500 
 43 H        2.5230    -6.1590     1.4850 H     1 <1>   0.0800 
 44 H        6.1010     1.9340    -1.3180 H     1 <1>   0.0800 
 45 H        4.8560     3.1540    -1.1690 H     1 <1>   0.0800 
 46 H        4.9170     2.1250    -2.5830 H     1 <1>   0.0800 
 47 H        0.9650    -8.0910     1.5590 H     1 <1>   0.3700 
 48 H        0.8310    -9.3520    -1.1210 H     1 <1>   0.0800 
 49 H       -1.4400    -8.2280    -0.1200 H     1 <1>   0.0800 
 50 H        1.7490   -10.4490     1.1710 H     1 <1>   0.0800 
 51 H        0.6610   -11.3940     0.1600 H     1 <1>   0.0800 
 52 H       -2.1790   -10.5200     1.3380 H     1 <1>   0.0800 
 53 H       -1.5400    -9.0500     2.0530 H     1 <1>   0.0800 
 54 H       -1.3700   -11.0890    -1.1290 H     1 <1>   0.0800 
 55 H       -1.3780    -9.6740    -2.1340 H     1 <1>   0.0800 
 56 H       -3.5060   -11.9990    -0.3730 H     1 <1>   0.1500 
 57 H       -3.4080    -8.0250    -1.8880 H     1 <1>   0.1500 
 58 H       -5.9300   -11.8280    -0.3220 H     1 <1>   0.1500 
 59 H       -5.8370    -8.0160    -1.7760 H     1 <1>   0.1500 
@<TRIPOS>BOND
  1   1   2  2   
  2   2   3  am  
  3   2   4  1   
  4   3   5  1   
  5   3   6  1   
  6   4   7  ar  
  7   4   8  ar  
  8   5   9  1   
  9   5  31  1   
 10   5  32  1   
 11   6  10  1   
 12   6  33  1   
 13   6  34  1   
 14   7  11  ar  
 15   7  35  1   
 16   8  12  ar  
 17   8  36  1   
 18   9  13  1   
 19   9  37  1   
 20   9  38  1   
 21  10  13  1   
 22  10  39  1   
 23  10  40  1   
 24  11  14  ar  
 25  11  41  1   
 26  12  14  ar  
 27  12  42  1   
 28  13  15  1   
 29  13  43  1   
 30  14  16  1   
 31  15  17  2   
 32  15  18  am  
 33  16  44  1   
 34  16  45  1   
 35  16  46  1   
 36  18  19  1   
 37  18  47  1   
 38  19  20  1   
 39  19  21  1   
 40  19  48  1   
 41  20  22  1   
 42  20  23  1   
 43  20  49  1   
 44  21  24  1   
 45  21  50  1   
 46  21  51  1   
 47  22  24  1   
 48  22  52  1   
 49  22  53  1   
 50  23  25  1   
 51  23  54  1   
 52  23  55  1   
 53  25  26  ar  
 54  25  27  ar  
 55  26  28  ar  
 56  26  56  1   
 57  27  29  ar  
 58  27  57  1   
 59  28  30  ar  
 60  28  58  1   
 61  29  30  ar  
 62  29  59  1   
@<TRIPOS>SUBSTRUCTURE
  1 ****   9 GROUP 4 **** **** 0

# MOE 2024.06 (io_trps.svl 2023.06)
