@<TRIPOS>MOLECULE
NONAME
58 62 1 0 0 
SMALL
USER_CHARGES


@<TRIPOS>ATOM
  1 O       -1.7600     1.4060    -2.5670 O.2   1 <1>  -0.5700 
  2 C       -2.6490     1.7800    -1.8250 C.2   1 <1>   0.5440 
  3 N       -3.7700     0.9910    -1.6610 N.am  1 <1>  -0.6600 
  4 C       -2.4850     3.0360    -1.1180 C.ar  1 <1>   0.0860 
  5 C       -4.7380     1.1430    -0.5400 C.3   1 <1>   0.1400 
  6 C       -3.9870    -0.2460    -2.4630 C.3   1 <1>   0.1400 
  7 C       -1.3840     3.2450    -0.2890 C.ar  1 <1>  -0.1500 
  8 C       -3.4080     4.0730    -1.2430 C.ar  1 <1>  -0.1500 
  9 C       -4.6000    -0.0540     0.4040 C.3   1 <1>  -0.1600 
 10 C       -3.8460    -1.4680    -1.5520 C.3   1 <1>  -0.1600 
 11 C       -1.2100     4.4320     0.4050 C.ar  1 <1>  -0.1430 
 12 C       -3.2480     5.2610    -0.5550 C.ar  1 <1>  -0.1500 
 13 C       -4.7830    -1.3960    -0.3330 C.3   1 <1>   0.4240 
 14 C       -2.1520     5.4400     0.2700 C.ar  1 <1>  -0.1500 
 15 C        0.0020     4.6320     1.3090 C.3   1 <1>   0.2390 
 16 O       -6.0750    -1.3720    -0.9020 O.3   1 <1>  -0.5600 
 17 C       -4.5920    -2.6220     0.6070 C.ar  1 <1>  -0.1430 
 18 N        0.8510     5.7530     0.8490 N.pl3 1 <1>   0.3140 
 19 C       -7.1460    -1.7550    -0.1040 C.3   1 <1>   0.1200 
 20 C       -3.3730    -2.8910     1.2450 C.ar  1 <1>   0.0820 
 21 C       -5.6550    -3.4950     0.8350 C.ar  1 <1>  -0.1430 
 22 N        1.2960     6.7010     1.6990 N.2   1 <1>  -0.7070 
 23 C        1.3030     5.9750    -0.4030 C.2   1 <1>  -0.3020 
 24 C       -7.0040    -3.2390     0.1950 C.3   1 <1>  -0.0170 
 25 O       -2.3250    -2.0460     1.0580 O.3   1 <1>  -0.3620 
 26 C       -3.2410    -4.0080     2.0660 C.ar  1 <1>  -0.1500 
 27 C       -5.5110    -4.6050     1.6490 C.ar  1 <1>  -0.1500 
 28 C        2.0120     7.4980     0.9660 C.2   1 <1>   0.1390 
 29 C        2.0550     7.0950    -0.3630 C.2   1 <1>  -0.1500 
 30 C       -0.9930    -2.4340     1.3120 C.3   1 <1>   0.0400 
 31 C       -4.3040    -4.8640     2.2650 C.ar  1 <1>  -0.1500 
 32 H       -5.7370     1.1850    -0.9400 H     1 <1>   0.0800 
 33 H       -4.5600     2.0480     0.0110 H     1 <1>   0.0800 
 34 H       -3.2770    -0.3090    -3.2690 H     1 <1>   0.0800 
 35 H       -4.9730    -0.2180    -2.8940 H     1 <1>   0.0800 
 36 H       -0.6620     2.4510    -0.2050 H     1 <1>   0.1500 
 37 H       -4.2570     3.9370    -1.8910 H     1 <1>   0.1500 
 38 H       -5.3090     0.0240     1.2060 H     1 <1>   0.0800 
 39 H       -3.6260    -0.0030     0.8470 H     1 <1>   0.0800 
 40 H       -2.8200    -1.5230    -1.2480 H     1 <1>   0.0800 
 41 H       -4.0610    -2.3630    -2.1070 H     1 <1>   0.0800 
 42 H       -3.9720     6.0500    -0.6630 H     1 <1>   0.1500 
 43 H       -2.0310     6.3710     0.8010 H     1 <1>   0.1500 
 44 H        0.6070     3.7460     1.3340 H     1 <1>   0.0800 
 45 H       -0.3250     4.8470     2.3090 H     1 <1>   0.0800 
 46 H       -8.0520    -1.5630    -0.6510 H     1 <1>   0.0800 
 47 H       -7.1460    -1.1720     0.8010 H     1 <1>   0.0800 
 48 H        1.0640     5.3360    -1.2350 H     1 <1>   0.1500 
 49 H       -7.0870    -3.7990    -0.7190 H     1 <1>   0.0800 
 50 H       -7.7960    -3.5430     0.8550 H     1 <1>   0.0800 
 51 H       -2.3180    -4.2270     2.5670 H     1 <1>   0.1500 
 52 H       -6.3390    -5.2740     1.8090 H     1 <1>   0.1500 
 53 H        2.5130     8.3700     1.3540 H     1 <1>   0.1500 
 54 H        2.5800     7.5880    -1.1610 H     1 <1>   0.1500 
 55 H       -0.3440    -1.6710     0.9220 H     1 <1>   0.0800 
 56 H       -0.8010    -3.3680     0.8130 H     1 <1>   0.0800 
 57 H       -0.8520    -2.5260     2.3740 H     1 <1>   0.0800 
 58 H       -4.1960    -5.7270     2.8990 H     1 <1>   0.1500 
@<TRIPOS>BOND
  1   1   2  2   
  2   2   3  am  
  3   2   4  1   
  4   3   5  1   
  5   3   6  1   
  6   4   7  ar  
  7   4   8  ar  
  8   5   9  1   
  9   5  32  1   
 10   5  33  1   
 11   6  10  1   
 12   6  34  1   
 13   6  35  1   
 14   7  11  ar  
 15   7  36  1   
 16   8  12  ar  
 17   8  37  1   
 18   9  13  1   
 19   9  38  1   
 20   9  39  1   
 21  10  13  1   
 22  10  40  1   
 23  10  41  1   
 24  11  14  ar  
 25  11  15  1   
 26  12  14  ar  
 27  12  42  1   
 28  13  16  1   
 29  13  17  1   
 30  14  43  1   
 31  15  18  1   
 32  15  44  1   
 33  15  45  1   
 34  16  19  1   
 35  17  20  ar  
 36  17  21  ar  
 37  18  22  1   
 38  18  23  1   
 39  19  24  1   
 40  19  46  1   
 41  19  47  1   
 42  20  25  1   
 43  20  26  ar  
 44  21  24  1   
 45  21  27  ar  
 46  22  28  2   
 47  23  29  2   
 48  23  48  1   
 49  24  49  1   
 50  24  50  1   
 51  25  30  1   
 52  26  31  ar  
 53  26  51  1   
 54  27  31  ar  
 55  27  52  1   
 56  28  29  1   
 57  28  53  1   
 58  29  54  1   
 59  30  55  1   
 60  30  56  1   
 61  30  57  1   
 62  31  58  1   
@<TRIPOS>SUBSTRUCTURE
  1 ****   3 GROUP 4 **** **** 0

# MOE 2024.06 (io_trps.svl 2023.06)
