@<TRIPOS>MOLECULE
NONAME
54 56 1 0 0 
SMALL
USER_CHARGES


@<TRIPOS>ATOM
  1 S        0.2010     0.4010    -0.7270 S.3   1 <1>  -0.0800 
  2 C        0.7340    -0.8680     0.3560 C.2   1 <1>  -0.0450 
  3 C        0.9570     1.5980     0.2960 C.2   1 <1>   0.1980 
  4 C        1.4240    -0.2660     1.3550 C.2   1 <1>   0.0460 
  5 C        0.4130    -2.2380     0.0430 C.2   1 <1>   0.7150 
  6 N        1.5370     1.1070     1.3160 N.2   1 <1>  -0.5650 
  7 C        0.8630     3.0680    -0.1020 C.3   1 <1>   0.1000 
  8 C        2.0990    -0.9400     2.5330 C.3   1 <1>  -0.0590 
  9 O        1.1440    -3.1480     0.3960 O.2   1 <1>  -0.5700 
 10 N       -0.7380    -2.5920    -0.6270 N.am  1 <1>  -0.6600 
 11 C       -0.5920     3.5520    -0.1260 C.3   1 <1>  -0.2400 
 12 C        1.5430     3.3300    -1.4530 C.3   1 <1>  -0.2400 
 13 C       -0.8230    -3.9070    -1.3130 C.3   1 <1>   0.1400 
 14 C       -2.0640    -2.0660    -0.2140 C.3   1 <1>   0.1400 
 15 C       -1.4100    -4.9450    -0.3300 C.3   1 <1>   0.4230 
 16 C       -2.6800    -3.0460     0.7970 C.3   1 <1>  -0.1600 
 17 N       -1.3830    -6.3780    -0.8340 N.4   1 <1>  -0.9590 
 18 C       -2.7730    -4.5210     0.3020 C.3   1 <1>   0.0000 
 19 C       -2.2080    -7.3200    -0.0110 C.3   1 <1>   0.3430 
 20 C       -1.7370    -6.5180    -2.2840 C.3   1 <1>   0.2630 
 21 C       -3.0210    -5.4370     1.5370 C.3   1 <1>  -0.1600 
 22 C       -4.0050    -4.6690    -0.6400 C.3   1 <1>   0.1200 
 23 C       -2.3480    -6.8250     1.4310 C.3   1 <1>  -0.1600 
 24 O       -3.7850    -4.1260    -1.8950 O.3   1 <1>  -0.6800 
 25 H        1.3890     3.6320     0.6490 H     1 <1>   0.0800 
 26 H        1.9370    -2.0010     2.5280 H     1 <1>   0.0800 
 27 H        1.7100    -0.5350     3.4490 H     1 <1>   0.0800 
 28 H        3.1560    -0.7510     2.4950 H     1 <1>   0.0800 
 29 H       -1.1530     3.0410    -0.8870 H     1 <1>   0.0800 
 30 H       -0.6290     4.6090    -0.3210 H     1 <1>   0.0800 
 31 H       -1.0540     3.3650     0.8280 H     1 <1>   0.0800 
 32 H        1.0310     2.8140    -2.2450 H     1 <1>   0.0800 
 33 H        2.5620     2.9870    -1.4210 H     1 <1>   0.0800 
 34 H        1.5440     4.3830    -1.6710 H     1 <1>   0.0800 
 35 H       -1.4240    -3.7980    -2.1950 H     1 <1>   0.0800 
 36 H        0.1630    -4.2130    -1.6150 H     1 <1>   0.0800 
 37 H       -1.9600    -1.0980     0.2460 H     1 <1>   0.0800 
 38 H       -2.6940    -1.9540    -1.0800 H     1 <1>   0.0800 
 39 H       -0.7200    -4.9200     0.4980 H     1 <1>   0.0800 
 40 H       -2.0670    -2.9930     1.6810 H     1 <1>   0.0800 
 41 H       -3.6550    -2.6860     1.0800 H     1 <1>   0.0800 
 42 H       -0.4010    -6.6720    -0.7280 H     1 <1>   0.4500 
 43 H       -3.1930    -7.4060    -0.4390 H     1 <1>   0.0800 
 44 H       -1.7590    -8.3010    -0.0180 H     1 <1>   0.0800 
 45 H       -2.7470    -6.1860    -2.4580 H     1 <1>   0.0800 
 46 H       -1.6570    -7.5480    -2.5920 H     1 <1>   0.0800 
 47 H       -1.0740    -5.9290    -2.8950 H     1 <1>   0.0800 
 48 H       -2.6460    -4.9780     2.4360 H     1 <1>   0.0800 
 49 H       -4.0800    -5.5650     1.6920 H     1 <1>   0.0800 
 50 H       -4.8570    -4.1680    -0.2110 H     1 <1>   0.0800 
 51 H       -4.2680    -5.7010    -0.7820 H     1 <1>   0.0800 
 52 H       -2.9230    -7.5390     1.9960 H     1 <1>   0.0800 
 53 H       -1.3690    -6.7890     1.8790 H     1 <1>   0.0800 
 54 H       -4.6360    -3.9620    -2.3570 H     1 <1>   0.4000 
@<TRIPOS>BOND
  1   1   2  1   
  2   1   3  1   
  3   2   4  2   
  4   2   5  1   
  5   3   6  2   
  6   3   7  1   
  7   4   6  1   
  8   4   8  1   
  9   5   9  2   
 10   5  10  am  
 11   7  11  1   
 12   7  12  1   
 13   7  25  1   
 14   8  26  1   
 15   8  27  1   
 16   8  28  1   
 17  10  13  1   
 18  10  14  1   
 19  11  29  1   
 20  11  30  1   
 21  11  31  1   
 22  12  32  1   
 23  12  33  1   
 24  12  34  1   
 25  13  15  1   
 26  13  35  1   
 27  13  36  1   
 28  14  16  1   
 29  14  37  1   
 30  14  38  1   
 31  15  17  1   
 32  15  18  1   
 33  15  39  1   
 34  16  18  1   
 35  16  40  1   
 36  16  41  1   
 37  17  19  1   
 38  17  20  1   
 39  17  42  1   
 40  18  21  1   
 41  18  22  1   
 42  19  23  1   
 43  19  43  1   
 44  19  44  1   
 45  20  45  1   
 46  20  46  1   
 47  20  47  1   
 48  21  23  1   
 49  21  48  1   
 50  21  49  1   
 51  22  24  1   
 52  22  50  1   
 53  22  51  1   
 54  23  52  1   
 55  23  53  1   
 56  24  54  1   
@<TRIPOS>SUBSTRUCTURE
  1 ****  10 GROUP 4 **** **** 0

# MOE 2024.06 (io_trps.svl 2023.06)
