@<TRIPOS>MOLECULE
NONAME
52 54 1 0 0 
SMALL
USER_CHARGES


@<TRIPOS>ATOM
  1 O       -0.4770     0.4500    -0.9820 O.2   1 <1>  -0.5700 
  2 C       -1.5240     0.9400    -0.6260 C.2   1 <1>   0.5690 
  3 N       -2.6050     0.1720    -0.2940 N.am  1 <1>  -0.6600 
  4 C       -1.5770     2.4750    -0.5350 C.3   1 <1>   0.4040 
  5 C       -3.9640     0.6390     0.0970 C.3   1 <1>   0.1400 
  6 C       -2.5570    -1.3140    -0.3120 C.3   1 <1>   0.1400 
  7 N       -0.2320     3.0860    -0.2160 N.4   1 <1>  -0.9590 
  8 C       -4.8170    -0.6280     0.1560 C.3   1 <1>   0.2000 
  9 C       -3.8310    -1.7650     0.4040 C.3   1 <1>  -0.0800 
 10 C        0.2020     2.7680     1.1680 C.3   1 <1>   0.3430 
 11 C       -0.1670     4.5420    -0.4940 C.3   1 <1>   0.3430 
 12 O       -5.7450    -0.5570     1.1790 O.3   1 <1>  -0.6800 
 13 C       -4.3440    -3.1370    -0.0610 C.3   1 <1>   0.0210 
 14 C        1.6600     2.3080     1.1690 C.3   1 <1>  -0.1600 
 15 C        1.2650     4.9770    -0.8220 C.3   1 <1>  -0.1600 
 16 C       -3.2730    -4.1990     0.0930 C.2   1 <1>   0.1080 
 17 C        2.6310     3.1060     0.2800 C.3   1 <1>  -0.1600 
 18 C        2.3430     4.6140     0.2170 C.3   1 <1>  -0.1600 
 19 N       -2.6280    -4.3930     1.2020 N.2   1 <1>  -0.7070 
 20 C       -2.8570    -5.0610    -0.9150 C.2   1 <1>  -0.1500 
 21 N       -1.7760    -5.4000     0.9280 N.pl3 1 <1>   0.3000 
 22 C       -1.8940    -5.8190    -0.3500 C.2   1 <1>  -0.3320 
 23 C       -1.0680    -6.9350    -0.9600 C.3   1 <1>  -0.0600 
 24 H       -2.2950     2.7590     0.2130 H     1 <1>   0.0800 
 25 H       -1.9180     2.8400    -1.4880 H     1 <1>   0.0800 
 26 H       -3.9200     1.1030     1.0670 H     1 <1>   0.0800 
 27 H       -4.3620     1.3220    -0.6330 H     1 <1>   0.0800 
 28 H       -2.5490    -1.6550    -1.3340 H     1 <1>   0.0800 
 29 H       -1.6780    -1.6840     0.1900 H     1 <1>   0.0800 
 30 H        0.4400     2.5940    -0.8300 H     1 <1>   0.4500 
 31 H       -5.3450    -0.7550    -0.7740 H     1 <1>   0.0800 
 32 H       -3.5970    -1.8170     1.4530 H     1 <1>   0.0800 
 33 H        0.0990     3.6400     1.7920 H     1 <1>   0.0800 
 34 H       -0.4060     1.9810     1.5850 H     1 <1>   0.0800 
 35 H       -0.7950     4.7820    -1.3370 H     1 <1>   0.0800 
 36 H       -0.5280     5.0940     0.3590 H     1 <1>   0.0800 
 37 H       -5.3480    -0.8380     2.0270 H     1 <1>   0.4000 
 38 H       -4.6520    -3.0890    -1.0900 H     1 <1>   0.0800 
 39 H       -5.1970    -3.4210     0.5300 H     1 <1>   0.0800 
 40 H        2.0080     2.3550     2.1860 H     1 <1>   0.0800 
 41 H        1.6980     1.2710     0.8810 H     1 <1>   0.0800 
 42 H        1.5420     4.5760    -1.7820 H     1 <1>   0.0800 
 43 H        1.2570     6.0470    -0.9320 H     1 <1>   0.0800 
 44 H        3.6260     2.9630     0.6690 H     1 <1>   0.0800 
 45 H        2.6360     2.6980    -0.7170 H     1 <1>   0.0800 
 46 H        3.2540     5.1080    -0.0800 H     1 <1>   0.0800 
 47 H        2.0860     4.9960     1.1910 H     1 <1>   0.0800 
 48 H       -3.2370    -5.0960    -1.9210 H     1 <1>   0.1500 
 49 H       -1.1320    -5.7800     1.6320 H     1 <1>   0.2700 
 50 H       -1.3460    -7.0820    -1.9890 H     1 <1>   0.0800 
 51 H       -1.2320    -7.8550    -0.4270 H     1 <1>   0.0800 
 52 H       -0.0220    -6.6880    -0.9210 H     1 <1>   0.0800 
@<TRIPOS>BOND
  1   1   2  2   
  2   2   3  am  
  3   2   4  1   
  4   3   5  1   
  5   3   6  1   
  6   4   7  1   
  7   4  24  1   
  8   4  25  1   
  9   5   8  1   
 10   5  26  1   
 11   5  27  1   
 12   6   9  1   
 13   6  28  1   
 14   6  29  1   
 15   7  10  1   
 16   7  11  1   
 17   7  30  1   
 18   8   9  1   
 19   8  12  1   
 20   8  31  1   
 21   9  13  1   
 22   9  32  1   
 23  10  14  1   
 24  10  33  1   
 25  10  34  1   
 26  11  15  1   
 27  11  35  1   
 28  11  36  1   
 29  12  37  1   
 30  13  16  1   
 31  13  38  1   
 32  13  39  1   
 33  14  17  1   
 34  14  40  1   
 35  14  41  1   
 36  15  18  1   
 37  15  42  1   
 38  15  43  1   
 39  16  19  2   
 40  16  20  1   
 41  17  18  1   
 42  17  44  1   
 43  17  45  1   
 44  18  46  1   
 45  18  47  1   
 46  19  21  1   
 47  20  22  2   
 48  20  48  1   
 49  21  22  1   
 50  21  49  1   
 51  22  23  1   
 52  23  50  1   
 53  23  51  1   
 54  23  52  1   
@<TRIPOS>SUBSTRUCTURE
  1 ****   3 GROUP 4 **** **** 0

# MOE 2024.06 (io_trps.svl 2023.06)
