@<TRIPOS>MOLECULE
NONAME
45 46 1 0 0 
SMALL
USER_CHARGES


@<TRIPOS>ATOM
  1 CL      -1.1840    -1.4610     2.1460 Cl    1 <1>  -0.1230 
  2 C       -2.3980    -1.5240     0.8800 C.2   1 <1>   0.1230 
  3 C       -2.1500    -1.5480    -0.4830 C.2   1 <1>   0.1390 
  4 C       -3.7350    -1.5590     1.0250 C.2   1 <1>  -0.3020 
  5 N       -3.2610    -1.5960    -1.1610 N.2   1 <1>  -0.7070 
  6 N       -4.2390    -1.6010    -0.2270 N.pl3 1 <1>   0.3140 
  7 C       -5.6640    -1.6600    -0.6020 C.3   1 <1>   0.0960 
  8 C       -6.1010    -3.1130    -0.8240 C.3   1 <1>  -0.1600 
  9 C       -7.5570    -3.1830    -1.2740 C.3   1 <1>   0.1400 
 10 N       -7.9470    -4.6010    -1.3930 N.am  1 <1>  -0.7300 
 11 C       -8.7550    -5.2550    -0.5200 C.2   1 <1>   0.5690 
 12 O       -9.2410    -4.7100     0.4400 O.2   1 <1>  -0.5700 
 13 C       -9.0320    -6.7230    -0.7500 C.3   1 <1>  -0.0990 
 14 C       -8.1260    -7.5940     0.1260 C.3   1 <1>  -0.0170 
 15 C       -8.3770    -9.0670    -0.1500 C.ar  1 <1>  -0.1430 
 16 C       -9.4140    -9.7280     0.4870 C.ar  1 <1>  -0.1500 
 17 C       -7.5770    -9.7590    -1.0430 C.ar  1 <1>  -0.1500 
 18 C       -9.6560   -11.0780     0.2370 C.ar  1 <1>   0.0830 
 19 C       -7.8110   -11.1000    -1.2960 C.ar  1 <1>  -0.1500 
 20 O      -10.6620   -11.7700     0.8380 O.3   1 <1>  -0.3630 
 21 C       -8.8460   -11.7660    -0.6620 C.ar  1 <1>  -0.1430 
 22 C      -11.5260   -11.1610     1.7710 C.3   1 <1>   0.0400 
 23 C       -9.0890   -13.2400    -0.9520 C.3   1 <1>  -0.0970 
 24 H       -1.1690    -1.5300    -0.9260 H     1 <1>   0.1500 
 25 H       -4.3310    -1.5580     1.9170 H     1 <1>   0.1500 
 26 H       -5.7930    -1.0910    -1.5050 H     1 <1>   0.0800 
 27 H       -6.2460    -1.2060     0.1800 H     1 <1>   0.0800 
 28 H       -5.9910    -3.6570     0.0980 H     1 <1>   0.0800 
 29 H       -5.4730    -3.5580    -1.5770 H     1 <1>   0.0800 
 30 H       -7.6840    -2.6960    -2.2270 H     1 <1>   0.0800 
 31 H       -8.1910    -2.6910    -0.5540 H     1 <1>   0.0800 
 32 H       -7.5400    -5.1100    -2.1790 H     1 <1>   0.3700 
 33 H       -8.8820    -6.9640    -1.7850 H     1 <1>   0.0800 
 34 H      -10.0610    -6.9190    -0.5090 H     1 <1>   0.0800 
 35 H       -8.3160    -7.3820     1.1640 H     1 <1>   0.0800 
 36 H       -7.0940    -7.3580    -0.0690 H     1 <1>   0.0800 
 37 H      -10.0250    -9.1780     1.1760 H     1 <1>   0.1500 
 38 H       -6.7670    -9.2620    -1.5460 H     1 <1>   0.1500 
 39 H       -7.1780   -11.6220    -1.9920 H     1 <1>   0.1500 
 40 H      -12.2280   -11.9030     2.1080 H     1 <1>   0.0800 
 41 H      -12.0490   -10.3550     1.2880 H     1 <1>   0.0800 
 42 H      -10.9450   -10.8030     2.6020 H     1 <1>   0.0800 
 43 H      -10.0800   -13.3740    -1.3460 H     1 <1>   0.0800 
 44 H       -9.0010   -13.8080    -0.0420 H     1 <1>   0.0800 
 45 H       -8.3800   -13.6200    -1.6640 H     1 <1>   0.0800 
@<TRIPOS>BOND
  1   1   2  1   
  2   2   3  1   
  3   2   4  2   
  4   3   5  2   
  5   3  24  1   
  6   4   6  1   
  7   4  25  1   
  8   5   6  1   
  9   6   7  1   
 10   7   8  1   
 11   7  26  1   
 12   7  27  1   
 13   8   9  1   
 14   8  28  1   
 15   8  29  1   
 16   9  10  1   
 17   9  30  1   
 18   9  31  1   
 19  10  11  am  
 20  10  32  1   
 21  11  12  2   
 22  11  13  1   
 23  13  14  1   
 24  13  33  1   
 25  13  34  1   
 26  14  15  1   
 27  14  35  1   
 28  14  36  1   
 29  15  16  ar  
 30  15  17  ar  
 31  16  18  ar  
 32  16  37  1   
 33  17  19  ar  
 34  17  38  1   
 35  18  20  1   
 36  18  21  ar  
 37  19  21  ar  
 38  19  39  1   
 39  20  22  1   
 40  21  23  1   
 41  22  40  1   
 42  22  41  1   
 43  22  42  1   
 44  23  43  1   
 45  23  44  1   
 46  23  45  1   
@<TRIPOS>SUBSTRUCTURE
  1 ****  14 GROUP 4 **** **** 0

# MOE 2024.06 (io_trps.svl 2023.06)
