@<TRIPOS>MOLECULE
NONAME
46 48 1 0 0 
SMALL
USER_CHARGES


@<TRIPOS>ATOM
  1 O       -1.8010     0.2900     1.8320 O.2   1 <1>  -0.5700 
  2 C       -2.1330     0.7190     0.7400 C.2   1 <1>   0.7150 
  3 N       -3.0220    -0.0200    -0.0060 N.am  1 <1>  -0.6600 
  4 C       -1.6140     1.9920     0.2810 C.2   1 <1>   0.0550 
  5 C       -2.9750    -1.5170     0.0900 C.3   1 <1>   0.3640 
  6 C       -4.3020     0.6020    -0.4430 C.3   1 <1>   0.1400 
  7 O       -1.8260     2.4430    -0.9550 O.3   1 <1>  -0.2800 
  8 C       -0.8540     2.9090     0.9430 C.2   1 <1>  -0.1500 
  9 C       -1.5640    -1.9680    -0.3050 C.ar  1 <1>  -0.1440 
 10 C       -4.0160    -2.2590    -0.8080 C.3   1 <1>   0.2000 
 11 C       -5.0000    -0.2440    -1.5070 C.3   1 <1>   0.1200 
 12 C       -1.2310     3.6060    -1.0920 C.2   1 <1>  -0.0100 
 13 C       -0.6080     3.9550     0.0530 C.2   1 <1>  -0.1500 
 14 C       -0.8200    -2.7640     0.5550 C.ar  1 <1>  -0.1500 
 15 C       -1.0090    -1.5920    -1.5230 C.ar  1 <1>  -0.1500 
 16 O       -5.1980    -1.5270    -1.0080 O.3   1 <1>  -0.5600 
 17 C       -4.4540    -3.6170    -0.2330 C.3   1 <1>   0.1200 
 18 C        0.4480    -3.1950     0.2050 C.ar  1 <1>   0.0830 
 19 C        0.2650    -2.0060    -1.8750 C.ar  1 <1>  -0.1500 
 20 O       -3.3720    -4.4470     0.0420 O.3   1 <1>  -0.6800 
 21 O        1.0980    -4.0060     1.0750 O.3   1 <1>  -0.3630 
 22 C        1.0050    -2.7960    -1.0140 C.ar  1 <1>   0.0830 
 23 C        1.2550    -5.3460     0.6680 C.3   1 <1>   0.0400 
 24 O        2.2560    -3.1450    -1.4040 O.3   1 <1>  -0.3630 
 25 C        3.3170    -2.6390    -0.6230 C.3   1 <1>   0.0400 
 26 H       -3.1600    -1.7900     1.1150 H     1 <1>   0.0800 
 27 H       -4.9540     0.6990     0.4080 H     1 <1>   0.0800 
 28 H       -4.1260     1.5860    -0.8380 H     1 <1>   0.0800 
 29 H       -0.5010     2.8450     1.9580 H     1 <1>   0.1500 
 30 H       -3.5920    -2.4260    -1.7810 H     1 <1>   0.0800 
 31 H       -4.4160    -0.2960    -2.4100 H     1 <1>   0.0800 
 32 H       -5.9650     0.1720    -1.7380 H     1 <1>   0.0800 
 33 H       -1.2960     4.1210    -2.0350 H     1 <1>   0.1500 
 34 H       -0.0350     4.8400     0.2660 H     1 <1>   0.1500 
 35 H       -1.2230    -3.0630     1.5060 H     1 <1>   0.1500 
 36 H       -1.5640    -0.9650    -2.1990 H     1 <1>   0.1500 
 37 H       -5.0900    -4.1250    -0.9360 H     1 <1>   0.0800 
 38 H       -4.9890    -3.4710     0.6890 H     1 <1>   0.0800 
 39 H        0.6930    -1.7090    -2.8150 H     1 <1>   0.1500 
 40 H       -2.7820    -4.5340    -0.7340 H     1 <1>   0.4000 
 41 H        1.7340    -5.8860     1.4650 H     1 <1>   0.0800 
 42 H        1.8630    -5.3800    -0.2180 H     1 <1>   0.0800 
 43 H        0.2830    -5.7630     0.4710 H     1 <1>   0.0800 
 44 H        4.2400    -2.8640    -1.1240 H     1 <1>   0.0800 
 45 H        3.3020    -3.1060     0.3450 H     1 <1>   0.0800 
 46 H        3.1980    -1.5740    -0.5250 H     1 <1>   0.0800 
@<TRIPOS>BOND
  1   1   2  2   
  2   2   3  am  
  3   2   4  1   
  4   3   5  1   
  5   3   6  1   
  6   4   7  1   
  7   4   8  2   
  8   5   9  1   
  9   5  10  1   
 10   5  26  1   
 11   6  11  1   
 12   6  27  1   
 13   6  28  1   
 14   7  12  1   
 15   8  13  1   
 16   8  29  1   
 17   9  14  ar  
 18   9  15  ar  
 19  10  16  1   
 20  10  17  1   
 21  10  30  1   
 22  11  16  1   
 23  11  31  1   
 24  11  32  1   
 25  12  13  2   
 26  12  33  1   
 27  13  34  1   
 28  14  18  ar  
 29  14  35  1   
 30  15  19  ar  
 31  15  36  1   
 32  17  20  1   
 33  17  37  1   
 34  17  38  1   
 35  18  21  1   
 36  18  22  ar  
 37  19  22  ar  
 38  19  39  1   
 39  20  40  1   
 40  21  23  1   
 41  22  24  1   
 42  23  41  1   
 43  23  42  1   
 44  23  43  1   
 45  24  25  1   
 46  25  44  1   
 47  25  45  1   
 48  25  46  1   
@<TRIPOS>SUBSTRUCTURE
  1 ****   9 GROUP 4 **** **** 0

# MOE 2024.06 (io_trps.svl 2023.06)
