@<TRIPOS>MOLECULE
NONAME
49 52 1 0 0 
SMALL
USER_CHARGES


@<TRIPOS>ATOM
  1 O       -2.3410     1.0990    -2.4570 O.2   1 <1>  -0.5700 
  2 C       -2.4070     1.3600    -1.2680 C.2   1 <1>   0.7150 
  3 N       -2.8280     0.3420    -0.4270 N.am  1 <1>  -0.6600 
  4 C       -2.0640     2.7030    -0.8260 C.2   1 <1>   0.1010 
  5 C       -3.5530     0.5590     0.8650 C.3   1 <1>   0.1400 
  6 C       -2.7090    -1.0930    -0.8250 C.3   1 <1>   0.1400 
  7 N       -2.0320     3.1850     0.3910 N.2   1 <1>  -0.5650 
  8 N       -1.7020     3.6410    -1.7480 N.pl3 1 <1>   0.0330 
  9 C       -4.9290    -0.1440     0.8700 C.3   1 <1>   0.4230 
 10 C       -4.0920    -1.7660    -0.8500 C.3   1 <1>   0.3430 
 11 C       -1.6380     4.4760     0.2520 C.ar  1 <1>   0.2270 
 12 C       -1.4280     4.7810    -1.0770 C.ar  1 <1>  -0.1520 
 13 N       -4.8360    -1.6050     0.4590 N.4   1 <1>  -0.9590 
 14 C       -5.9290     0.6190    -0.0300 C.3   1 <1>   0.1200 
 15 C       -1.4370     5.4540     1.2270 C.ar  1 <1>  -0.1500 
 16 C       -1.0160     6.0550    -1.4770 C.ar  1 <1>  -0.1500 
 17 C       -6.2210    -2.1950     0.4320 C.3   1 <1>   0.4230 
 18 O       -7.1780    -0.0130    -0.0140 O.3   1 <1>  -0.5600 
 19 C       -1.0310     6.7130     0.8450 C.ar  1 <1>  -0.1500 
 20 C       -0.8220     7.0130    -0.5080 C.ar  1 <1>  -0.1500 
 21 C       -7.1790    -1.3460    -0.4400 C.3   1 <1>   0.1200 
 22 C       -6.1720    -3.6710     0.0050 C.3   1 <1>  -0.1600 
 23 C       -7.4790    -4.4160     0.3200 C.3   1 <1>  -0.1600 
 24 C       -7.3620    -5.8980    -0.0430 C.3   1 <1>  -0.2400 
 25 H       -2.9490     0.1870     1.6740 H     1 <1>   0.0800 
 26 H       -3.7200     1.6040     1.0460 H     1 <1>   0.0800 
 27 H       -2.2550    -1.1850    -1.7970 H     1 <1>   0.0800 
 28 H       -2.0690    -1.6020    -0.1250 H     1 <1>   0.0800 
 29 H       -1.6360     3.4790    -2.7580 H     1 <1>   0.2700 
 30 H       -5.3150    -0.0880     1.8750 H     1 <1>   0.0800 
 31 H       -3.9620    -2.8120    -1.0730 H     1 <1>   0.0800 
 32 H       -4.6640    -1.3280    -1.6510 H     1 <1>   0.0800 
 33 H       -4.3030    -2.0950     1.1860 H     1 <1>   0.4500 
 34 H       -5.5810     0.6780    -1.0470 H     1 <1>   0.0800 
 35 H       -6.0690     1.6200     0.3380 H     1 <1>   0.0800 
 36 H       -1.6020     5.1990     2.2570 H     1 <1>   0.1500 
 37 H       -0.8570     6.2750    -2.5180 H     1 <1>   0.1500 
 38 H       -6.6140    -2.1690     1.4360 H     1 <1>   0.0800 
 39 H       -0.8700     7.4800     1.5830 H     1 <1>   0.1500 
 40 H       -0.5050     8.0050    -0.7800 H     1 <1>   0.1500 
 41 H       -8.1880    -1.7070    -0.3460 H     1 <1>   0.0800 
 42 H       -6.9030    -1.3790    -1.4800 H     1 <1>   0.0800 
 43 H       -5.9830    -3.7490    -1.0510 H     1 <1>   0.0800 
 44 H       -5.3760    -4.1640     0.5350 H     1 <1>   0.0800 
 45 H       -7.7090    -4.3330     1.3700 H     1 <1>   0.0800 
 46 H       -8.3010    -3.9940    -0.2340 H     1 <1>   0.0800 
 47 H       -6.5760    -6.3710     0.5200 H     1 <1>   0.0800 
 48 H       -7.1600    -6.0200    -1.0930 H     1 <1>   0.0800 
 49 H       -8.2860    -6.4050     0.1820 H     1 <1>   0.0800 
@<TRIPOS>BOND
  1   1   2  2   
  2   2   3  am  
  3   2   4  1   
  4   3   5  1   
  5   3   6  1   
  6   4   7  2   
  7   4   8  1   
  8   5   9  1   
  9   5  25  1   
 10   5  26  1   
 11   6  10  1   
 12   6  27  1   
 13   6  28  1   
 14   7  11  1   
 15   8  12  1   
 16   8  29  1   
 17   9  13  1   
 18   9  14  1   
 19   9  30  1   
 20  10  13  1   
 21  10  31  1   
 22  10  32  1   
 23  11  12  ar  
 24  11  15  ar  
 25  12  16  ar  
 26  13  17  1   
 27  13  33  1   
 28  14  18  1   
 29  14  34  1   
 30  14  35  1   
 31  15  19  ar  
 32  15  36  1   
 33  16  20  ar  
 34  16  37  1   
 35  17  21  1   
 36  17  22  1   
 37  17  38  1   
 38  18  21  1   
 39  19  20  ar  
 40  19  39  1   
 41  20  40  1   
 42  21  41  1   
 43  21  42  1   
 44  22  23  1   
 45  22  43  1   
 46  22  44  1   
 47  23  24  1   
 48  23  45  1   
 49  23  46  1   
 50  24  47  1   
 51  24  48  1   
 52  24  49  1   
@<TRIPOS>SUBSTRUCTURE
  1 ****   3 GROUP 4 **** **** 0

# MOE 2024.06 (io_trps.svl 2023.06)
