@<TRIPOS>MOLECULE
NONAME
49 51 1 0 0 
SMALL
USER_CHARGES


@<TRIPOS>ATOM
  1 N       -0.2040    -0.0440     0.1880 N.ar  1 <1>  -0.6200 
  2 C        0.8070     0.7160    -0.2010 C.ar  1 <1>   0.7710 
  3 C       -1.3670     0.5390     0.3830 C.ar  1 <1>   0.4100 
  4 N        0.6660     2.0340    -0.4040 N.ar  1 <1>  -0.1790 
  5 N        2.0230     0.1500    -0.4010 N.pl3 1 <1>  -0.8380 
  6 N       -2.3730    -0.2380     0.8220 N.pl3 1 <1>  -0.8690 
  7 C       -1.5810     1.9230     0.1620 C.ar  1 <1>  -0.1430 
  8 C       -0.5130     2.6760    -0.2270 C.ar  1 <1>   0.2170 
  9 C        3.3040     0.8110    -0.7740 C.3   1 <1>   0.2090 
 10 C        2.2430    -1.3110    -0.2140 C.3   1 <1>   0.2090 
 11 C       -2.4130    -1.6960     0.9710 C.3   1 <1>   0.4690 
 12 C       -2.9940     2.4860     0.3640 C.3   1 <1>  -0.0970 
 13 C       -0.5130     4.1780    -0.4850 C.3   1 <1>  -0.0970 
 14 C        4.3770    -0.2410    -0.5310 C.3   1 <1>  -0.1600 
 15 C        3.6570    -1.5710    -0.7130 C.3   1 <1>  -0.1600 
 16 C       -3.8490    -2.1500     0.7110 C.2   1 <1>   0.0060 
 17 C       -1.9860    -2.0330     2.3960 C.3   1 <1>  -0.2400 
 18 N       -4.9040    -1.4230     0.8820 N.2   1 <1>  -0.5650 
 19 N       -4.1730    -3.3740     0.2690 N.pl3 1 <1>   0.3140 
 20 C       -5.8750    -2.2720     0.5270 C.2   1 <1>   0.3660 
 21 N       -5.4920    -3.4470     0.1550 N.2   1 <1>  -0.7070 
 22 C       -3.3040    -4.5230    -0.0720 C.3   1 <1>   0.0960 
 23 C       -2.7910    -4.4220    -1.5150 C.3   1 <1>  -0.2400 
 24 H        1.5020     2.5140    -0.7060 H     1 <1>   0.4570 
 25 H       -3.3250     0.1280     0.9450 H     1 <1>   0.4000 
 26 H        3.4940     1.6860    -0.1750 H     1 <1>   0.0800 
 27 H        3.2850     1.0700    -1.8200 H     1 <1>   0.0800 
 28 H        1.5220    -1.8910    -0.7670 H     1 <1>   0.0800 
 29 H        2.1670    -1.5510     0.8340 H     1 <1>   0.0800 
 30 H       -1.7420    -2.1490     0.2620 H     1 <1>   0.0800 
 31 H       -3.7120     1.8740    -0.1560 H     1 <1>   0.0800 
 32 H       -3.1080     3.4840    -0.0110 H     1 <1>   0.0800 
 33 H       -3.2430     2.4830     1.4110 H     1 <1>   0.0800 
 34 H        0.4170     4.6190    -0.1730 H     1 <1>   0.0800 
 35 H       -1.2930     4.6740     0.0630 H     1 <1>   0.0800 
 36 H       -0.6540     4.3730    -1.5340 H     1 <1>   0.0800 
 37 H        4.7340    -0.1560     0.4810 H     1 <1>   0.0800 
 38 H        5.2090    -0.1310    -1.2040 H     1 <1>   0.0800 
 39 H        3.6200    -1.8300    -1.7570 H     1 <1>   0.0800 
 40 H        4.1310    -2.3720    -0.1730 H     1 <1>   0.0800 
 41 H       -2.6540    -1.5700     3.0990 H     1 <1>   0.0800 
 42 H       -0.9850    -1.6840     2.5710 H     1 <1>   0.0800 
 43 H       -2.0120    -3.0960     2.5500 H     1 <1>   0.0800 
 44 H       -6.9100    -1.9710     0.5580 H     1 <1>   0.1500 
 45 H       -3.8830    -5.4220     0.0440 H     1 <1>   0.0800 
 46 H       -2.4830    -4.5600     0.6180 H     1 <1>   0.0800 
 47 H       -3.6230    -4.4070    -2.1990 H     1 <1>   0.0800 
 48 H       -2.1810    -5.2770    -1.7450 H     1 <1>   0.0800 
 49 H       -2.2030    -3.5340    -1.6540 H     1 <1>   0.0800 
@<TRIPOS>BOND
  1   1   2  ar  
  2   1   3  ar  
  3   2   4  ar  
  4   2   5  1   
  5   3   6  1   
  6   3   7  ar  
  7   4   8  ar  
  8   4  24  1   
  9   5   9  1   
 10   5  10  1   
 11   6  11  1   
 12   6  25  1   
 13   7   8  ar  
 14   7  12  1   
 15   8  13  1   
 16   9  14  1   
 17   9  26  1   
 18   9  27  1   
 19  10  15  1   
 20  10  28  1   
 21  10  29  1   
 22  11  16  1   
 23  11  17  1   
 24  11  30  1   
 25  12  31  1   
 26  12  32  1   
 27  12  33  1   
 28  13  34  1   
 29  13  35  1   
 30  13  36  1   
 31  14  15  1   
 32  14  37  1   
 33  14  38  1   
 34  15  39  1   
 35  15  40  1   
 36  16  18  2   
 37  16  19  1   
 38  17  41  1   
 39  17  42  1   
 40  17  43  1   
 41  18  20  1   
 42  19  21  1   
 43  19  22  1   
 44  20  21  2   
 45  20  44  1   
 46  22  23  1   
 47  22  45  1   
 48  22  46  1   
 49  23  47  1   
 50  23  48  1   
 51  23  49  1   
@<TRIPOS>SUBSTRUCTURE
  1 ****   1 GROUP 4 **** **** 0

# MOE 2024.06 (io_trps.svl 2023.06)
