@<TRIPOS>MOLECULE
NONAME
46 47 1 0 0 
SMALL
USER_CHARGES


@<TRIPOS>ATOM
  1 CL       1.4250     0.8360    -2.0350 Cl    1 <1>  -0.1770 
  2 C        0.6950     1.9300    -0.8800 C.ar  1 <1>   0.1770 
  3 C        1.4110     2.4360     0.2010 C.ar  1 <1>  -0.1440 
  4 C       -0.6280     2.2700    -1.0930 C.ar  1 <1>  -0.1500 
  5 C        0.7580     3.3040     1.0670 C.ar  1 <1>  -0.1500 
  6 C        2.8720     2.0870     0.4770 C.3   1 <1>   0.3640 
  7 C       -1.2640     3.1340    -0.2190 C.ar  1 <1>  -0.1500 
  8 C       -0.5670     3.6500     0.8600 C.ar  1 <1>  -0.1500 
  9 N        3.0010     0.6240     0.6790 N.am  1 <1>  -0.7300 
 10 C        3.8400     2.6360    -0.6040 C.3   1 <1>   0.2610 
 11 C        3.9560    -0.1270     0.0870 C.2   1 <1>   0.5690 
 12 O        5.0740     1.9290    -0.6190 O.3   1 <1>  -0.5600 
 13 C        4.0150     4.1470    -0.3910 C.2   1 <1>   0.5690 
 14 O        4.0280    -1.3110     0.3010 O.2   1 <1>  -0.5700 
 15 C        4.9410     0.5470    -0.8710 C.3   1 <1>   0.1810 
 16 O        3.3470     4.8660    -1.1000 O.2   1 <1>  -0.5700 
 17 N        4.8480     4.6820     0.5740 N.am  1 <1>  -0.6600 
 18 C        4.9900     6.1600     0.7090 C.3   1 <1>   0.1400 
 19 C        5.7820     3.8880     1.4240 C.3   1 <1>   0.0600 
 20 C        6.1770     6.6490    -0.1300 C.3   1 <1>  -0.1600 
 21 C        6.4510     8.1550     0.0320 C.3   1 <1>  -0.0800 
 22 C        5.2850     9.0110    -0.4820 C.3   1 <1>  -0.2400 
 23 C        7.7300     8.5310    -0.7250 C.3   1 <1>  -0.2400 
 24 H       -1.1540     1.8620    -1.9370 H     1 <1>   0.1500 
 25 H        1.2740     3.7270     1.9130 H     1 <1>   0.1500 
 26 H        3.1470     2.5490     1.4090 H     1 <1>   0.0800 
 27 H       -2.2930     3.4050    -0.3780 H     1 <1>   0.1500 
 28 H       -1.0590     4.3260     1.5390 H     1 <1>   0.1500 
 29 H        2.3080     0.1580     1.2660 H     1 <1>   0.3700 
 30 H        3.4020     2.5100    -1.5760 H     1 <1>   0.0800 
 31 H        4.6060     0.4150    -1.8840 H     1 <1>   0.0800 
 32 H        5.9110     0.0980    -0.7630 H     1 <1>   0.0800 
 33 H        4.0850     6.6390     0.3770 H     1 <1>   0.0800 
 34 H        5.1350     6.4170     1.7440 H     1 <1>   0.0800 
 35 H        6.0040     4.4180     2.3340 H     1 <1>   0.0800 
 36 H        6.6990     3.7180     0.8860 H     1 <1>   0.0800 
 37 H        5.3550     2.9370     1.6850 H     1 <1>   0.0800 
 38 H        7.0560     6.1070     0.1680 H     1 <1>   0.0800 
 39 H        5.9820     6.4290    -1.1650 H     1 <1>   0.0800 
 40 H        6.6040     8.3720     1.0760 H     1 <1>   0.0800 
 41 H        5.0630     8.7710    -1.5070 H     1 <1>   0.0800 
 42 H        5.5340    10.0560    -0.4230 H     1 <1>   0.0800 
 43 H        4.4000     8.8510     0.1060 H     1 <1>   0.0800 
 44 H        7.6190     8.3320    -1.7770 H     1 <1>   0.0800 
 45 H        8.5660     7.9650    -0.3550 H     1 <1>   0.0800 
 46 H        7.9480     9.5760    -0.5960 H     1 <1>   0.0800 
@<TRIPOS>BOND
  1   1   2  1   
  2   2   3  ar  
  3   2   4  ar  
  4   3   5  ar  
  5   3   6  1   
  6   4   7  ar  
  7   4  24  1   
  8   5   8  ar  
  9   5  25  1   
 10   6   9  1   
 11   6  10  1   
 12   6  26  1   
 13   7   8  ar  
 14   7  27  1   
 15   8  28  1   
 16   9  11  am  
 17   9  29  1   
 18  10  12  1   
 19  10  13  1   
 20  10  30  1   
 21  11  14  2   
 22  11  15  1   
 23  12  15  1   
 24  13  16  2   
 25  13  17  am  
 26  15  31  1   
 27  15  32  1   
 28  17  18  1   
 29  17  19  1   
 30  18  20  1   
 31  18  33  1   
 32  18  34  1   
 33  19  35  1   
 34  19  36  1   
 35  19  37  1   
 36  20  21  1   
 37  20  38  1   
 38  20  39  1   
 39  21  22  1   
 40  21  23  1   
 41  21  40  1   
 42  22  41  1   
 43  22  42  1   
 44  22  43  1   
 45  23  44  1   
 46  23  45  1   
 47  23  46  1   
@<TRIPOS>SUBSTRUCTURE
  1 ****  13 GROUP 4 **** **** 0

# MOE 2024.06 (io_trps.svl 2023.06)
