@<TRIPOS>MOLECULE
NONAME
34 35 1 0 0 
SMALL
USER_CHARGES


@<TRIPOS>ATOM
  1 O       -0.3860     0.3830     0.0100 O.co2 1 <1>  -0.9000 
  2 C       -1.1710     1.0740     0.6660 C.2   1 <1>   0.9060 
  3 O       -2.0860     0.5720     1.3330 O.co2 1 <1>  -0.9000 
  4 C       -1.0700     2.5830     0.6310 C.3   1 <1>  -0.1860 
  5 C       -2.3680     3.1690     0.0790 C.3   1 <1>   0.2000 
  6 C        0.1220     3.0310    -0.2170 C.3   1 <1>   0.2090 
  7 O       -3.4010     2.8390     0.9310 O.3   1 <1>  -0.6800 
  8 C       -2.3050     4.6880    -0.0290 C.3   1 <1>  -0.1600 
  9 N        0.1360     4.5260    -0.3660 N.pl3 1 <1>  -0.8380 
 10 C       -1.1240     5.1120    -0.9000 C.3   1 <1>   0.2090 
 11 C        1.3020     5.2570    -0.2710 C.ar  1 <1>   0.7200 
 12 N        2.2780     4.7580     0.4850 N.ar  1 <1>  -0.6200 
 13 N        1.3590     6.4060    -0.9480 N.ar  1 <1>  -0.6200 
 14 C        3.3800     5.4610     0.5630 C.ar  1 <1>   0.1600 
 15 C        2.4740     7.0870    -0.8500 C.ar  1 <1>   0.1600 
 16 C        3.5410     6.6560    -0.0970 C.ar  1 <1>  -0.1430 
 17 C        4.8290     7.4590     0.0020 C.3   1 <1>  -0.0170 
 18 C        4.7610     8.4440     1.1710 C.3   1 <1>  -0.2400 
 19 H       -0.9130     2.9260     1.6350 H     1 <1>   0.0800 
 20 H       -2.5830     2.7300    -0.8810 H     1 <1>   0.0800 
 21 H        0.0530     2.5870    -1.1960 H     1 <1>   0.0800 
 22 H        1.0290     2.6700     0.2360 H     1 <1>   0.0800 
 23 H       -3.2050     1.9060     1.2420 H     1 <1>   0.4000 
 24 H       -3.2170     5.0570    -0.4590 H     1 <1>   0.0800 
 25 H       -2.1830     5.1170     0.9500 H     1 <1>   0.0800 
 26 H       -1.0740     6.1870    -0.9110 H     1 <1>   0.0800 
 27 H       -1.2680     4.7690    -1.9100 H     1 <1>   0.0800 
 28 H        4.1750     5.0690     1.1720 H     1 <1>   0.1500 
 29 H        2.5380     8.0170    -1.3880 H     1 <1>   0.1500 
 30 H        5.6620     6.7920     0.1410 H     1 <1>   0.0800 
 31 H        4.9920     7.9980    -0.9150 H     1 <1>   0.0800 
 32 H        4.6180     7.9160     2.0970 H     1 <1>   0.0800 
 33 H        3.9420     9.1290     1.0360 H     1 <1>   0.0800 
 34 H        5.6750     9.0080     1.2340 H     1 <1>   0.0800 
@<TRIPOS>BOND
  1   1   2  ar  
  2   2   3  ar  
  3   2   4  1   
  4   4   5  1   
  5   4   6  1   
  6   4  19  1   
  7   5   7  1   
  8   5   8  1   
  9   5  20  1   
 10   6   9  1   
 11   6  21  1   
 12   6  22  1   
 13   7  23  1   
 14   8  10  1   
 15   8  24  1   
 16   8  25  1   
 17   9  10  1   
 18   9  11  1   
 19  10  26  1   
 20  10  27  1   
 21  11  12  ar  
 22  11  13  ar  
 23  12  14  ar  
 24  13  15  ar  
 25  14  16  ar  
 26  14  28  1   
 27  15  16  ar  
 28  15  29  1   
 29  16  17  1   
 30  17  18  1   
 31  17  30  1   
 32  17  31  1   
 33  18  32  1   
 34  18  33  1   
 35  18  34  1   
@<TRIPOS>SUBSTRUCTURE
  1 ****   9 GROUP 4 **** **** 0

# MOE 2024.06 (io_trps.svl 2023.06)
