@<TRIPOS>MOLECULE
NONAME
51 54 1 0 0 
SMALL
USER_CHARGES


@<TRIPOS>ATOM
  1 O        0.3940    -0.0530     1.0950 O.3   1 <1>  -0.5600 
  2 C        0.2750    -1.4110     0.7630 C.3   1 <1>   0.1200 
  3 C        1.3030     0.6390     0.2940 C.3   1 <1>   0.1200 
  4 C        1.6370    -2.1320     0.8710 C.3   1 <1>   0.3340 
  5 C        2.7070     0.0220     0.4470 C.3   1 <1>   0.1900 
  6 N        2.6830    -1.4170     0.0910 N.3   1 <1>  -0.8100 
  7 C        1.5050    -3.5710     0.3820 C.ar  1 <1>  -0.1440 
  8 C        3.7250     0.7730    -0.4380 C.3   1 <1>   0.3430 
  9 C        4.0160    -2.0330     0.2450 C.3   1 <1>   0.1100 
 10 C        1.3200    -3.8500    -0.9660 C.ar  1 <1>  -0.1500 
 11 C        1.5780    -4.6230     1.2850 C.ar  1 <1>  -0.1500 
 12 N        5.1080     0.1600    -0.3750 N.4   1 <1>  -0.9590 
 13 C        5.0560    -1.3210    -0.6420 C.3   1 <1>   0.3430 
 14 C        1.2110    -5.1580    -1.4050 C.ar  1 <1>  -0.1500 
 15 C        1.4700    -5.9310     0.8470 C.ar  1 <1>  -0.1500 
 16 C        6.0650     0.8390    -1.2920 C.3   1 <1>   0.4860 
 17 C        1.2870    -6.2000    -0.4980 C.ar  1 <1>  -0.1500 
 18 C        6.1830     2.2940    -0.8920 C.ar  1 <1>  -0.1440 
 19 C        5.5470     3.2680    -1.6450 C.ar  1 <1>   0.1600 
 20 C        6.9110     2.6820     0.2180 C.ar  1 <1>  -0.1500 
 21 N        5.5530     4.5550    -1.3690 N.ar  1 <1>  -0.6200 
 22 C        6.9400     4.0280     0.5080 C.ar  1 <1>  -0.1500 
 23 C        6.2500     4.9250    -0.3060 C.ar  1 <1>   0.3930 
 24 O        6.2390     6.2540    -0.0740 O.3   1 <1>  -0.3620 
 25 C        7.0650     6.8760     0.8860 C.3   1 <1>   0.0400 
 26 H       -0.4310    -1.8570     1.4410 H     1 <1>   0.0800 
 27 H       -0.1170    -1.4880    -0.2360 H     1 <1>   0.0800 
 28 H        0.9650     0.5940    -0.7270 H     1 <1>   0.0800 
 29 H        1.3000     1.6660     0.6180 H     1 <1>   0.0800 
 30 H        1.9170    -2.1410     1.9110 H     1 <1>   0.0800 
 31 H        2.9990     0.1350     1.4770 H     1 <1>   0.0800 
 32 H        3.7660     1.8040    -0.1240 H     1 <1>   0.0800 
 33 H        3.3650     0.7500    -1.4530 H     1 <1>   0.0800 
 34 H        4.3250    -2.0000     1.2760 H     1 <1>   0.0800 
 35 H        3.9760    -3.0670    -0.0530 H     1 <1>   0.0800 
 36 H        1.2610    -3.0460    -1.6780 H     1 <1>   0.1500 
 37 H        1.7160    -4.4340     2.3350 H     1 <1>   0.1500 
 38 H        5.4490     0.2990     0.5830 H     1 <1>   0.4500 
 39 H        4.7880    -1.4960    -1.6710 H     1 <1>   0.0800 
 40 H        6.0240    -1.7620    -0.4720 H     1 <1>   0.0800 
 41 H        1.0650    -5.3670    -2.4500 H     1 <1>   0.1500 
 42 H        1.5270    -6.7420     1.5520 H     1 <1>   0.1500 
 43 H        7.0350     0.3730    -1.2270 H     1 <1>   0.0800 
 44 H        5.7200     0.7640    -2.3100 H     1 <1>   0.0800 
 45 H        1.2030    -7.2170    -0.8380 H     1 <1>   0.1500 
 46 H        4.9930     2.9850    -2.5250 H     1 <1>   0.1500 
 47 H        7.4440     1.9800     0.8390 H     1 <1>   0.1500 
 48 H        7.4950     4.3720     1.3600 H     1 <1>   0.1500 
 49 H        6.9140     7.9380     0.8130 H     1 <1>   0.0800 
 50 H        8.0920     6.6390     0.6720 H     1 <1>   0.0800 
 51 H        6.7830     6.5360     1.8670 H     1 <1>   0.0800 
@<TRIPOS>BOND
  1   1   2  1   
  2   1   3  1   
  3   2   4  1   
  4   2  26  1   
  5   2  27  1   
  6   3   5  1   
  7   3  28  1   
  8   3  29  1   
  9   4   6  1   
 10   4   7  1   
 11   4  30  1   
 12   5   6  1   
 13   5   8  1   
 14   5  31  1   
 15   6   9  1   
 16   7  10  ar  
 17   7  11  ar  
 18   8  12  1   
 19   8  32  1   
 20   8  33  1   
 21   9  13  1   
 22   9  34  1   
 23   9  35  1   
 24  10  14  ar  
 25  10  36  1   
 26  11  15  ar  
 27  11  37  1   
 28  12  13  1   
 29  12  16  1   
 30  12  38  1   
 31  13  39  1   
 32  13  40  1   
 33  14  17  ar  
 34  14  41  1   
 35  15  17  ar  
 36  15  42  1   
 37  16  18  1   
 38  16  43  1   
 39  16  44  1   
 40  17  45  1   
 41  18  19  ar  
 42  18  20  ar  
 43  19  21  ar  
 44  19  46  1   
 45  20  22  ar  
 46  20  47  1   
 47  21  23  ar  
 48  22  23  ar  
 49  22  48  1   
 50  23  24  1   
 51  24  25  1   
 52  25  49  1   
 53  25  50  1   
 54  25  51  1   
@<TRIPOS>SUBSTRUCTURE
  1 ****   8 GROUP 4 **** **** 0

# MOE 2024.06 (io_trps.svl 2023.06)
