@<TRIPOS>MOLECULE
NONAME
50 52 1 0 0 
SMALL
USER_CHARGES


@<TRIPOS>ATOM
  1 O        1.6850     0.7890    -2.7990 O.2   1 <1>  -0.5700 
  2 C        2.3140     0.6170    -1.7790 C.2   1 <1>   0.7150 
  3 N        2.4230    -0.6550    -1.3230 N.am  1 <1>  -0.7300 
  4 C        2.8920     1.7030    -1.0430 C.2   1 <1>  -0.2370 
  5 C        2.7480    -0.9730     0.0920 C.3   1 <1>   0.1400 
  6 N        4.0170     1.5940    -0.2940 N.pl3 1 <1>   0.3140 
  7 C        2.4880     2.9890    -0.8960 C.2   1 <1>  -0.1500 
  8 C        4.2580    -0.8280     0.3610 C.3   1 <1>   0.2000 
  9 N        4.3250     2.7320     0.3350 N.2   1 <1>  -0.7070 
 10 C        4.9190     0.4230    -0.2470 C.3   1 <1>   0.0960 
 11 C        3.3910     3.5990    -0.0280 C.2   1 <1>   0.2030 
 12 O        4.8890    -1.9370    -0.1840 O.3   1 <1>  -0.6800 
 13 C        3.3120     4.9860     0.4090 C.2   1 <1>   0.7160 
 14 O        2.4060     5.7220     0.0560 O.2   1 <1>  -0.5700 
 15 N        4.2770     5.4820     1.2410 N.am  1 <1>  -0.7300 
 16 C        4.3530     6.8500     1.7860 C.3   1 <1>   0.1400 
 17 C        5.5330     7.5770     1.1470 C.3   1 <1>  -0.1600 
 18 C        5.5600     9.0480     1.5810 C.3   1 <1>   0.0960 
 19 N        6.7230     9.7470     1.0030 N.pl3 1 <1>   0.3140 
 20 N        7.8740     9.8380     1.6890 N.2   1 <1>  -0.7070 
 21 C        6.8130    10.3600    -0.2020 C.2   1 <1>  -0.3320 
 22 C        8.6710    10.5000     0.9150 C.2   1 <1>   0.1080 
 23 C        8.0670    10.8570    -0.2880 C.2   1 <1>  -0.1810 
 24 C        5.6690    10.4250    -1.2050 C.3   1 <1>  -0.0600 
 25 C       10.0920    10.8270     1.3140 C.3   1 <1>  -0.0590 
 26 C        8.7310    11.6370    -1.4080 C.3   1 <1>  -0.0590 
 27 H        1.8600    -1.3360    -1.8390 H     1 <1>   0.3700 
 28 H        2.4260    -1.9720     0.3340 H     1 <1>   0.0800 
 29 H        2.2100    -0.2950     0.7340 H     1 <1>   0.0800 
 30 H        1.6330     3.4680    -1.3440 H     1 <1>   0.1500 
 31 H        4.4390    -0.8520     1.4220 H     1 <1>   0.0800 
 32 H        5.7880     0.6830     0.3270 H     1 <1>   0.0800 
 33 H        5.2260     0.2210    -1.2560 H     1 <1>   0.0800 
 34 H        4.6130    -2.0520    -1.1170 H     1 <1>   0.4000 
 35 H        5.0280     4.8290     1.4810 H     1 <1>   0.3700 
 36 H        4.4740     6.8020     2.8550 H     1 <1>   0.0800 
 37 H        3.4360     7.3760     1.5720 H     1 <1>   0.0800 
 38 H        5.4430     7.5260     0.0770 H     1 <1>   0.0800 
 39 H        6.4520     7.1040     1.4490 H     1 <1>   0.0800 
 40 H        5.6350     9.1160     2.6510 H     1 <1>   0.0800 
 41 H        4.6640     9.5510     1.2690 H     1 <1>   0.0800 
 42 H        5.3720     9.4340    -1.4950 H     1 <1>   0.0800 
 43 H        5.9630    10.9580    -2.0900 H     1 <1>   0.0800 
 44 H        4.8260    10.9320    -0.7720 H     1 <1>   0.0800 
 45 H       10.2840    10.4630     2.3070 H     1 <1>   0.0800 
 46 H       10.2390    11.8900     1.2970 H     1 <1>   0.0800 
 47 H       10.7760    10.3580     0.6330 H     1 <1>   0.0800 
 48 H        8.0600    11.7750    -2.2340 H     1 <1>   0.0800 
 49 H        9.5970    11.1060    -1.7560 H     1 <1>   0.0800 
 50 H        9.0340    12.6030    -1.0480 H     1 <1>   0.0800 
@<TRIPOS>BOND
  1   1   2  2   
  2   2   3  am  
  3   2   4  1   
  4   3   5  1   
  5   3  27  1   
  6   4   6  1   
  7   4   7  2   
  8   5   8  1   
  9   5  28  1   
 10   5  29  1   
 11   6   9  1   
 12   6  10  1   
 13   7  11  1   
 14   7  30  1   
 15   8  10  1   
 16   8  12  1   
 17   8  31  1   
 18   9  11  2   
 19  10  32  1   
 20  10  33  1   
 21  11  13  1   
 22  12  34  1   
 23  13  14  2   
 24  13  15  am  
 25  15  16  1   
 26  15  35  1   
 27  16  17  1   
 28  16  36  1   
 29  16  37  1   
 30  17  18  1   
 31  17  38  1   
 32  17  39  1   
 33  18  19  1   
 34  18  40  1   
 35  18  41  1   
 36  19  20  1   
 37  19  21  1   
 38  20  22  2   
 39  21  23  2   
 40  21  24  1   
 41  22  23  1   
 42  22  25  1   
 43  23  26  1   
 44  24  42  1   
 45  24  43  1   
 46  24  44  1   
 47  25  45  1   
 48  25  46  1   
 49  25  47  1   
 50  26  48  1   
 51  26  49  1   
 52  26  50  1   
@<TRIPOS>SUBSTRUCTURE
  1 ****  15 GROUP 4 **** **** 0

# MOE 2024.06 (io_trps.svl 2023.06)
