@<TRIPOS>MOLECULE
NONAME
38 40 1 0 0 
SMALL
USER_CHARGES


@<TRIPOS>ATOM
  1 S       -0.1690    -0.2070    -0.8060 S.3   1 <1>  -0.0800 
  2 C       -0.0520    -1.9540    -0.7280 C.2   1 <1>  -0.1100 
  3 C       -1.4200    -0.1930     0.4220 C.2   1 <1>  -0.1100 
  4 C       -0.9250    -2.4550     0.1690 C.2   1 <1>  -0.1810 
  5 C       -1.7000    -1.4440     0.8310 C.2   1 <1>  -0.1500 
  6 C       -1.0980    -3.9270     0.4790 C.3   1 <1>   0.5240 
  7 N       -2.1280    -4.4720    -0.4420 N.4   1 <1>  -0.9590 
  8 C       -3.5010    -3.9280    -0.1950 C.3   1 <1>   0.3430 
  9 C       -2.2090    -5.9650    -0.4130 C.3   1 <1>   0.3430 
 10 C       -4.4550    -5.1000    -0.4250 C.3   1 <1>   0.2000 
 11 C       -3.6490    -6.3340    -0.0430 C.3   1 <1>  -0.0800 
 12 O       -5.5930    -4.9980     0.3580 O.3   1 <1>  -0.6800 
 13 C       -4.1480    -7.6160    -0.7350 C.3   1 <1>  -0.0160 
 14 C       -3.3350    -8.8360    -0.3260 C.ar  1 <1>   0.1670 
 15 N       -2.0600    -8.8420    -0.6890 N.ar  1 <1>  -0.6200 
 16 C       -3.9450    -9.8610     0.3830 C.ar  1 <1>  -0.1500 
 17 C       -1.3710    -9.9220    -0.3430 C.ar  1 <1>   0.1600 
 18 C       -3.2130   -10.9710     0.7450 C.ar  1 <1>  -0.1500 
 19 C       -1.8890   -10.9920     0.3640 C.ar  1 <1>  -0.1500 
 20 H        0.6740    -2.4130    -1.3790 H     1 <1>   0.1500 
 21 H       -1.8120     0.7670     0.7140 H     1 <1>   0.1500 
 22 H       -2.4280    -1.6810     1.5890 H     1 <1>   0.1500 
 23 H       -1.3880    -4.0640     1.5090 H     1 <1>   0.0800 
 24 H       -0.1600    -4.4330     0.3160 H     1 <1>   0.0800 
 25 H       -1.8420    -4.1810    -1.3870 H     1 <1>   0.4500 
 26 H       -3.5880    -3.6010     0.8270 H     1 <1>   0.0800 
 27 H       -3.7220    -3.1080    -0.8580 H     1 <1>   0.0800 
 28 H       -1.9790    -6.3610    -1.3900 H     1 <1>   0.0800 
 29 H       -1.5190    -6.3960     0.2960 H     1 <1>   0.0800 
 30 H       -4.7580    -5.1230    -1.4590 H     1 <1>   0.0800 
 31 H       -3.6790    -6.4750     1.0230 H     1 <1>   0.0800 
 32 H       -5.4450    -5.2730     1.2850 H     1 <1>   0.4000 
 33 H       -4.0870    -7.5110    -1.8040 H     1 <1>   0.0800 
 34 H       -5.1830    -7.7720    -0.4880 H     1 <1>   0.0800 
 35 H       -4.9840    -9.8030     0.6520 H     1 <1>   0.1500 
 36 H       -0.3360    -9.9590    -0.6380 H     1 <1>   0.1500 
 37 H       -3.6540   -11.7850     1.2950 H     1 <1>   0.1500 
 38 H       -1.2640   -11.8330     0.6090 H     1 <1>   0.1500 
@<TRIPOS>BOND
  1   1   2  1   
  2   1   3  1   
  3   2   4  2   
  4   2  20  1   
  5   3   5  2   
  6   3  21  1   
  7   4   5  1   
  8   4   6  1   
  9   5  22  1   
 10   6   7  1   
 11   6  23  1   
 12   6  24  1   
 13   7   8  1   
 14   7   9  1   
 15   7  25  1   
 16   8  10  1   
 17   8  26  1   
 18   8  27  1   
 19   9  11  1   
 20   9  28  1   
 21   9  29  1   
 22  10  11  1   
 23  10  12  1   
 24  10  30  1   
 25  11  13  1   
 26  11  31  1   
 27  12  32  1   
 28  13  14  1   
 29  13  33  1   
 30  13  34  1   
 31  14  15  ar  
 32  14  16  ar  
 33  15  17  ar  
 34  16  18  ar  
 35  16  35  1   
 36  17  19  ar  
 37  17  36  1   
 38  18  19  ar  
 39  18  37  1   
 40  19  38  1   
@<TRIPOS>SUBSTRUCTURE
  1 ****   9 GROUP 4 **** **** 0

# MOE 2024.06 (io_trps.svl 2023.06)
