@<TRIPOS>MOLECULE
NONAME
42 44 1 0 0 
SMALL
USER_CHARGES


@<TRIPOS>ATOM
  1 S        0.0420     0.0820    -0.7570 S.o2  1 <1>   1.5760 
  2 O        0.6980    -0.9950    -1.4640 O.2   1 <1>  -0.6500 
  3 O        0.2020     1.4530    -1.1910 O.2   1 <1>  -0.6500 
  4 N       -1.6080    -0.2520    -0.6590 N.am  1 <1>  -0.8490 
  5 N        0.4600    -0.0270     0.8790 N.am  1 <1>  -0.8490 
  6 C       -2.3690     0.7750     0.0940 C.3   1 <1>   0.1960 
  7 C       -2.1690    -0.6530    -1.9500 C.3   1 <1>   0.1960 
  8 C        1.7900     0.5230     1.1340 C.3   1 <1>   0.1160 
  9 C        0.3710    -1.3980     1.3890 C.3   1 <1>   0.1160 
 10 C       -3.5200     1.4470    -0.6860 C.3   1 <1>   0.1430 
 11 C       -3.6840    -0.8580    -1.8440 C.3   1 <1>  -0.1600 
 12 C       -4.2550     2.3670     0.2770 C.ar  1 <1>   0.1670 
 13 C       -4.4460     0.3660    -1.2930 C.3   1 <1>  -0.1600 
 14 C       -3.0020     2.4560    -1.7530 C.3   1 <1>  -0.1600 
 15 N       -5.0590     1.9800     1.2400 N.ar  1 <1>  -0.6200 
 16 C       -3.9640     3.6800     0.0430 C.ar  1 <1>  -0.1440 
 17 C       -2.9980     3.8470    -1.1000 C.3   1 <1>  -0.0170 
 18 C       -5.5600     2.9730     1.9590 C.ar  1 <1>   0.7200 
 19 C       -4.5550     4.6230     0.8490 C.ar  1 <1>   0.1600 
 20 N       -5.3710     4.2770     1.8190 N.ar  1 <1>  -0.6200 
 21 N       -6.3850     2.6120     2.9420 N.pl3 1 <1>  -0.9000 
 22 H       -1.7100     1.5370     0.4750 H     1 <1>   0.0800 
 23 H       -2.7960     0.2860     0.9540 H     1 <1>   0.0800 
 24 H       -1.7080    -1.5750    -2.2620 H     1 <1>   0.0800 
 25 H       -1.9490     0.0890    -2.6980 H     1 <1>   0.0800 
 26 H        1.8250     1.5550     0.8260 H     1 <1>   0.0800 
 27 H        2.5370    -0.0290     0.5850 H     1 <1>   0.0800 
 28 H        2.0150     0.4760     2.1850 H     1 <1>   0.0800 
 29 H       -0.6230    -1.7840     1.2370 H     1 <1>   0.0800 
 30 H        0.5810    -1.4140     2.4440 H     1 <1>   0.0800 
 31 H        1.0720    -2.0390     0.8790 H     1 <1>   0.0800 
 32 H       -3.8550    -1.7000    -1.1950 H     1 <1>   0.0800 
 33 H       -4.0730    -1.1190    -2.8120 H     1 <1>   0.0800 
 34 H       -5.0660     0.7960    -2.0600 H     1 <1>   0.0800 
 35 H       -5.1120     0.0080    -0.5270 H     1 <1>   0.0800 
 36 H       -3.6820     2.4850    -2.5860 H     1 <1>   0.0800 
 37 H       -2.0260     2.2140    -2.1290 H     1 <1>   0.0800 
 38 H       -3.3160     4.6100    -1.7890 H     1 <1>   0.0800 
 39 H       -2.0190     4.0810    -0.7180 H     1 <1>   0.0800 
 40 H       -4.3550     5.6700     0.6970 H     1 <1>   0.1500 
 41 H       -6.9950     3.3490     3.2830 H     1 <1>   0.4000 
 42 H       -6.7860     1.6840     2.8530 H     1 <1>   0.4000 
@<TRIPOS>BOND
  1   1   2  2   
  2   1   3  2   
  3   1   4  am  
  4   1   5  am  
  5   4   6  1   
  6   4   7  1   
  7   5   8  1   
  8   5   9  1   
  9   6  10  1   
 10   6  22  1   
 11   6  23  1   
 12   7  11  1   
 13   7  24  1   
 14   7  25  1   
 15   8  26  1   
 16   8  27  1   
 17   8  28  1   
 18   9  29  1   
 19   9  30  1   
 20   9  31  1   
 21  10  12  1   
 22  10  13  1   
 23  10  14  1   
 24  11  13  1   
 25  11  32  1   
 26  11  33  1   
 27  12  15  ar  
 28  12  16  ar  
 29  13  34  1   
 30  13  35  1   
 31  14  17  1   
 32  14  36  1   
 33  14  37  1   
 34  15  18  ar  
 35  16  17  1   
 36  16  19  ar  
 37  17  38  1   
 38  17  39  1   
 39  18  20  ar  
 40  18  21  1   
 41  19  20  ar  
 42  19  40  1   
 43  21  41  1   
 44  21  42  1   
@<TRIPOS>SUBSTRUCTURE
  1 ****   6 GROUP 4 **** **** 0

# MOE 2024.06 (io_trps.svl 2023.06)
