@<TRIPOS>MOLECULE
NONAME
55 57 1 0 0 
SMALL
USER_CHARGES


@<TRIPOS>ATOM
  1 O        0.8450    -0.5900     1.8280 O.2   1 <1>  -0.5700 
  2 C        1.3400    -0.9420     0.7820 C.2   1 <1>   0.5690 
  3 N        1.9450    -0.0470    -0.0650 N.am  1 <1>  -0.6600 
  4 C        1.2780    -2.4190     0.4170 C.3   1 <1>  -0.0990 
  5 C        2.0480     1.3970     0.2850 C.3   1 <1>   0.1400 
  6 C        2.5840    -0.3860    -1.3670 C.3   1 <1>   0.1400 
  7 C        0.5950    -3.3000     1.4740 C.3   1 <1>  -0.0160 
  8 C        3.5240     1.7950     0.3680 C.3   1 <1>  -0.1600 
  9 C        4.0700    -0.0180    -1.3140 C.3   1 <1>  -0.1600 
 10 C        0.5710    -4.7500     1.0140 C.ar  1 <1>  -0.1440 
 11 C        4.2740     1.4670    -0.9430 C.3   1 <1>  -0.0800 
 12 C       -0.4990    -5.2340     0.2790 C.ar  1 <1>  -0.1500 
 13 C        1.6220    -5.5970     1.3210 C.ar  1 <1>  -0.1500 
 14 C        5.7720     1.8640    -0.9060 C.3   1 <1>   0.3430 
 15 C       -0.5240    -6.5590    -0.1520 C.ar  1 <1>   0.0820 
 16 C        1.6050    -6.9140     0.8960 C.ar  1 <1>  -0.1500 
 17 O        6.4080     1.0740     0.0500 O.3   1 <1>  -0.6800 
 18 C        6.0020     3.3690    -0.6490 C.ar  1 <1>   0.1670 
 19 O       -1.5520    -7.0800    -0.8740 O.3   1 <1>  -0.3630 
 20 C        0.5380    -7.4020     0.1600 C.ar  1 <1>  -0.1440 
 21 N        5.3030     4.2060    -1.4130 N.ar  1 <1>  -0.6200 
 22 C        6.9010     3.8090     0.3200 C.ar  1 <1>  -0.1500 
 23 C       -2.6980    -6.3200    -1.1880 C.3   1 <1>   0.0400 
 24 C        0.5360    -8.8540    -0.2980 C.3   1 <1>  -0.0970 
 25 C        5.4940     5.4970    -1.2010 C.ar  1 <1>   0.1600 
 26 C        7.0880     5.1580     0.5320 C.ar  1 <1>  -0.1500 
 27 C        6.3580     6.0190    -0.2560 C.ar  1 <1>  -0.1500 
 28 H        2.2810    -2.7760     0.2720 H     1 <1>   0.0800 
 29 H        0.7430    -2.5180    -0.5090 H     1 <1>   0.0800 
 30 H        1.5670     1.6000     1.2270 H     1 <1>   0.0800 
 31 H        1.5510     1.9800    -0.4720 H     1 <1>   0.0800 
 32 H        2.0990     0.1740    -2.1490 H     1 <1>   0.0800 
 33 H        2.4820    -1.4300    -1.5990 H     1 <1>   0.0800 
 34 H       -0.4100    -2.9540     1.6420 H     1 <1>   0.0800 
 35 H        1.1240    -3.2230     2.4080 H     1 <1>   0.0800 
 36 H        3.9640     1.2750     1.1990 H     1 <1>   0.0800 
 37 H        3.5810     2.8500     0.5690 H     1 <1>   0.0800 
 38 H        4.5150    -0.2150    -2.2730 H     1 <1>   0.0800 
 39 H        4.5530    -0.6550    -0.5930 H     1 <1>   0.0800 
 40 H        3.8180     2.0490    -1.7260 H     1 <1>   0.0800 
 41 H       -1.3060    -4.5660     0.0490 H     1 <1>   0.1500 
 42 H        2.4590    -5.2360     1.8920 H     1 <1>   0.1500 
 43 H        6.2210     1.6250    -1.8550 H     1 <1>   0.0800 
 44 H        2.4310    -7.5570     1.1450 H     1 <1>   0.1500 
 45 H        5.9230     1.1570     0.8910 H     1 <1>   0.4000 
 46 H        7.4650     3.1100     0.9100 H     1 <1>   0.1500 
 47 H       -3.3750    -6.9490    -1.7360 H     1 <1>   0.0800 
 48 H       -2.4050    -5.4810    -1.7940 H     1 <1>   0.0800 
 49 H       -3.1600    -5.9940    -0.2730 H     1 <1>   0.0800 
 50 H       -0.3200    -9.3610     0.1100 H     1 <1>   0.0800 
 51 H        1.4250    -9.3660     0.0220 H     1 <1>   0.0800 
 52 H        0.4820    -8.8950    -1.3710 H     1 <1>   0.0800 
 53 H        4.9300     6.1790    -1.8150 H     1 <1>   0.1500 
 54 H        7.7760     5.5210     1.2760 H     1 <1>   0.1500 
 55 H        6.4570     7.0840    -0.1430 H     1 <1>   0.1500 
@<TRIPOS>BOND
  1   1   2  2   
  2   2   3  am  
  3   2   4  1   
  4   3   5  1   
  5   3   6  1   
  6   4   7  1   
  7   4  28  1   
  8   4  29  1   
  9   5   8  1   
 10   5  30  1   
 11   5  31  1   
 12   6   9  1   
 13   6  32  1   
 14   6  33  1   
 15   7  10  1   
 16   7  34  1   
 17   7  35  1   
 18   8  11  1   
 19   8  36  1   
 20   8  37  1   
 21   9  11  1   
 22   9  38  1   
 23   9  39  1   
 24  10  12  ar  
 25  10  13  ar  
 26  11  14  1   
 27  11  40  1   
 28  12  15  ar  
 29  12  41  1   
 30  13  16  ar  
 31  13  42  1   
 32  14  17  1   
 33  14  18  1   
 34  14  43  1   
 35  15  19  1   
 36  15  20  ar  
 37  16  20  ar  
 38  16  44  1   
 39  17  45  1   
 40  18  21  ar  
 41  18  22  ar  
 42  19  23  1   
 43  20  24  1   
 44  21  25  ar  
 45  22  26  ar  
 46  22  46  1   
 47  23  47  1   
 48  23  48  1   
 49  23  49  1   
 50  24  50  1   
 51  24  51  1   
 52  24  52  1   
 53  25  27  ar  
 54  25  53  1   
 55  26  27  ar  
 56  26  54  1   
 57  27  55  1   
@<TRIPOS>SUBSTRUCTURE
  1 ****   3 GROUP 4 **** **** 0

# MOE 2024.06 (io_trps.svl 2023.06)
