@<TRIPOS>MOLECULE
NONAME
48 50 1 0 0 
SMALL
USER_CHARGES


@<TRIPOS>ATOM
  1 O       -2.0680     0.9920     0.9140 O.2   1 <1>  -0.5700 
  2 C       -1.2540     1.7810     0.4640 C.2   1 <1>   0.5440 
  3 N       -0.3160     1.2940    -0.4390 N.am  1 <1>  -0.6600 
  4 C       -1.3390     3.1820     0.8790 C.ar  1 <1>   0.3960 
  5 C       -0.1300    -0.1680    -0.6680 C.3   1 <1>   0.0600 
  6 C        0.5470     2.1610    -1.2880 C.3   1 <1>   0.0600 
  7 N       -0.2290     3.9210     1.0440 N.ar  1 <1>  -0.6200 
  8 C       -2.6100     3.7220     1.1000 C.ar  1 <1>   0.1600 
  9 C       -0.4630     5.1690     1.4090 C.ar  1 <1>   0.4100 
 10 N       -2.8690     4.9710     1.4630 N.ar  1 <1>  -0.6200 
 11 N        0.6390     5.9900     1.5630 N.pl3 1 <1>  -0.8380 
 12 C       -1.7590     5.6660     1.6130 C.ar  1 <1>   0.1600 
 13 C        0.9300     6.9740     0.4740 C.3   1 <1>   0.2090 
 14 C        1.8990     5.4310     2.1550 C.3   1 <1>   0.2090 
 15 C        1.8580     6.3830    -0.6080 C.3   1 <1>   0.2090 
 16 C        2.8480     4.8420     1.0890 C.3   1 <1>   0.2090 
 17 N        3.1100     5.7980    -0.0320 N.pl3 1 <1>  -0.8380 
 18 C        4.2490     6.5710     0.0380 C.ar  1 <1>   0.4100 
 19 N        4.0820     7.8190     0.4280 N.ar  1 <1>  -0.6200 
 20 C        5.5110     6.0630    -0.2620 C.ar  1 <1>  -0.1430 
 21 C        5.1820     8.5320     0.5310 C.ar  1 <1>   0.4700 
 22 C        6.5820     6.9140    -0.0960 C.ar  1 <1>   0.1670 
 23 C        5.6820     4.6270    -0.7630 C.3   1 <1>  -0.0970 
 24 N        6.4260     8.1610     0.3000 N.ar  1 <1>  -0.6200 
 25 C        8.0200     6.4990    -0.3540 C.3   1 <1>  -0.0970 
 26 H       -0.6050    -0.7410     0.1110 H     1 <1>   0.0800 
 27 H        0.9180    -0.4060    -0.6720 H     1 <1>   0.0800 
 28 H       -0.5640    -0.4440    -1.6130 H     1 <1>   0.0800 
 29 H        0.0910     3.1240    -1.4350 H     1 <1>   0.0800 
 30 H        0.6930     1.7070    -2.2530 H     1 <1>   0.0800 
 31 H        1.5030     2.2950    -0.8120 H     1 <1>   0.0800 
 32 H       -3.4590     3.0750     0.9630 H     1 <1>   0.1500 
 33 H       -1.8470     6.6920     1.9170 H     1 <1>   0.1500 
 34 H        1.4020     7.8420     0.9010 H     1 <1>   0.0800 
 35 H        0.0120     7.2930     0.0140 H     1 <1>   0.0800 
 36 H        1.6520     4.6660     2.8700 H     1 <1>   0.0800 
 37 H        2.4150     6.2160     2.6790 H     1 <1>   0.0800 
 38 H        2.1150     7.1540    -1.3140 H     1 <1>   0.0800 
 39 H        1.3270     5.6130    -1.1400 H     1 <1>   0.0800 
 40 H        2.4150     3.9430     0.6900 H     1 <1>   0.0800 
 41 H        3.7770     4.5760     1.5620 H     1 <1>   0.0800 
 42 H        5.0520     9.5530     0.8490 H     1 <1>   0.1500 
 43 H        4.7950     4.2900    -1.2690 H     1 <1>   0.0800 
 44 H        5.8750     3.9710     0.0660 H     1 <1>   0.0800 
 45 H        6.4930     4.5560    -1.4640 H     1 <1>   0.0800 
 46 H        8.1850     5.4780    -0.0680 H     1 <1>   0.0800 
 47 H        8.6890     7.1160     0.2190 H     1 <1>   0.0800 
 48 H        8.2480     6.6220    -1.3960 H     1 <1>   0.0800 
@<TRIPOS>BOND
  1   1   2  2   
  2   2   3  am  
  3   2   4  1   
  4   3   5  1   
  5   3   6  1   
  6   4   7  ar  
  7   4   8  ar  
  8   5  26  1   
  9   5  27  1   
 10   5  28  1   
 11   6  29  1   
 12   6  30  1   
 13   6  31  1   
 14   7   9  ar  
 15   8  10  ar  
 16   8  32  1   
 17   9  11  1   
 18   9  12  ar  
 19  10  12  ar  
 20  11  13  1   
 21  11  14  1   
 22  12  33  1   
 23  13  15  1   
 24  13  34  1   
 25  13  35  1   
 26  14  16  1   
 27  14  36  1   
 28  14  37  1   
 29  15  17  1   
 30  15  38  1   
 31  15  39  1   
 32  16  17  1   
 33  16  40  1   
 34  16  41  1   
 35  17  18  1   
 36  18  19  ar  
 37  18  20  ar  
 38  19  21  ar  
 39  20  22  ar  
 40  20  23  1   
 41  21  24  ar  
 42  21  42  1   
 43  22  24  ar  
 44  22  25  1   
 45  23  43  1   
 46  23  44  1   
 47  23  45  1   
 48  25  46  1   
 49  25  47  1   
 50  25  48  1   
@<TRIPOS>SUBSTRUCTURE
  1 ****  16 GROUP 4 **** **** 0

# MOE 2024.06 (io_trps.svl 2023.06)
