@<TRIPOS>MOLECULE
NONAME
53 56 1 0 0 
SMALL
USER_CHARGES


@<TRIPOS>ATOM
  1 O       -0.1930    -1.1750     1.4590 O.2   1 <1>  -0.5700 
  2 C       -0.0370    -1.9830     0.5510 C.2   1 <1>   0.6160 
  3 N       -0.9950    -2.9790     0.3900 N.am  1 <1>  -0.4770 
  4 C        1.0640    -1.9200    -0.3770 C.2   1 <1>  -0.1240 
  5 C       -0.9250    -3.9070    -0.6650 C.ar  1 <1>   0.1170 
  6 C       -2.0830    -3.0980     1.4040 C.3   1 <1>   0.1400 
  7 C        1.1130    -2.8000    -1.4080 C.2   1 <1>  -0.1780 
  8 C        2.2190    -0.9020    -0.2910 C.3   1 <1>   0.1960 
  9 C        0.1290    -3.8140    -1.5890 C.ar  1 <1>   0.0280 
 10 C       -1.8810    -4.9200    -0.8300 C.ar  1 <1>  -0.1440 
 11 C       -3.3450    -3.7150     0.8000 C.3   1 <1>  -0.1600 
 12 C        3.5630    -1.6400    -0.3430 C.2   1 <1>  -0.1240 
 13 C        2.2180     0.1330     0.8500 C.3   1 <1>  -0.0990 
 14 C        0.1970    -4.7160    -2.6500 C.ar  1 <1>  -0.1500 
 15 C       -1.7910    -5.8030    -1.8870 C.ar  1 <1>  -0.1500 
 16 C       -3.0250    -5.0650     0.1600 C.3   1 <1>  -0.0170 
 17 C        3.9260    -2.5280     0.6790 C.2   1 <1>   0.6160 
 18 C        4.4190    -1.4270    -1.4240 C.2   1 <1>  -0.1500 
 19 C        3.3950     1.0670     0.7190 C.2   1 <1>   0.6590 
 20 C       -0.7530    -5.7010    -2.8010 C.ar  1 <1>  -0.1500 
 21 O        3.1890    -2.7570     1.6620 O.2   1 <1>  -0.5700 
 22 N        5.1570    -3.2090     0.6260 N.am  1 <1>  -0.4690 
 23 O        4.1530    -0.6770    -2.3810 O.3   1 <1>  -0.8500 
 24 C        5.6630    -2.1070    -1.4300 C.2   1 <1>  -0.1500 
 25 O        4.2900     1.0930     1.5290 O.2   1 <1>  -0.5700 
 26 O        3.3860     1.8490    -0.3520 O.3   1 <1>  -0.4300 
 27 C        6.0230    -2.9620    -0.4410 C.2   1 <1>  -0.0290 
 28 C        5.5160    -4.1210     1.7500 C.3   1 <1>   0.0600 
 29 C        4.5880     2.3560    -0.8810 C.3   1 <1>   0.0400 
 30 C        7.3760    -3.6530    -0.4860 C.3   1 <1>  -0.1020 
 31 H       -2.3310    -2.1280     1.7980 H     1 <1>   0.0800 
 32 H       -1.7230    -3.7070     2.2160 H     1 <1>   0.0800 
 33 H        1.9190    -2.7610    -2.1260 H     1 <1>   0.1500 
 34 H        2.1270    -0.3230    -1.1930 H     1 <1>   0.0800 
 35 H       -3.7400    -3.0440     0.0570 H     1 <1>   0.0800 
 36 H       -4.0890    -3.8400     1.5670 H     1 <1>   0.0800 
 37 H        2.2660    -0.3570     1.8040 H     1 <1>   0.0800 
 38 H        1.3230     0.7220     0.8070 H     1 <1>   0.0800 
 39 H        1.0080    -4.6310    -3.3510 H     1 <1>   0.1500 
 40 H       -2.5230    -6.5810    -2.0140 H     1 <1>   0.1500 
 41 H       -2.7370    -5.7680     0.9220 H     1 <1>   0.0800 
 42 H       -3.9020    -5.4430    -0.3360 H     1 <1>   0.0800 
 43 H       -0.6910    -6.3930    -3.6230 H     1 <1>   0.1500 
 44 H        6.2930    -1.8900    -2.2710 H     1 <1>   0.1500 
 45 H        4.6350    -4.6060     2.1290 H     1 <1>   0.0800 
 46 H        5.9650    -3.5460     2.5390 H     1 <1>   0.0800 
 47 H        6.1960    -4.8850     1.4270 H     1 <1>   0.0800 
 48 H        4.3540     2.9550    -1.7410 H     1 <1>   0.0800 
 49 H        5.1990     1.5180    -1.1790 H     1 <1>   0.0800 
 50 H        5.0880     2.9410    -0.1300 H     1 <1>   0.0800 
 51 H        7.9320    -3.4300     0.4050 H     1 <1>   0.0800 
 52 H        7.9410    -3.3080    -1.3330 H     1 <1>   0.0800 
 53 H        7.2440    -4.7150    -0.5780 H     1 <1>   0.0800 
@<TRIPOS>BOND
  1   1   2  2   
  2   2   3  am  
  3   2   4  1   
  4   3   5  1   
  5   3   6  1   
  6   4   7  2   
  7   4   8  1   
  8   5   9  ar  
  9   5  10  ar  
 10   6  11  1   
 11   6  31  1   
 12   6  32  1   
 13   7   9  1   
 14   7  33  1   
 15   8  12  1   
 16   8  13  1   
 17   8  34  1   
 18   9  14  ar  
 19  10  15  ar  
 20  10  16  1   
 21  11  16  1   
 22  11  35  1   
 23  11  36  1   
 24  12  17  1   
 25  12  18  2   
 26  13  19  1   
 27  13  37  1   
 28  13  38  1   
 29  14  20  ar  
 30  14  39  1   
 31  15  20  ar  
 32  15  40  1   
 33  16  41  1   
 34  16  42  1   
 35  17  21  2   
 36  17  22  am  
 37  18  23  1   
 38  18  24  1   
 39  19  25  2   
 40  19  26  1   
 41  20  43  1   
 42  22  27  1   
 43  22  28  1   
 44  24  27  2   
 45  24  44  1   
 46  26  29  1   
 47  27  30  1   
 48  28  45  1   
 49  28  46  1   
 50  28  47  1   
 51  29  48  1   
 52  29  49  1   
 53  29  50  1   
 54  30  51  1   
 55  30  52  1   
 56  30  53  1   
@<TRIPOS>SUBSTRUCTURE
  1 ****   4 GROUP 4 **** **** 0

# MOE 2024.06 (io_trps.svl 2023.06)
