@<TRIPOS>MOLECULE
NONAME
43 45 1 0 0 
SMALL
USER_CHARGES


@<TRIPOS>ATOM
  1 S        0.6970    -2.9430     0.6130 S.3   1 <1>  -0.0800 
  2 C       -0.5940    -4.0610     0.9970 C.2   1 <1>   0.1980 
  3 C       -0.0610    -2.6250    -0.9200 C.2   1 <1>  -0.1100 
  4 N       -1.4680    -4.1810     0.0800 N.2   1 <1>  -0.5650 
  5 C       -0.5470    -4.7460     2.3440 C.3   1 <1>  -0.0600 
  6 C       -1.1780    -3.3650    -1.0100 C.2   1 <1>   0.0460 
  7 C       -2.1820    -3.3910    -2.1510 C.3   1 <1>   0.5240 
  8 N       -3.5280    -3.3580    -1.5200 N.4   1 <1>  -0.9590 
  9 C       -4.5320    -4.2790    -2.1340 C.3   1 <1>   0.3430 
 10 C       -4.0190    -1.9980    -1.1850 C.3   1 <1>   0.3430 
 11 C       -5.7390    -4.5200    -1.2020 C.3   1 <1>   0.1400 
 12 C       -4.4150    -1.9570     0.2940 C.3   1 <1>  -0.1600 
 13 N       -5.3950    -4.2550     0.2340 N.am  1 <1>  -0.6600 
 14 C       -5.6060    -2.8460     0.6770 C.3   1 <1>   0.1400 
 15 C       -4.7570    -5.1660     1.0530 C.2   1 <1>   0.5440 
 16 O       -4.1900    -4.7600     2.0450 O.2   1 <1>  -0.5700 
 17 C       -4.6880    -6.5690     0.7220 C.ar  1 <1>   0.0860 
 18 C       -3.4500    -7.1680     0.4830 C.ar  1 <1>   0.1600 
 19 C       -5.8220    -7.3650     0.6160 C.ar  1 <1>  -0.1500 
 20 N       -3.2510    -8.4280     0.1180 N.ar  1 <1>  -0.6200 
 21 C       -5.6180    -8.6760     0.2570 C.ar  1 <1>   0.1900 
 22 C       -4.3470    -9.1690     0.0170 C.ar  1 <1>   0.1600 
 23 F       -6.6500    -9.4660     0.1340 F     1 <1>  -0.1900 
 24 H        0.4190    -1.9160    -1.5720 H     1 <1>   0.1500 
 25 H       -0.4890    -4.0110     3.1250 H     1 <1>   0.0800 
 26 H        0.3130    -5.3880     2.3980 H     1 <1>   0.0800 
 27 H       -1.4340    -5.3340     2.4900 H     1 <1>   0.0800 
 28 H       -2.0530    -4.3120    -2.6950 H     1 <1>   0.0800 
 29 H       -2.0380    -2.5590    -2.8190 H     1 <1>   0.0800 
 30 H       -3.3220    -3.7720    -0.5850 H     1 <1>   0.4500 
 31 H       -4.0630    -5.2320    -2.3210 H     1 <1>   0.0800 
 32 H       -4.8730    -3.8920    -3.0800 H     1 <1>   0.0800 
 33 H       -4.8590    -1.7350    -1.8070 H     1 <1>   0.0800 
 34 H       -3.2340    -1.2760    -1.3490 H     1 <1>   0.0800 
 35 H       -6.0900    -5.5290    -1.3280 H     1 <1>   0.0800 
 36 H       -6.5470    -3.8750    -1.4990 H     1 <1>   0.0800 
 37 H       -4.6680    -0.9430     0.5460 H     1 <1>   0.0800 
 38 H       -3.5670    -2.2200     0.9040 H     1 <1>   0.0800 
 39 H       -6.5140    -2.4620     0.2430 H     1 <1>   0.0800 
 40 H       -5.7330    -2.8240     1.7490 H     1 <1>   0.0800 
 41 H       -2.5690    -6.5580     0.5990 H     1 <1>   0.1500 
 42 H       -6.8080    -6.9820     0.8090 H     1 <1>   0.1500 
 43 H       -4.2340   -10.2030    -0.2640 H     1 <1>   0.1500 
@<TRIPOS>BOND
  1   1   2  1   
  2   1   3  1   
  3   2   4  2   
  4   2   5  1   
  5   3   6  2   
  6   3  24  1   
  7   4   6  1   
  8   5  25  1   
  9   5  26  1   
 10   5  27  1   
 11   6   7  1   
 12   7   8  1   
 13   7  28  1   
 14   7  29  1   
 15   8   9  1   
 16   8  10  1   
 17   8  30  1   
 18   9  11  1   
 19   9  31  1   
 20   9  32  1   
 21  10  12  1   
 22  10  33  1   
 23  10  34  1   
 24  11  13  1   
 25  11  35  1   
 26  11  36  1   
 27  12  14  1   
 28  12  37  1   
 29  12  38  1   
 30  13  14  1   
 31  13  15  am  
 32  14  39  1   
 33  14  40  1   
 34  15  16  2   
 35  15  17  1   
 36  17  18  ar  
 37  17  19  ar  
 38  18  20  ar  
 39  18  41  1   
 40  19  21  ar  
 41  19  42  1   
 42  20  22  ar  
 43  21  22  ar  
 44  21  23  1   
 45  22  43  1   
@<TRIPOS>SUBSTRUCTURE
  1 ****  15 GROUP 4 **** **** 0

# MOE 2024.06 (io_trps.svl 2023.06)
