@<TRIPOS>MOLECULE
NONAME
45 47 1 0 0 
SMALL
USER_CHARGES


@<TRIPOS>ATOM
  1 O        0.6630    -0.4000     1.9050 O.2   1 <1>  -0.5700 
  2 C        1.4830    -0.8310     1.1330 C.2   1 <1>   0.5690 
  3 N        2.4190    -0.0530     0.5130 N.am  1 <1>  -0.4940 
  4 C        1.4980    -2.3210     0.8290 C.3   1 <1>  -0.0190 
  5 C        2.5900     1.3350     0.5560 C.2   1 <1>   0.2040 
  6 C        0.0700    -2.8320     0.6130 C.3   1 <1>   0.2090 
  7 C        2.2000    -3.1230     1.9450 C.3   1 <1>  -0.1600 
  8 O        1.7540     2.1290     1.1810 O.3   1 <1>  -0.0190 
  9 C        3.5480     2.1040     0.0020 C.2   1 <1>  -0.1810 
 10 N        0.1170    -4.2790     0.2780 N.pl3 1 <1>  -0.8380 
 11 C        2.1400    -4.6300     1.6450 C.3   1 <1>  -0.1600 
 12 N        2.1020     3.3860     1.0690 N.2   1 <1>  -0.4100 
 13 C        3.1760     3.3970     0.3660 C.2   1 <1>   0.1080 
 14 C        4.7540     1.6910    -0.8250 C.3   1 <1>   0.0210 
 15 C       -0.9860    -4.7850    -0.3810 C.ar  1 <1>   0.4100 
 16 C        0.7080    -5.1020     1.3680 C.3   1 <1>   0.2090 
 17 C        3.9140     4.6690     0.0030 C.3   1 <1>  -0.0590 
 18 C        4.4150     1.7200    -2.3170 C.3   1 <1>  -0.2400 
 19 N       -1.8480    -5.5030     0.3290 N.ar  1 <1>  -0.6200 
 20 C       -1.1540    -4.5140    -1.7370 C.ar  1 <1>  -0.1500 
 21 C       -2.9010    -5.9580    -0.3290 C.ar  1 <1>   0.1600 
 22 C       -2.2540    -4.9930    -2.4100 C.ar  1 <1>  -0.1500 
 23 C       -3.1510    -5.7380    -1.6720 C.ar  1 <1>  -0.1500 
 24 H        3.0810    -0.5440    -0.0810 H     1 <1>   0.3700 
 25 H        2.0290    -2.4740    -0.0920 H     1 <1>   0.0800 
 26 H       -0.4010    -2.2840    -0.1860 H     1 <1>   0.0800 
 27 H       -0.5170    -2.6920     1.5060 H     1 <1>   0.0800 
 28 H        1.7050    -2.9290     2.8820 H     1 <1>   0.0800 
 29 H        3.2250    -2.8100     2.0390 H     1 <1>   0.0800 
 30 H        2.5370    -5.1820     2.4780 H     1 <1>   0.0800 
 31 H        2.7440    -4.8560     0.7840 H     1 <1>   0.0800 
 32 H        5.0600     0.6980    -0.5460 H     1 <1>   0.0800 
 33 H        5.5770     2.3540    -0.6230 H     1 <1>   0.0800 
 34 H        0.7100    -6.1390     1.0770 H     1 <1>   0.0800 
 35 H        0.1040    -5.0020     2.2550 H     1 <1>   0.0800 
 36 H        3.9970     4.7540    -1.0650 H     1 <1>   0.0800 
 37 H        4.8950     4.6590     0.4390 H     1 <1>   0.0800 
 38 H        3.3770     5.5220     0.3770 H     1 <1>   0.0800 
 39 H        3.6000     1.0510    -2.5280 H     1 <1>   0.0800 
 40 H        5.2700     1.4200    -2.8970 H     1 <1>   0.0800 
 41 H        4.1280     2.7120    -2.6150 H     1 <1>   0.0800 
 42 H       -0.4080    -3.9310    -2.2400 H     1 <1>   0.1500 
 43 H       -3.6070    -6.5410     0.2360 H     1 <1>   0.1500 
 44 H       -2.4070    -4.7990    -3.4570 H     1 <1>   0.1500 
 45 H       -4.0330    -6.1440    -2.1330 H     1 <1>   0.1500 
@<TRIPOS>BOND
  1   1   2  2   
  2   2   3  am  
  3   2   4  1   
  4   3   5  1   
  5   3  24  1   
  6   4   6  1   
  7   4   7  1   
  8   4  25  1   
  9   5   8  1   
 10   5   9  2   
 11   6  10  1   
 12   6  26  1   
 13   6  27  1   
 14   7  11  1   
 15   7  28  1   
 16   7  29  1   
 17   8  12  1   
 18   9  13  1   
 19   9  14  1   
 20  10  15  1   
 21  10  16  1   
 22  11  16  1   
 23  11  30  1   
 24  11  31  1   
 25  12  13  2   
 26  13  17  1   
 27  14  18  1   
 28  14  32  1   
 29  14  33  1   
 30  15  19  ar  
 31  15  20  ar  
 32  16  34  1   
 33  16  35  1   
 34  17  36  1   
 35  17  37  1   
 36  17  38  1   
 37  18  39  1   
 38  18  40  1   
 39  18  41  1   
 40  19  21  ar  
 41  20  22  ar  
 42  20  42  1   
 43  21  23  ar  
 44  21  43  1   
 45  22  23  ar  
 46  22  44  1   
 47  23  45  1   
@<TRIPOS>SUBSTRUCTURE
  1 ****   4 GROUP 4 **** **** 0

# MOE 2024.06 (io_trps.svl 2023.06)
