@<TRIPOS>MOLECULE
NONAME
41 43 1 0 0 
SMALL
USER_CHARGES


@<TRIPOS>ATOM
  1 CL      -0.0900     0.5530     0.7130 Cl    1 <1>  -0.1770 
  2 C        1.2210    -0.5380     0.3590 C.ar  1 <1>   0.1770 
  3 C        2.3630    -0.0520    -0.2470 C.ar  1 <1>  -0.1500 
  4 C        1.0900    -1.8770     0.6900 C.ar  1 <1>  -0.1500 
  5 C        3.3740    -0.9540    -0.5110 C.ar  1 <1>   0.1900 
  6 C        2.1180    -2.7710     0.4090 C.ar  1 <1>  -0.1440 
  7 F        4.4650    -0.5270    -1.0840 F     1 <1>  -0.1900 
  8 C        3.2770    -2.2980    -0.1950 C.ar  1 <1>  -0.1500 
  9 C        1.9700    -4.2400     0.7640 C.3   1 <1>   0.4870 
 10 N        1.7180    -5.0210    -0.4810 N.4   1 <1>  -0.9590 
 11 C        0.3890    -4.6720    -1.0810 C.3   1 <1>   0.3430 
 12 C        1.6680    -6.4840    -0.1670 C.3   1 <1>   0.3430 
 13 C       -0.5960    -5.7070    -0.5310 C.3   1 <1>   0.2000 
 14 C        0.2530    -6.9780    -0.5040 C.3   1 <1>  -0.0800 
 15 O       -0.9380    -5.3370     0.7680 O.3   1 <1>  -0.6800 
 16 C       -0.2430    -8.1010     0.4290 C.3   1 <1>   0.0200 
 17 C        0.6830    -9.3010     0.3640 C.2   1 <1>  -0.0400 
 18 O        1.9010    -9.2060     0.8260 O.3   1 <1>  -0.0190 
 19 C        0.5180   -10.5460    -0.1060 C.2   1 <1>  -0.1500 
 20 N        2.5660   -10.3090     0.6730 N.2   1 <1>  -0.4100 
 21 C        1.7570   -11.1410     0.1210 C.2   1 <1>   0.1080 
 22 C        2.1120   -12.5690    -0.2300 C.3   1 <1>  -0.0590 
 23 H        2.4610     0.9870    -0.5020 H     1 <1>   0.1500 
 24 H        0.1800    -2.2020     1.1670 H     1 <1>   0.1500 
 25 H        4.1080    -2.9430    -0.4210 H     1 <1>   0.1500 
 26 H        1.1530    -4.3710     1.4560 H     1 <1>   0.0800 
 27 H        2.8750    -4.5840     1.2390 H     1 <1>   0.0800 
 28 H        2.4710    -4.8090    -1.1470 H     1 <1>   0.4500 
 29 H        0.0760    -3.6690    -0.8440 H     1 <1>   0.0800 
 30 H        0.4420    -4.7770    -2.1520 H     1 <1>   0.0800 
 31 H        2.4020    -7.0330    -0.7370 H     1 <1>   0.0800 
 32 H        1.8620    -6.6440     0.8810 H     1 <1>   0.0800 
 33 H       -1.4910    -5.7850    -1.1250 H     1 <1>   0.0800 
 34 H        0.2880    -7.3740    -1.5040 H     1 <1>   0.0800 
 35 H       -1.7660    -5.7780     1.0580 H     1 <1>   0.4000 
 36 H       -1.2310    -8.4070     0.1340 H     1 <1>   0.0800 
 37 H       -0.2880    -7.7650     1.4510 H     1 <1>   0.0800 
 38 H       -0.3380   -11.0140    -0.5560 H     1 <1>   0.1500 
 39 H        2.0110   -12.7230    -1.2880 H     1 <1>   0.0800 
 40 H        1.4610   -13.2460     0.2910 H     1 <1>   0.0800 
 41 H        3.1280   -12.7770     0.0560 H     1 <1>   0.0800 
@<TRIPOS>BOND
  1   1   2  1   
  2   2   3  ar  
  3   2   4  ar  
  4   3   5  ar  
  5   3  23  1   
  6   4   6  ar  
  7   4  24  1   
  8   5   7  1   
  9   5   8  ar  
 10   6   8  ar  
 11   6   9  1   
 12   8  25  1   
 13   9  10  1   
 14   9  26  1   
 15   9  27  1   
 16  10  11  1   
 17  10  12  1   
 18  10  28  1   
 19  11  13  1   
 20  11  29  1   
 21  11  30  1   
 22  12  14  1   
 23  12  31  1   
 24  12  32  1   
 25  13  14  1   
 26  13  15  1   
 27  13  33  1   
 28  14  16  1   
 29  14  34  1   
 30  15  35  1   
 31  16  17  1   
 32  16  36  1   
 33  16  37  1   
 34  17  18  1   
 35  17  19  2   
 36  18  20  1   
 37  19  21  1   
 38  19  38  1   
 39  20  21  2   
 40  21  22  1   
 41  22  39  1   
 42  22  40  1   
 43  22  41  1   
@<TRIPOS>SUBSTRUCTURE
  1 ****  10 GROUP 4 **** **** 0

# MOE 2024.06 (io_trps.svl 2023.06)
