@<TRIPOS>MOLECULE
NONAME
67 70 1 0 0 
SMALL
USER_CHARGES


@<TRIPOS>ATOM
  1 O        3.0240     0.7960    -1.7830 O.3   1 <1>  -0.5600 
  2 C        2.1960    -0.3220    -1.6640 C.3   1 <1>   0.1200 
  3 C        3.7590     1.1100    -0.6390 C.3   1 <1>   0.1200 
  4 C        3.0360    -1.5690    -1.3260 C.3   1 <1>   0.3430 
  5 C        4.6730    -0.0700    -0.2580 C.3   1 <1>   0.3430 
  6 N        3.8980    -1.3580    -0.1040 N.4   1 <1>  -0.9590 
  7 C        4.8320    -2.4930     0.1920 C.3   1 <1>   0.3430 
  8 C        4.1060    -3.7690     0.6620 C.3   1 <1>  -0.0800 
  9 C        3.7320    -4.6630    -0.5310 C.3   1 <1>   0.2000 
 10 C        4.9810    -4.7670     1.4790 C.3   1 <1>  -0.0800 
 11 O        4.9060    -5.3590    -0.6710 O.3   1 <1>  -0.5600 
 12 C        2.7540    -5.7790    -0.1360 C.3   1 <1>  -0.1600 
 13 C        4.9840    -5.9870     0.5580 C.3   1 <1>   0.2800 
 14 C        6.4820    -4.5020     1.7360 C.3   1 <1>   0.3430 
 15 C        3.6690    -6.7580     0.6050 C.3   1 <1>  -0.1600 
 16 C        6.3390    -6.6640     0.7380 C.3   1 <1>   0.3430 
 17 N        7.2480    -5.5020     0.9350 N.4   1 <1>  -0.9590 
 18 C        8.5970    -5.8290     1.4430 C.3   1 <1>   0.4810 
 19 C        9.3900    -4.5480     1.3500 C.2   1 <1>  -0.2880 
 20 C       10.1000    -4.1120     0.3030 C.2   1 <1>  -0.2760 
 21 C       10.8530    -2.7830     0.3490 C.3   1 <1>  -0.0220 
 22 C       10.2440    -4.8470    -1.0280 C.3   1 <1>  -0.1020 
 23 C       12.3740    -2.9660     0.3910 C.3   1 <1>  -0.0220 
 24 C       13.0520    -1.6130     0.5490 C.2   1 <1>  -0.2880 
 25 C       13.7430    -0.9140    -0.3600 C.2   1 <1>  -0.2760 
 26 C       14.3690     0.4280    -0.0160 C.3   1 <1>  -0.1020 
 27 C       14.0060    -1.3130    -1.8060 C.3   1 <1>  -0.1020 
 28 H        1.4560    -0.1280    -0.9070 H     1 <1>   0.0800 
 29 H        1.6940    -0.4570    -2.6060 H     1 <1>   0.0800 
 30 H        4.3510     1.9810    -0.8610 H     1 <1>   0.0800 
 31 H        3.0770     1.3550     0.1580 H     1 <1>   0.0800 
 32 H        3.6570    -1.7960    -2.1770 H     1 <1>   0.0800 
 33 H        2.3690    -2.4000    -1.1700 H     1 <1>   0.0800 
 34 H        5.1860     0.1660     0.6590 H     1 <1>   0.0800 
 35 H        5.4140    -0.1810    -1.0330 H     1 <1>   0.0800 
 36 H        3.2620    -1.2220     0.6950 H     1 <1>   0.4500 
 37 H        5.4320    -2.7160    -0.6770 H     1 <1>   0.0800 
 38 H        5.4980    -2.1740     0.9770 H     1 <1>   0.0800 
 39 H        3.2310    -3.5010     1.2290 H     1 <1>   0.0800 
 40 H        3.4770    -4.1660    -1.4510 H     1 <1>   0.0800 
 41 H        4.5100    -5.0040     2.4180 H     1 <1>   0.0800 
 42 H        1.9480    -5.4170     0.4790 H     1 <1>   0.0800 
 43 H        2.3410    -6.2400    -1.0180 H     1 <1>   0.0800 
 44 H        6.6880    -4.6510     2.7850 H     1 <1>   0.0800 
 45 H        6.7790    -3.5020     1.4700 H     1 <1>   0.0800 
 46 H        3.7550    -7.6850     0.0630 H     1 <1>   0.0800 
 47 H        3.3400    -6.9580     1.6100 H     1 <1>   0.0800 
 48 H        6.6010    -7.2520    -0.1270 H     1 <1>   0.0800 
 49 H        6.3230    -7.2860     1.6180 H     1 <1>   0.0800 
 50 H        7.3960    -5.0970    -0.0010 H     1 <1>   0.4500 
 51 H        8.5640    -6.1910     2.4580 H     1 <1>   0.0800 
 52 H        9.0510    -6.5820     0.8180 H     1 <1>   0.0800 
 53 H        9.3320    -3.9820     2.2640 H     1 <1>   0.1500 
 54 H       10.5960    -2.1840    -0.5070 H     1 <1>   0.0800 
 55 H       10.5590    -2.2310     1.2240 H     1 <1>   0.0800 
 56 H        9.9550    -4.2030    -1.8410 H     1 <1>   0.0800 
 57 H        9.6380    -5.7320    -1.0730 H     1 <1>   0.0800 
 58 H       11.2660    -5.1440    -1.1830 H     1 <1>   0.0800 
 59 H       12.7100    -3.4600    -0.4990 H     1 <1>   0.0800 
 60 H       12.6420    -3.5900     1.2260 H     1 <1>   0.0800 
 61 H       12.9160    -1.2330     1.5470 H     1 <1>   0.1500 
 62 H       13.9620     1.2000    -0.6460 H     1 <1>   0.0800 
 63 H       15.4340     0.3880    -0.1590 H     1 <1>   0.0800 
 64 H       14.1760     0.6910     1.0080 H     1 <1>   0.0800 
 65 H       13.6420    -0.5480    -2.4690 H     1 <1>   0.0800 
 66 H       13.5240    -2.2330    -2.0720 H     1 <1>   0.0800 
 67 H       15.0630    -1.4300    -1.9670 H     1 <1>   0.0800 
@<TRIPOS>BOND
  1   1   2  1   
  2   1   3  1   
  3   2   4  1   
  4   2  28  1   
  5   2  29  1   
  6   3   5  1   
  7   3  30  1   
  8   3  31  1   
  9   4   6  1   
 10   4  32  1   
 11   4  33  1   
 12   5   6  1   
 13   5  34  1   
 14   5  35  1   
 15   6   7  1   
 16   6  36  1   
 17   7   8  1   
 18   7  37  1   
 19   7  38  1   
 20   8   9  1   
 21   8  10  1   
 22   8  39  1   
 23   9  11  1   
 24   9  12  1   
 25   9  40  1   
 26  10  13  1   
 27  10  14  1   
 28  10  41  1   
 29  11  13  1   
 30  12  15  1   
 31  12  42  1   
 32  12  43  1   
 33  13  15  1   
 34  13  16  1   
 35  14  17  1   
 36  14  44  1   
 37  14  45  1   
 38  15  46  1   
 39  15  47  1   
 40  16  17  1   
 41  16  48  1   
 42  16  49  1   
 43  17  18  1   
 44  17  50  1   
 45  18  19  1   
 46  18  51  1   
 47  18  52  1   
 48  19  20  2   
 49  19  53  1   
 50  20  21  1   
 51  20  22  1   
 52  21  23  1   
 53  21  54  1   
 54  21  55  1   
 55  22  56  1   
 56  22  57  1   
 57  22  58  1   
 58  23  24  1   
 59  23  59  1   
 60  23  60  1   
 61  24  25  2   
 62  24  61  1   
 63  25  26  1   
 64  25  27  1   
 65  26  62  1   
 66  26  63  1   
 67  26  64  1   
 68  27  65  1   
 69  27  66  1   
 70  27  67  1   
@<TRIPOS>SUBSTRUCTURE
  1 ****  14 GROUP 4 **** **** 0

# MOE 2024.06 (io_trps.svl 2023.06)
