@<TRIPOS>MOLECULE
NONAME
46 49 1 0 0 
SMALL
USER_CHARGES


@<TRIPOS>ATOM
  1 O        1.5240    -1.1180    -2.2870 O.2   1 <1>  -0.5700 
  2 C        1.4770    -1.5760    -1.1560 C.2   1 <1>   0.5440 
  3 N        1.2480    -0.6830    -0.1240 N.am  1 <1>  -0.6600 
  4 C        1.6950    -3.0130    -0.9710 C.ar  1 <1>   0.3960 
  5 C        1.2680    -1.0000     1.3230 C.3   1 <1>   0.1400 
  6 C        1.1370     0.7770    -0.3390 C.3   1 <1>   0.1400 
  7 N        1.0840    -3.6940     0.0150 N.ar  1 <1>  -0.6200 
  8 C        2.5590    -3.6540    -1.8660 C.ar  1 <1>   0.1600 
  9 C        1.0440     0.3340     2.0290 C.3   1 <1>  -0.1600 
 10 C        1.4660     1.3930     1.0150 C.3   1 <1>  -0.1600 
 11 C        1.3830    -4.9740     0.0380 C.ar  1 <1>   0.4100 
 12 N        2.8820    -4.9410    -1.8480 N.ar  1 <1>  -0.6200 
 13 N        0.7390    -5.6610     1.0310 N.pl3 1 <1>  -0.8690 
 14 C        2.2710    -5.5740    -0.8680 C.ar  1 <1>   0.1600 
 15 C       -0.0550    -6.8660     0.7190 C.3   1 <1>   0.2890 
 16 C       -1.3570    -6.4740     0.0110 C.3   1 <1>  -0.0170 
 17 C       -0.3570    -7.5960     2.0250 C.3   1 <1>  -0.1600 
 18 C       -2.3410    -7.6340    -0.0750 C.ar  1 <1>  -0.1430 
 19 C       -1.0820    -8.9160     1.7390 C.3   1 <1>  -0.0170 
 20 C       -2.2200    -8.7580     0.7360 C.ar  1 <1>  -0.1430 
 21 C       -3.3890    -7.5500    -0.9790 C.ar  1 <1>  -0.1500 
 22 C       -3.1500    -9.7800     0.6280 C.ar  1 <1>  -0.1500 
 23 C       -4.3120    -8.5740    -1.0810 C.ar  1 <1>  -0.1500 
 24 C       -4.1940    -9.6910    -0.2760 C.ar  1 <1>  -0.1500 
 25 H        2.2280    -1.4120     1.5850 H     1 <1>   0.0800 
 26 H        0.4890    -1.7000     1.5740 H     1 <1>   0.0800 
 27 H        0.1270     1.0110    -0.6270 H     1 <1>   0.0800 
 28 H        1.8180     1.1130    -1.1030 H     1 <1>   0.0800 
 29 H        3.0100    -3.0590    -2.6420 H     1 <1>   0.1500 
 30 H        1.6010     0.3990     2.9470 H     1 <1>   0.0800 
 31 H       -0.0040     0.4380     2.2490 H     1 <1>   0.0800 
 32 H        0.9590     2.3300     1.1620 H     1 <1>   0.0800 
 33 H        2.5290     1.5540     1.0750 H     1 <1>   0.0800 
 34 H        0.2150    -5.0120     1.6250 H     1 <1>   0.4000 
 35 H        2.4710    -6.6230    -0.7530 H     1 <1>   0.1500 
 36 H        0.5120    -7.5210     0.0780 H     1 <1>   0.0800 
 37 H       -1.1250    -6.1260    -0.9800 H     1 <1>   0.0800 
 38 H       -1.8310    -5.6740     0.5500 H     1 <1>   0.0800 
 39 H       -0.9830    -6.9780     2.6440 H     1 <1>   0.0800 
 40 H        0.5590    -7.7990     2.5510 H     1 <1>   0.0800 
 41 H       -1.4640    -9.3150     2.6620 H     1 <1>   0.0800 
 42 H       -0.3790    -9.6260     1.3390 H     1 <1>   0.0800 
 43 H       -3.4920    -6.6840    -1.6080 H     1 <1>   0.1500 
 44 H       -3.0650   -10.6550     1.2480 H     1 <1>   0.1500 
 45 H       -5.1220    -8.5010    -1.7860 H     1 <1>   0.1500 
 46 H       -4.9110   -10.4900    -0.3520 H     1 <1>   0.1500 
@<TRIPOS>BOND
  1   1   2  2   
  2   2   3  am  
  3   2   4  1   
  4   3   5  1   
  5   3   6  1   
  6   4   7  ar  
  7   4   8  ar  
  8   5   9  1   
  9   5  25  1   
 10   5  26  1   
 11   6  10  1   
 12   6  27  1   
 13   6  28  1   
 14   7  11  ar  
 15   8  12  ar  
 16   8  29  1   
 17   9  10  1   
 18   9  30  1   
 19   9  31  1   
 20  10  32  1   
 21  10  33  1   
 22  11  13  1   
 23  11  14  ar  
 24  12  14  ar  
 25  13  15  1   
 26  13  34  1   
 27  14  35  1   
 28  15  16  1   
 29  15  17  1   
 30  15  36  1   
 31  16  18  1   
 32  16  37  1   
 33  16  38  1   
 34  17  19  1   
 35  17  39  1   
 36  17  40  1   
 37  18  20  ar  
 38  18  21  ar  
 39  19  20  1   
 40  19  41  1   
 41  19  42  1   
 42  20  22  ar  
 43  21  23  ar  
 44  21  43  1   
 45  22  24  ar  
 46  22  44  1   
 47  23  24  ar  
 48  23  45  1   
 49  24  46  1   
@<TRIPOS>SUBSTRUCTURE
  1 ****  11 GROUP 4 **** **** 0

# MOE 2024.06 (io_trps.svl 2023.06)
