@<TRIPOS>MOLECULE
NONAME
50 52 1 0 0 
SMALL
USER_CHARGES


@<TRIPOS>ATOM
  1 O       -1.7520     1.3700     1.6760 O.2   1 <1>  -0.5700 
  2 C       -2.3600     1.3260     0.6220 C.2   1 <1>   0.5440 
  3 N       -2.0590     2.2560    -0.3570 N.am  1 <1>  -0.6600 
  4 C       -3.3570     0.3000     0.4280 C.ar  1 <1>   0.0860 
  5 C       -2.3340     2.0480    -1.8060 C.3   1 <1>   0.0600 
  6 C       -1.2310     3.4570    -0.0540 C.3   1 <1>   0.0600 
  7 C       -3.0970    -1.0150     0.8060 C.ar  1 <1>   0.1600 
  8 C       -4.6080     0.5550    -0.1260 C.ar  1 <1>  -0.1500 
  9 N       -3.9160    -2.0430     0.6590 N.ar  1 <1>  -0.6200 
 10 C       -5.4730    -0.5000    -0.2820 C.ar  1 <1>  -0.1500 
 11 C       -5.0970    -1.7810     0.1130 C.ar  1 <1>   0.4100 
 12 N       -5.9780    -2.8160    -0.0580 N.pl3 1 <1>  -0.8690 
 13 C       -5.7590    -4.1670     0.5200 C.3   1 <1>   0.2890 
 14 C       -7.0200    -5.0340     0.4510 C.3   1 <1>   0.2000 
 15 C       -4.7380    -4.9760    -0.2760 C.3   1 <1>  -0.1600 
 16 O       -7.9070    -4.7100     1.4860 O.3   1 <1>  -0.5600 
 17 C       -6.5010    -6.4660     0.5800 C.3   1 <1>  -0.1600 
 18 C       -5.0870    -6.4490    -0.0180 C.3   1 <1>  -0.1600 
 19 C       -9.2660    -4.8240     1.1810 C.3   1 <1>   0.2630 
 20 C       -9.6590    -6.2770     0.9530 C.ar  1 <1>  -0.1440 
 21 C       -9.5410    -7.1980     1.9830 C.ar  1 <1>  -0.1500 
 22 C      -10.1360    -6.6960    -0.2810 C.ar  1 <1>  -0.1500 
 23 C       -9.8940    -8.5210     1.7850 C.ar  1 <1>  -0.1500 
 24 C      -10.4900    -8.0190    -0.4800 C.ar  1 <1>  -0.1500 
 25 C      -10.3690    -8.9320     0.5520 C.ar  1 <1>  -0.1500 
 26 H       -1.4440     2.2470    -2.3770 H     1 <1>   0.0800 
 27 H       -3.1140     2.7160    -2.1270 H     1 <1>   0.0800 
 28 H       -2.6370     1.0330    -1.9980 H     1 <1>   0.0800 
 29 H       -1.6270     4.3150    -0.5660 H     1 <1>   0.0800 
 30 H       -0.2170     3.2860    -0.3720 H     1 <1>   0.0800 
 31 H       -1.2320     3.6590     1.0040 H     1 <1>   0.0800 
 32 H       -2.1410    -1.2180     1.2580 H     1 <1>   0.1500 
 33 H       -4.8790     1.5540    -0.4180 H     1 <1>   0.1500 
 34 H       -6.4450    -0.3530    -0.7110 H     1 <1>   0.1500 
 35 H       -6.9600    -2.5500     0.0130 H     1 <1>   0.4000 
 36 H       -5.4370    -4.0920     1.5460 H     1 <1>   0.0800 
 37 H       -7.4900    -4.8960    -0.5080 H     1 <1>   0.0800 
 38 H       -4.8470    -4.7560    -1.3230 H     1 <1>   0.0800 
 39 H       -3.7350    -4.7450     0.0360 H     1 <1>   0.0800 
 40 H       -6.4490    -6.7390     1.6200 H     1 <1>   0.0800 
 41 H       -7.1360    -7.1590     0.0570 H     1 <1>   0.0800 
 42 H       -4.3900    -6.8830     0.6800 H     1 <1>   0.0800 
 43 H       -5.0490    -7.0080    -0.9370 H     1 <1>   0.0800 
 44 H       -9.8150    -4.4310     2.0180 H     1 <1>   0.0800 
 45 H       -9.4790    -4.2170     0.3190 H     1 <1>   0.0800 
 46 H       -9.1650    -6.8810     2.9410 H     1 <1>   0.1500 
 47 H      -10.2350    -5.9960    -1.0920 H     1 <1>   0.1500 
 48 H       -9.7980    -9.2290     2.5890 H     1 <1>   0.1500 
 49 H      -10.8600    -8.3390    -1.4390 H     1 <1>   0.1500 
 50 H      -10.6440    -9.9610     0.3970 H     1 <1>   0.1500 
@<TRIPOS>BOND
  1   1   2  2   
  2   2   3  am  
  3   2   4  1   
  4   3   5  1   
  5   3   6  1   
  6   4   7  ar  
  7   4   8  ar  
  8   5  26  1   
  9   5  27  1   
 10   5  28  1   
 11   6  29  1   
 12   6  30  1   
 13   6  31  1   
 14   7   9  ar  
 15   7  32  1   
 16   8  10  ar  
 17   8  33  1   
 18   9  11  ar  
 19  10  11  ar  
 20  10  34  1   
 21  11  12  1   
 22  12  13  1   
 23  12  35  1   
 24  13  14  1   
 25  13  15  1   
 26  13  36  1   
 27  14  16  1   
 28  14  17  1   
 29  14  37  1   
 30  15  18  1   
 31  15  38  1   
 32  15  39  1   
 33  16  19  1   
 34  17  18  1   
 35  17  40  1   
 36  17  41  1   
 37  18  42  1   
 38  18  43  1   
 39  19  20  1   
 40  19  44  1   
 41  19  45  1   
 42  20  21  ar  
 43  20  22  ar  
 44  21  23  ar  
 45  21  46  1   
 46  22  24  ar  
 47  22  47  1   
 48  23  25  ar  
 49  23  48  1   
 50  24  25  ar  
 51  24  49  1   
 52  25  50  1   
@<TRIPOS>SUBSTRUCTURE
  1 ****  12 GROUP 4 **** **** 0

# MOE 2024.06 (io_trps.svl 2023.06)
