@<TRIPOS>MOLECULE
NONAME
42 43 1 0 0 
SMALL
USER_CHARGES


@<TRIPOS>ATOM
  1 S       -0.2140     0.1390    -1.4980 S.o2  1 <1>   1.4470 
  2 O        0.5900    -0.7050    -2.3530 O.2   1 <1>  -0.6500 
  3 O       -1.0810     1.1410    -2.0820 O.2   1 <1>  -0.6500 
  4 N       -1.1540    -0.8330    -0.4780 N.am  1 <1>  -0.8490 
  5 C        0.9030     0.9360    -0.3110 C.ar  1 <1>  -0.0090 
  6 C       -1.6980    -2.0290    -1.1570 C.3   1 <1>   0.1960 
  7 C       -2.2240    -0.0850     0.1870 C.3   1 <1>   0.1960 
  8 C        1.1630     2.3040    -0.3640 C.ar  1 <1>  -0.1500 
  9 C        1.5380     0.1890     0.6780 C.ar  1 <1>  -0.1500 
 10 C       -2.2880    -3.0200    -0.1320 C.3   1 <1>  -0.1060 
 11 C       -2.9010    -0.9490     1.2500 C.3   1 <1>  -0.1600 
 12 C        2.0240     2.8840     0.5510 C.ar  1 <1>   0.1900 
 13 C        2.3930     0.8050     1.5760 C.ar  1 <1>   0.1900 
 14 C       -2.9860    -4.1570    -0.8790 C.2   1 <1>   0.9060 
 15 C       -3.3910    -2.2560     0.6300 C.3   1 <1>   0.2000 
 16 C       -1.1780    -3.5780     0.8190 C.3   1 <1>  -0.1600 
 17 F        2.2440     4.1670     0.4780 F     1 <1>  -0.1900 
 18 C        2.6570     2.1580     1.5380 C.ar  1 <1>  -0.1500 
 19 F        2.9700     0.0780     2.4930 F     1 <1>  -0.1900 
 20 O       -2.8770    -4.2480    -2.1070 O.co2 1 <1>  -0.9000 
 21 O       -3.6900    -4.9450    -0.2280 O.co2 1 <1>  -0.9000 
 22 O       -3.9190    -3.0450     1.6310 O.3   1 <1>  -0.6800 
 23 C       -0.0440    -4.3370     0.1060 C.3   1 <1>  -0.1600 
 24 C        0.9380    -4.9290     1.1200 C.3   1 <1>  -0.2400 
 25 H       -2.4600    -1.7320    -1.8600 H     1 <1>   0.0800 
 26 H       -0.9310    -2.5260    -1.7250 H     1 <1>   0.0800 
 27 H       -1.8170     0.7940     0.6590 H     1 <1>   0.0800 
 28 H       -2.9530     0.2310    -0.5420 H     1 <1>   0.0800 
 29 H        0.6960     2.9170    -1.1170 H     1 <1>   0.1500 
 30 H        1.3630    -0.8720     0.7480 H     1 <1>   0.1500 
 31 H       -3.7390    -0.4170     1.6610 H     1 <1>   0.0800 
 32 H       -2.2050    -1.1500     2.0440 H     1 <1>   0.0800 
 33 H       -4.1970    -2.0430    -0.0540 H     1 <1>   0.0800 
 34 H       -0.7450    -2.7760     1.3870 H     1 <1>   0.0800 
 35 H       -1.6400    -4.2530     1.5190 H     1 <1>   0.0800 
 36 H        3.3230     2.6220     2.2420 H     1 <1>   0.1500 
 37 H       -4.0330    -3.9490     1.2170 H     1 <1>   0.4000 
 38 H       -0.4590    -5.1320    -0.4900 H     1 <1>   0.0800 
 39 H        0.4930    -3.6740    -0.5490 H     1 <1>   0.0800 
 40 H        0.4300    -5.6210     1.7680 H     1 <1>   0.0800 
 41 H        1.3780    -4.1500     1.7160 H     1 <1>   0.0800 
 42 H        1.7220    -5.4550     0.6050 H     1 <1>   0.0800 
@<TRIPOS>BOND
  1   1   2  2   
  2   1   3  2   
  3   1   4  am  
  4   1   5  1   
  5   4   6  1   
  6   4   7  1   
  7   5   8  ar  
  8   5   9  ar  
  9   6  10  1   
 10   6  25  1   
 11   6  26  1   
 12   7  11  1   
 13   7  27  1   
 14   7  28  1   
 15   8  12  ar  
 16   8  29  1   
 17   9  13  ar  
 18   9  30  1   
 19  10  14  1   
 20  10  15  1   
 21  10  16  1   
 22  11  15  1   
 23  11  31  1   
 24  11  32  1   
 25  12  17  1   
 26  12  18  ar  
 27  13  18  ar  
 28  13  19  1   
 29  14  20  ar  
 30  14  21  ar  
 31  15  22  1   
 32  15  33  1   
 33  16  23  1   
 34  16  34  1   
 35  16  35  1   
 36  18  36  1   
 37  22  37  1   
 38  23  24  1   
 39  23  38  1   
 40  23  39  1   
 41  24  40  1   
 42  24  41  1   
 43  24  42  1   
@<TRIPOS>SUBSTRUCTURE
  1 ****   4 GROUP 4 **** **** 0

# MOE 2024.06 (io_trps.svl 2023.06)
