@<TRIPOS>MOLECULE
NONAME
47 49 1 0 0 
SMALL
USER_CHARGES


@<TRIPOS>ATOM
  1 O        1.8980     0.0610     2.4210 O.3   1 <1>  -0.6800 
  2 C        2.1380    -0.0890     1.0610 C.3   1 <1>   0.2000 
  3 C        2.9800    -1.3290     0.7950 C.3   1 <1>  -0.0800 
  4 C        2.9680     1.0670     0.5100 C.3   1 <1>   0.2090 
  5 C        3.7110    -1.0030    -0.5080 C.3   1 <1>   0.2090 
  6 C        2.1500    -2.6200     0.7160 C.3   1 <1>   0.0210 
  7 N        3.8000     0.4840    -0.5800 N.pl3 1 <1>  -0.8380 
  8 C        3.0270    -3.8150     0.4040 C.2   1 <1>   0.1080 
  9 C        5.0430     1.0590    -0.7730 C.ar  1 <1>   0.4100 
 10 N        3.8210    -4.3440     1.2820 N.2   1 <1>  -0.7070 
 11 C        3.0930    -4.4650    -0.8240 C.2   1 <1>  -0.1500 
 12 N        6.0050     0.6280     0.0360 N.ar  1 <1>  -0.6200 
 13 C        5.2380     2.0410    -1.7530 C.ar  1 <1>   0.0730 
 14 N        4.4240    -5.3550     0.6300 N.pl3 1 <1>   0.3000 
 15 C        3.9990    -5.4490    -0.6470 C.2   1 <1>  -0.3320 
 16 C        7.2070     1.1560    -0.1160 C.ar  1 <1>   0.1670 
 17 C        4.1580     2.4780    -2.5820 C.1   1 <1>   0.4840 
 18 C        6.5010     2.5820    -1.9000 C.ar  1 <1>  -0.1500 
 19 C        4.4950    -6.4890    -1.6350 C.3   1 <1>  -0.0600 
 20 C        7.4980     2.1250    -1.0640 C.ar  1 <1>  -0.1500 
 21 C        8.2960     0.6360     0.8240 C.3   1 <1>   0.0630 
 22 N        3.3320     2.8770    -3.2620 N.1   1 <1>  -0.5570 
 23 C        8.8760     1.7590     1.6960 C.3   1 <1>  -0.2400 
 24 C        9.4100    -0.0790     0.0490 C.3   1 <1>  -0.2400 
 25 H        1.6460    -0.7940     2.8200 H     1 <1>   0.4000 
 26 H        1.1940    -0.1360     0.5460 H     1 <1>   0.0800 
 27 H        3.7300    -1.4250     1.5620 H     1 <1>   0.0800 
 28 H        3.6090     1.4610     1.2820 H     1 <1>   0.0800 
 29 H        2.3330     1.8440     0.1230 H     1 <1>   0.0800 
 30 H        3.1480    -1.3510    -1.3560 H     1 <1>   0.0800 
 31 H        4.6830    -1.4690    -0.5260 H     1 <1>   0.0800 
 32 H        1.3920    -2.5300    -0.0410 H     1 <1>   0.0800 
 33 H        1.6630    -2.7970     1.6580 H     1 <1>   0.0800 
 34 H        2.5320    -4.2160    -1.7070 H     1 <1>   0.1500 
 35 H        5.1200    -5.9580     1.0850 H     1 <1>   0.2700 
 36 H        6.7030     3.3360    -2.6410 H     1 <1>   0.1500 
 37 H        4.0070    -6.3600    -2.5850 H     1 <1>   0.0800 
 38 H        4.2810    -7.4790    -1.2720 H     1 <1>   0.0800 
 39 H        5.5560    -6.3900    -1.7790 H     1 <1>   0.0800 
 40 H        8.4930     2.5210    -1.1480 H     1 <1>   0.1500 
 41 H        7.8450    -0.0860     1.4850 H     1 <1>   0.0800 
 42 H        9.3870     2.4900     1.0960 H     1 <1>   0.0800 
 43 H        9.5690     1.3530     2.4100 H     1 <1>   0.0800 
 44 H        8.0810     2.2470     2.2320 H     1 <1>   0.0800 
 45 H        9.9280     0.6030    -0.6000 H     1 <1>   0.0800 
 46 H        8.9870    -0.8690    -0.5470 H     1 <1>   0.0800 
 47 H       10.1190    -0.5120     0.7320 H     1 <1>   0.0800 
@<TRIPOS>BOND
  1   1   2  1   
  2   1  25  1   
  3   2   3  1   
  4   2   4  1   
  5   2  26  1   
  6   3   5  1   
  7   3   6  1   
  8   3  27  1   
  9   4   7  1   
 10   4  28  1   
 11   4  29  1   
 12   5   7  1   
 13   5  30  1   
 14   5  31  1   
 15   6   8  1   
 16   6  32  1   
 17   6  33  1   
 18   7   9  1   
 19   8  10  2   
 20   8  11  1   
 21   9  12  ar  
 22   9  13  ar  
 23  10  14  1   
 24  11  15  2   
 25  11  34  1   
 26  12  16  ar  
 27  13  17  1   
 28  13  18  ar  
 29  14  15  1   
 30  14  35  1   
 31  15  19  1   
 32  16  20  ar  
 33  16  21  1   
 34  17  22  3   
 35  18  20  ar  
 36  18  36  1   
 37  19  37  1   
 38  19  38  1   
 39  19  39  1   
 40  20  40  1   
 41  21  23  1   
 42  21  24  1   
 43  21  41  1   
 44  23  42  1   
 45  23  43  1   
 46  23  44  1   
 47  24  45  1   
 48  24  46  1   
 49  24  47  1   
@<TRIPOS>SUBSTRUCTURE
  1 ****   5 GROUP 4 **** **** 0

# MOE 2024.06 (io_trps.svl 2023.06)
