@<TRIPOS>MOLECULE
NONAME
59 63 1 0 0 
SMALL
USER_CHARGES


@<TRIPOS>ATOM
  1 O       -1.5050     0.9260     2.4110 O.2   1 <1>  -0.5700 
  2 C       -1.8690     1.1050     1.2730 C.2   1 <1>   0.5690 
  3 N       -2.8030     0.2750     0.6990 N.am  1 <1>  -0.6600 
  4 C       -1.1910     2.2700     0.5340 C.3   1 <1>   0.0610 
  5 C       -3.5980    -0.6760     1.5440 C.3   1 <1>   0.1400 
  6 C       -2.9840    -0.0050    -0.7630 C.3   1 <1>   0.1400 
  7 C       -0.8680     3.4200     1.5300 C.3   1 <1>   0.4230 
  8 C       -2.0770     3.0480    -0.4870 C.3   1 <1>  -0.1600 
  9 C        0.1030     1.6760    -0.1000 C.3   1 <1>  -0.0170 
 10 C       -3.3460    -2.1310     1.1190 C.3   1 <1>   0.1200 
 11 C       -2.7680    -1.4990    -1.0640 C.3   1 <1>   0.1200 
 12 N       -0.7020     4.5590     0.6020 N.4   1 <1>  -0.9590 
 13 C       -2.1170     3.8780     2.3210 C.3   1 <1>  -0.1600 
 14 C       -2.0450     4.4990     0.0160 C.3   1 <1>   0.4230 
 15 C        1.1070     2.6770    -0.6590 C.ar  1 <1>  -0.1440 
 16 O       -3.5870    -2.2850    -0.2510 O.3   1 <1>  -0.5600 
 17 C       -0.2700     5.8640     1.1810 C.3   1 <1>   0.4860 
 18 C       -2.9460     4.6020     1.2520 C.3   1 <1>  -0.1600 
 19 C        1.0370     3.0970    -1.9800 C.ar  1 <1>  -0.1500 
 20 C        2.1220     3.1640     0.1530 C.ar  1 <1>  -0.1500 
 21 C       -0.4670     6.9520     0.1410 C.ar  1 <1>  -0.1440 
 22 C        1.9580     4.0030    -2.4760 C.ar  1 <1>  -0.1500 
 23 C        3.0420     4.0710    -0.3420 C.ar  1 <1>  -0.1500 
 24 C        0.3380     7.0480    -0.9770 C.ar  1 <1>  -0.1500 
 25 C       -1.4700     7.8960     0.2560 C.ar  1 <1>  -0.1500 
 26 C        2.9610     4.4900    -1.6570 C.ar  1 <1>  -0.1500 
 27 C        0.0970     8.0410    -1.9110 C.ar  1 <1>   0.1600 
 28 C       -1.6260     8.8500    -0.7350 C.ar  1 <1>   0.1600 
 29 N       -0.8720     8.9340    -1.8160 N.ar  1 <1>  -0.6200 
 30 H       -3.3530    -0.5670     2.5860 H     1 <1>   0.0800 
 31 H       -4.6460    -0.4570     1.4330 H     1 <1>   0.0800 
 32 H       -3.9850     0.2640    -1.0540 H     1 <1>   0.0800 
 33 H       -2.2980     0.5640    -1.3590 H     1 <1>   0.0800 
 34 H       -0.0080     3.2170     2.1490 H     1 <1>   0.0800 
 35 H       -3.0930     2.6970    -0.5110 H     1 <1>   0.0800 
 36 H       -1.6880     3.0000    -1.4860 H     1 <1>   0.0800 
 37 H        0.6120     1.0890     0.6470 H     1 <1>   0.0800 
 38 H       -0.1610     0.9860    -0.8810 H     1 <1>   0.0800 
 39 H       -4.0110    -2.7930     1.6450 H     1 <1>   0.0800 
 40 H       -2.3310    -2.4190     1.3300 H     1 <1>   0.0800 
 41 H       -1.7430    -1.7810    -0.8950 H     1 <1>   0.0800 
 42 H       -3.0210    -1.7140    -2.0870 H     1 <1>   0.0800 
 43 H       -0.0120     4.2970    -0.1210 H     1 <1>   0.4500 
 44 H       -2.6690     3.0740     2.7730 H     1 <1>   0.0800 
 45 H       -1.8310     4.5480     3.1120 H     1 <1>   0.0800 
 46 H       -2.2380     5.2390    -0.7460 H     1 <1>   0.0800 
 47 H       -0.8500     6.1020     2.0560 H     1 <1>   0.0800 
 48 H        0.7690     5.8150     1.4640 H     1 <1>   0.0800 
 49 H       -3.1170     5.6300     1.5180 H     1 <1>   0.0800 
 50 H       -3.9020     4.1320     1.0920 H     1 <1>   0.0800 
 51 H        0.2820     2.7120    -2.6440 H     1 <1>   0.1500 
 52 H        2.2170     2.8310     1.1730 H     1 <1>   0.1500 
 53 H        1.9050     4.3190    -3.5040 H     1 <1>   0.1500 
 54 H        3.8330     4.4400     0.2890 H     1 <1>   0.1500 
 55 H        1.1520     6.3680    -1.1390 H     1 <1>   0.1500 
 56 H       -2.1350     7.9120     1.1010 H     1 <1>   0.1500 
 57 H        3.6860     5.1850    -2.0480 H     1 <1>   0.1500 
 58 H        0.7310     8.1060    -2.7800 H     1 <1>   0.1500 
 59 H       -2.4110     9.5830    -0.6360 H     1 <1>   0.1500 
@<TRIPOS>BOND
  1   1   2  2   
  2   2   3  am  
  3   2   4  1   
  4   3   5  1   
  5   3   6  1   
  6   4   7  1   
  7   4   8  1   
  8   4   9  1   
  9   5  10  1   
 10   5  30  1   
 11   5  31  1   
 12   6  11  1   
 13   6  32  1   
 14   6  33  1   
 15   7  12  1   
 16   7  13  1   
 17   7  34  1   
 18   8  14  1   
 19   8  35  1   
 20   8  36  1   
 21   9  15  1   
 22   9  37  1   
 23   9  38  1   
 24  10  16  1   
 25  10  39  1   
 26  10  40  1   
 27  11  16  1   
 28  11  41  1   
 29  11  42  1   
 30  12  14  1   
 31  12  17  1   
 32  12  43  1   
 33  13  18  1   
 34  13  44  1   
 35  13  45  1   
 36  14  18  1   
 37  14  46  1   
 38  15  19  ar  
 39  15  20  ar  
 40  17  21  1   
 41  17  47  1   
 42  17  48  1   
 43  18  49  1   
 44  18  50  1   
 45  19  22  ar  
 46  19  51  1   
 47  20  23  ar  
 48  20  52  1   
 49  21  24  ar  
 50  21  25  ar  
 51  22  26  ar  
 52  22  53  1   
 53  23  26  ar  
 54  23  54  1   
 55  24  27  ar  
 56  24  55  1   
 57  25  28  ar  
 58  25  56  1   
 59  26  57  1   
 60  27  29  ar  
 61  27  58  1   
 62  28  29  ar  
 63  28  59  1   
@<TRIPOS>SUBSTRUCTURE
  1 ****   4 GROUP 4 **** **** 0

# MOE 2024.06 (io_trps.svl 2023.06)
