@<TRIPOS>MOLECULE
NONAME
36 37 1 0 0 
SMALL
USER_CHARGES


@<TRIPOS>ATOM
  1 S        1.5420     0.1240    -1.9640 S.3   1 <1>  -0.0800 
  2 C        0.8880    -1.0650    -0.8620 C.2   1 <1>   0.1980 
  3 C        1.9160     1.1330    -0.5970 C.2   1 <1>  -0.1100 
  4 N        0.9460    -0.7400     0.3700 N.2   1 <1>  -0.5650 
  5 C        0.3260    -2.3460    -1.4590 C.3   1 <1>   0.5230 
  6 C        1.5300     0.5080     0.5260 C.2   1 <1>   0.0460 
  7 N       -0.4770    -3.0620    -0.4130 N.4   1 <1>  -0.9590 
  8 C        1.6730     1.0350     1.9370 C.3   1 <1>  -0.0590 
  9 C       -0.4430    -4.5440    -0.6540 C.3   1 <1>   0.3430 
 10 C       -1.8420    -2.4760    -0.3170 C.3   1 <1>   0.3430 
 11 C       -1.0130    -5.3870     0.4930 C.3   1 <1>   0.0960 
 12 C       -2.1800    -2.2380     1.1490 C.3   1 <1>  -0.2400 
 13 N       -0.8580    -6.8090     0.1540 N.pl3 1 <1>   0.3140 
 14 N       -0.6530    -7.2180    -1.1120 N.2   1 <1>  -0.7070 
 15 C       -0.9020    -7.8520     1.0040 C.2   1 <1>  -0.3020 
 16 C       -0.5740    -8.5130    -1.0360 C.2   1 <1>   0.1390 
 17 C       -0.7220    -8.9690     0.2680 C.2   1 <1>  -0.1500 
 18 H        2.3850     2.0840    -0.7810 H     1 <1>   0.1500 
 19 H        1.1530    -2.9590    -1.7770 H     1 <1>   0.0800 
 20 H       -0.2850    -2.1190    -2.3160 H     1 <1>   0.0800 
 21 H        0.0160    -2.8090     0.4620 H     1 <1>   0.4500 
 22 H        2.1400     2.0030     1.9310 H     1 <1>   0.0800 
 23 H        2.2770     0.3620     2.5180 H     1 <1>   0.0800 
 24 H        0.7050     1.1200     2.3960 H     1 <1>   0.0800 
 25 H        0.5780    -4.8550    -0.8100 H     1 <1>   0.0800 
 26 H       -0.9940    -4.7750    -1.5520 H     1 <1>   0.0800 
 27 H       -2.5690    -3.1310    -0.7710 H     1 <1>   0.0800 
 28 H       -1.8740    -1.5270    -0.8300 H     1 <1>   0.0800 
 29 H       -2.0600    -5.1960     0.6240 H     1 <1>   0.0800 
 30 H       -0.4810    -5.1960     1.4060 H     1 <1>   0.0800 
 31 H       -2.1870    -3.1500     1.7150 H     1 <1>   0.0800 
 32 H       -3.1610    -1.8010     1.2160 H     1 <1>   0.0800 
 33 H       -1.4840    -1.5460     1.5910 H     1 <1>   0.0800 
 34 H       -1.0570    -7.7550     2.0630 H     1 <1>   0.1500 
 35 H       -0.4120    -9.1530    -1.8880 H     1 <1>   0.1500 
 36 H       -0.6940    -9.9970     0.5870 H     1 <1>   0.1500 
@<TRIPOS>BOND
  1   1   2  1   
  2   1   3  1   
  3   2   4  2   
  4   2   5  1   
  5   3   6  2   
  6   3  18  1   
  7   4   6  1   
  8   5   7  1   
  9   5  19  1   
 10   5  20  1   
 11   6   8  1   
 12   7   9  1   
 13   7  10  1   
 14   7  21  1   
 15   8  22  1   
 16   8  23  1   
 17   8  24  1   
 18   9  11  1   
 19   9  25  1   
 20   9  26  1   
 21  10  12  1   
 22  10  27  1   
 23  10  28  1   
 24  11  13  1   
 25  11  29  1   
 26  11  30  1   
 27  12  31  1   
 28  12  32  1   
 29  12  33  1   
 30  13  14  1   
 31  13  15  1   
 32  14  16  2   
 33  15  17  2   
 34  15  34  1   
 35  16  17  1   
 36  16  35  1   
 37  17  36  1   
@<TRIPOS>SUBSTRUCTURE
  1 ****   7 GROUP 4 **** **** 0

# MOE 2024.06 (io_trps.svl 2023.06)
