@<TRIPOS>MOLECULE
NONAME
52 53 1 0 0 
SMALL
USER_CHARGES


@<TRIPOS>ATOM
  1 O        0.5540     1.3390     1.5780 O.2   1 <1>  -0.5700 
  2 C        1.4310     1.4790     0.7270 C.2   1 <1>   0.5410 
  3 C        1.6900     2.7620     0.1450 C.2   1 <1>  -0.1240 
  4 C        2.2300     0.3760     0.3030 C.2   1 <1>  -0.1240 
  5 C        2.6860     2.9060    -0.7810 C.2   1 <1>  -0.0380 
  6 C        0.8010     3.9130     0.6280 C.3   1 <1>  -0.1020 
  7 C        3.1990     0.5630    -0.6280 C.2   1 <1>  -0.0500 
  8 C        1.9690    -0.9990     0.9070 C.3   1 <1>  -0.1020 
  9 N        3.4290     1.8050    -1.1680 N.pl3 1 <1>  -0.6000 
 10 C        3.0500     4.2470    -1.4130 C.3   1 <1>   0.4810 
 11 N        3.9200     5.0230    -0.4750 N.4   1 <1>  -0.9590 
 12 C        5.1370     4.2640    -0.0470 C.3   1 <1>   0.5610 
 13 C        4.2420     6.4430    -0.8570 C.3   1 <1>   0.4230 
 14 C        5.7980     5.0600     1.0590 C.2   1 <1>  -0.2880 
 15 C        6.1370     4.0000    -1.1890 C.3   1 <1>  -0.0220 
 16 C        4.7080     7.2090     0.4010 C.3   1 <1>  -0.0220 
 17 C        3.0570     7.1700    -1.5300 C.3   1 <1>  -0.0220 
 18 C        5.6140     6.3640     1.2840 C.2   1 <1>  -0.2760 
 19 C        7.1820     2.9750    -0.7770 C.2   1 <1>  -0.2880 
 20 C        3.3810     8.6220    -1.8440 C.2   1 <1>  -0.2880 
 21 C        6.2820     7.1250     2.4180 C.3   1 <1>  -0.1020 
 22 C        8.4930     3.2170    -0.6990 C.2   1 <1>  -0.3000 
 23 C        2.7580     9.6720    -1.3030 C.2   1 <1>  -0.3000 
 24 H       -0.2310     3.6650     0.4470 H     1 <1>   0.0800 
 25 H        1.0020     4.8490     0.1450 H     1 <1>   0.0800 
 26 H        0.9220     4.0430     1.6900 H     1 <1>   0.0800 
 27 H        3.8130    -0.2550    -0.9760 H     1 <1>   0.1500 
 28 H        0.9570    -1.3010     0.7030 H     1 <1>   0.0800 
 29 H        2.1040    -0.9620     1.9740 H     1 <1>   0.0800 
 30 H        2.6370    -1.7370     0.5010 H     1 <1>   0.0800 
 31 H        4.1270     1.8550    -1.9250 H     1 <1>   0.4000 
 32 H        2.1410     4.7900    -1.6090 H     1 <1>   0.0800 
 33 H        3.5500     4.0880    -2.3530 H     1 <1>   0.0800 
 34 H        3.4010     5.0970     0.4070 H     1 <1>   0.4500 
 35 H        4.8260     3.3150     0.3620 H     1 <1>   0.0800 
 36 H        5.0610     6.4330    -1.5570 H     1 <1>   0.0800 
 37 H        6.4570     4.4510     1.6570 H     1 <1>   0.1500 
 38 H        5.6350     3.6230    -2.0580 H     1 <1>   0.0800 
 39 H        6.6310     4.9180    -1.4540 H     1 <1>   0.0800 
 40 H        5.2390     8.0910     0.0890 H     1 <1>   0.0800 
 41 H        3.8570     7.5330     0.9750 H     1 <1>   0.0800 
 42 H        2.8070     6.6950    -2.4610 H     1 <1>   0.0800 
 43 H        2.1980     7.1370    -0.8830 H     1 <1>   0.0800 
 44 H        6.7690     2.0040    -0.5460 H     1 <1>   0.1500 
 45 H        4.1750     8.7420    -2.5660 H     1 <1>   0.1500 
 46 H        5.5420     7.5580     3.0680 H     1 <1>   0.0800 
 47 H        6.9020     7.9130     2.0280 H     1 <1>   0.0800 
 48 H        6.9020     6.4690     3.0040 H     1 <1>   0.0800 
 49 H        9.2230     2.4800    -0.4070 H     1 <1>   0.1500 
 50 H        8.9580     4.1640    -0.9170 H     1 <1>   0.1500 
 51 H        2.9970    10.6960    -1.5400 H     1 <1>   0.1500 
 52 H        1.9570     9.6150    -0.5840 H     1 <1>   0.1500 
@<TRIPOS>BOND
  1   1   2  2   
  2   2   3  1   
  3   2   4  1   
  4   3   5  2   
  5   3   6  1   
  6   4   7  2   
  7   4   8  1   
  8   5   9  1   
  9   5  10  1   
 10   6  24  1   
 11   6  25  1   
 12   6  26  1   
 13   7   9  1   
 14   7  27  1   
 15   8  28  1   
 16   8  29  1   
 17   8  30  1   
 18   9  31  1   
 19  10  11  1   
 20  10  32  1   
 21  10  33  1   
 22  11  12  1   
 23  11  13  1   
 24  11  34  1   
 25  12  14  1   
 26  12  15  1   
 27  12  35  1   
 28  13  16  1   
 29  13  17  1   
 30  13  36  1   
 31  14  18  2   
 32  14  37  1   
 33  15  19  1   
 34  15  38  1   
 35  15  39  1   
 36  16  18  1   
 37  16  40  1   
 38  16  41  1   
 39  17  20  1   
 40  17  42  1   
 41  17  43  1   
 42  18  21  1   
 43  19  22  2   
 44  19  44  1   
 45  20  23  2   
 46  20  45  1   
 47  21  46  1   
 48  21  47  1   
 49  21  48  1   
 50  22  49  1   
 51  22  50  1   
 52  23  51  1   
 53  23  52  1   
@<TRIPOS>SUBSTRUCTURE
  1 ****  11 GROUP 4 **** **** 0

# MOE 2024.06 (io_trps.svl 2023.06)
