@<TRIPOS>MOLECULE
NONAME
48 50 1 0 0 
SMALL
USER_CHARGES


@<TRIPOS>ATOM
  1 O       -2.1640    -0.8830    -2.9210 O.2   1 <1>  -0.5700 
  2 C       -2.2920    -1.2200    -1.7770 C.2   1 <1>   0.5690 
  3 N       -2.1380    -0.3270    -0.7840 N.am  1 <1>  -0.7300 
  4 C       -2.6650    -2.6420    -1.4560 C.3   1 <1>  -0.0190 
  5 C       -2.2760    -0.6120     0.6630 C.3   1 <1>   0.2200 
  6 C       -1.5770    -3.3370    -0.6060 C.3   1 <1>   0.1200 
  7 C       -4.0950    -2.6580    -0.8970 C.3   1 <1>   0.3430 
  8 C       -1.2470    -1.6840     1.1020 C.3   1 <1>   0.1200 
  9 C       -3.7470    -0.9810     1.0070 C.3   1 <1>   0.3430 
 10 O       -1.6300    -2.9910     0.7530 O.3   1 <1>  -0.5600 
 11 N       -4.1800    -2.3590     0.5740 N.4   1 <1>  -0.9590 
 12 C       -5.4810    -2.7670     1.1660 C.3   1 <1>   0.4860 
 13 C       -5.6500    -4.2620     0.9720 C.ar  1 <1>  -0.1430 
 14 C       -6.6220    -4.7410     0.1040 C.ar  1 <1>  -0.1500 
 15 C       -4.8350    -5.1600     1.6480 C.ar  1 <1>  -0.1500 
 16 C       -6.7780    -6.1020    -0.0980 C.ar  1 <1>   0.0830 
 17 C       -4.9780    -6.5220     1.4400 C.ar  1 <1>  -0.1500 
 18 O       -7.7680    -6.4860    -0.9400 O.3   1 <1>  -0.3630 
 19 C       -5.9310    -7.0010     0.5580 C.ar  1 <1>   0.0830 
 20 C       -8.7970    -7.2870    -0.3950 C.3   1 <1>   0.0400 
 21 O       -5.9910    -8.3420     0.3770 O.3   1 <1>  -0.3630 
 22 C       -5.6510    -8.8290    -0.9010 C.3   1 <1>   0.1200 
 23 C       -5.7080   -10.3530    -0.8560 C.3   1 <1>  -0.2400 
 24 H       -1.8280     0.6100    -1.0670 H     1 <1>   0.3700 
 25 H       -2.6940    -3.1550    -2.4000 H     1 <1>   0.0800 
 26 H       -2.0360     0.3000     1.1830 H     1 <1>   0.0800 
 27 H       -0.5920    -3.1110    -0.9830 H     1 <1>   0.0800 
 28 H       -1.7130    -4.4040    -0.6590 H     1 <1>   0.0800 
 29 H       -4.4940    -3.6440    -1.0740 H     1 <1>   0.0800 
 30 H       -4.7020    -1.9600    -1.4520 H     1 <1>   0.0800 
 31 H       -1.1550    -1.6680     2.1740 H     1 <1>   0.0800 
 32 H       -0.2740    -1.4790     0.6860 H     1 <1>   0.0800 
 33 H       -4.3990    -0.2410     0.5720 H     1 <1>   0.0800 
 34 H       -3.8530    -0.9150     2.0770 H     1 <1>   0.0800 
 35 H       -3.4600    -2.9930     0.9760 H     1 <1>   0.4500 
 36 H       -5.4960    -2.5460     2.2210 H     1 <1>   0.0800 
 37 H       -6.2900    -2.2370     0.6910 H     1 <1>   0.0800 
 38 H       -7.2800    -4.0750    -0.4260 H     1 <1>   0.1500 
 39 H       -4.0830    -4.8210     2.3400 H     1 <1>   0.1500 
 40 H       -4.3480    -7.2240     1.9580 H     1 <1>   0.1500 
 41 H       -9.5810    -7.3710    -1.1260 H     1 <1>   0.0800 
 42 H       -9.1730    -6.8150     0.4960 H     1 <1>   0.0800 
 43 H       -8.4100    -8.2630    -0.1640 H     1 <1>   0.0800 
 44 H       -6.3510    -8.4440    -1.6220 H     1 <1>   0.0800 
 45 H       -4.6580    -8.4890    -1.1410 H     1 <1>   0.0800 
 46 H       -6.7010   -10.6780    -0.6030 H     1 <1>   0.0800 
 47 H       -5.0110   -10.7270    -0.1280 H     1 <1>   0.0800 
 48 H       -5.4490   -10.7550    -1.8180 H     1 <1>   0.0800 
@<TRIPOS>BOND
  1   1   2  2   
  2   2   3  am  
  3   2   4  1   
  4   3   5  1   
  5   3  24  1   
  6   4   6  1   
  7   4   7  1   
  8   4  25  1   
  9   5   8  1   
 10   5   9  1   
 11   5  26  1   
 12   6  10  1   
 13   6  27  1   
 14   6  28  1   
 15   7  11  1   
 16   7  29  1   
 17   7  30  1   
 18   8  10  1   
 19   8  31  1   
 20   8  32  1   
 21   9  11  1   
 22   9  33  1   
 23   9  34  1   
 24  11  12  1   
 25  11  35  1   
 26  12  13  1   
 27  12  36  1   
 28  12  37  1   
 29  13  14  ar  
 30  13  15  ar  
 31  14  16  ar  
 32  14  38  1   
 33  15  17  ar  
 34  15  39  1   
 35  16  18  1   
 36  16  19  ar  
 37  17  19  ar  
 38  17  40  1   
 39  18  20  1   
 40  19  21  1   
 41  20  41  1   
 42  20  42  1   
 43  20  43  1   
 44  21  22  1   
 45  22  23  1   
 46  22  44  1   
 47  22  45  1   
 48  23  46  1   
 49  23  47  1   
 50  23  48  1   
@<TRIPOS>SUBSTRUCTURE
  1 ****  13 GROUP 4 **** **** 0

# MOE 2024.06 (io_trps.svl 2023.06)
