@<TRIPOS>MOLECULE
NONAME
35 36 1 0 0 
SMALL
USER_CHARGES


@<TRIPOS>ATOM
  1 F       -0.6730    -0.0530    -0.2250 F     1 <1>  -0.1900 
  2 C       -1.6940     0.6420     0.2010 C.ar  1 <1>   0.1900 
  3 C       -2.7510    -0.0280     0.8120 C.ar  1 <1>   0.0860 
  4 C       -1.6760     2.0170     0.0080 C.ar  1 <1>  -0.1440 
  5 C       -2.7500    -1.4600     1.0040 C.2   1 <1>   0.5440 
  6 C       -3.8290     0.7500     1.2330 C.ar  1 <1>  -0.1500 
  7 C       -2.7650     2.7550     0.4430 C.ar  1 <1>  -0.1500 
  8 C       -0.4950     2.7060    -0.6620 C.3   1 <1>  -0.0960 
  9 O       -2.0490    -1.9450     1.8720 O.2   1 <1>  -0.5700 
 10 N       -3.5620    -2.2820     0.2550 N.am  1 <1>  -0.6600 
 11 C       -3.8370     2.1220     1.0510 C.ar  1 <1>  -0.1500 
 12 C       -3.7730    -3.7240     0.6280 C.3   1 <1>   0.1400 
 13 C       -4.3780    -1.8250    -0.9030 C.3   1 <1>   0.1400 
 14 C       -5.1870    -4.2440     0.2850 C.3   1 <1>   0.2000 
 15 C       -5.8760    -1.9290    -0.5740 C.3   1 <1>  -0.1600 
 16 O       -5.2040    -4.7670    -0.9990 O.3   1 <1>  -0.6800 
 17 C       -6.2300    -3.1190     0.3570 C.3   1 <1>  -0.1860 
 18 C       -7.6200    -3.6650     0.1010 C.2   1 <1>   0.9060 
 19 O       -8.5140    -3.4190     0.9150 O.co2 1 <1>  -0.9000 
 20 O       -7.8090    -4.3510    -0.9140 O.co2 1 <1>  -0.9000 
 21 H       -4.6630     0.2620     1.7080 H     1 <1>   0.1500 
 22 H       -2.7860     3.8240     0.3120 H     1 <1>   0.1500 
 23 H       -0.6460     3.7690    -0.7190 H     1 <1>   0.0800 
 24 H       -0.3650     2.3240    -1.6590 H     1 <1>   0.0800 
 25 H        0.4040     2.5180    -0.1020 H     1 <1>   0.0800 
 26 H       -4.6810     2.7010     1.3860 H     1 <1>   0.1500 
 27 H       -3.0330    -4.3360     0.1430 H     1 <1>   0.0800 
 28 H       -3.6370    -3.8210     1.6900 H     1 <1>   0.0800 
 29 H       -4.1290    -0.8200    -1.1920 H     1 <1>   0.0800 
 30 H       -4.1570    -2.4670    -1.7390 H     1 <1>   0.0800 
 31 H       -5.4570    -5.0440     0.9520 H     1 <1>   0.0800 
 32 H       -6.2150    -1.0160    -0.1200 H     1 <1>   0.0800 
 33 H       -6.4080    -2.0350    -1.5040 H     1 <1>   0.0800 
 34 H       -6.1730    -4.7960    -1.2570 H     1 <1>   0.4000 
 35 H       -6.2250    -2.7560     1.3670 H     1 <1>   0.0800 
@<TRIPOS>BOND
  1   1   2  1   
  2   2   3  ar  
  3   2   4  ar  
  4   3   5  1   
  5   3   6  ar  
  6   4   7  ar  
  7   4   8  1   
  8   5   9  2   
  9   5  10  am  
 10   6  11  ar  
 11   6  21  1   
 12   7  11  ar  
 13   7  22  1   
 14   8  23  1   
 15   8  24  1   
 16   8  25  1   
 17  10  12  1   
 18  10  13  1   
 19  11  26  1   
 20  12  14  1   
 21  12  27  1   
 22  12  28  1   
 23  13  15  1   
 24  13  29  1   
 25  13  30  1   
 26  14  16  1   
 27  14  17  1   
 28  14  31  1   
 29  15  17  1   
 30  15  32  1   
 31  15  33  1   
 32  16  34  1   
 33  17  18  1   
 34  17  35  1   
 35  18  19  ar  
 36  18  20  ar  
@<TRIPOS>SUBSTRUCTURE
  1 ****  10 GROUP 4 **** **** 0

# MOE 2024.06 (io_trps.svl 2023.06)
