@<TRIPOS>MOLECULE
NONAME
47 50 1 0 0 
SMALL
USER_CHARGES


@<TRIPOS>ATOM
  1 S       -0.6480    -1.1550    -0.7000 S.o2  1 <1>   1.5000 
  2 O       -1.5180    -2.3070    -0.5760 O.2   1 <1>  -0.6500 
  3 O       -0.6680    -0.4040    -1.9380 O.2   1 <1>  -0.6500 
  4 N       -1.0150    -0.0930     0.5730 N.am  1 <1>  -0.8490 
  5 C        1.0540    -1.7060    -0.3290 C.2   1 <1>   0.0780 
  6 C       -2.4370    -0.0050     0.9540 C.3   1 <1>   0.1960 
  7 C       -0.3160     1.2050     0.5290 C.3   1 <1>   0.1960 
  8 O        2.0360    -0.8320    -0.1420 O.3   1 <1>  -0.2800 
  9 C        1.5560    -2.9560    -0.1970 C.2   1 <1>  -0.1500 
 10 C       -3.2890     0.9270     0.0340 C.3   1 <1>   0.0000 
 11 C       -1.2610     2.4090     0.3800 C.3   1 <1>  -0.1600 
 12 C        3.1650    -1.4770     0.1140 C.2   1 <1>   0.1400 
 13 C        2.9150    -2.8120     0.0880 C.2   1 <1>  -0.1500 
 14 C       -4.5300     1.4550     0.7860 C.3   1 <1>   0.2000 
 15 C       -2.4380     2.0830    -0.5460 C.3   1 <1>  -0.1600 
 16 C       -3.9710     0.1250    -1.0900 C.3   1 <1>  -0.1600 
 17 C        4.3760    -0.7470     0.3650 C.2   1 <1>   0.1400 
 18 O       -4.2310     1.8760     2.0840 O.3   1 <1>  -0.5600 
 19 C       -5.5300     0.2970     0.7920 C.3   1 <1>  -0.1600 
 20 C       -5.1970    -0.5380    -0.4510 C.3   1 <1>  -0.1600 
 21 O        4.3950     0.5680     0.3730 O.3   1 <1>  -0.0190 
 22 C        5.6400    -1.1460     0.6270 C.2   1 <1>  -0.1500 
 23 C       -5.2130     2.6530     2.6920 C.3   1 <1>   0.0400 
 24 N        5.5780     1.0550     0.6220 N.2   1 <1>  -0.4100 
 25 C        6.3480     0.0370     0.7780 C.2   1 <1>   0.1390 
 26 H       -2.8720    -0.9880     1.0020 H     1 <1>   0.0800 
 27 H       -2.4540     0.3740     1.9590 H     1 <1>   0.0800 
 28 H        0.2570     1.3200     1.4330 H     1 <1>   0.0800 
 29 H        0.3820     1.2170    -0.2920 H     1 <1>   0.0800 
 30 H        1.0240    -3.8880    -0.2880 H     1 <1>   0.1500 
 31 H       -1.6330     2.6910     1.3500 H     1 <1>   0.0800 
 32 H       -0.7070     3.2440    -0.0080 H     1 <1>   0.0800 
 33 H        3.6070    -3.6190     0.2520 H     1 <1>   0.1500 
 34 H       -4.9480     2.2840     0.2390 H     1 <1>   0.0800 
 35 H       -2.0400     1.7950    -1.5040 H     1 <1>   0.0800 
 36 H       -3.0380     2.9630    -0.7010 H     1 <1>   0.0800 
 37 H       -4.3070     0.8010    -1.8570 H     1 <1>   0.0800 
 38 H       -3.3260    -0.6000    -1.5490 H     1 <1>   0.0800 
 39 H       -5.3950    -0.3040     1.6750 H     1 <1>   0.0800 
 40 H       -6.5400     0.6620     0.7510 H     1 <1>   0.0800 
 41 H       -4.9590    -1.5480    -0.1600 H     1 <1>   0.0800 
 42 H       -6.0200    -0.5630    -1.1440 H     1 <1>   0.0800 
 43 H        6.0330    -2.1420     0.7050 H     1 <1>   0.1500 
 44 H       -4.8610     2.9290     3.6700 H     1 <1>   0.0800 
 45 H       -6.1190     2.0800     2.7850 H     1 <1>   0.0800 
 46 H       -5.3810     3.5380     2.1050 H     1 <1>   0.0800 
 47 H        7.4000     0.1080     0.9980 H     1 <1>   0.1500 
@<TRIPOS>BOND
  1   1   2  2   
  2   1   3  2   
  3   1   4  am  
  4   1   5  1   
  5   4   6  1   
  6   4   7  1   
  7   5   8  1   
  8   5   9  2   
  9   6  10  1   
 10   6  26  1   
 11   6  27  1   
 12   7  11  1   
 13   7  28  1   
 14   7  29  1   
 15   8  12  1   
 16   9  13  1   
 17   9  30  1   
 18  10  14  1   
 19  10  15  1   
 20  10  16  1   
 21  11  15  1   
 22  11  31  1   
 23  11  32  1   
 24  12  13  2   
 25  12  17  1   
 26  13  33  1   
 27  14  18  1   
 28  14  19  1   
 29  14  34  1   
 30  15  35  1   
 31  15  36  1   
 32  16  20  1   
 33  16  37  1   
 34  16  38  1   
 35  17  21  1   
 36  17  22  2   
 37  18  23  1   
 38  19  20  1   
 39  19  39  1   
 40  19  40  1   
 41  20  41  1   
 42  20  42  1   
 43  21  24  1   
 44  22  25  1   
 45  22  43  1   
 46  23  44  1   
 47  23  45  1   
 48  23  46  1   
 49  24  25  2   
 50  25  47  1   
@<TRIPOS>SUBSTRUCTURE
  1 ****   4 GROUP 4 **** **** 0

# MOE 2024.06 (io_trps.svl 2023.06)
