@<TRIPOS>MOLECULE
NONAME
52 55 1 0 0 
SMALL
USER_CHARGES


@<TRIPOS>ATOM
  1 F        2.0980    -0.7630     2.3370 F     1 <1>  -0.1900 
  2 C        2.3310     0.3280     1.6360 C.ar  1 <1>   0.1900 
  3 C        2.9380     0.2890     0.3790 C.ar  1 <1>   0.4100 
  4 C        1.9530     1.5320     2.1600 C.ar  1 <1>   0.1600 
  5 N        3.1210     1.4190    -0.2810 N.ar  1 <1>  -0.6200 
  6 N        3.3670    -0.8780    -0.2550 N.pl3 1 <1>  -0.8380 
  7 N        2.1440     2.6620     1.5070 N.ar  1 <1>  -0.6200 
  8 C        2.7120     2.5280     0.3130 C.ar  1 <1>   0.7200 
  9 C        3.8350    -2.0820     0.4710 C.3   1 <1>   0.2090 
 10 C        3.8960    -0.8680    -1.6400 C.3   1 <1>   0.2090 
 11 N        2.9250     3.6450    -0.4210 N.pl3 1 <1>  -0.8690 
 12 C        4.8420    -2.7430    -0.4640 C.3   1 <1>  -0.1600 
 13 C        4.4400    -2.2730    -1.8580 C.3   1 <1>  -0.1600 
 14 C        3.0340     5.0030     0.1320 C.3   1 <1>   0.2890 
 15 C        2.5840     6.0020    -0.9320 C.3   1 <1>  -0.1600 
 16 C        4.4790     5.2620     0.5540 C.3   1 <1>  -0.1600 
 17 C        2.7590     7.4320    -0.4240 C.3   1 <1>   0.2090 
 18 C        4.6380     6.6990     1.0470 C.3   1 <1>   0.2090 
 19 N        4.1680     7.6310    -0.0080 N.pl3 1 <1>  -0.8380 
 20 C        4.5950     8.9500     0.1040 C.ar  1 <1>   0.1000 
 21 C        5.5040     9.4570    -0.8130 C.ar  1 <1>  -0.1500 
 22 C        4.1310     9.7800     1.1170 C.ar  1 <1>  -0.1500 
 23 C        5.9490    10.7660    -0.7310 C.ar  1 <1>  -0.1430 
 24 C        4.5680    11.0890     1.2080 C.ar  1 <1>  -0.1500 
 25 C        5.4760    11.5810     0.2860 C.ar  1 <1>  -0.1500 
 26 C        6.9430    11.3140    -1.7380 C.3   1 <1>  -0.0970 
 27 H        1.4860     1.5720     3.1270 H     1 <1>   0.1500 
 28 H        2.9960    -2.7360     0.6410 H     1 <1>   0.0800 
 29 H        4.2910    -1.8210     1.4110 H     1 <1>   0.0800 
 30 H        4.6910    -0.1440    -1.7140 H     1 <1>   0.0800 
 31 H        3.1180    -0.6250    -2.3440 H     1 <1>   0.0800 
 32 H        3.5070     3.4580    -1.2340 H     1 <1>   0.4000 
 33 H        4.8290    -3.8140    -0.3700 H     1 <1>   0.0800 
 34 H        5.8260    -2.3800    -0.2250 H     1 <1>   0.0800 
 35 H        5.2640    -2.2790    -2.5490 H     1 <1>   0.0800 
 36 H        3.6510    -2.8950    -2.2420 H     1 <1>   0.0800 
 37 H        2.3900     5.1020     0.9910 H     1 <1>   0.0800 
 38 H        1.5500     5.8330    -1.1690 H     1 <1>   0.0800 
 39 H        3.1690     5.8800    -1.8250 H     1 <1>   0.0800 
 40 H        5.1420     5.1080    -0.2770 H     1 <1>   0.0800 
 41 H        4.7510     4.5860     1.3440 H     1 <1>   0.0800 
 42 H        2.1070     7.6120     0.4140 H     1 <1>   0.0800 
 43 H        2.5140     8.1320    -1.2050 H     1 <1>   0.0800 
 44 H        5.6730     6.9000     1.2670 H     1 <1>   0.0800 
 45 H        4.0620     6.8510     1.9440 H     1 <1>   0.0800 
 46 H        5.8530     8.8040    -1.5900 H     1 <1>   0.1500 
 47 H        3.4270     9.3950     1.8290 H     1 <1>   0.1500 
 48 H        4.2040    11.7240     1.9950 H     1 <1>   0.1500 
 49 H        5.8130    12.6000     0.3610 H     1 <1>   0.1500 
 50 H        7.2120    10.5630    -2.4580 H     1 <1>   0.0800 
 51 H        7.8340    11.6390    -1.2310 H     1 <1>   0.0800 
 52 H        6.5130    12.1510    -2.2580 H     1 <1>   0.0800 
@<TRIPOS>BOND
  1   1   2  1   
  2   2   3  ar  
  3   2   4  ar  
  4   3   5  ar  
  5   3   6  1   
  6   4   7  ar  
  7   4  27  1   
  8   5   8  ar  
  9   6   9  1   
 10   6  10  1   
 11   7   8  ar  
 12   8  11  1   
 13   9  12  1   
 14   9  28  1   
 15   9  29  1   
 16  10  13  1   
 17  10  30  1   
 18  10  31  1   
 19  11  14  1   
 20  11  32  1   
 21  12  13  1   
 22  12  33  1   
 23  12  34  1   
 24  13  35  1   
 25  13  36  1   
 26  14  15  1   
 27  14  16  1   
 28  14  37  1   
 29  15  17  1   
 30  15  38  1   
 31  15  39  1   
 32  16  18  1   
 33  16  40  1   
 34  16  41  1   
 35  17  19  1   
 36  17  42  1   
 37  17  43  1   
 38  18  19  1   
 39  18  44  1   
 40  18  45  1   
 41  19  20  1   
 42  20  21  ar  
 43  20  22  ar  
 44  21  23  ar  
 45  21  46  1   
 46  22  24  ar  
 47  22  47  1   
 48  23  25  ar  
 49  23  26  1   
 50  24  25  ar  
 51  24  48  1   
 52  25  49  1   
 53  26  50  1   
 54  26  51  1   
 55  26  52  1   
@<TRIPOS>SUBSTRUCTURE
  1 ****  14 GROUP 4 **** **** 0

# MOE 2024.06 (io_trps.svl 2023.06)
