@<TRIPOS>MOLECULE
NONAME
53 56 1 0 0 
SMALL
USER_CHARGES


@<TRIPOS>ATOM
  1 O        0.3860     0.2950     0.4450 O.3   1 <1>  -0.5600 
  2 C        0.2870    -1.0950     0.2890 C.3   1 <1>   0.1200 
  3 C        1.3830     0.8690    -0.3400 C.3   1 <1>   0.1200 
  4 C        1.6180    -1.7960     0.6430 C.3   1 <1>   0.2850 
  5 C        2.7510     0.2770     0.0450 C.3   1 <1>   0.1900 
  6 N        2.7500    -1.2010    -0.1180 N.3   1 <1>  -0.8100 
  7 C        1.4920    -3.2950     0.3300 C.3   1 <1>  -0.1950 
  8 C        3.8650     0.9200    -0.8090 C.3   1 <1>   0.3430 
  9 C        4.0620    -1.7740     0.2460 C.3   1 <1>   0.1100 
 10 C        0.6760    -4.1880     1.2140 C.3   1 <1>  -0.2000 
 11 C        2.1660    -4.3500     1.1560 C.3   1 <1>  -0.2000 
 12 N        5.2240     0.3390    -0.5050 N.4   1 <1>  -0.9590 
 13 C        5.1980    -1.1600    -0.5980 C.3   1 <1>   0.3430 
 14 C        6.2800     0.9230    -1.3750 C.3   1 <1>   0.4860 
 15 C        6.3820     2.4080    -1.0850 C.ar  1 <1>  -0.1440 
 16 C        5.8410     3.3300    -1.9700 C.ar  1 <1>  -0.1500 
 17 C        7.0180     2.8590     0.0650 C.ar  1 <1>  -0.1500 
 18 C        5.9270     4.6840    -1.7010 C.ar  1 <1>  -0.1500 
 19 C        7.1040     4.2140     0.3330 C.ar  1 <1>  -0.1500 
 20 C        6.5560     5.1370    -0.5530 C.ar  1 <1>   0.0820 
 21 O        6.5990     6.4790    -0.3710 O.3   1 <1>  -0.3630 
 22 C        7.3100     7.0570     0.7030 C.3   1 <1>   0.1200 
 23 C        7.2420     8.5770     0.5650 C.3   1 <1>   0.1200 
 24 O        7.8610     9.1650     1.6600 O.3   1 <1>  -0.6800 
 25 H       -0.4970    -1.4420     0.9380 H     1 <1>   0.0800 
 26 H        0.0080    -1.3070    -0.7280 H     1 <1>   0.0800 
 27 H        1.1550     0.6840    -1.3760 H     1 <1>   0.0800 
 28 H        1.3620     1.9300    -0.1610 H     1 <1>   0.0800 
 29 H        1.7860    -1.6710     1.7000 H     1 <1>   0.0800 
 30 H        2.9290     0.5250     1.0780 H     1 <1>   0.0800 
 31 H        1.3990    -3.4730    -0.7280 H     1 <1>   0.1000 
 32 H        3.8740     1.9830    -0.6290 H     1 <1>   0.0800 
 33 H        3.6270     0.7610    -1.8470 H     1 <1>   0.0800 
 34 H        4.2560    -1.6200     1.2950 H     1 <1>   0.0800 
 35 H        4.0580    -2.8340     0.0620 H     1 <1>   0.0800 
 36 H        0.2420    -3.7950     2.1180 H     1 <1>   0.1000 
 37 H        0.0580    -4.9430     0.7580 H     1 <1>   0.1000 
 38 H        2.5650    -5.2210     0.6650 H     1 <1>   0.1000 
 39 H        2.7340    -4.0710     2.0270 H     1 <1>   0.1000 
 40 H        5.4490     0.6020     0.4610 H     1 <1>   0.4500 
 41 H        5.0470    -1.4570    -1.6230 H     1 <1>   0.0800 
 42 H        6.1400    -1.5670    -0.2690 H     1 <1>   0.0800 
 43 H        7.2300     0.4560    -1.1710 H     1 <1>   0.0800 
 44 H        6.0370     0.7660    -2.4130 H     1 <1>   0.0800 
 45 H        5.3540     3.0140    -2.8770 H     1 <1>   0.1500 
 46 H        7.4600     2.1670     0.7620 H     1 <1>   0.1500 
 47 H        5.5110     5.4060    -2.3830 H     1 <1>   0.1500 
 48 H        7.6020     4.5360     1.2290 H     1 <1>   0.1500 
 49 H        6.8480     6.7380     1.6200 H     1 <1>   0.0800 
 50 H        8.3330     6.7270     0.6510 H     1 <1>   0.0800 
 51 H        6.2220     8.9180     0.5290 H     1 <1>   0.0800 
 52 H        7.7670     8.8930    -0.3200 H     1 <1>   0.0800 
 53 H        7.3090     9.0820     2.4620 H     1 <1>   0.4000 
@<TRIPOS>BOND
  1   1   2  1   
  2   1   3  1   
  3   2   4  1   
  4   2  25  1   
  5   2  26  1   
  6   3   5  1   
  7   3  27  1   
  8   3  28  1   
  9   4   6  1   
 10   4   7  1   
 11   4  29  1   
 12   5   6  1   
 13   5   8  1   
 14   5  30  1   
 15   6   9  1   
 16   7  10  1   
 17   7  11  1   
 18   7  31  1   
 19   8  12  1   
 20   8  32  1   
 21   8  33  1   
 22   9  13  1   
 23   9  34  1   
 24   9  35  1   
 25  10  11  1   
 26  10  36  1   
 27  10  37  1   
 28  11  38  1   
 29  11  39  1   
 30  12  13  1   
 31  12  14  1   
 32  12  40  1   
 33  13  41  1   
 34  13  42  1   
 35  14  15  1   
 36  14  43  1   
 37  14  44  1   
 38  15  16  ar  
 39  15  17  ar  
 40  16  18  ar  
 41  16  45  1   
 42  17  19  ar  
 43  17  46  1   
 44  18  20  ar  
 45  18  47  1   
 46  19  20  ar  
 47  19  48  1   
 48  20  21  1   
 49  21  22  1   
 50  22  23  1   
 51  22  49  1   
 52  22  50  1   
 53  23  24  1   
 54  23  51  1   
 55  23  52  1   
 56  24  53  1   
@<TRIPOS>SUBSTRUCTURE
  1 ****   8 GROUP 4 **** **** 0

# MOE 2024.06 (io_trps.svl 2023.06)
