@<TRIPOS>MOLECULE
NONAME
26 26 1 0 0 
SMALL
USER_CHARGES


@<TRIPOS>ATOM
  1 F       -1.8350    -0.1030    -0.5580 F     1 <1>  -0.3400 
  2 C       -2.4290    -1.2900    -0.5050 C.3   1 <1>   1.3000 
  3 F       -2.9260    -1.5620    -1.7050 F     1 <1>  -0.3400 
  4 F       -1.4970    -2.1950    -0.2390 F     1 <1>  -0.3400 
  5 O       -3.4300    -1.3190     0.4910 O.3   1 <1>  -0.3630 
  6 C       -4.4320    -0.4260     0.4050 C.ar  1 <1>   0.0820 
  7 C       -5.5510    -0.6990    -0.3590 C.ar  1 <1>  -0.1500 
  8 C       -4.3510     0.7680     1.1040 C.ar  1 <1>  -0.1500 
  9 C       -6.5840     0.2200    -0.4340 C.ar  1 <1>   0.0830 
 10 C       -5.3840     1.6820     1.0280 C.ar  1 <1>  -0.1500 
 11 O       -7.6150    -0.0870    -1.2410 O.3   1 <1>  -0.3630 
 12 C       -6.5320     1.4380     0.2660 C.ar  1 <1>   0.0860 
 13 C       -8.7550    -0.6640    -0.6510 C.3   1 <1>   0.4000 
 14 C       -7.5740     2.4330     0.2430 C.2   1 <1>   0.4240 
 15 O       -8.4590    -2.0030    -0.4120 O.3   1 <1>  -0.5600 
 16 O       -8.7330     2.2690    -0.0500 O.2   1 <1>  -0.5700 
 17 C       -9.4990    -2.7010     0.1880 C.3   1 <1>   0.0400 
 18 H       -5.6350    -1.6250    -0.9000 H     1 <1>   0.1500 
 19 H       -3.4810     0.9740     1.7040 H     1 <1>   0.1500 
 20 H       -5.3020     2.6040     1.5780 H     1 <1>   0.1500 
 21 H       -9.5770    -0.5900    -1.3400 H     1 <1>   0.0800 
 22 H       -8.9810    -0.1640     0.2760 H     1 <1>   0.0800 
 23 H       -7.2860     3.4230     0.5460 H     1 <1>   0.0600 
 24 H       -9.1800    -3.7180     0.3310 H     1 <1>   0.0800 
 25 H      -10.3610    -2.6790    -0.4570 H     1 <1>   0.0800 
 26 H       -9.7250    -2.2540     1.1410 H     1 <1>   0.0800 
@<TRIPOS>BOND
  1   1   2  1   
  2   2   3  1   
  3   2   4  1   
  4   2   5  1   
  5   5   6  1   
  6   6   7  ar  
  7   6   8  ar  
  8   7   9  ar  
  9   7  18  1   
 10   8  10  ar  
 11   8  19  1   
 12   9  11  1   
 13   9  12  ar  
 14  10  12  ar  
 15  10  20  1   
 16  11  13  1   
 17  12  14  1   
 18  13  15  1   
 19  13  21  1   
 20  13  22  1   
 21  14  16  2   
 22  14  23  1   
 23  15  17  1   
 24  17  24  1   
 25  17  25  1   
 26  17  26  1   
@<TRIPOS>SUBSTRUCTURE
  1 ****   7 GROUP 4 **** **** 0

# MOE 2024.06 (io_trps.svl 2023.06)
