@<TRIPOS>MOLECULE
NONAME
46 47 1 0 0 
SMALL
USER_CHARGES


@<TRIPOS>ATOM
  1 S        0.2830     0.4880     0.1560 S.o2  1 <1>   1.3330 
  2 O        1.0850    -0.5180    -0.5030 O.2   1 <1>  -0.6500 
  3 O        0.4800     0.7410     1.5670 O.2   1 <1>  -0.6500 
  4 N       -1.3530     0.1060    -0.0800 N.am  1 <1>  -0.8490 
  5 C        0.4780     2.0190    -0.7530 C.3   1 <1>  -0.0550 
  6 C       -1.6030    -1.3360     0.0070 C.3   1 <1>   0.1160 
  7 C       -2.2580     0.8230     0.8240 C.3   1 <1>   0.1160 
  8 C        1.9310     2.5340    -0.7620 C.3   1 <1>  -0.0800 
  9 C        2.1710     3.7460    -1.6630 C.3   1 <1>   0.2000 
 10 C        2.4530     2.9710     0.6200 C.3   1 <1>   0.1100 
 11 O        1.1190     4.6330    -1.5170 O.3   1 <1>  -0.6800 
 12 C        3.3870     4.3840    -1.0070 C.3   1 <1>   0.1100 
 13 N        3.0910     4.2850     0.4310 N.3   1 <1>  -0.8100 
 14 C        4.3110     4.4560     1.2740 C.3   1 <1>   0.1710 
 15 C        4.9130     5.8640     1.2160 C.2   1 <1>   0.5690 
 16 O        6.1090     6.0070     1.2960 O.2   1 <1>  -0.5700 
 17 N        4.0710     6.9140     1.0650 N.am  1 <1>  -0.7300 
 18 C        4.4680     8.3100     0.8240 C.3   1 <1>   0.3200 
 19 C        3.5980     8.9030    -0.2700 C.2   1 <1>  -0.1400 
 20 S        3.8570    10.6050    -0.6240 S.3   1 <1>  -0.0800 
 21 C        2.6320     8.4030    -1.0660 C.2   1 <1>  -0.1500 
 22 C        2.6200    10.5850    -1.8670 C.2   1 <1>  -0.1100 
 23 C        2.0750     9.3600    -1.9740 C.2   1 <1>  -0.1500 
 24 H        0.1670     1.8570    -1.7670 H     1 <1>   0.0800 
 25 H       -0.1650     2.7660    -0.3330 H     1 <1>   0.0800 
 26 H       -2.6440    -1.5460    -0.1660 H     1 <1>   0.0800 
 27 H       -1.3200    -1.7070     0.9780 H     1 <1>   0.0800 
 28 H       -1.0280    -1.8550    -0.7420 H     1 <1>   0.0800 
 29 H       -3.2810     0.6070     0.5710 H     1 <1>   0.0800 
 30 H       -2.1050     1.8850     0.7380 H     1 <1>   0.0800 
 31 H       -2.0800     0.5300     1.8470 H     1 <1>   0.0800 
 32 H        2.5680     1.7390    -1.1110 H     1 <1>   0.0800 
 33 H        2.3000     3.5080    -2.7050 H     1 <1>   0.0800 
 34 H        3.1570     2.2430     0.9890 H     1 <1>   0.0800 
 35 H        1.6530     3.0700     1.3350 H     1 <1>   0.0800 
 36 H        1.1720     4.9620    -0.5940 H     1 <1>   0.4000 
 37 H        3.5280     5.4030    -1.3250 H     1 <1>   0.0800 
 38 H        4.2670     3.8120    -1.2480 H     1 <1>   0.0800 
 39 H        4.0580     4.2560     2.3000 H     1 <1>   0.0800 
 40 H        5.0650     3.7500     0.9760 H     1 <1>   0.0800 
 41 H        3.0790     6.7030     0.9400 H     1 <1>   0.3700 
 42 H        4.3430     8.8730     1.7320 H     1 <1>   0.0800 
 43 H        5.5040     8.3540     0.5310 H     1 <1>   0.0800 
 44 H        2.2720     7.3890    -1.0670 H     1 <1>   0.1500 
 45 H        2.4290    11.5040    -2.3920 H     1 <1>   0.1500 
 46 H        1.2960     9.0800    -2.6610 H     1 <1>   0.1500 
@<TRIPOS>BOND
  1   1   2  2   
  2   1   3  2   
  3   1   4  am  
  4   1   5  1   
  5   4   6  1   
  6   4   7  1   
  7   5   8  1   
  8   5  24  1   
  9   5  25  1   
 10   6  26  1   
 11   6  27  1   
 12   6  28  1   
 13   7  29  1   
 14   7  30  1   
 15   7  31  1   
 16   8   9  1   
 17   8  10  1   
 18   8  32  1   
 19   9  11  1   
 20   9  12  1   
 21   9  33  1   
 22  10  13  1   
 23  10  34  1   
 24  10  35  1   
 25  11  36  1   
 26  12  13  1   
 27  12  37  1   
 28  12  38  1   
 29  13  14  1   
 30  14  15  1   
 31  14  39  1   
 32  14  40  1   
 33  15  16  2   
 34  15  17  am  
 35  17  18  1   
 36  17  41  1   
 37  18  19  1   
 38  18  42  1   
 39  18  43  1   
 40  19  20  1   
 41  19  21  2   
 42  20  22  1   
 43  21  23  1   
 44  21  44  1   
 45  22  23  2   
 46  22  45  1   
 47  23  46  1   
@<TRIPOS>SUBSTRUCTURE
  1 ****  13 GROUP 4 **** **** 0

# MOE 2024.06 (io_trps.svl 2023.06)
