@<TRIPOS>MOLECULE
NONAME
47 49 1 0 0 
SMALL
USER_CHARGES


@<TRIPOS>ATOM
  1 O        1.5990    -1.4340    -1.3530 O.2   1 <1>  -0.5700 
  2 C        1.8080    -1.4380    -0.1630 C.2   1 <1>   0.5690 
  3 N        2.0200    -0.3070     0.5630 N.am  1 <1>  -0.4930 
  4 C        1.7790    -2.7960     0.5600 C.3   1 <1>   0.4040 
  5 C        1.9840     1.0200     0.1630 C.2   1 <1>   0.3520 
  6 N        0.4560    -3.5440     0.4790 N.4   1 <1>  -0.9590 
  7 N        2.0460     1.9240     1.0830 N.2   1 <1>  -0.7070 
  8 C        1.8870     1.5610    -1.1150 C.2   1 <1>  -0.1500 
  9 C        0.1030    -3.9480    -0.9190 C.3   1 <1>   0.5660 
 10 C       -0.6520    -2.7310     1.0840 C.3   1 <1>   0.2630 
 11 N        1.9920     3.0940     0.4120 N.pl3 1 <1>   0.3140 
 12 C        1.8950     2.8950    -0.9180 C.2   1 <1>  -0.3020 
 13 C       -1.2280    -4.6900    -0.8900 C.ar  1 <1>  -0.1430 
 14 C        1.1900    -4.8400    -1.5170 C.3   1 <1>  -0.2400 
 15 C        2.0410     4.3840     1.1100 C.3   1 <1>   0.0160 
 16 C       -1.3890    -5.8680    -0.1670 C.ar  1 <1>  -0.1500 
 17 C       -2.3100    -4.1720    -1.5920 C.ar  1 <1>  -0.1500 
 18 C       -2.6150    -6.5070    -0.1370 C.ar  1 <1>   0.0830 
 19 C       -3.5400    -4.8100    -1.5630 C.ar  1 <1>  -0.1500 
 20 O       -2.7320    -7.6550     0.5740 O.3   1 <1>  -0.3630 
 21 C       -3.7000    -5.9710    -0.8300 C.ar  1 <1>   0.0830 
 22 C       -3.8750    -8.4520     0.3160 C.3   1 <1>   0.1200 
 23 O       -4.9180    -6.5660    -0.7980 O.3   1 <1>  -0.3630 
 24 C       -5.1230    -7.5670     0.1830 C.3   1 <1>   0.1200 
 25 H        2.2120    -0.3450     1.5620 H     1 <1>   0.3700 
 26 H        2.0230    -2.6280     1.5950 H     1 <1>   0.0800 
 27 H        2.5620    -3.4040     0.1420 H     1 <1>   0.0800 
 28 H        0.5280    -4.4240     1.0030 H     1 <1>   0.4500 
 29 H        1.8250     1.0150    -2.0390 H     1 <1>   0.1500 
 30 H       -0.0080    -3.0700    -1.5370 H     1 <1>   0.0800 
 31 H       -0.8180    -1.8330     0.5090 H     1 <1>   0.0800 
 32 H       -0.4090    -2.4540     2.0970 H     1 <1>   0.0800 
 33 H       -1.5710    -3.2970     1.1010 H     1 <1>   0.0800 
 34 H        1.8390     3.6950    -1.6340 H     1 <1>   0.1500 
 35 H        1.4280    -5.6640    -0.8700 H     1 <1>   0.0800 
 36 H        2.0770    -4.2750    -1.7370 H     1 <1>   0.0800 
 37 H        0.8350    -5.2410    -2.4500 H     1 <1>   0.0800 
 38 H        2.9060     4.4030     1.7470 H     1 <1>   0.0800 
 39 H        1.1540     4.4920     1.7060 H     1 <1>   0.0800 
 40 H        2.0990     5.1820     0.3940 H     1 <1>   0.0800 
 41 H       -0.5790    -6.3180     0.3780 H     1 <1>   0.1500 
 42 H       -2.2120    -3.2680    -2.1720 H     1 <1>   0.1500 
 43 H       -4.3810    -4.4130    -2.1050 H     1 <1>   0.1500 
 44 H       -3.9850    -9.1480     1.1270 H     1 <1>   0.0800 
 45 H       -3.7050    -8.9960    -0.5960 H     1 <1>   0.0800 
 46 H       -5.3380    -7.0810     1.1180 H     1 <1>   0.0800 
 47 H       -5.9750    -8.1520    -0.1140 H     1 <1>   0.0800 
@<TRIPOS>BOND
  1   1   2  2   
  2   2   3  am  
  3   2   4  1   
  4   3   5  1   
  5   3  25  1   
  6   4   6  1   
  7   4  26  1   
  8   4  27  1   
  9   5   7  2   
 10   5   8  1   
 11   6   9  1   
 12   6  10  1   
 13   6  28  1   
 14   7  11  1   
 15   8  12  2   
 16   8  29  1   
 17   9  13  1   
 18   9  14  1   
 19   9  30  1   
 20  10  31  1   
 21  10  32  1   
 22  10  33  1   
 23  11  12  1   
 24  11  15  1   
 25  12  34  1   
 26  13  16  ar  
 27  13  17  ar  
 28  14  35  1   
 29  14  36  1   
 30  14  37  1   
 31  15  38  1   
 32  15  39  1   
 33  15  40  1   
 34  16  18  ar  
 35  16  41  1   
 36  17  19  ar  
 37  17  42  1   
 38  18  20  1   
 39  18  21  ar  
 40  19  21  ar  
 41  19  43  1   
 42  20  22  1   
 43  21  23  1   
 44  22  24  1   
 45  22  44  1   
 46  22  45  1   
 47  23  24  1   
 48  24  46  1   
 49  24  47  1   
@<TRIPOS>SUBSTRUCTURE
  1 ****  10 GROUP 4 **** **** 0

# MOE 2024.06 (io_trps.svl 2023.06)
