@<TRIPOS>MOLECULE
NONAME
42 44 1 0 0 
SMALL
USER_CHARGES


@<TRIPOS>ATOM
  1 O        1.0680     0.0320     2.0590 O.2   1 <1>  -0.5700 
  2 C        1.6780     0.5270     1.1260 C.2   1 <1>   0.5440 
  3 N        1.2330     1.7240     0.6080 N.am  1 <1>  -0.6600 
  4 C        2.8360    -0.1430     0.5830 C.ar  1 <1>   0.0860 
  5 C        0.0400     2.4270     1.1330 C.3   1 <1>   0.1400 
  6 C        1.5850     2.2250    -0.7410 C.3   1 <1>   0.1400 
  7 C        2.7530    -1.4750     0.1380 C.ar  1 <1>   0.4100 
  8 C        4.0620     0.5010     0.4830 C.ar  1 <1>  -0.1500 
  9 C       -0.5310     3.1750    -0.0650 C.3   1 <1>  -0.1600 
 10 C        0.6710     3.4230    -0.9710 C.3   1 <1>  -0.1600 
 11 N        3.7740    -2.1400    -0.4030 N.ar  1 <1>  -0.6200 
 12 N        1.5710    -2.1700     0.2510 N.pl3 1 <1>  -0.8690 
 13 C        5.1170    -0.1910    -0.0660 C.ar  1 <1>  -0.1500 
 14 C        4.9190    -1.4920    -0.4910 C.ar  1 <1>   0.1600 
 15 C        1.4620    -3.6290     0.0810 C.3   1 <1>   0.2090 
 16 C       -0.0160    -4.0030     0.0380 C.3   1 <1>  -0.1600 
 17 C       -0.1840    -5.5040    -0.2320 C.3   1 <1>   0.0960 
 18 N       -1.6100    -5.8810    -0.2560 N.pl3 1 <1>   0.3140 
 19 N       -2.1950    -6.5690     0.7290 N.2   1 <1>  -0.4180 
 20 C       -2.5050    -5.6280    -1.2130 C.2   1 <1>  -0.3020 
 21 N       -3.4310    -6.7540     0.4200 N.2   1 <1>  -0.2270 
 22 C       -3.6430    -6.1830    -0.7700 C.2   1 <1>   0.0770 
 23 H        0.3510     3.1160     1.8990 H     1 <1>   0.0800 
 24 H       -0.6770     1.7340     1.5420 H     1 <1>   0.0800 
 25 H        1.3860     1.4540    -1.4670 H     1 <1>   0.0800 
 26 H        2.6210     2.5140    -0.7920 H     1 <1>   0.0800 
 27 H        4.1760     1.5130     0.8320 H     1 <1>   0.1500 
 28 H       -1.0210     4.0860     0.2290 H     1 <1>   0.0800 
 29 H       -1.2420     2.5390    -0.5640 H     1 <1>   0.0800 
 30 H        0.3920     3.5200    -2.0050 H     1 <1>   0.0800 
 31 H        1.1820     4.3170    -0.6610 H     1 <1>   0.0800 
 32 H        0.9220    -1.7680     0.9460 H     1 <1>   0.4000 
 33 H        6.0850     0.2670    -0.1650 H     1 <1>   0.1500 
 34 H        5.7490    -2.0260    -0.9230 H     1 <1>   0.1500 
 35 H        1.9570    -4.1210     0.9030 H     1 <1>   0.0800 
 36 H        1.9450    -3.9180    -0.8380 H     1 <1>   0.0800 
 37 H       -0.4940    -3.4420    -0.7460 H     1 <1>   0.0800 
 38 H       -0.4710    -3.7570     0.9820 H     1 <1>   0.0800 
 39 H        0.3000    -6.0750     0.5410 H     1 <1>   0.0800 
 40 H        0.2520    -5.7670    -1.1780 H     1 <1>   0.0800 
 41 H       -2.2880    -5.0890    -2.1150 H     1 <1>   0.1500 
 42 H       -4.6090    -6.2060    -1.2420 H     1 <1>   0.1500 
@<TRIPOS>BOND
  1   1   2  2   
  2   2   3  am  
  3   2   4  1   
  4   3   5  1   
  5   3   6  1   
  6   4   7  ar  
  7   4   8  ar  
  8   5   9  1   
  9   5  23  1   
 10   5  24  1   
 11   6  10  1   
 12   6  25  1   
 13   6  26  1   
 14   7  11  ar  
 15   7  12  1   
 16   8  13  ar  
 17   8  27  1   
 18   9  10  1   
 19   9  28  1   
 20   9  29  1   
 21  10  30  1   
 22  10  31  1   
 23  11  14  ar  
 24  12  15  1   
 25  12  32  1   
 26  13  14  ar  
 27  13  33  1   
 28  14  34  1   
 29  15  16  1   
 30  15  35  1   
 31  15  36  1   
 32  16  17  1   
 33  16  37  1   
 34  16  38  1   
 35  17  18  1   
 36  17  39  1   
 37  17  40  1   
 38  18  19  1   
 39  18  20  1   
 40  19  21  2   
 41  20  22  2   
 42  20  41  1   
 43  21  22  1   
 44  22  42  1   
@<TRIPOS>SUBSTRUCTURE
  1 ****  12 GROUP 4 **** **** 0

# MOE 2024.06 (io_trps.svl 2023.06)
