@<TRIPOS>MOLECULE
NONAME
52 55 1 0 0 
SMALL
USER_CHARGES


@<TRIPOS>ATOM
  1 O       -0.3340     0.7030     0.3120 O.2   1 <1>  -0.5700 
  2 C       -0.3330     1.8980     0.1250 C.2   1 <1>   0.5690 
  3 N       -1.4380     2.6940     0.3110 N.am  1 <1>  -0.5090 
  4 C        0.9810     2.5280    -0.3350 C.3   1 <1>   0.1810 
  5 C       -1.3430     4.1860     0.1540 C.3   1 <1>   0.3640 
  6 C       -2.5940     2.2140     1.1180 C.3   1 <1>   0.0490 
  7 O        1.0910     3.8760     0.0440 O.3   1 <1>  -0.5600 
  8 C       -2.4390     4.7050    -0.7710 C.ar  1 <1>  -0.1440 
  9 C        0.0180     4.6760    -0.4060 C.3   1 <1>   0.2610 
 10 C       -3.2970     0.9540     0.7160 C.3   1 <1>  -0.2000 
 11 C       -3.9960     2.2670     0.5870 C.3   1 <1>  -0.2000 
 12 C       -2.6880     4.1000    -1.9970 C.ar  1 <1>   0.1600 
 13 C       -3.1890     5.8110    -0.4170 C.ar  1 <1>  -0.1500 
 14 C        0.2580     6.1630    -0.0890 C.2   1 <1>   0.5690 
 15 N       -3.5910     4.5050    -2.8750 N.ar  1 <1>  -0.6200 
 16 C       -4.1400     6.2400    -1.3160 C.ar  1 <1>  -0.1500 
 17 O       -0.3110     6.6580     0.8620 O.2   1 <1>  -0.5700 
 18 N        1.0820     6.9270    -0.8840 N.am  1 <1>  -0.6600 
 19 C       -4.2970     5.5630    -2.5130 C.ar  1 <1>   0.1600 
 20 C        1.1680     8.4040    -0.6920 C.3   1 <1>   0.1400 
 21 C        1.9670     6.3880    -1.9560 C.3   1 <1>   0.0600 
 22 C        2.2270     8.7460     0.3570 C.3   1 <1>  -0.0170 
 23 C        2.3110    10.2500     0.5370 C.ar  1 <1>   0.1670 
 24 N        2.8350    10.9300    -0.4720 N.ar  1 <1>  -0.6200 
 25 C        1.8490    10.8320     1.7080 C.ar  1 <1>  -0.1500 
 26 C        2.9040    12.2410    -0.3040 C.ar  1 <1>   0.1600 
 27 C        1.9250    12.1990     1.8680 C.ar  1 <1>  -0.1500 
 28 C        2.4710    12.9150     0.8250 C.ar  1 <1>  -0.1500 
 29 H        1.0640     2.4590    -1.4040 H     1 <1>   0.0800 
 30 H        1.8020     1.9980     0.1120 H     1 <1>   0.0800 
 31 H       -1.4860     4.6070     1.1340 H     1 <1>   0.0800 
 32 H       -2.4450     2.3800     2.1720 H     1 <1>   0.1000 
 33 H       -0.0100     4.5850    -1.4760 H     1 <1>   0.0800 
 34 H       -2.9760     0.4460    -0.1760 H     1 <1>   0.1000 
 35 H       -3.6120     0.2740     1.4880 H     1 <1>   0.1000 
 36 H       -4.7990     2.4800     1.2690 H     1 <1>   0.1000 
 37 H       -4.2120     2.6000    -0.4110 H     1 <1>   0.1000 
 38 H       -2.1180     3.2290    -2.2720 H     1 <1>   0.1500 
 39 H       -3.0370     6.3260     0.5180 H     1 <1>   0.1500 
 40 H       -4.7530     7.0950    -1.0950 H     1 <1>   0.1500 
 41 H       -5.0430     5.9100    -3.2080 H     1 <1>   0.1500 
 42 H        1.4090     8.8810    -1.6260 H     1 <1>   0.0800 
 43 H        0.2130     8.7830    -0.3680 H     1 <1>   0.0800 
 44 H        2.8930     6.9380    -1.9780 H     1 <1>   0.0800 
 45 H        1.4820     6.4870    -2.9110 H     1 <1>   0.0800 
 46 H        2.2010     5.3530    -1.7790 H     1 <1>   0.0800 
 47 H        3.1860     8.3820     0.0400 H     1 <1>   0.0800 
 48 H        1.9710     8.2750     1.2880 H     1 <1>   0.0800 
 49 H        1.4300    10.2230     2.4900 H     1 <1>   0.1500 
 50 H        3.3280    12.8110    -1.1130 H     1 <1>   0.1500 
 51 H        1.5760    12.6820     2.7640 H     1 <1>   0.1500 
 52 H        2.5610    13.9840     0.8830 H     1 <1>   0.1500 
@<TRIPOS>BOND
  1   1   2  2   
  2   2   3  am  
  3   2   4  1   
  4   3   5  1   
  5   3   6  1   
  6   4   7  1   
  7   4  29  1   
  8   4  30  1   
  9   5   8  1   
 10   5   9  1   
 11   5  31  1   
 12   6  10  1   
 13   6  11  1   
 14   6  32  1   
 15   7   9  1   
 16   8  12  ar  
 17   8  13  ar  
 18   9  14  1   
 19   9  33  1   
 20  10  11  1   
 21  10  34  1   
 22  10  35  1   
 23  11  36  1   
 24  11  37  1   
 25  12  15  ar  
 26  12  38  1   
 27  13  16  ar  
 28  13  39  1   
 29  14  17  2   
 30  14  18  am  
 31  15  19  ar  
 32  16  19  ar  
 33  16  40  1   
 34  18  20  1   
 35  18  21  1   
 36  19  41  1   
 37  20  22  1   
 38  20  42  1   
 39  20  43  1   
 40  21  44  1   
 41  21  45  1   
 42  21  46  1   
 43  22  23  1   
 44  22  47  1   
 45  22  48  1   
 46  23  24  ar  
 47  23  25  ar  
 48  24  26  ar  
 49  25  27  ar  
 50  25  49  1   
 51  26  28  ar  
 52  26  50  1   
 53  27  28  ar  
 54  27  51  1   
 55  28  52  1   
@<TRIPOS>SUBSTRUCTURE
  1 ****  14 GROUP 4 **** **** 0

# MOE 2024.06 (io_trps.svl 2023.06)
