@<TRIPOS>MOLECULE
NONAME
53 56 1 0 0 
SMALL
USER_CHARGES


@<TRIPOS>ATOM
  1 O       -2.9360     0.1420    -2.7270 O.2   1 <1>  -0.5700 
  2 C       -2.7390    -0.4500    -1.6960 C.2   1 <1>   0.5690 
  3 N       -2.3600     0.1880    -0.5490 N.am  1 <1>  -0.6600 
  4 C       -2.9710    -1.9380    -1.6990 C.3   1 <1>  -0.0190 
  5 C       -2.1720    -0.5230     0.7480 C.3   1 <1>   0.2200 
  6 C       -2.0590     1.6530    -0.5400 C.3   1 <1>   0.0600 
  7 C       -1.6960    -2.7300    -1.3370 C.3   1 <1>   0.1200 
  8 C       -4.2340    -2.2400    -0.8860 C.3   1 <1>   0.3430 
  9 C       -1.0370    -1.5710     0.6460 C.3   1 <1>   0.1200 
 10 C       -3.5200    -1.0920     1.2700 C.3   1 <1>   0.3430 
 11 O       -1.4470    -2.7700     0.0410 O.3   1 <1>  -0.5600 
 12 N       -3.9960    -2.3460     0.5910 N.4   1 <1>  -0.9590 
 13 C       -5.1470    -2.9750     1.2880 C.3   1 <1>   0.4860 
 14 C       -5.2720    -4.4070     0.8130 C.ar  1 <1>  -0.1440 
 15 C       -6.2390    -4.7430    -0.1270 C.ar  1 <1>   0.0820 
 16 C       -4.4170    -5.3820     1.3050 C.ar  1 <1>  -0.1500 
 17 O       -7.0290    -3.7360    -0.5880 O.3   1 <1>  -0.3620 
 18 C       -6.3520    -6.0610    -0.5590 C.ar  1 <1>  -0.1500 
 19 C       -4.5130    -6.6890     0.8640 C.ar  1 <1>   0.0820 
 20 C       -8.1490    -4.0130    -1.4060 C.3   1 <1>   0.0400 
 21 C       -5.5080    -7.0360    -0.0610 C.ar  1 <1>   0.0820 
 22 O       -3.5940    -7.5630     1.3560 O.3   1 <1>  -0.3620 
 23 O       -5.7190    -8.3050    -0.4970 O.3   1 <1>  -0.3620 
 24 C       -3.1160    -8.5710     0.4920 C.3   1 <1>   0.1200 
 25 C       -5.5470    -9.3550     0.4300 C.3   1 <1>   0.1200 
 26 C       -4.0740    -9.7640     0.4920 C.3   1 <1>  -0.1600 
 27 H       -3.2010    -2.1940    -2.7180 H     1 <1>   0.0800 
 28 H       -1.8470     0.2120     1.4650 H     1 <1>   0.0800 
 29 H       -2.7180     2.1620     0.1420 H     1 <1>   0.0800 
 30 H       -2.1910     2.0820    -1.5190 H     1 <1>   0.0800 
 31 H       -1.0390     1.8170    -0.2370 H     1 <1>   0.0800 
 32 H       -0.8330    -2.3180    -1.8350 H     1 <1>   0.0800 
 33 H       -1.8080    -3.7510    -1.6600 H     1 <1>   0.0800 
 34 H       -4.6250    -3.1790    -1.2420 H     1 <1>   0.0800 
 35 H       -4.9790    -1.4860    -1.0870 H     1 <1>   0.0800 
 36 H       -0.7050    -1.8280     1.6360 H     1 <1>   0.0800 
 37 H       -0.1930    -1.1740     0.1070 H     1 <1>   0.0800 
 38 H       -4.2710    -0.3240     1.1860 H     1 <1>   0.0800 
 39 H       -3.3920    -1.3060     2.3180 H     1 <1>   0.0800 
 40 H       -3.1980    -3.0090     0.6580 H     1 <1>   0.4500 
 41 H       -4.9840    -2.9730     2.3530 H     1 <1>   0.0800 
 42 H       -6.0550    -2.4320     1.0800 H     1 <1>   0.0800 
 43 H       -3.6570    -5.1480     2.0300 H     1 <1>   0.1500 
 44 H       -7.0900    -6.3630    -1.2780 H     1 <1>   0.1500 
 45 H       -8.6690    -3.0900    -1.5930 H     1 <1>   0.0800 
 46 H       -8.8000    -4.6980    -0.8910 H     1 <1>   0.0800 
 47 H       -7.8110    -4.4350    -2.3370 H     1 <1>   0.0800 
 48 H       -3.0170    -8.1540    -0.4970 H     1 <1>   0.0800 
 49 H       -2.1430    -8.8710     0.8390 H     1 <1>   0.0800 
 50 H       -5.8960    -9.0190     1.3920 H     1 <1>   0.0800 
 51 H       -6.1550   -10.1820     0.1100 H     1 <1>   0.0800 
 52 H       -3.9120   -10.3490     1.3790 H     1 <1>   0.0800 
 53 H       -3.8460   -10.3940    -0.3490 H     1 <1>   0.0800 
@<TRIPOS>BOND
  1   1   2  2   
  2   2   3  am  
  3   2   4  1   
  4   3   5  1   
  5   3   6  1   
  6   4   7  1   
  7   4   8  1   
  8   4  27  1   
  9   5   9  1   
 10   5  10  1   
 11   5  28  1   
 12   6  29  1   
 13   6  30  1   
 14   6  31  1   
 15   7  11  1   
 16   7  32  1   
 17   7  33  1   
 18   8  12  1   
 19   8  34  1   
 20   8  35  1   
 21   9  11  1   
 22   9  36  1   
 23   9  37  1   
 24  10  12  1   
 25  10  38  1   
 26  10  39  1   
 27  12  13  1   
 28  12  40  1   
 29  13  14  1   
 30  13  41  1   
 31  13  42  1   
 32  14  15  ar  
 33  14  16  ar  
 34  15  17  1   
 35  15  18  ar  
 36  16  19  ar  
 37  16  43  1   
 38  17  20  1   
 39  18  21  ar  
 40  18  44  1   
 41  19  21  ar  
 42  19  22  1   
 43  20  45  1   
 44  20  46  1   
 45  20  47  1   
 46  21  23  1   
 47  22  24  1   
 48  23  25  1   
 49  24  26  1   
 50  24  48  1   
 51  24  49  1   
 52  25  26  1   
 53  25  50  1   
 54  25  51  1   
 55  26  52  1   
 56  26  53  1   
@<TRIPOS>SUBSTRUCTURE
  1 ****  14 GROUP 4 **** **** 0

# MOE 2024.06 (io_trps.svl 2023.06)
