@<TRIPOS>MOLECULE
NONAME
45 46 1 0 0 
SMALL
USER_CHARGES


@<TRIPOS>ATOM
  1 O       -0.6350    -1.4660     1.2050 O.2   1 <1>  -0.5700 
  2 C        0.2320    -1.3290     0.3640 C.2   1 <1>   0.5440 
  3 N        0.2870    -0.1090    -0.2220 N.am  1 <1>  -0.8000 
  4 C        1.1430    -2.3920     0.0000 C.ar  1 <1>   0.0860 
  5 C        0.7550    -3.7450     0.0250 C.ar  1 <1>   0.4100 
  6 C        2.4440    -2.1140    -0.3910 C.ar  1 <1>  -0.1500 
  7 N        1.5510    -4.7580    -0.3220 N.ar  1 <1>  -0.6200 
  8 N       -0.5170    -4.1020     0.4160 N.pl3 1 <1>  -0.8690 
  9 C        3.2770    -3.1520    -0.7480 C.ar  1 <1>  -0.1430 
 10 C        2.7770    -4.4520    -0.7050 C.ar  1 <1>   0.1670 
 11 C       -0.8580    -5.4390     0.9530 C.3   1 <1>   0.2090 
 12 C        4.7070    -2.8250    -1.1650 C.3   1 <1>  -0.0970 
 13 C        3.6310    -5.6460    -1.0980 C.3   1 <1>  -0.0970 
 14 C       -0.9990    -6.4470    -0.2100 C.3   1 <1>   0.4230 
 15 N       -0.5270    -7.8220     0.1050 N.4   1 <1>  -0.9590 
 16 C       -2.4290    -6.6430    -0.7040 C.3   1 <1>  -0.1600 
 17 C       -1.1180    -8.6870    -0.9460 C.3   1 <1>   0.3430 
 18 C        0.9570    -7.8710     0.1540 C.3   1 <1>   0.3430 
 19 C       -2.4840    -8.0780    -1.2370 C.3   1 <1>  -0.1600 
 20 C        1.4060    -9.2160     0.7120 C.3   1 <1>  -0.2400 
 21 H       -0.4010     0.5950     0.0520 H     1 <1>   0.3700 
 22 H        0.8610     0.1080    -1.0360 H     1 <1>   0.3700 
 23 H        2.7960    -1.0980    -0.4060 H     1 <1>   0.1500 
 24 H       -1.0260    -3.3170     0.8660 H     1 <1>   0.4000 
 25 H       -0.0700    -5.7430     1.6200 H     1 <1>   0.0800 
 26 H       -1.7720    -5.3730     1.5160 H     1 <1>   0.0800 
 27 H        4.9340    -1.7880    -0.9940 H     1 <1>   0.0800 
 28 H        4.8440    -3.0310    -2.2110 H     1 <1>   0.0800 
 29 H        5.4060    -3.4120    -0.5950 H     1 <1>   0.0800 
 30 H        4.4550    -5.3660    -1.7270 H     1 <1>   0.0800 
 31 H        3.0370    -6.3540    -1.6440 H     1 <1>   0.0800 
 32 H        4.0150    -6.1190    -0.2130 H     1 <1>   0.0800 
 33 H       -0.4070    -6.0780    -1.0330 H     1 <1>   0.0800 
 34 H       -0.9150    -8.0940     1.0140 H     1 <1>   0.4500 
 35 H       -3.1320    -6.5220     0.1020 H     1 <1>   0.0800 
 36 H       -2.6580    -5.9190    -1.4670 H     1 <1>   0.0800 
 37 H       -0.5110    -8.6420    -1.8360 H     1 <1>   0.0800 
 38 H       -1.1980    -9.7120    -0.6200 H     1 <1>   0.0800 
 39 H        1.3650    -7.7180    -0.8320 H     1 <1>   0.0800 
 40 H        1.3300    -7.0810     0.7880 H     1 <1>   0.0800 
 41 H       -2.6820    -8.1000    -2.2950 H     1 <1>   0.0800 
 42 H       -3.2530    -8.6390    -0.7340 H     1 <1>   0.0800 
 43 H        1.1200   -10.0240     0.0640 H     1 <1>   0.0800 
 44 H        1.0020    -9.3760     1.6950 H     1 <1>   0.0800 
 45 H        2.4790    -9.2220     0.7900 H     1 <1>   0.0800 
@<TRIPOS>BOND
  1   1   2  2   
  2   2   3  am  
  3   2   4  1   
  4   3  21  1   
  5   3  22  1   
  6   4   5  ar  
  7   4   6  ar  
  8   5   7  ar  
  9   5   8  1   
 10   6   9  ar  
 11   6  23  1   
 12   7  10  ar  
 13   8  11  1   
 14   8  24  1   
 15   9  10  ar  
 16   9  12  1   
 17  10  13  1   
 18  11  14  1   
 19  11  25  1   
 20  11  26  1   
 21  12  27  1   
 22  12  28  1   
 23  12  29  1   
 24  13  30  1   
 25  13  31  1   
 26  13  32  1   
 27  14  15  1   
 28  14  16  1   
 29  14  33  1   
 30  15  17  1   
 31  15  18  1   
 32  15  34  1   
 33  16  19  1   
 34  16  35  1   
 35  16  36  1   
 36  17  19  1   
 37  17  37  1   
 38  17  38  1   
 39  18  20  1   
 40  18  39  1   
 41  18  40  1   
 42  19  41  1   
 43  19  42  1   
 44  20  43  1   
 45  20  44  1   
 46  20  45  1   
@<TRIPOS>SUBSTRUCTURE
  1 ****   7 GROUP 4 **** **** 0

# MOE 2024.06 (io_trps.svl 2023.06)
