@<TRIPOS>MOLECULE
NONAME
55 59 1 0 0 
SMALL
USER_CHARGES


@<TRIPOS>ATOM
  1 O       -1.7210     0.7840    -1.1130 O.2   1 <1>  -0.5700 
  2 C       -1.4070     0.3710    -0.0070 C.2   1 <1>   0.7160 
  3 N       -1.6680    -0.9280     0.3090 N.am  1 <1>  -0.7300 
  4 C       -0.7760     1.2510     0.9650 C.2   1 <1>   0.2030 
  5 C       -2.3010    -1.9480    -0.5580 C.3   1 <1>   0.2200 
  6 N       -0.4610     0.9340     2.2090 N.2   1 <1>  -0.7070 
  7 C       -0.4130     2.5810     0.7150 C.2   1 <1>  -0.1810 
  8 C       -3.7140    -2.2700    -0.0880 C.3   1 <1>  -0.0800 
  9 C       -1.6160    -3.2900    -0.3350 C.3   1 <1>   0.1200 
 10 N        0.0990     2.0310     2.7430 N.pl3 1 <1>   0.3000 
 11 C        0.1380     3.0410     1.8490 C.2   1 <1>  -0.3320 
 12 C       -0.5780     3.3810    -0.5600 C.3   1 <1>   0.5240 
 13 C       -3.4880    -3.3350     0.9910 C.3   1 <1>   0.1200 
 14 C       -4.5590    -1.0710     0.3850 C.3   1 <1>  -0.0170 
 15 O       -2.1800    -3.8040     0.8320 O.3   1 <1>  -0.5600 
 16 C        0.6780     4.4490     2.0100 C.3   1 <1>   0.0200 
 17 N       -0.4800     4.8380    -0.2070 N.4   1 <1>  -0.9590 
 18 C       -5.9810    -1.5030     0.7270 C.ar  1 <1>  -0.1430 
 19 C        0.7400     5.1390     0.6290 C.3   1 <1>   0.3430 
 20 C       -0.5470     5.6900    -1.4310 C.3   1 <1>   0.2630 
 21 C       -6.9580    -1.7530    -0.2660 C.ar  1 <1>   0.0000 
 22 C       -6.3500    -1.6680     2.0300 C.ar  1 <1>  -0.1500 
 23 C       -8.2390    -2.1770     0.1650 C.ar  1 <1>   0.3100 
 24 C       -6.7410    -1.6060    -1.6560 C.ar  1 <1>  -0.1500 
 25 C       -7.6480    -2.0830     2.3480 C.ar  1 <1>   0.1600 
 26 N       -8.5670    -2.3370     1.4720 N.ar  1 <1>  -0.6200 
 27 C       -9.2240    -2.4460    -0.7980 C.ar  1 <1>  -0.1500 
 28 C       -7.7250    -1.8750    -2.5690 C.ar  1 <1>  -0.1500 
 29 C       -8.9820    -2.3020    -2.1370 C.ar  1 <1>  -0.1500 
 30 H       -1.3960    -1.2490     1.2450 H     1 <1>   0.3700 
 31 H       -2.2680    -1.6440    -1.5900 H     1 <1>   0.0800 
 32 H       -4.2260    -2.7520    -0.9020 H     1 <1>   0.0800 
 33 H       -0.5510    -3.2020    -0.2160 H     1 <1>   0.0800 
 34 H       -1.8420    -3.9710    -1.1370 H     1 <1>   0.0800 
 35 H        0.4430     2.0540     3.7140 H     1 <1>   0.2700 
 36 H       -1.5370     3.1680    -1.0050 H     1 <1>   0.0800 
 37 H        0.1940     3.1060    -1.2600 H     1 <1>   0.0800 
 38 H       -4.1710    -4.1600     0.8870 H     1 <1>   0.0800 
 39 H       -3.5640    -2.9230     1.9820 H     1 <1>   0.0800 
 40 H       -4.5790    -0.3090    -0.3740 H     1 <1>   0.0800 
 41 H       -4.1070    -0.6300     1.2570 H     1 <1>   0.0800 
 42 H        0.0410     5.0110     2.6700 H     1 <1>   0.0800 
 43 H        1.6660     4.4260     2.4390 H     1 <1>   0.0800 
 44 H       -1.3010     5.0220     0.3860 H     1 <1>   0.4500 
 45 H        1.6160     4.7890     0.1080 H     1 <1>   0.0800 
 46 H        0.8400     6.2030     0.7720 H     1 <1>   0.0800 
 47 H        0.2990     5.4970    -2.0710 H     1 <1>   0.0800 
 48 H       -0.5440     6.7340    -1.1610 H     1 <1>   0.0800 
 49 H       -1.4510     5.4830    -1.9820 H     1 <1>   0.0800 
 50 H       -5.6640    -1.4890     2.8380 H     1 <1>   0.1500 
 51 H       -5.7840    -1.2740    -2.0110 H     1 <1>   0.1500 
 52 H       -7.8970    -2.2010     3.3890 H     1 <1>   0.1500 
 53 H      -10.1850    -2.7710    -0.4430 H     1 <1>   0.1500 
 54 H       -7.5470    -1.7600    -3.6250 H     1 <1>   0.1500 
 55 H       -9.7480    -2.5120    -2.8640 H     1 <1>   0.1500 
@<TRIPOS>BOND
  1   1   2  2   
  2   2   3  am  
  3   2   4  1   
  4   3   5  1   
  5   3  30  1   
  6   4   6  2   
  7   4   7  1   
  8   5   8  1   
  9   5   9  1   
 10   5  31  1   
 11   6  10  1   
 12   7  11  2   
 13   7  12  1   
 14   8  13  1   
 15   8  14  1   
 16   8  32  1   
 17   9  15  1   
 18   9  33  1   
 19   9  34  1   
 20  10  11  1   
 21  10  35  1   
 22  11  16  1   
 23  12  17  1   
 24  12  36  1   
 25  12  37  1   
 26  13  15  1   
 27  13  38  1   
 28  13  39  1   
 29  14  18  1   
 30  14  40  1   
 31  14  41  1   
 32  16  19  1   
 33  16  42  1   
 34  16  43  1   
 35  17  19  1   
 36  17  20  1   
 37  17  44  1   
 38  18  21  ar  
 39  18  22  ar  
 40  19  45  1   
 41  19  46  1   
 42  20  47  1   
 43  20  48  1   
 44  20  49  1   
 45  21  23  ar  
 46  21  24  ar  
 47  22  25  ar  
 48  22  50  1   
 49  23  26  ar  
 50  23  27  ar  
 51  24  28  ar  
 52  24  51  1   
 53  25  26  ar  
 54  25  52  1   
 55  27  29  ar  
 56  27  53  1   
 57  28  29  ar  
 58  28  54  1   
 59  29  55  1   
@<TRIPOS>SUBSTRUCTURE
  1 ****  14 GROUP 4 **** **** 0

# MOE 2024.06 (io_trps.svl 2023.06)
