@<TRIPOS>MOLECULE
NONAME
37 38 1 0 0 
SMALL
USER_CHARGES


@<TRIPOS>ATOM
  1 S       -0.1610    -0.1010    -0.4100 S.3   1 <1>  -0.0800 
  2 C        0.7750     1.3370    -0.7750 C.2   1 <1>  -0.1100 
  3 C       -1.5640     0.8680     0.0010 C.2   1 <1>  -0.1100 
  4 C        0.0420     2.4510    -0.5820 C.2   1 <1>  -0.1810 
  5 C       -1.2950     2.1790    -0.1420 C.2   1 <1>  -0.1500 
  6 C        0.5300     3.8760    -0.7940 C.3   1 <1>   0.0210 
  7 C        0.6970     4.6240     0.5400 C.3   1 <1>   0.2890 
  8 N        0.8680     6.0900     0.3460 N.pl3 1 <1>  -0.8690 
  9 C        1.8440     4.0870     1.3970 C.3   1 <1>  -0.2400 
 10 C        1.8120     6.7850    -0.3310 C.ar  1 <1>   0.4100 
 11 N        2.7290     6.1060    -0.9910 N.ar  1 <1>  -0.6200 
 12 C        1.7930     8.2040    -0.3130 C.ar  1 <1>  -0.1430 
 13 C        3.6500     6.7820    -1.6360 C.ar  1 <1>   0.7710 
 14 C        2.7690     8.8570    -1.0000 C.ar  1 <1>   0.2110 
 15 C        0.6930     8.9330     0.4700 C.3   1 <1>  -0.0160 
 16 N        3.6970     8.1220    -1.6600 N.ar  1 <1>  -0.1790 
 17 N        4.5640     6.0670    -2.2850 N.pl3 1 <1>  -0.9000 
 18 C        0.7580    10.4650     0.4170 C.3   1 <1>  -0.2400 
 19 H        1.7900     1.1910    -1.0980 H     1 <1>   0.1500 
 20 H       -2.4520     0.3450     0.3070 H     1 <1>   0.1500 
 21 H       -1.9960     2.9740     0.0440 H     1 <1>   0.1500 
 22 H       -0.1830     4.3960    -1.4090 H     1 <1>   0.0800 
 23 H        1.4670     3.8460    -1.3170 H     1 <1>   0.0800 
 24 H       -0.2130     4.4840     1.0980 H     1 <1>   0.0800 
 25 H        0.1740     6.6160     0.8790 H     1 <1>   0.4000 
 26 H        2.7770     4.1450     0.8690 H     1 <1>   0.0800 
 27 H        1.6620     3.0580     1.6470 H     1 <1>   0.0800 
 28 H        1.9170     4.6480     2.3110 H     1 <1>   0.0800 
 29 H        2.8460     9.9310    -1.0490 H     1 <1>   0.1500 
 30 H        0.7430     8.6310     1.5030 H     1 <1>   0.0800 
 31 H       -0.2670     8.6260     0.0870 H     1 <1>   0.0800 
 32 H        4.4500     8.5500    -2.1880 H     1 <1>   0.4570 
 33 H        5.3590     6.3860    -2.8410 H     1 <1>   0.4000 
 34 H        4.4840     5.0460    -2.2300 H     1 <1>   0.4000 
 35 H        1.6780    10.8270     0.8420 H     1 <1>   0.0800 
 36 H       -0.0540    10.8780     0.9920 H     1 <1>   0.0800 
 37 H        0.6600    10.8210    -0.5930 H     1 <1>   0.0800 
@<TRIPOS>BOND
  1   1   2  1   
  2   1   3  1   
  3   2   4  2   
  4   2  19  1   
  5   3   5  2   
  6   3  20  1   
  7   4   5  1   
  8   4   6  1   
  9   5  21  1   
 10   6   7  1   
 11   6  22  1   
 12   6  23  1   
 13   7   8  1   
 14   7   9  1   
 15   7  24  1   
 16   8  10  1   
 17   8  25  1   
 18   9  26  1   
 19   9  27  1   
 20   9  28  1   
 21  10  11  ar  
 22  10  12  ar  
 23  11  13  ar  
 24  12  14  ar  
 25  12  15  1   
 26  13  16  ar  
 27  13  17  1   
 28  14  16  ar  
 29  14  29  1   
 30  15  18  1   
 31  15  30  1   
 32  15  31  1   
 33  16  32  1   
 34  17  33  1   
 35  17  34  1   
 36  18  35  1   
 37  18  36  1   
 38  18  37  1   
@<TRIPOS>SUBSTRUCTURE
  1 ****   8 GROUP 4 **** **** 0

# MOE 2024.06 (io_trps.svl 2023.06)
