@<TRIPOS>MOLECULE
NONAME
49 51 1 0 0 
SMALL
USER_CHARGES


@<TRIPOS>ATOM
  1 CL       2.2260    -0.1120    -2.9540 Cl    1 <1>  -0.1770 
  2 C        2.5620    -1.0880    -1.5490 C.ar  1 <1>   0.1770 
  3 C        2.1770    -2.4110    -1.5380 C.ar  1 <1>  -0.1500 
  4 C        3.2050    -0.5200    -0.4680 C.ar  1 <1>  -0.1500 
  5 C        2.4240    -3.2190    -0.4290 C.ar  1 <1>   0.0860 
  6 C        3.4610    -1.3040     0.6420 C.ar  1 <1>  -0.1500 
  7 C        3.0770    -2.6370     0.6710 C.ar  1 <1>  -0.1440 
  8 C        1.9860    -4.6060    -0.4630 C.2   1 <1>   0.5440 
  9 C        3.3810    -3.4460     1.9270 C.3   1 <1>  -0.0960 
 10 O        2.7300    -5.5200    -0.1480 O.2   1 <1>  -0.5700 
 11 N        0.6980    -4.9340    -0.8280 N.am  1 <1>  -0.6600 
 12 C        0.3730    -6.3360    -1.1760 C.3   1 <1>   0.1400 
 13 C       -0.4620    -4.2070    -0.2380 C.3   1 <1>   0.1400 
 14 C       -0.1560    -6.9330     0.1350 C.3   1 <1>   0.4230 
 15 C       -1.1330    -5.0620     0.8730 C.3   1 <1>  -0.1600 
 16 N        0.2710    -8.3410     0.4630 N.4   1 <1>  -0.9590 
 17 C       -1.6800    -6.5010     0.3540 C.3   1 <1>   0.0000 
 18 C       -0.1410    -9.3320    -0.5410 C.3   1 <1>   0.3430 
 19 C        1.7460    -8.3970     0.7260 C.3   1 <1>   0.2630 
 20 C       -2.2600    -7.8950    -0.2260 C.3   1 <1>  -0.1600 
 21 C       -3.1830    -6.0360     0.6640 C.3   1 <1>   0.1200 
 22 C       -1.4680    -8.8840    -1.1200 C.3   1 <1>  -0.1600 
 23 O       -3.3800    -6.1290     2.0410 O.3   1 <1>  -0.6800 
 24 H        1.6840    -2.8190    -2.4020 H     1 <1>   0.1500 
 25 H        3.4990     0.5140    -0.4990 H     1 <1>   0.1500 
 26 H        3.9650    -0.8630     1.4860 H     1 <1>   0.1500 
 27 H        3.7220    -2.8110     2.7260 H     1 <1>   0.0800 
 28 H        4.1510    -4.1680     1.7180 H     1 <1>   0.0800 
 29 H        2.5010    -3.9630     2.2630 H     1 <1>   0.0800 
 30 H       -0.3750    -6.3490    -1.9480 H     1 <1>   0.0800 
 31 H        1.2520    -6.8480    -1.5260 H     1 <1>   0.0800 
 32 H       -0.1380    -3.2680     0.1790 H     1 <1>   0.0800 
 33 H       -1.1740    -3.9910    -1.0170 H     1 <1>   0.0800 
 34 H        0.4440    -6.4120     0.8560 H     1 <1>   0.0800 
 35 H       -0.4630    -5.1610     1.7130 H     1 <1>   0.0800 
 36 H       -1.8340    -4.3680     1.3100 H     1 <1>   0.0800 
 37 H       -0.2250    -8.5680     1.3370 H     1 <1>   0.4500 
 38 H        0.5920    -9.4040    -1.3290 H     1 <1>   0.0800 
 39 H       -0.2440   -10.2990    -0.0760 H     1 <1>   0.0800 
 40 H        2.2980    -8.1410    -0.1640 H     1 <1>   0.0800 
 41 H        2.0370    -9.3840     1.0440 H     1 <1>   0.0800 
 42 H        2.0150    -7.6920     1.4970 H     1 <1>   0.0800 
 43 H       -2.6520    -8.4650     0.6030 H     1 <1>   0.0800 
 44 H       -3.0750    -7.7180    -0.9120 H     1 <1>   0.0800 
 45 H       -4.0170    -6.5810     0.2560 H     1 <1>   0.0800 
 46 H       -3.3990    -5.0290     0.3400 H     1 <1>   0.0800 
 47 H       -1.2880    -8.4400    -2.0840 H     1 <1>   0.0800 
 48 H       -2.0670    -9.7600    -1.3060 H     1 <1>   0.0800 
 49 H       -4.2830    -5.8420     2.2900 H     1 <1>   0.4000 
@<TRIPOS>BOND
  1   1   2  1   
  2   2   3  ar  
  3   2   4  ar  
  4   3   5  ar  
  5   3  24  1   
  6   4   6  ar  
  7   4  25  1   
  8   5   7  ar  
  9   5   8  1   
 10   6   7  ar  
 11   6  26  1   
 12   7   9  1   
 13   8  10  2   
 14   8  11  am  
 15   9  27  1   
 16   9  28  1   
 17   9  29  1   
 18  11  12  1   
 19  11  13  1   
 20  12  14  1   
 21  12  30  1   
 22  12  31  1   
 23  13  15  1   
 24  13  32  1   
 25  13  33  1   
 26  14  16  1   
 27  14  17  1   
 28  14  34  1   
 29  15  17  1   
 30  15  35  1   
 31  15  36  1   
 32  16  18  1   
 33  16  19  1   
 34  16  37  1   
 35  17  20  1   
 36  17  21  1   
 37  18  22  1   
 38  18  38  1   
 39  18  39  1   
 40  19  40  1   
 41  19  41  1   
 42  19  42  1   
 43  20  22  1   
 44  20  43  1   
 45  20  44  1   
 46  21  23  1   
 47  21  45  1   
 48  21  46  1   
 49  22  47  1   
 50  22  48  1   
 51  23  49  1   
@<TRIPOS>SUBSTRUCTURE
  1 ****  11 GROUP 4 **** **** 0

# MOE 2024.06 (io_trps.svl 2023.06)
