@<TRIPOS>MOLECULE
NONAME
53 55 1 0 0 
SMALL
USER_CHARGES


@<TRIPOS>ATOM
  1 CL       0.8680    -4.2430    -3.2550 Cl    1 <1>  -0.1770 
  2 C        0.0370    -4.5870    -1.7580 C.ar  1 <1>   0.1770 
  3 C       -1.2370    -4.0880    -1.5600 C.ar  1 <1>  -0.1500 
  4 C        0.6660    -5.3520    -0.7960 C.ar  1 <1>  -0.1500 
  5 C       -1.9050    -4.3590    -0.3760 C.ar  1 <1>  -0.1440 
  6 C        0.0030    -5.6270     0.3880 C.ar  1 <1>  -0.1500 
  7 C       -1.2870    -5.1410     0.5990 C.ar  1 <1>   0.0830 
  8 C       -3.3040    -3.7970    -0.1600 C.3   1 <1>  -0.0960 
  9 O       -1.9910    -5.4030     1.7330 O.3   1 <1>  -0.3630 
 10 C       -1.6600    -6.4900     2.5910 C.3   1 <1>   0.1810 
 11 C       -1.6570    -7.8380     1.8640 C.2   1 <1>   0.5690 
 12 O       -0.6920    -8.5480     2.0260 O.2   1 <1>  -0.5700 
 13 N       -2.6920    -8.2460     1.0510 N.am  1 <1>  -0.6600 
 14 C       -2.5120    -9.3910     0.1150 C.3   1 <1>   0.1400 
 15 C       -3.9990    -7.5400     0.9320 C.3   1 <1>   0.1400 
 16 C       -3.6630   -10.4090     0.2670 C.3   1 <1>   0.4230 
 17 C       -5.1330    -8.5560     1.1150 C.3   1 <1>  -0.1600 
 18 N       -3.4820   -11.6670    -0.5740 N.4   1 <1>  -0.9590 
 19 C       -5.0650    -9.7460     0.1170 C.3   1 <1>   0.0000 
 20 C       -4.7400   -12.4570    -0.7770 C.3   1 <1>   0.3430 
 21 C       -2.7890   -11.4700    -1.8910 C.3   1 <1>   0.2630 
 22 C       -6.1660   -10.7790     0.5010 C.3   1 <1>  -0.1600 
 23 C       -5.2720    -9.2430    -1.3400 C.3   1 <1>   0.1200 
 24 C       -5.7110   -12.2470     0.3830 C.3   1 <1>  -0.1600 
 25 O       -6.4110    -8.4640    -1.4550 O.3   1 <1>  -0.6800 
 26 H       -1.6900    -3.4920    -2.3320 H     1 <1>   0.1500 
 27 H        1.6590    -5.7230    -0.9720 H     1 <1>   0.1500 
 28 H        0.5110    -6.2170     1.1290 H     1 <1>   0.1500 
 29 H       -3.5810    -3.1300    -0.9550 H     1 <1>   0.0800 
 30 H       -3.3390    -3.2530     0.7670 H     1 <1>   0.0800 
 31 H       -4.0200    -4.5970    -0.1180 H     1 <1>   0.0800 
 32 H       -0.6950    -6.2960     3.0220 H     1 <1>   0.0800 
 33 H       -2.3870    -6.5120     3.3810 H     1 <1>   0.0800 
 34 H       -2.4720    -8.9960    -0.8840 H     1 <1>   0.0800 
 35 H       -1.5790    -9.8890     0.3140 H     1 <1>   0.0800 
 36 H       -4.0940    -6.7760     1.6840 H     1 <1>   0.0800 
 37 H       -4.0650    -7.0630    -0.0310 H     1 <1>   0.0800 
 38 H       -3.6140   -10.7270     1.2960 H     1 <1>   0.0800 
 39 H       -5.0800    -8.9190     2.1270 H     1 <1>   0.0800 
 40 H       -6.0730    -8.0390     1.0240 H     1 <1>   0.0800 
 41 H       -2.8630   -12.2660    -0.0060 H     1 <1>   0.4500 
 42 H       -5.2250   -12.1440    -1.6880 H     1 <1>   0.0800 
 43 H       -4.5040   -13.5050    -0.8710 H     1 <1>   0.0800 
 44 H       -3.3600   -10.8120    -2.5250 H     1 <1>   0.0800 
 45 H       -2.6720   -12.4160    -2.3970 H     1 <1>   0.0800 
 46 H       -1.8090   -11.0450    -1.7450 H     1 <1>   0.0800 
 47 H       -6.4910   -10.6260     1.5170 H     1 <1>   0.0800 
 48 H       -7.0370   -10.6340    -0.1130 H     1 <1>   0.0800 
 49 H       -5.3730   -10.0600    -2.0310 H     1 <1>   0.0800 
 50 H       -4.4520    -8.6270    -1.6630 H     1 <1>   0.0800 
 51 H       -6.5760   -12.8720     0.2390 H     1 <1>   0.0800 
 52 H       -5.2420   -12.5660     1.2980 H     1 <1>   0.0800 
 53 H       -7.2280    -8.9680    -1.2670 H     1 <1>   0.4000 
@<TRIPOS>BOND
  1   1   2  1   
  2   2   3  ar  
  3   2   4  ar  
  4   3   5  ar  
  5   3  26  1   
  6   4   6  ar  
  7   4  27  1   
  8   5   7  ar  
  9   5   8  1   
 10   6   7  ar  
 11   6  28  1   
 12   7   9  1   
 13   8  29  1   
 14   8  30  1   
 15   8  31  1   
 16   9  10  1   
 17  10  11  1   
 18  10  32  1   
 19  10  33  1   
 20  11  12  2   
 21  11  13  am  
 22  13  14  1   
 23  13  15  1   
 24  14  16  1   
 25  14  34  1   
 26  14  35  1   
 27  15  17  1   
 28  15  36  1   
 29  15  37  1   
 30  16  18  1   
 31  16  19  1   
 32  16  38  1   
 33  17  19  1   
 34  17  39  1   
 35  17  40  1   
 36  18  20  1   
 37  18  21  1   
 38  18  41  1   
 39  19  22  1   
 40  19  23  1   
 41  20  24  1   
 42  20  42  1   
 43  20  43  1   
 44  21  44  1   
 45  21  45  1   
 46  21  46  1   
 47  22  24  1   
 48  22  47  1   
 49  22  48  1   
 50  23  25  1   
 51  23  49  1   
 52  23  50  1   
 53  24  51  1   
 54  24  52  1   
 55  25  53  1   
@<TRIPOS>SUBSTRUCTURE
  1 ****  13 GROUP 4 **** **** 0

# MOE 2024.06 (io_trps.svl 2023.06)
