@<TRIPOS>MOLECULE
NONAME
52 55 1 0 0 
SMALL
USER_CHARGES


@<TRIPOS>ATOM
  1 O        0.1240    -0.1120    -0.2510 O.2   1 <1>  -0.5700 
  2 C       -0.9700     0.4010    -0.1110 C.2   1 <1>   0.7160 
  3 N       -2.0280    -0.4080     0.1440 N.am  1 <1>  -0.7300 
  4 C       -1.1590     1.8190    -0.2150 C.2   1 <1>  -0.0860 
  5 C       -2.0530    -1.8670     0.1270 C.3   1 <1>   0.3580 
  6 C       -2.3940     2.4820    -0.2720 C.2   1 <1>   0.3720 
  7 C       -0.2590     2.8390    -0.3090 C.2   1 <1>   0.0870 
  8 C       -3.1130    -2.2880    -0.8750 C.2   1 <1>  -0.2880 
  9 C       -2.3930    -2.3640     1.5400 C.3   1 <1>  -0.1600 
 10 N       -2.2380     3.7520    -0.4050 N.2   1 <1>  -0.4100 
 11 N       -3.6560     1.8700    -0.2170 N.pl3 1 <1>  -0.8210 
 12 O       -0.9480     3.9460    -0.4260 O.3   1 <1>  -0.0190 
 13 C        1.1810     2.9130    -0.2980 C.ar  1 <1>   0.0530 
 14 C       -4.0650    -3.1940    -0.6290 C.2   1 <1>  -0.2880 
 15 C       -2.9070    -3.8130     1.5260 C.3   1 <1>  -0.1600 
 16 C       -4.3050     1.7340    -1.5490 C.3   1 <1>   0.2090 
 17 C       -4.6260     2.5060     0.7200 C.3   1 <1>   0.2090 
 18 C        1.8510     3.7970    -1.1440 C.ar  1 <1>  -0.1500 
 19 C        1.9600     2.1360     0.5600 C.ar  1 <1>  -0.1500 
 20 C       -4.1900    -3.9440     0.6880 C.3   1 <1>  -0.0220 
 21 C       -5.7850     2.0020    -1.3190 C.3   1 <1>  -0.1600 
 22 C       -5.8050     2.9520    -0.1330 C.3   1 <1>  -0.1600 
 23 C        3.2300     3.8940    -1.1410 C.ar  1 <1>  -0.1500 
 24 C        3.3400     2.2240     0.5680 C.ar  1 <1>  -0.1500 
 25 C        3.9880     3.1090    -0.2880 C.ar  1 <1>   0.0830 
 26 O        5.3320     3.2580    -0.3460 O.3   1 <1>  -0.3630 
 27 C        6.1940     2.4770     0.4500 C.3   1 <1>   0.0400 
 28 H       -2.9460     0.0540     0.1690 H     1 <1>   0.3700 
 29 H       -1.0970    -2.2570    -0.1830 H     1 <1>   0.0800 
 30 H       -3.0150    -1.7790    -1.8170 H     1 <1>   0.1500 
 31 H       -3.1570    -1.7370     1.9660 H     1 <1>   0.0800 
 32 H       -1.5130    -2.2940     2.1540 H     1 <1>   0.0800 
 33 H       -4.8190    -3.4660    -1.3480 H     1 <1>   0.1500 
 34 H       -3.0980    -4.1460     2.5310 H     1 <1>   0.0800 
 35 H       -2.1470    -4.4490     1.1040 H     1 <1>   0.0800 
 36 H       -4.1450     0.7470    -1.9500 H     1 <1>   0.0800 
 37 H       -3.9020     2.4650    -2.2320 H     1 <1>   0.0800 
 38 H       -4.1930     3.3390     1.2510 H     1 <1>   0.0800 
 39 H       -4.9480     1.7680     1.4350 H     1 <1>   0.0800 
 40 H        1.2810     4.4160    -1.8150 H     1 <1>   0.1500 
 41 H        1.4760     1.4500     1.2310 H     1 <1>   0.1500 
 42 H       -4.3790    -4.9860     0.4950 H     1 <1>   0.0800 
 43 H       -5.0270    -3.5480     1.2360 H     1 <1>   0.0800 
 44 H       -6.2730     1.0780    -1.0620 H     1 <1>   0.0800 
 45 H       -6.2550     2.4210    -2.1910 H     1 <1>   0.0800 
 46 H       -5.6280     3.9600    -0.4670 H     1 <1>   0.0800 
 47 H       -6.7310     2.9170     0.4110 H     1 <1>   0.0800 
 48 H        3.7310     4.5790    -1.8010 H     1 <1>   0.1500 
 49 H        3.8910     1.5980     1.2430 H     1 <1>   0.1500 
 50 H        7.2070     2.7600     0.2240 H     1 <1>   0.0800 
 51 H        6.0430     1.4390     0.2120 H     1 <1>   0.0800 
 52 H        5.9830     2.6700     1.4870 H     1 <1>   0.0800 
@<TRIPOS>BOND
  1   1   2  2   
  2   2   3  am  
  3   2   4  1   
  4   3   5  1   
  5   3  28  1   
  6   4   6  1   
  7   4   7  2   
  8   5   8  1   
  9   5   9  1   
 10   5  29  1   
 11   6  10  2   
 12   6  11  1   
 13   7  12  1   
 14   7  13  1   
 15   8  14  2   
 16   8  30  1   
 17   9  15  1   
 18   9  31  1   
 19   9  32  1   
 20  10  12  1   
 21  11  16  1   
 22  11  17  1   
 23  13  18  ar  
 24  13  19  ar  
 25  14  20  1   
 26  14  33  1   
 27  15  20  1   
 28  15  34  1   
 29  15  35  1   
 30  16  21  1   
 31  16  36  1   
 32  16  37  1   
 33  17  22  1   
 34  17  38  1   
 35  17  39  1   
 36  18  23  ar  
 37  18  40  1   
 38  19  24  ar  
 39  19  41  1   
 40  20  42  1   
 41  20  43  1   
 42  21  22  1   
 43  21  44  1   
 44  21  45  1   
 45  22  46  1   
 46  22  47  1   
 47  23  25  ar  
 48  23  48  1   
 49  24  25  ar  
 50  24  49  1   
 51  25  26  1   
 52  26  27  1   
 53  27  50  1   
 54  27  51  1   
 55  27  52  1   
@<TRIPOS>SUBSTRUCTURE
  1 ****   4 GROUP 4 **** **** 0

# MOE 2024.06 (io_trps.svl 2023.06)
