@<TRIPOS>MOLECULE
NONAME
56 58 1 0 0 
SMALL
USER_CHARGES


@<TRIPOS>ATOM
  1 O       -1.0790    -0.2700    -2.2750 O.2   1 <1>  -0.5700 
  2 C       -2.1520    -0.1210    -1.7420 C.2   1 <1>   0.5690 
  3 N       -2.5550     0.9690    -1.0500 N.am  1 <1>  -0.6600 
  4 C       -3.2320    -1.1660    -1.7680 C.3   1 <1>  -0.0990 
  5 C       -1.7320     2.1940    -0.8720 C.3   1 <1>   0.2200 
  6 C       -3.9310     0.8150    -0.5390 C.3   1 <1>   0.1400 
  7 C       -4.2040    -0.6900    -0.6700 C.3   1 <1>  -0.0800 
  8 C       -1.5160     2.5030     0.6090 C.3   1 <1>  -0.1600 
  9 C       -2.4420     3.4280    -1.4230 C.3   1 <1>  -0.1600 
 10 C       -3.9170    -1.3800     0.6720 C.3   1 <1>   0.2090 
 11 C       -2.5780     3.5320     1.0220 C.3   1 <1>  -0.1600 
 12 C       -3.2540     4.0150    -0.2650 C.3   1 <1>  -0.1600 
 13 N       -4.2510    -2.8320     0.5910 N.pl3 1 <1>  -0.8380 
 14 C       -5.5760    -3.2440     0.5710 C.ar  1 <1>   0.4100 
 15 C       -3.2150    -3.7380     1.1560 C.3   1 <1>   0.1290 
 16 N       -6.4760    -2.4360     1.1180 N.ar  1 <1>  -0.6200 
 17 C       -5.9130    -4.4600    -0.0110 C.ar  1 <1>  -0.1500 
 18 C       -7.7270    -2.8540     1.0870 C.ar  1 <1>   0.1600 
 19 C       -7.2190    -4.9140    -0.0350 C.ar  1 <1>   0.0860 
 20 C       -8.1440    -4.0500     0.5400 C.ar  1 <1>  -0.1500 
 21 C       -7.5810    -6.1920    -0.6210 C.2   1 <1>   0.5440 
 22 O       -6.8750    -6.7050    -1.4660 O.2   1 <1>  -0.5700 
 23 N       -8.7120    -6.8470    -0.2190 N.am  1 <1>  -0.7300 
 24 C       -9.1870    -8.1330    -0.7420 C.3   1 <1>   0.2200 
 25 C      -10.6310    -7.9570    -1.1970 C.3   1 <1>  -0.2400 
 26 C       -9.0780    -9.1690     0.3700 C.3   1 <1>  -0.2400 
 27 H       -2.8290    -2.1440    -1.5820 H     1 <1>   0.0800 
 28 H       -3.7060    -1.1480    -2.7310 H     1 <1>   0.0800 
 29 H       -0.7850     2.0530    -1.3680 H     1 <1>   0.0800 
 30 H       -4.6050     1.3750    -1.1630 H     1 <1>   0.0800 
 31 H       -4.0140     1.1510     0.4790 H     1 <1>   0.0800 
 32 H       -5.2310    -0.8590    -0.9420 H     1 <1>   0.0800 
 33 H       -0.5440     2.9520     0.7180 H     1 <1>   0.0800 
 34 H       -1.5460     1.6130     1.2130 H     1 <1>   0.0800 
 35 H       -3.0440     3.2000    -2.2840 H     1 <1>   0.0800 
 36 H       -1.6910     4.1430    -1.7110 H     1 <1>   0.0800 
 37 H       -4.4980    -0.9220     1.4550 H     1 <1>   0.0800 
 38 H       -2.8770    -1.2550     0.9220 H     1 <1>   0.0800 
 39 H       -2.1130     4.3550     1.5370 H     1 <1>   0.0800 
 40 H       -3.3040     3.0850     1.6780 H     1 <1>   0.0800 
 41 H       -4.2630     3.6450    -0.3050 H     1 <1>   0.0800 
 42 H       -3.2830     5.0900    -0.3170 H     1 <1>   0.0800 
 43 H       -2.3840    -3.8050     0.4770 H     1 <1>   0.0800 
 44 H       -3.6140    -4.7250     1.3160 H     1 <1>   0.0800 
 45 H       -2.8700    -3.3560     2.1010 H     1 <1>   0.0800 
 46 H       -5.1390    -5.0530    -0.4590 H     1 <1>   0.1500 
 47 H       -8.4620    -2.2010     1.5250 H     1 <1>   0.1500 
 48 H       -9.1870    -4.3020     0.5530 H     1 <1>   0.1500 
 49 H       -9.2400    -6.4930     0.5750 H     1 <1>   0.3700 
 50 H       -8.5810    -8.4390    -1.5810 H     1 <1>   0.0800 
 51 H      -11.2590    -7.6570    -0.3770 H     1 <1>   0.0800 
 52 H      -11.0040    -8.8840    -1.5930 H     1 <1>   0.0800 
 53 H      -10.6800    -7.2160    -1.9750 H     1 <1>   0.0800 
 54 H       -9.6770    -8.8900     1.2180 H     1 <1>   0.0800 
 55 H       -8.0510    -9.2680     0.6750 H     1 <1>   0.0800 
 56 H       -9.4140   -10.1250     0.0120 H     1 <1>   0.0800 
@<TRIPOS>BOND
  1   1   2  2   
  2   2   3  am  
  3   2   4  1   
  4   3   5  1   
  5   3   6  1   
  6   4   7  1   
  7   4  27  1   
  8   4  28  1   
  9   5   8  1   
 10   5   9  1   
 11   5  29  1   
 12   6   7  1   
 13   6  30  1   
 14   6  31  1   
 15   7  10  1   
 16   7  32  1   
 17   8  11  1   
 18   8  33  1   
 19   8  34  1   
 20   9  12  1   
 21   9  35  1   
 22   9  36  1   
 23  10  13  1   
 24  10  37  1   
 25  10  38  1   
 26  11  12  1   
 27  11  39  1   
 28  11  40  1   
 29  12  41  1   
 30  12  42  1   
 31  13  14  1   
 32  13  15  1   
 33  14  16  ar  
 34  14  17  ar  
 35  15  43  1   
 36  15  44  1   
 37  15  45  1   
 38  16  18  ar  
 39  17  19  ar  
 40  17  46  1   
 41  18  20  ar  
 42  18  47  1   
 43  19  20  ar  
 44  19  21  1   
 45  20  48  1   
 46  21  22  2   
 47  21  23  am  
 48  23  24  1   
 49  23  49  1   
 50  24  25  1   
 51  24  26  1   
 52  24  50  1   
 53  25  51  1   
 54  25  52  1   
 55  25  53  1   
 56  26  54  1   
 57  26  55  1   
 58  26  56  1   
@<TRIPOS>SUBSTRUCTURE
  1 ****  13 GROUP 4 **** **** 0

# MOE 2024.06 (io_trps.svl 2023.06)
