@<TRIPOS>MOLECULE
NONAME
53 55 1 0 0 
SMALL
USER_CHARGES


@<TRIPOS>ATOM
  1 O       -0.0660     1.1190     1.7680 O.2   1 <1>  -0.5700 
  2 C       -0.0310     2.1910     1.1910 C.2   1 <1>   0.7150 
  3 N       -1.1970     2.9080     1.0330 N.am  1 <1>  -0.6600 
  4 C        1.2130     2.6680     0.6640 C.2   1 <1>  -0.2370 
  5 C       -2.4510     2.5460     1.7500 C.3   1 <1>   0.1400 
  6 C       -1.3750     3.9830     0.0180 C.3   1 <1>   0.1400 
  7 N        2.0480     1.9250    -0.1050 N.pl3 1 <1>   0.3140 
  8 C        1.8170     3.8820     0.7820 C.2   1 <1>  -0.1500 
  9 C       -3.4980     2.0860     0.7350 C.3   1 <1>  -0.1600 
 10 C       -2.4110     3.5290    -1.0120 C.3   1 <1>  -0.1600 
 11 N        3.1320     2.6210    -0.4900 N.2   1 <1>  -0.7070 
 12 C        1.8600     0.5230    -0.5450 C.3   1 <1>   0.0960 
 13 C        2.9890     3.7930     0.0520 C.2   1 <1>   0.1080 
 14 C       -3.7390     3.1400    -0.3490 C.3   1 <1>   0.4180 
 15 C        0.7920     0.4170    -1.6430 C.3   1 <1>  -0.2400 
 16 C        4.0120     4.9090    -0.1230 C.3   1 <1>   0.1010 
 17 O       -4.2780     4.2630     0.3070 O.3   1 <1>  -0.5600 
 18 C       -4.7270     2.5990    -1.3800 C.2   1 <1>  -0.2880 
 19 C        4.5970     5.3320     1.2290 C.3   1 <1>  -0.2400 
 20 C        3.3900     6.1120    -0.8430 C.3   1 <1>  -0.2400 
 21 C       -4.9820     5.1900    -0.4710 C.3   1 <1>   0.1200 
 22 C       -5.8640     3.2100    -1.7210 C.2   1 <1>  -0.2760 
 23 C       -6.2270     4.5420    -1.0910 C.3   1 <1>  -0.0220 
 24 C       -6.8720     2.6610    -2.7140 C.3   1 <1>  -0.1020 
 25 H       -2.8120     3.4100     2.2830 H     1 <1>   0.0800 
 26 H       -2.2710     1.7660     2.4700 H     1 <1>   0.0800 
 27 H       -0.4520     4.2020    -0.4870 H     1 <1>   0.0800 
 28 H       -1.7130     4.8790     0.5100 H     1 <1>   0.0800 
 29 H        1.4690     4.7410     1.3260 H     1 <1>   0.1500 
 30 H       -4.4260     1.8770     1.2370 H     1 <1>   0.0800 
 31 H       -3.1580     1.1720     0.2840 H     1 <1>   0.0800 
 32 H       -2.0180     2.6780    -1.5380 H     1 <1>   0.0800 
 33 H       -2.5710     4.3020    -1.7400 H     1 <1>   0.0800 
 34 H        1.5900    -0.0750     0.3050 H     1 <1>   0.0800 
 35 H        2.8020     0.1650    -0.9210 H     1 <1>   0.0800 
 36 H       -0.1670     0.7250    -1.2670 H     1 <1>   0.0800 
 37 H        0.7150    -0.6020    -1.9740 H     1 <1>   0.0800 
 38 H        1.0650     1.0320    -2.4830 H     1 <1>   0.0800 
 39 H        4.8120     4.5260    -0.7340 H     1 <1>   0.0800 
 40 H       -4.4140     1.6620    -1.8020 H     1 <1>   0.1500 
 41 H        3.8320     5.7380     1.8650 H     1 <1>   0.0800 
 42 H        5.3650     6.0710     1.0890 H     1 <1>   0.0800 
 43 H        5.0310     4.4760     1.7170 H     1 <1>   0.0800 
 44 H        2.5950     6.5360    -0.2570 H     1 <1>   0.0800 
 45 H        2.9890     5.7970    -1.7910 H     1 <1>   0.0800 
 46 H        4.1340     6.8670    -1.0190 H     1 <1>   0.0800 
 47 H       -4.3290     5.5630    -1.2390 H     1 <1>   0.0800 
 48 H       -5.2670     6.0070     0.1680 H     1 <1>   0.0800 
 49 H       -6.6250     5.2090    -1.8340 H     1 <1>   0.0800 
 50 H       -6.9760     4.3950    -0.3340 H     1 <1>   0.0800 
 51 H       -6.9890     3.3390    -3.5400 H     1 <1>   0.0800 
 52 H       -7.8260     2.5250    -2.2360 H     1 <1>   0.0800 
 53 H       -6.5440     1.7110    -3.0970 H     1 <1>   0.0800 
@<TRIPOS>BOND
  1   1   2  2   
  2   2   3  am  
  3   2   4  1   
  4   3   5  1   
  5   3   6  1   
  6   4   7  1   
  7   4   8  2   
  8   5   9  1   
  9   5  25  1   
 10   5  26  1   
 11   6  10  1   
 12   6  27  1   
 13   6  28  1   
 14   7  11  1   
 15   7  12  1   
 16   8  13  1   
 17   8  29  1   
 18   9  14  1   
 19   9  30  1   
 20   9  31  1   
 21  10  14  1   
 22  10  32  1   
 23  10  33  1   
 24  11  13  2   
 25  12  15  1   
 26  12  34  1   
 27  12  35  1   
 28  13  16  1   
 29  14  17  1   
 30  14  18  1   
 31  15  36  1   
 32  15  37  1   
 33  15  38  1   
 34  16  19  1   
 35  16  20  1   
 36  16  39  1   
 37  17  21  1   
 38  18  22  2   
 39  18  40  1   
 40  19  41  1   
 41  19  42  1   
 42  19  43  1   
 43  20  44  1   
 44  20  45  1   
 45  20  46  1   
 46  21  23  1   
 47  21  47  1   
 48  21  48  1   
 49  22  23  1   
 50  22  24  1   
 51  23  49  1   
 52  23  50  1   
 53  24  51  1   
 54  24  52  1   
 55  24  53  1   
@<TRIPOS>SUBSTRUCTURE
  1 ****   6 GROUP 4 **** **** 0

# MOE 2024.06 (io_trps.svl 2023.06)
