@<TRIPOS>MOLECULE
NONAME
36 38 1 0 0 
SMALL
USER_CHARGES


@<TRIPOS>ATOM
  1 S        1.2700     0.0120    -1.1080 S.3   1 <1>  -0.0800 
  2 C        1.2070     1.3170     0.0820 C.2   1 <1>  -0.0450 
  3 C        0.0890    -0.9450    -0.2390 C.2   1 <1>  -0.1400 
  4 C        2.0390     2.4750    -0.1190 C.2   1 <1>   0.7150 
  5 C        0.3180     0.9730     1.0520 C.2   1 <1>  -0.1500 
  6 C       -0.3080    -0.2930     0.8700 C.2   1 <1>  -0.1500 
  7 C       -0.2960    -2.2910    -0.8280 C.3   1 <1>   0.3800 
  8 O        2.8000     2.5640    -1.0620 O.2   1 <1>  -0.5700 
  9 N        1.9670     3.5020     0.7770 N.am  1 <1>  -0.4930 
 10 O       -1.2830    -2.8820    -0.0490 O.3   1 <1>  -0.5600 
 11 C        0.8410    -3.2990    -0.8210 C.3   1 <1>  -0.1600 
 12 C        2.6330     4.7340     0.8640 C.2   1 <1>   0.3520 
 13 C       -1.2620    -4.2670    -0.1930 C.3   1 <1>   0.1200 
 14 C        0.1140    -4.6310    -0.7460 C.3   1 <1>  -0.1600 
 15 N        2.2660     5.5650     1.7580 N.2   1 <1>  -0.4100 
 16 C        3.7000     5.3050     0.1450 C.2   1 <1>   0.3520 
 17 O        3.0580     6.5800     1.5910 O.3   1 <1>   0.2420 
 18 N        3.9290     6.4610     0.6370 N.2   1 <1>  -0.4100 
 19 N        4.4210     4.7450    -0.9260 N.am  1 <1>  -0.4930 
 20 C        5.5130     5.1570    -1.6180 C.2   1 <1>   0.5690 
 21 O        5.9380     4.4810    -2.5190 O.2   1 <1>  -0.5700 
 22 C        6.2330     6.4470    -1.2970 C.3   1 <1>  -0.1790 
 23 H        0.0650     1.5670     1.9120 H     1 <1>   0.1500 
 24 H       -1.0310    -0.6740     1.5710 H     1 <1>   0.1500 
 25 H       -0.6940    -2.1710    -1.8220 H     1 <1>   0.0800 
 26 H        1.2700     3.3850     1.5070 H     1 <1>   0.3700 
 27 H        1.4410    -3.1510     0.0600 H     1 <1>   0.0800 
 28 H        1.4620    -3.2080    -1.6950 H     1 <1>   0.0800 
 29 H       -2.0480    -4.5500    -0.8730 H     1 <1>   0.0800 
 30 H       -1.4360    -4.7080     0.7730 H     1 <1>   0.0800 
 31 H        0.6230    -5.3310    -0.1070 H     1 <1>   0.0800 
 32 H        0.0050    -5.0650    -1.7250 H     1 <1>   0.0800 
 33 H        4.0520     3.8460    -1.2660 H     1 <1>   0.3700 
 34 H        6.5660     6.4360    -0.2770 H     1 <1>   0.0800 
 35 H        5.5740     7.2800    -1.4540 H     1 <1>   0.0800 
 36 H        7.0880     6.5560    -1.9390 H     1 <1>   0.0800 
@<TRIPOS>BOND
  1   1   2  1   
  2   1   3  1   
  3   2   4  1   
  4   2   5  2   
  5   3   6  2   
  6   3   7  1   
  7   4   8  2   
  8   4   9  am  
  9   5   6  1   
 10   5  23  1   
 11   6  24  1   
 12   7  10  1   
 13   7  11  1   
 14   7  25  1   
 15   9  12  1   
 16   9  26  1   
 17  10  13  1   
 18  11  14  1   
 19  11  27  1   
 20  11  28  1   
 21  12  15  2   
 22  12  16  1   
 23  13  14  1   
 24  13  29  1   
 25  13  30  1   
 26  14  31  1   
 27  14  32  1   
 28  15  17  1   
 29  16  18  2   
 30  16  19  1   
 31  17  18  1   
 32  19  20  am  
 33  19  33  1   
 34  20  21  2   
 35  20  22  1   
 36  22  34  1   
 37  22  35  1   
 38  22  36  1   
@<TRIPOS>SUBSTRUCTURE
  1 ****   4 GROUP 4 **** **** 0

# MOE 2024.06 (io_trps.svl 2023.06)
