@<TRIPOS>MOLECULE
NONAME
46 49 1 0 0 
SMALL
USER_CHARGES


@<TRIPOS>ATOM
  1 O        0.0410     0.4800     0.5110 O.2   1 <1>  -0.5700 
  2 C       -0.0010     1.6870     0.3610 C.2   1 <1>   0.5440 
  3 N       -1.2300     2.3120     0.3280 N.am  1 <1>  -0.6600 
  4 C        1.2390     2.4270     0.2130 C.ar  1 <1>   0.0860 
  5 C       -2.4560     1.5780     0.7610 C.3   1 <1>   0.1400 
  6 C       -1.4250     3.6630    -0.2790 C.3   1 <1>   0.1400 
  7 C        2.2160     2.0160    -0.6910 C.ar  1 <1>  -0.1500 
  8 C        1.5130     3.5640     0.9730 C.ar  1 <1>  -0.1500 
  9 C       -3.5200     2.5590     1.2570 C.3   1 <1>  -0.1600 
 10 C       -2.8230     3.7700    -0.8820 C.3   1 <1>  -0.1600 
 11 C        3.3990     2.7150    -0.8460 C.ar  1 <1>  -0.1500 
 12 C        2.6930     4.2680     0.8250 C.ar  1 <1>  -0.1500 
 13 C       -3.8980     3.6220     0.2070 C.3   1 <1>   0.4180 
 14 C        3.6570     3.8580    -0.0940 C.ar  1 <1>  -0.0230 
 15 O       -3.9800     4.8340     0.9180 O.3   1 <1>  -0.5600 
 16 C       -5.2470     3.2720    -0.4210 C.2   1 <1>  -0.2880 
 17 N        4.8760     4.5810    -0.2610 N.pl3 1 <1>   0.5930 
 18 C       -4.7650     5.8630     0.3790 C.3   1 <1>   0.1200 
 19 C       -6.3190     4.0660    -0.3930 C.2   1 <1>  -0.2760 
 20 N        6.0300     4.0530    -0.6410 N.2   1 <1>  -0.4180 
 21 C        5.1060     5.8770    -0.0960 C.2   1 <1>   0.0360 
 22 C       -6.2320     5.4290     0.2660 C.3   1 <1>  -0.0220 
 23 C       -7.6740     3.7070    -0.9760 C.3   1 <1>  -0.1020 
 24 N        6.8880     5.0070    -0.6850 N.2   1 <1>   0.0000 
 25 N        6.3250     6.1600    -0.3470 N.2   1 <1>  -0.3380 
 26 H       -2.2050     0.8900     1.5510 H     1 <1>   0.0800 
 27 H       -2.8350     1.0070    -0.0690 H     1 <1>   0.0800 
 28 H       -0.6900     3.8280    -1.0480 H     1 <1>   0.0800 
 29 H       -1.3050     4.4160     0.4820 H     1 <1>   0.0800 
 30 H        2.0360     1.1280    -1.2750 H     1 <1>   0.1500 
 31 H        0.7830     3.8880     1.6970 H     1 <1>   0.1500 
 32 H       -3.1330     3.0380     2.1390 H     1 <1>   0.0800 
 33 H       -4.3950     2.0100     1.5510 H     1 <1>   0.0800 
 34 H       -2.9370     2.9900    -1.6130 H     1 <1>   0.0800 
 35 H       -2.9350     4.7020    -1.3990 H     1 <1>   0.0800 
 36 H        4.1290     2.3630    -1.5570 H     1 <1>   0.1500 
 37 H        2.8590     5.1350     1.4420 H     1 <1>   0.1500 
 38 H       -5.2470     2.3020    -0.8840 H     1 <1>   0.1500 
 39 H       -4.3770     6.1230    -0.5900 H     1 <1>   0.0800 
 40 H       -4.6770     6.7170     1.0260 H     1 <1>   0.0800 
 41 H        4.3510     6.5760     0.2040 H     1 <1>   0.1500 
 42 H       -6.7600     6.1610    -0.3180 H     1 <1>   0.0800 
 43 H       -6.6780     5.3920     1.2440 H     1 <1>   0.0800 
 44 H       -7.9470     4.4080    -1.7440 H     1 <1>   0.0800 
 45 H       -8.4240     3.7240    -0.2060 H     1 <1>   0.0800 
 46 H       -7.6500     2.7220    -1.4070 H     1 <1>   0.0800 
@<TRIPOS>BOND
  1   1   2  2   
  2   2   3  am  
  3   2   4  1   
  4   3   5  1   
  5   3   6  1   
  6   4   7  ar  
  7   4   8  ar  
  8   5   9  1   
  9   5  26  1   
 10   5  27  1   
 11   6  10  1   
 12   6  28  1   
 13   6  29  1   
 14   7  11  ar  
 15   7  30  1   
 16   8  12  ar  
 17   8  31  1   
 18   9  13  1   
 19   9  32  1   
 20   9  33  1   
 21  10  13  1   
 22  10  34  1   
 23  10  35  1   
 24  11  14  ar  
 25  11  36  1   
 26  12  14  ar  
 27  12  37  1   
 28  13  15  1   
 29  13  16  1   
 30  14  17  1   
 31  15  18  1   
 32  16  19  2   
 33  16  38  1   
 34  17  20  1   
 35  17  21  1   
 36  18  22  1   
 37  18  39  1   
 38  18  40  1   
 39  19  22  1   
 40  19  23  1   
 41  20  24  2   
 42  21  25  2   
 43  21  41  1   
 44  22  42  1   
 45  22  43  1   
 46  23  44  1   
 47  23  45  1   
 48  23  46  1   
 49  24  25  1   
@<TRIPOS>SUBSTRUCTURE
  1 ****   6 GROUP 4 **** **** 0

# MOE 2024.06 (io_trps.svl 2023.06)
