@<TRIPOS>MOLECULE
NONAME
55 58 1 0 0 
SMALL
USER_CHARGES


@<TRIPOS>ATOM
  1 O       -5.5630     0.5700    -1.2940 O.2   1 <1>  -0.5700 
  2 C       -4.7200     0.5650    -0.4180 C.2   1 <1>   0.5440 
  3 N       -4.8770    -0.2800     0.6630 N.am  1 <1>  -0.6600 
  4 C       -3.5750     1.4390    -0.5460 C.ar  1 <1>   0.0860 
  5 C       -6.1650    -0.9930     0.9100 C.3   1 <1>   0.1400 
  6 C       -3.7540    -0.7210     1.5400 C.3   1 <1>   0.1400 
  7 C       -3.2120     2.2970     0.4890 C.ar  1 <1>   0.1600 
  8 C       -2.7960     1.4670    -1.6940 C.ar  1 <1>  -0.1500 
  9 C       -5.9620    -2.4960     0.7150 C.3   1 <1>  -0.1600 
 10 C       -3.5260    -2.2230     1.3580 C.3   1 <1>  -0.1600 
 11 N       -2.1710     3.1160     0.4910 N.ar  1 <1>  -0.6200 
 12 C       -1.7120     2.3180    -1.7210 C.ar  1 <1>  -0.1500 
 13 C       -4.8220    -3.0000     1.6080 C.3   1 <1>   0.1900 
 14 C       -1.4450     3.1090    -0.6160 C.ar  1 <1>   0.1600 
 15 N       -4.5920    -4.4390     1.4870 N.3   1 <1>  -0.9000 
 16 C       -4.3690    -4.9770     0.1370 C.3   1 <1>   0.3700 
 17 C       -5.6690    -5.5020    -0.4870 C.2   1 <1>   0.2980 
 18 C       -3.3490    -6.1020     0.2780 C.3   1 <1>  -0.2400 
 19 O       -5.7000    -5.6710    -1.7830 O.3   1 <1>  -0.0190 
 20 N       -6.7470    -5.7960     0.1250 N.2   1 <1>  -0.5650 
 21 N       -6.8970    -6.1080    -2.0180 N.2   1 <1>  -0.4100 
 22 C       -7.5200    -6.1850    -0.8950 C.2   1 <1>   0.4620 
 23 C       -8.8920    -6.6310    -0.7140 C.ar  1 <1>   0.0540 
 24 C       -9.4510    -6.7970     0.5550 C.ar  1 <1>  -0.1500 
 25 C       -9.7110    -6.9130    -1.8100 C.ar  1 <1>  -0.1500 
 26 C      -10.7550    -7.2230     0.7210 C.ar  1 <1>  -0.1500 
 27 C      -11.0180    -7.3390    -1.6530 C.ar  1 <1>  -0.1500 
 28 C      -11.5510    -7.4970    -0.3780 C.ar  1 <1>   0.0820 
 29 O      -12.8180    -7.9090    -0.1330 O.3   1 <1>  -0.3620 
 30 C      -13.7070    -8.2190    -1.1820 C.3   1 <1>   0.0400 
 31 H       -6.9320    -0.6400     0.2410 H     1 <1>   0.0800 
 32 H       -6.4890    -0.7920     1.9170 H     1 <1>   0.0800 
 33 H       -4.0030    -0.5080     2.5660 H     1 <1>   0.0800 
 34 H       -2.8430    -0.2000     1.3010 H     1 <1>   0.0800 
 35 H       -3.8270     2.2990     1.3720 H     1 <1>   0.1500 
 36 H       -3.0440     0.8390    -2.5330 H     1 <1>   0.1500 
 37 H       -5.7480    -2.6620    -0.3250 H     1 <1>   0.0800 
 38 H       -6.8750    -3.0060     0.9640 H     1 <1>   0.0800 
 39 H       -2.7740    -2.5520     2.0530 H     1 <1>   0.0800 
 40 H       -3.1620    -2.3880     0.3620 H     1 <1>   0.0800 
 41 H       -1.0800     2.3730    -2.5880 H     1 <1>   0.1500 
 42 H       -5.1080    -2.8160     2.6310 H     1 <1>   0.0800 
 43 H       -0.5940     3.7700    -0.6450 H     1 <1>   0.1500 
 44 H       -5.4390    -4.9220     1.8200 H     1 <1>   0.3600 
 45 H       -3.9570    -4.2200    -0.5060 H     1 <1>   0.0800 
 46 H       -3.7410    -6.8820     0.9050 H     1 <1>   0.0800 
 47 H       -2.4410    -5.7210     0.7080 H     1 <1>   0.0800 
 48 H       -3.1230    -6.5180    -0.6880 H     1 <1>   0.0800 
 49 H       -8.8540    -6.5920     1.4270 H     1 <1>   0.1500 
 50 H       -9.3150    -6.7950    -2.8040 H     1 <1>   0.1500 
 51 H      -11.1680    -7.3460     1.7060 H     1 <1>   0.1500 
 52 H      -11.6030    -7.5420    -2.5300 H     1 <1>   0.1500 
 53 H      -14.6430    -8.5210    -0.7480 H     1 <1>   0.0800 
 54 H      -13.2950    -9.0250    -1.7620 H     1 <1>   0.0800 
 55 H      -13.8510    -7.3410    -1.7870 H     1 <1>   0.0800 
@<TRIPOS>BOND
  1   1   2  2   
  2   2   3  am  
  3   2   4  1   
  4   3   5  1   
  5   3   6  1   
  6   4   7  ar  
  7   4   8  ar  
  8   5   9  1   
  9   5  31  1   
 10   5  32  1   
 11   6  10  1   
 12   6  33  1   
 13   6  34  1   
 14   7  11  ar  
 15   7  35  1   
 16   8  12  ar  
 17   8  36  1   
 18   9  13  1   
 19   9  37  1   
 20   9  38  1   
 21  10  13  1   
 22  10  39  1   
 23  10  40  1   
 24  11  14  ar  
 25  12  14  ar  
 26  12  41  1   
 27  13  15  1   
 28  13  42  1   
 29  14  43  1   
 30  15  16  1   
 31  15  44  1   
 32  16  17  1   
 33  16  18  1   
 34  16  45  1   
 35  17  19  1   
 36  17  20  2   
 37  18  46  1   
 38  18  47  1   
 39  18  48  1   
 40  19  21  1   
 41  20  22  1   
 42  21  22  2   
 43  22  23  1   
 44  23  24  ar  
 45  23  25  ar  
 46  24  26  ar  
 47  24  49  1   
 48  25  27  ar  
 49  25  50  1   
 50  26  28  ar  
 51  26  51  1   
 52  27  28  ar  
 53  27  52  1   
 54  28  29  1   
 55  29  30  1   
 56  30  53  1   
 57  30  54  1   
 58  30  55  1   
@<TRIPOS>SUBSTRUCTURE
  1 ****   9 GROUP 4 **** **** 0

# MOE 2024.06 (io_trps.svl 2023.06)
