@<TRIPOS>MOLECULE
NONAME
54 57 1 0 0 
SMALL
USER_CHARGES


@<TRIPOS>ATOM
  1 O        1.2100    -0.6340     1.2150 O.3   1 <1>  -0.5600 
  2 C        2.1760    -1.3360     0.4670 C.3   1 <1>   0.4240 
  3 C       -0.1180    -0.7330     0.8060 C.3   1 <1>   0.1200 
  4 C        1.6570    -2.7240     0.0310 C.ar  1 <1>  -0.1440 
  5 C        2.5640    -0.4790    -0.7470 C.3   1 <1>  -0.1600 
  6 C        3.3850    -1.4800     1.3980 C.3   1 <1>  -0.1600 
  7 C       -0.5870    -2.1710     1.0050 C.3   1 <1>  -0.0160 
  8 C        0.3510    -3.1210     0.2870 C.ar  1 <1>  -0.1440 
  9 C        2.4920    -3.6110    -0.6380 C.ar  1 <1>  -0.1500 
 10 C        3.1420     0.8710    -0.3260 C.3   1 <1>   0.2090 
 11 C        3.9570    -0.1210     1.7980 C.3   1 <1>   0.2090 
 12 C       -0.1000    -4.3690    -0.1110 C.ar  1 <1>  -0.1500 
 13 C        2.0610    -4.8640    -1.0370 C.ar  1 <1>   0.0830 
 14 N        4.3080     0.6570     0.5770 N.pl3 1 <1>  -0.8210 
 15 C        0.7380    -5.2550    -0.7820 C.ar  1 <1>   0.0830 
 16 O        3.0030    -5.6210    -1.6680 O.3   1 <1>  -0.3630 
 17 C        5.1740     1.7400     0.7670 C.2   1 <1>   0.5990 
 18 O        0.2910    -6.4740    -1.2080 O.3   1 <1>  -0.3630 
 19 C        3.0360    -7.0220    -1.5080 C.3   1 <1>   0.0400 
 20 N        5.9860     1.8790     1.7460 N.2   1 <1>  -0.4100 
 21 N        5.2240     2.7480    -0.0970 N.2   1 <1>  -0.5650 
 22 C       -1.0670    -6.8470    -1.1280 C.3   1 <1>   0.0400 
 23 O        6.6190     3.0070     1.5620 O.3   1 <1>  -0.0190 
 24 C        6.1170     3.4680     0.4450 C.2   1 <1>   0.2980 
 25 C        6.6270     4.7920    -0.0920 C.3   1 <1>   0.0200 
 26 C        8.0910     4.6940    -0.5450 C.3   1 <1>  -0.1600 
 27 C        8.6010     6.0280    -1.1020 C.3   1 <1>  -0.2400 
 28 H       -0.1960    -0.4380    -0.2260 H     1 <1>   0.0800 
 29 H       -0.7000    -0.0590     1.4100 H     1 <1>   0.0800 
 30 H        1.7150    -0.3340    -1.3860 H     1 <1>   0.0800 
 31 H        3.3100    -0.9920    -1.3250 H     1 <1>   0.0800 
 32 H        4.1640    -2.0380     0.9140 H     1 <1>   0.0800 
 33 H        3.0910    -2.0260     2.2760 H     1 <1>   0.0800 
 34 H       -1.5860    -2.2720     0.6230 H     1 <1>   0.0800 
 35 H       -0.6010    -2.3990     2.0560 H     1 <1>   0.0800 
 36 H        3.5070    -3.3400    -0.8630 H     1 <1>   0.1500 
 37 H        2.3960     1.4550     0.1860 H     1 <1>   0.0800 
 38 H        3.4470     1.4050    -1.2090 H     1 <1>   0.0800 
 39 H        4.8330    -0.2790     2.4040 H     1 <1>   0.0800 
 40 H        3.2380     0.4300     2.3800 H     1 <1>   0.0800 
 41 H       -1.1150    -4.6340     0.1130 H     1 <1>   0.1500 
 42 H        4.0250    -7.3630    -1.7490 H     1 <1>   0.0800 
 43 H        2.3240    -7.4640    -2.1820 H     1 <1>   0.0800 
 44 H        2.7980    -7.2650    -0.4880 H     1 <1>   0.0800 
 45 H       -1.1740    -7.8130    -1.5870 H     1 <1>   0.0800 
 46 H       -1.6600    -6.1230    -1.6580 H     1 <1>   0.0800 
 47 H       -1.3540    -6.9020    -0.0930 H     1 <1>   0.0800 
 48 H        6.5280     5.5370     0.6770 H     1 <1>   0.0800 
 49 H        6.0120     5.0870    -0.9240 H     1 <1>   0.0800 
 50 H        8.1760     3.9350    -1.3040 H     1 <1>   0.0800 
 51 H        8.7070     4.3990     0.2880 H     1 <1>   0.0800 
 52 H        8.0170     6.3300    -1.9540 H     1 <1>   0.0800 
 53 H        9.6270     5.9280    -1.4120 H     1 <1>   0.0800 
 54 H        8.5470     6.7980    -0.3520 H     1 <1>   0.0800 
@<TRIPOS>BOND
  1   1   2  1   
  2   1   3  1   
  3   2   4  1   
  4   2   5  1   
  5   2   6  1   
  6   3   7  1   
  7   3  28  1   
  8   3  29  1   
  9   4   8  ar  
 10   4   9  ar  
 11   5  10  1   
 12   5  30  1   
 13   5  31  1   
 14   6  11  1   
 15   6  32  1   
 16   6  33  1   
 17   7   8  1   
 18   7  34  1   
 19   7  35  1   
 20   8  12  ar  
 21   9  13  ar  
 22   9  36  1   
 23  10  14  1   
 24  10  37  1   
 25  10  38  1   
 26  11  14  1   
 27  11  39  1   
 28  11  40  1   
 29  12  15  ar  
 30  12  41  1   
 31  13  15  ar  
 32  13  16  1   
 33  14  17  1   
 34  15  18  1   
 35  16  19  1   
 36  17  20  2   
 37  17  21  1   
 38  18  22  1   
 39  19  42  1   
 40  19  43  1   
 41  19  44  1   
 42  20  23  1   
 43  21  24  2   
 44  22  45  1   
 45  22  46  1   
 46  22  47  1   
 47  23  24  1   
 48  24  25  1   
 49  25  26  1   
 50  25  48  1   
 51  25  49  1   
 52  26  27  1   
 53  26  50  1   
 54  26  51  1   
 55  27  52  1   
 56  27  53  1   
 57  27  54  1   
@<TRIPOS>SUBSTRUCTURE
  1 ****   5 GROUP 4 **** **** 0

# MOE 2024.06 (io_trps.svl 2023.06)
