@<TRIPOS>MOLECULE
NONAME
46 49 1 0 0 
SMALL
USER_CHARGES


@<TRIPOS>ATOM
  1 O       -0.1740     1.2270     1.6670 O.2   1 <1>  -0.5700 
  2 C        0.0000     2.3310     1.1840 C.2   1 <1>   0.5440 
  3 N       -1.0950     3.1300     0.9260 N.am  1 <1>  -0.6600 
  4 C        1.3530     2.7610     0.8850 C.ar  1 <1>   0.0860 
  5 C       -2.4590     2.7750     1.4240 C.3   1 <1>   0.1400 
  6 C       -1.0860     4.2660    -0.0350 C.3   1 <1>   0.1400 
  7 C        2.2040     1.9890     0.1260 C.ar  1 <1>  -0.1500 
  8 C        1.8450     3.9890     1.3720 C.ar  1 <1>  -0.1500 
  9 C       -3.3770     2.3690     0.2550 C.3   1 <1>   0.0000 
 10 C       -1.9810     3.9370    -1.2360 C.3   1 <1>  -0.1600 
 11 C        3.5140     2.3920    -0.1920 C.ar  1 <1>   0.0000 
 12 C        3.1130     4.4110     1.0850 C.ar  1 <1>  -0.1500 
 13 C       -4.7790     2.0000     0.7800 C.3   1 <1>   0.2000 
 14 C       -3.3960     3.5090    -0.8050 C.3   1 <1>  -0.1600 
 15 C       -2.9440     1.0350    -0.3800 C.3   1 <1>  -0.1600 
 16 C        3.9800     3.6320     0.2940 C.ar  1 <1>   0.0000 
 17 C        4.3800     1.6050    -0.9780 C.ar  1 <1>  -0.1500 
 18 O       -5.5960     3.1000     0.9660 O.3   1 <1>  -0.6800 
 19 C       -5.3920     1.0530    -0.2520 C.3   1 <1>  -0.1600 
 20 C       -4.2070     0.4440    -1.0140 C.3   1 <1>  -0.1600 
 21 C        5.2900     4.0390    -0.0280 C.ar  1 <1>  -0.1500 
 22 C        5.6480     2.0240    -1.2750 C.ar  1 <1>  -0.1500 
 23 C        6.1080     3.2550    -0.7950 C.ar  1 <1>  -0.1500 
 24 H       -2.4000     1.9760     2.1420 H     1 <1>   0.0800 
 25 H       -2.8780     3.6300     1.9260 H     1 <1>   0.0800 
 26 H       -1.4540     5.1460     0.4640 H     1 <1>   0.0800 
 27 H       -0.0900     4.4710    -0.3860 H     1 <1>   0.0800 
 28 H        1.8570     1.0390    -0.2400 H     1 <1>   0.1500 
 29 H        1.1930     4.5870     1.9850 H     1 <1>   0.1500 
 30 H       -2.0480     4.8030    -1.8690 H     1 <1>   0.0800 
 31 H       -1.5140     3.1600    -1.8130 H     1 <1>   0.0800 
 32 H        3.4740     5.3500     1.4640 H     1 <1>   0.1500 
 33 H       -4.6930     1.4880     1.7240 H     1 <1>   0.0800 
 34 H       -3.9600     3.2120    -1.6710 H     1 <1>   0.0800 
 35 H       -3.8740     4.3760    -0.3850 H     1 <1>   0.0800 
 36 H       -2.1450     1.1370    -1.0910 H     1 <1>   0.0800 
 37 H       -2.6050     0.3690     0.3960 H     1 <1>   0.0800 
 38 H        4.0220     0.6590    -1.3420 H     1 <1>   0.1500 
 39 H       -5.7360     3.5460     0.1100 H     1 <1>   0.4000 
 40 H       -5.9620     0.2880     0.2440 H     1 <1>   0.0800 
 41 H       -6.0270     1.5840    -0.9390 H     1 <1>   0.0800 
 42 H       -4.2030    -0.6310    -0.9460 H     1 <1>   0.0800 
 43 H       -4.2600     0.7240    -2.0520 H     1 <1>   0.0800 
 44 H        5.6400     4.9850     0.3440 H     1 <1>   0.1500 
 45 H        6.3040     1.4180    -1.8760 H     1 <1>   0.1500 
 46 H        7.1080     3.5710    -1.0380 H     1 <1>   0.1500 
@<TRIPOS>BOND
  1   1   2  2   
  2   2   3  am  
  3   2   4  1   
  4   3   5  1   
  5   3   6  1   
  6   4   7  ar  
  7   4   8  ar  
  8   5   9  1   
  9   5  24  1   
 10   5  25  1   
 11   6  10  1   
 12   6  26  1   
 13   6  27  1   
 14   7  11  ar  
 15   7  28  1   
 16   8  12  ar  
 17   8  29  1   
 18   9  13  1   
 19   9  14  1   
 20   9  15  1   
 21  10  14  1   
 22  10  30  1   
 23  10  31  1   
 24  11  16  ar  
 25  11  17  ar  
 26  12  16  ar  
 27  12  32  1   
 28  13  18  1   
 29  13  19  1   
 30  13  33  1   
 31  14  34  1   
 32  14  35  1   
 33  15  20  1   
 34  15  36  1   
 35  15  37  1   
 36  16  21  ar  
 37  17  22  ar  
 38  17  38  1   
 39  18  39  1   
 40  19  20  1   
 41  19  40  1   
 42  19  41  1   
 43  20  42  1   
 44  20  43  1   
 45  21  23  ar  
 46  21  44  1   
 47  22  23  ar  
 48  22  45  1   
 49  23  46  1   
@<TRIPOS>SUBSTRUCTURE
  1 ****   2 GROUP 4 **** **** 0

# MOE 2024.06 (io_trps.svl 2023.06)
