@<TRIPOS>MOLECULE
NONAME
52 56 1 0 0 
SMALL
USER_CHARGES


@<TRIPOS>ATOM
  1 S        1.1670    -1.3610     2.2800 S.3   1 <1>  -0.0800 
  2 C        1.8360    -0.0320     1.3860 C.2   1 <1>  -0.1400 
  3 C       -0.0270    -1.5500     1.0120 C.2   1 <1>   0.1980 
  4 C        1.1400     0.1380     0.2570 C.2   1 <1>   0.0460 
  5 C        3.0270     0.7600     1.8780 C.3   1 <1>   0.0200 
  6 N        0.0750    -0.7220     0.0440 N.2   1 <1>  -0.5650 
  7 C       -1.0550    -2.6590     1.1780 C.3   1 <1>   0.5230 
  8 C        1.4890     1.2170    -0.7500 C.3   1 <1>   0.0210 
  9 C        3.1480     2.0440     1.0340 C.3   1 <1>  -0.1600 
 10 N       -2.1250    -2.4800     0.1490 N.4   1 <1>  -0.9590 
 11 C        2.8970     1.7900    -0.4690 C.3   1 <1>  -0.1600 
 12 C       -3.0490    -1.3590     0.5300 C.3   1 <1>   0.3430 
 13 C       -2.8590    -3.7300    -0.1830 C.3   1 <1>   0.3430 
 14 C       -4.0270    -1.0230    -0.6070 C.3   1 <1>   0.1430 
 15 C       -3.8150    -3.4640    -1.3500 C.3   1 <1>  -0.1600 
 16 C       -5.0070     0.0080    -0.1020 C.ar  1 <1>   0.1670 
 17 C       -4.7750    -2.2940    -1.0640 C.3   1 <1>  -0.1600 
 18 C       -3.3410    -0.2860    -1.7900 C.3   1 <1>  -0.1600 
 19 N       -5.6480    -0.0730     1.0410 N.ar  1 <1>  -0.6200 
 20 C       -5.1420     1.0490    -0.9680 C.ar  1 <1>  -0.1430 
 21 C       -4.2730     0.8760    -2.1890 C.3   1 <1>  -0.0170 
 22 C       -6.4590     0.9510     1.2780 C.ar  1 <1>   0.4770 
 23 C       -6.0050     2.0570    -0.6190 C.ar  1 <1>   0.1600 
 24 N       -6.6740     2.0140     0.5150 N.ar  1 <1>  -0.6200 
 25 C       -7.2300     0.9090     2.5760 C.3   1 <1>  -0.0970 
 26 H        3.9150     0.1610     1.7700 H     1 <1>   0.0800 
 27 H        2.9060     1.0130     2.9170 H     1 <1>   0.0800 
 28 H       -1.4760    -2.6270     2.1690 H     1 <1>   0.0800 
 29 H       -0.5600    -3.6050     1.0400 H     1 <1>   0.0800 
 30 H        0.7540     1.9990    -0.6820 H     1 <1>   0.0800 
 31 H        1.4590     0.8090    -1.7450 H     1 <1>   0.0800 
 32 H        4.1260     2.4720     1.1750 H     1 <1>   0.0800 
 33 H        2.4250     2.7600     1.3870 H     1 <1>   0.0800 
 34 H       -1.6090    -2.1480    -0.6830 H     1 <1>   0.4500 
 35 H        3.0250     2.7050    -1.0200 H     1 <1>   0.0800 
 36 H        3.6320     1.0890    -0.8260 H     1 <1>   0.0800 
 37 H       -2.4820    -0.4740     0.7730 H     1 <1>   0.0800 
 38 H       -3.6200    -1.6370     1.4010 H     1 <1>   0.0800 
 39 H       -3.4230    -4.0600     0.6750 H     1 <1>   0.0800 
 40 H       -2.1650    -4.5090    -0.4570 H     1 <1>   0.0800 
 41 H       -4.3920    -4.3530    -1.5360 H     1 <1>   0.0800 
 42 H       -3.2430    -3.2690    -2.2400 H     1 <1>   0.0800 
 43 H       -5.3690    -2.0790    -1.9370 H     1 <1>   0.0800 
 44 H       -5.4580    -2.5910    -0.2840 H     1 <1>   0.0800 
 45 H       -3.1440    -0.9270    -2.6300 H     1 <1>   0.0800 
 46 H       -2.4070     0.1380    -1.4610 H     1 <1>   0.0800 
 47 H       -4.8860     0.6040    -3.0320 H     1 <1>   0.0800 
 48 H       -3.7190     1.7710    -2.4140 H     1 <1>   0.0800 
 49 H       -6.1520     2.9050    -1.2670 H     1 <1>   0.1500 
 50 H       -7.2770    -0.0950     2.9540 H     1 <1>   0.0800 
 51 H       -8.2310     1.2670     2.4150 H     1 <1>   0.0800 
 52 H       -6.7450     1.5370     3.2970 H     1 <1>   0.0800 
@<TRIPOS>BOND
  1   1   2  1   
  2   1   3  1   
  3   2   4  2   
  4   2   5  1   
  5   3   6  2   
  6   3   7  1   
  7   4   6  1   
  8   4   8  1   
  9   5   9  1   
 10   5  26  1   
 11   5  27  1   
 12   7  10  1   
 13   7  28  1   
 14   7  29  1   
 15   8  11  1   
 16   8  30  1   
 17   8  31  1   
 18   9  11  1   
 19   9  32  1   
 20   9  33  1   
 21  10  12  1   
 22  10  13  1   
 23  10  34  1   
 24  11  35  1   
 25  11  36  1   
 26  12  14  1   
 27  12  37  1   
 28  12  38  1   
 29  13  15  1   
 30  13  39  1   
 31  13  40  1   
 32  14  16  1   
 33  14  17  1   
 34  14  18  1   
 35  15  17  1   
 36  15  41  1   
 37  15  42  1   
 38  16  19  ar  
 39  16  20  ar  
 40  17  43  1   
 41  17  44  1   
 42  18  21  1   
 43  18  45  1   
 44  18  46  1   
 45  19  22  ar  
 46  20  21  1   
 47  20  23  ar  
 48  21  47  1   
 49  21  48  1   
 50  22  24  ar  
 51  22  25  1   
 52  23  24  ar  
 53  23  49  1   
 54  25  50  1   
 55  25  51  1   
 56  25  52  1   
@<TRIPOS>SUBSTRUCTURE
  1 ****  12 GROUP 4 **** **** 0

# MOE 2024.06 (io_trps.svl 2023.06)
