@<TRIPOS>MOLECULE
NONAME
38 40 1 0 0 
SMALL
USER_CHARGES


@<TRIPOS>ATOM
  1 O        0.0420     1.0270     0.9400 O.3   1 <1>  -0.5660 
  2 C        0.1310     1.8280    -0.1970 C.3   1 <1>   0.2720 
  3 C       -1.1320     0.2740     0.9640 C.3   1 <1>   0.1100 
  4 C        1.3610     1.3460    -0.9790 C.3   1 <1>  -0.1690 
  5 C        0.3250     3.2770     0.2670 C.3   1 <1>  -0.1690 
  6 C       -1.1690     1.6160    -0.9740 C.3   1 <1>  -0.1690 
  7 C       -1.6670     0.2830    -0.4570 C.3   1 <1>  -0.1690 
  8 C        2.6450     1.5240    -0.1650 C.3   1 <1>   0.1580 
  9 C        1.6210     3.4290     1.0670 C.3   1 <1>   0.1580 
 10 N        2.7760     2.9490     0.2560 N.pl3 1 <1>  -0.5970 
 11 C        3.9020     3.6710     0.0560 C.cat 1 <1>   1.0690 
 12 N        5.1160     3.1630     0.0600 N.pl3 1 <1>  -0.7040 
 13 N        4.0390     4.9820    -0.1740 N.pl3 1 <1>  -0.4640 
 14 C        5.9760     4.1940    -0.1530 C.2   1 <1>   0.4790 
 15 N        5.3620     5.3050    -0.3010 N.2   1 <1>  -0.2680 
 16 C        3.0010     6.0170    -0.3910 C.3   1 <1>   0.2660 
 17 C        7.4740     3.9910    -0.1980 C.3   1 <1>  -0.0820 
 18 H       -1.8180     0.7610     1.6350 H     1 <1>   0.0700 
 19 H       -0.9110    -0.7190     1.3160 H     1 <1>   0.0700 
 20 H        1.4440     1.8970    -1.8980 H     1 <1>   0.0700 
 21 H        1.2390     0.3090    -1.2340 H     1 <1>   0.0700 
 22 H       -0.5100     3.5670     0.8810 H     1 <1>   0.0700 
 23 H        0.3430     3.9290    -0.5870 H     1 <1>   0.0700 
 24 H       -1.0240     1.6140    -2.0400 H     1 <1>   0.0700 
 25 H       -1.8800     2.3850    -0.7260 H     1 <1>   0.0700 
 26 H       -2.7390     0.1970    -0.4860 H     1 <1>   0.0700 
 27 H       -1.2280    -0.5290    -1.0100 H     1 <1>   0.0700 
 28 H        3.4860     1.2220    -0.7650 H     1 <1>   0.0700 
 29 H        2.6070     0.8950     0.7100 H     1 <1>   0.0700 
 30 H        1.5530     2.8330     1.9630 H     1 <1>   0.0700 
 31 H        1.7540     4.4520     1.3700 H     1 <1>   0.0700 
 32 H        5.3450     2.1920     0.2390 H     1 <1>   0.4430 
 33 H        2.1060     5.5740    -0.7900 H     1 <1>   0.0700 
 34 H        3.3630     6.7500    -1.0920 H     1 <1>   0.0700 
 35 H        2.7780     6.5090     0.5400 H     1 <1>   0.0700 
 36 H        7.7300     3.3100    -0.9890 H     1 <1>   0.0700 
 37 H        7.8210     3.5930     0.7380 H     1 <1>   0.0700 
 38 H        7.9680     4.9290    -0.3780 H     1 <1>   0.0700 
@<TRIPOS>BOND
  1   1   2  1   
  2   1   3  1   
  3   2   4  1   
  4   2   5  1   
  5   2   6  1   
  6   3   7  1   
  7   3  18  1   
  8   3  19  1   
  9   4   8  1   
 10   4  20  1   
 11   4  21  1   
 12   5   9  1   
 13   5  22  1   
 14   5  23  1   
 15   6   7  1   
 16   6  24  1   
 17   6  25  1   
 18   7  26  1   
 19   7  27  1   
 20   8  10  1   
 21   8  28  1   
 22   8  29  1   
 23   9  10  1   
 24   9  30  1   
 25   9  31  1   
 26  10  11  ar  
 27  11  12  ar  
 28  11  13  ar  
 29  12  14  1   
 30  12  32  1   
 31  13  15  1   
 32  13  16  1   
 33  14  15  2   
 34  14  17  1   
 35  16  33  1   
 36  16  34  1   
 37  16  35  1   
 38  17  36  1   
 39  17  37  1   
 40  17  38  1   
@<TRIPOS>SUBSTRUCTURE
  1 ****  10 GROUP 4 **** **** 0

# MOE 2024.06 (io_trps.svl 2023.06)
