@<TRIPOS>MOLECULE
NONAME
47 49 1 0 0 
SMALL
USER_CHARGES


@<TRIPOS>ATOM
  1 O       -0.5330    -1.8540    -0.6640 O.2   1 <1>  -0.5700 
  2 C        0.5860    -2.2410    -0.4030 C.2   1 <1>   0.6900 
  3 N        0.8310    -3.0940     0.6360 N.am  1 <1>  -0.6600 
  4 N        1.5920    -1.7910    -1.1610 N.am  1 <1>  -0.8000 
  5 C       -0.2580    -3.4390     1.6170 C.3   1 <1>   0.2010 
  6 C        2.1300    -3.7860     0.8720 C.3   1 <1>   0.0600 
  7 C       -0.7210    -4.8980     1.5390 C.2   1 <1>   0.5690 
  8 O       -0.3330    -5.6610     2.3950 O.2   1 <1>  -0.5700 
  9 N       -1.5480    -5.3290     0.5360 N.am  1 <1>  -0.6600 
 10 C       -2.0860    -4.5050    -0.5780 C.3   1 <1>   0.1400 
 11 C       -1.9110    -6.7540     0.3440 C.3   1 <1>   0.1400 
 12 C       -3.1520    -5.3900    -1.2200 C.3   1 <1>   0.2000 
 13 C       -2.6020    -6.8060    -1.0240 C.3   1 <1>  -0.0800 
 14 O       -4.3260    -5.2510    -0.4930 O.3   1 <1>  -0.6800 
 15 C       -3.6310    -7.9410    -1.1910 C.3   1 <1>  -0.0170 
 16 C       -2.9620    -9.3090    -1.0810 C.ar  1 <1>  -0.1440 
 17 C       -2.9050   -10.0620     0.1180 C.ar  1 <1>   0.0000 
 18 C       -2.3720    -9.8450    -2.1880 C.ar  1 <1>  -0.1500 
 19 C       -2.2140   -11.2990     0.0820 C.ar  1 <1>   0.3100 
 20 C       -3.4850    -9.6700     1.3470 C.ar  1 <1>  -0.1500 
 21 C       -1.7280   -11.0850    -2.1180 C.ar  1 <1>   0.1600 
 22 N       -1.6370   -11.7970    -1.0410 N.ar  1 <1>  -0.6200 
 23 C       -2.1150   -12.0600     1.2580 C.ar  1 <1>  -0.1500 
 24 C       -3.3720   -10.4360     2.4760 C.ar  1 <1>  -0.1500 
 25 C       -2.6760   -11.6450     2.4340 C.ar  1 <1>  -0.1500 
 26 H        1.3770    -1.0610    -1.8370 H     1 <1>   0.3700 
 27 H        2.5510    -1.8480    -0.8360 H     1 <1>   0.3700 
 28 H        0.1090    -3.2580     2.6110 H     1 <1>   0.0800 
 29 H       -1.1090    -2.7990     1.4750 H     1 <1>   0.0800 
 30 H        1.9590    -4.8210     1.1190 H     1 <1>   0.0800 
 31 H        2.6480    -3.3160     1.6900 H     1 <1>   0.0800 
 32 H        2.7500    -3.7540    -0.0060 H     1 <1>   0.0800 
 33 H       -2.4960    -3.5700    -0.2360 H     1 <1>   0.0800 
 34 H       -1.2960    -4.3140    -1.2850 H     1 <1>   0.0800 
 35 H       -1.0360    -7.3820     0.3730 H     1 <1>   0.0800 
 36 H       -2.5810    -7.0440     1.1320 H     1 <1>   0.0800 
 37 H       -3.3500    -5.1400    -2.2480 H     1 <1>   0.0800 
 38 H       -1.8280    -6.9520    -1.7580 H     1 <1>   0.0800 
 39 H       -4.1040    -5.2720     0.4590 H     1 <1>   0.4000 
 40 H       -4.0780    -7.8510    -2.1660 H     1 <1>   0.0800 
 41 H       -4.4350    -7.8440    -0.4850 H     1 <1>   0.0800 
 42 H       -2.3810    -9.3340    -3.1340 H     1 <1>   0.1500 
 43 H       -4.0330    -8.7510     1.4100 H     1 <1>   0.1500 
 44 H       -1.2780   -11.4700    -3.0170 H     1 <1>   0.1500 
 45 H       -1.5780   -12.9880     1.2000 H     1 <1>   0.1500 
 46 H       -3.8150   -10.1200     3.4050 H     1 <1>   0.1500 
 47 H       -2.5910   -12.2380     3.3290 H     1 <1>   0.1500 
@<TRIPOS>BOND
  1   1   2  2   
  2   2   3  am  
  3   2   4  am  
  4   3   5  1   
  5   3   6  1   
  6   4  26  1   
  7   4  27  1   
  8   5   7  1   
  9   5  28  1   
 10   5  29  1   
 11   6  30  1   
 12   6  31  1   
 13   6  32  1   
 14   7   8  2   
 15   7   9  am  
 16   9  10  1   
 17   9  11  1   
 18  10  12  1   
 19  10  33  1   
 20  10  34  1   
 21  11  13  1   
 22  11  35  1   
 23  11  36  1   
 24  12  13  1   
 25  12  14  1   
 26  12  37  1   
 27  13  15  1   
 28  13  38  1   
 29  14  39  1   
 30  15  16  1   
 31  15  40  1   
 32  15  41  1   
 33  16  17  ar  
 34  16  18  ar  
 35  17  19  ar  
 36  17  20  ar  
 37  18  21  ar  
 38  18  42  1   
 39  19  22  ar  
 40  19  23  ar  
 41  20  24  ar  
 42  20  43  1   
 43  21  22  ar  
 44  21  44  1   
 45  23  25  ar  
 46  23  45  1   
 47  24  25  ar  
 48  24  46  1   
 49  25  47  1   
@<TRIPOS>SUBSTRUCTURE
  1 ****  11 GROUP 4 **** **** 0

# MOE 2024.06 (io_trps.svl 2023.06)
