@<TRIPOS>MOLECULE
NONAME
48 49 1 0 0 
SMALL
USER_CHARGES


@<TRIPOS>ATOM
  1 O        0.4030    -0.5070    -1.4050 O.2   1 <1>  -0.5700 
  2 C        1.1010    -0.8080    -0.4620 C.2   1 <1>   0.5690 
  3 N        1.9100     0.0890     0.1830 N.am  1 <1>  -0.4940 
  4 C        1.1410    -2.2690     0.0410 C.3   1 <1>   0.2810 
  5 C        2.1360     1.4780     0.0110 C.2   1 <1>  -0.0880 
  6 N        2.4220    -2.9280    -0.3540 N.am  1 <1>  -0.7300 
  7 C       -0.0690    -3.1430    -0.3870 C.3   1 <1>  -0.0800 
  8 N        1.2770     2.4230    -0.4630 N.pl3 1 <1>   0.3140 
  9 C        3.2780     2.1340     0.3190 C.2   1 <1>  -0.1810 
 10 C        3.6030    -2.7060     0.2620 C.2   1 <1>   0.5690 
 11 C       -1.3830    -2.6110     0.2150 C.3   1 <1>  -0.2400 
 12 C        0.0830    -4.6190     0.0310 C.3   1 <1>  -0.2400 
 13 N        1.8390     3.6470    -0.4690 N.2   1 <1>  -0.7070 
 14 C       -0.1320     2.2780    -0.8520 C.3   1 <1>   0.0160 
 15 C        3.0520     3.4770    -0.0130 C.2   1 <1>   0.2350 
 16 C        4.5500     1.5550     0.9190 C.3   1 <1>  -0.0590 
 17 O        3.7010    -1.9260     1.1770 O.2   1 <1>  -0.5700 
 18 C        4.8220    -3.4370    -0.2320 C.3   1 <1>  -0.1790 
 19 C        4.0010     4.5610     0.1310 C.ar  1 <1>   0.0540 
 20 C        5.2960     4.4760    -0.3790 C.ar  1 <1>  -0.1500 
 21 C        3.6410     5.7370     0.7850 C.ar  1 <1>  -0.1500 
 22 C        6.2000     5.5120    -0.2230 C.ar  1 <1>  -0.1500 
 23 C        4.5380     6.7780     0.9440 C.ar  1 <1>  -0.1500 
 24 C        5.8220     6.6650     0.4410 C.ar  1 <1>  -0.1500 
 25 H        2.6040    -0.3750     0.7900 H     1 <1>   0.3700 
 26 H        1.1270    -2.2210     1.1170 H     1 <1>   0.0800 
 27 H        2.3690    -3.5160    -1.1870 H     1 <1>   0.3700 
 28 H       -0.1570    -3.0990    -1.4600 H     1 <1>   0.0800 
 29 H       -1.3440    -2.6260     1.2900 H     1 <1>   0.0800 
 30 H       -2.2120    -3.2180    -0.1040 H     1 <1>   0.0800 
 31 H       -1.5760    -1.6030    -0.1070 H     1 <1>   0.0800 
 32 H        0.2290    -4.6980     1.0940 H     1 <1>   0.0800 
 33 H        0.9180    -5.0810    -0.4640 H     1 <1>   0.0800 
 34 H       -0.7990    -5.1750    -0.2340 H     1 <1>   0.0800 
 35 H       -0.6130     1.5780    -0.1970 H     1 <1>   0.0800 
 36 H       -0.1800     1.9270    -1.8650 H     1 <1>   0.0800 
 37 H       -0.6180     3.2330    -0.7800 H     1 <1>   0.0800 
 38 H        4.3390     0.6490     1.4550 H     1 <1>   0.0800 
 39 H        4.9860     2.2570     1.6070 H     1 <1>   0.0800 
 40 H        5.2580     1.3400     0.1410 H     1 <1>   0.0800 
 41 H        4.6270    -4.4920    -0.2660 H     1 <1>   0.0800 
 42 H        5.6480    -3.2560     0.4310 H     1 <1>   0.0800 
 43 H        5.0810    -3.0870    -1.2140 H     1 <1>   0.0800 
 44 H        5.5890     3.5880    -0.9080 H     1 <1>   0.1500 
 45 H        2.6390     5.8230     1.1670 H     1 <1>   0.1500 
 46 H        7.1950     5.4230    -0.6220 H     1 <1>   0.1500 
 47 H        4.2350     7.6750     1.4550 H     1 <1>   0.1500 
 48 H        6.5220     7.4730     0.5640 H     1 <1>   0.1500 
@<TRIPOS>BOND
  1   1   2  2   
  2   2   3  am  
  3   2   4  1   
  4   3   5  1   
  5   3  25  1   
  6   4   6  1   
  7   4   7  1   
  8   4  26  1   
  9   5   8  1   
 10   5   9  2   
 11   6  10  am  
 12   6  27  1   
 13   7  11  1   
 14   7  12  1   
 15   7  28  1   
 16   8  13  1   
 17   8  14  1   
 18   9  15  1   
 19   9  16  1   
 20  10  17  2   
 21  10  18  1   
 22  11  29  1   
 23  11  30  1   
 24  11  31  1   
 25  12  32  1   
 26  12  33  1   
 27  12  34  1   
 28  13  15  2   
 29  14  35  1   
 30  14  36  1   
 31  14  37  1   
 32  15  19  1   
 33  16  38  1   
 34  16  39  1   
 35  16  40  1   
 36  18  41  1   
 37  18  42  1   
 38  18  43  1   
 39  19  20  ar  
 40  19  21  ar  
 41  20  22  ar  
 42  20  44  1   
 43  21  23  ar  
 44  21  45  1   
 45  22  24  ar  
 46  22  46  1   
 47  23  24  ar  
 48  23  47  1   
 49  24  48  1   
@<TRIPOS>SUBSTRUCTURE
  1 ****   5 GROUP 4 **** **** 0

# MOE 2024.06 (io_trps.svl 2023.06)
