@<TRIPOS>MOLECULE
NONAME
62 65 1 0 0 
SMALL
USER_CHARGES


@<TRIPOS>ATOM
  1 O        1.3020    -0.0230     0.9000 O.3   1 <1>  -0.6800 
  2 C        2.3520     0.8760     0.8020 C.3   1 <1>   0.2000 
  3 C        3.6180     0.2300     0.1490 C.3   1 <1>   0.0000 
  4 C        2.6260     1.4600     2.1910 C.3   1 <1>  -0.1600 
  5 C        4.8700     1.0180     0.6210 C.3   1 <1>   0.2090 
  6 C        3.4360     0.3590    -1.3840 C.3   1 <1>   0.1200 
  7 C        3.7690    -1.2660     0.5670 C.3   1 <1>  -0.0170 
  8 C        3.6220     2.6260     2.0870 C.3   1 <1>   0.2090 
  9 N        4.5460     2.4410     0.9330 N.pl3 1 <1>  -0.8380 
 10 O        4.5960     0.0580    -2.0870 O.3   1 <1>  -0.6800 
 11 C        4.9670    -2.0030    -0.0290 C.ar  1 <1>  -0.1440 
 12 C        5.4020     3.4180     0.5590 C.ar  1 <1>   0.4100 
 13 C        4.8030    -2.7720    -1.1730 C.ar  1 <1>  -0.1500 
 14 C        6.2210    -1.9310     0.5600 C.ar  1 <1>  -0.1500 
 15 N        6.6430     3.2970     0.9820 N.ar  1 <1>  -0.6200 
 16 C        4.9800     4.4970    -0.2540 C.ar  1 <1>  -0.1440 
 17 C        5.8800    -3.4350    -1.7350 C.ar  1 <1>  -0.1500 
 18 C        7.2990    -2.5940     0.0000 C.ar  1 <1>  -0.1500 
 19 C        7.5200     4.2180     0.6180 C.ar  1 <1>   0.7710 
 20 C        5.9010     5.4370    -0.5930 C.ar  1 <1>   0.2170 
 21 C        3.5340     4.5850    -0.7430 C.3   1 <1>  -0.0170 
 22 C        7.1300    -3.3430    -1.1510 C.ar  1 <1>  -0.1500 
 23 N        7.1650     5.2660    -0.1410 N.ar  1 <1>  -0.1790 
 24 N        8.8170     4.1120     1.0280 N.pl3 1 <1>  -0.8380 
 25 C        5.5980     6.6550    -1.4620 C.3   1 <1>  -0.0160 
 26 C        3.3680     5.5610    -1.9160 C.3   1 <1>  -0.1600 
 27 C        9.2290     3.0420     1.9960 C.3   1 <1>   0.1290 
 28 C        9.9840     4.9180     0.5500 C.3   1 <1>   0.1290 
 29 C        4.0890     6.8830    -1.6330 C.3   1 <1>  -0.1600 
 30 H        0.5100     0.4130     1.2700 H     1 <1>   0.4000 
 31 H        2.0070     1.6830     0.1770 H     1 <1>   0.0800 
 32 H        1.7190     1.8220     2.6390 H     1 <1>   0.0800 
 33 H        3.0380     0.7010     2.8310 H     1 <1>   0.0800 
 34 H        5.6620     0.9680    -0.1070 H     1 <1>   0.0800 
 35 H        5.2510     0.5770     1.5250 H     1 <1>   0.0800 
 36 H        3.1690     1.3660    -1.6500 H     1 <1>   0.0800 
 37 H        2.6570    -0.3020    -1.7250 H     1 <1>   0.0800 
 38 H        3.8250    -1.3320     1.6390 H     1 <1>   0.0800 
 39 H        2.8860    -1.8100     0.2800 H     1 <1>   0.0800 
 40 H        4.1940     2.7010     2.9970 H     1 <1>   0.0800 
 41 H        3.0820     3.5470     1.9570 H     1 <1>   0.0800 
 42 H        4.9510    -0.8120    -1.7930 H     1 <1>   0.4000 
 43 H        3.8350    -2.8580    -1.6360 H     1 <1>   0.1500 
 44 H        6.3710    -1.3640     1.4610 H     1 <1>   0.1500 
 45 H        5.7450    -4.0230    -2.6260 H     1 <1>   0.1500 
 46 H        8.2700    -2.5290     0.4590 H     1 <1>   0.1500 
 47 H        3.1930     3.6130    -1.0560 H     1 <1>   0.0800 
 48 H        2.9100     4.9040     0.0730 H     1 <1>   0.0800 
 49 H        7.9680    -3.8560    -1.5880 H     1 <1>   0.1500 
 50 H        7.9050     5.9230    -0.3390 H     1 <1>   0.4570 
 51 H        6.0330     7.5400    -1.0320 H     1 <1>   0.0800 
 52 H        6.0380     6.5020    -2.4320 H     1 <1>   0.0800 
 53 H        3.7690     5.1150    -2.8110 H     1 <1>   0.0800 
 54 H        2.3200     5.7440    -2.0830 H     1 <1>   0.0800 
 55 H       10.0280     3.3940     2.6270 H     1 <1>   0.0800 
 56 H        9.5660     2.1730     1.4570 H     1 <1>   0.0800 
 57 H        8.4100     2.7540     2.6350 H     1 <1>   0.0800 
 58 H       10.8290     4.2690     0.3820 H     1 <1>   0.0800 
 59 H       10.2580     5.6440     1.2970 H     1 <1>   0.0800 
 60 H        9.7740     5.4210    -0.3770 H     1 <1>   0.0800 
 61 H        3.6840     7.3210    -0.7360 H     1 <1>   0.0800 
 62 H        3.9160     7.5740    -2.4420 H     1 <1>   0.0800 
@<TRIPOS>BOND
  1   1   2  1   
  2   1  30  1   
  3   2   3  1   
  4   2   4  1   
  5   2  31  1   
  6   3   5  1   
  7   3   6  1   
  8   3   7  1   
  9   4   8  1   
 10   4  32  1   
 11   4  33  1   
 12   5   9  1   
 13   5  34  1   
 14   5  35  1   
 15   6  10  1   
 16   6  36  1   
 17   6  37  1   
 18   7  11  1   
 19   7  38  1   
 20   7  39  1   
 21   8   9  1   
 22   8  40  1   
 23   8  41  1   
 24   9  12  1   
 25  10  42  1   
 26  11  13  ar  
 27  11  14  ar  
 28  12  15  ar  
 29  12  16  ar  
 30  13  17  ar  
 31  13  43  1   
 32  14  18  ar  
 33  14  44  1   
 34  15  19  ar  
 35  16  20  ar  
 36  16  21  1   
 37  17  22  ar  
 38  17  45  1   
 39  18  22  ar  
 40  18  46  1   
 41  19  23  ar  
 42  19  24  1   
 43  20  23  ar  
 44  20  25  1   
 45  21  26  1   
 46  21  47  1   
 47  21  48  1   
 48  22  49  1   
 49  23  50  1   
 50  24  27  1   
 51  24  28  1   
 52  25  29  1   
 53  25  51  1   
 54  25  52  1   
 55  26  29  1   
 56  26  53  1   
 57  26  54  1   
 58  27  55  1   
 59  27  56  1   
 60  27  57  1   
 61  28  58  1   
 62  28  59  1   
 63  28  60  1   
 64  29  61  1   
 65  29  62  1   
@<TRIPOS>SUBSTRUCTURE
  1 ****   5 GROUP 4 **** **** 0

# MOE 2024.06 (io_trps.svl 2023.06)
