@<TRIPOS>MOLECULE
NONAME
43 44 1 0 0 
SMALL
USER_CHARGES


@<TRIPOS>ATOM
  1 S        0.3250     0.2130    -1.3770 S.o2  1 <1>   1.3330 
  2 O       -0.5790     1.0000    -2.1850 O.2   1 <1>  -0.6500 
  3 O        0.7020    -1.1140    -1.8100 O.2   1 <1>  -0.6500 
  4 N       -0.3750     0.0740     0.1660 N.am  1 <1>  -0.8490 
  5 C        1.8280     1.1490    -1.0840 C.3   1 <1>  -0.0550 
  6 C       -1.1340     1.2650     0.5670 C.3   1 <1>   0.1160 
  7 C       -1.2250    -1.1150     0.2810 C.3   1 <1>   0.1160 
  8 C        2.8980     0.3890    -0.2720 C.3   1 <1>  -0.0800 
  9 C        4.2500     1.0810    -0.1840 C.3   1 <1>   0.2200 
 10 C        2.5490     0.1370     1.2020 C.3   1 <1>   0.1200 
 11 N        4.0890     2.5310     0.0860 N.am  1 <1>  -0.7300 
 12 C        4.8160     0.4180     1.0630 C.3   1 <1>   0.1200 
 13 O        3.7300     0.3140     1.9310 O.3   1 <1>  -0.5600 
 14 C        4.2280     3.5290    -0.8340 C.2   1 <1>   0.5440 
 15 O        4.3540     3.2110    -1.9990 O.2   1 <1>  -0.5700 
 16 C        4.2040     4.9250    -0.4410 C.ar  1 <1>   0.0860 
 17 C        3.9630     5.9190    -1.3880 C.ar  1 <1>   0.1600 
 18 C        4.4150     5.3490     0.8660 C.ar  1 <1>  -0.1500 
 19 N        3.9060     7.2220    -1.1530 N.ar  1 <1>  -0.6200 
 20 C        4.3630     6.7000     1.1300 C.ar  1 <1>  -0.1500 
 21 C        4.1060     7.5900     0.1000 C.ar  1 <1>   0.1670 
 22 C        4.0440     9.0790     0.3690 C.3   1 <1>  -0.0970 
 23 H        2.2550     1.4010    -2.0360 H     1 <1>   0.0800 
 24 H        1.5840     2.0700    -0.5930 H     1 <1>   0.0800 
 25 H       -1.4780     1.1600     1.5820 H     1 <1>   0.0800 
 26 H       -1.9860     1.4040    -0.0780 H     1 <1>   0.0800 
 27 H       -0.5120     2.1410     0.5090 H     1 <1>   0.0800 
 28 H       -1.6450    -1.1800     1.2700 H     1 <1>   0.0800 
 29 H       -0.6430    -2.0040     0.1050 H     1 <1>   0.0800 
 30 H       -2.0230    -1.0760    -0.4420 H     1 <1>   0.0800 
 31 H        3.0540    -0.5710    -0.7350 H     1 <1>   0.0800 
 32 H        4.8640     0.9170    -1.0540 H     1 <1>   0.0800 
 33 H        2.1840    -0.8630     1.3600 H     1 <1>   0.0800 
 34 H        1.8310     0.8480     1.5710 H     1 <1>   0.0800 
 35 H        3.8720     2.7400     1.0630 H     1 <1>   0.3700 
 36 H        5.6010     0.9910     1.5240 H     1 <1>   0.0800 
 37 H        5.1650    -0.5760     0.8450 H     1 <1>   0.0800 
 38 H        3.8070     5.6120    -2.4090 H     1 <1>   0.1500 
 39 H        4.6230     4.6490     1.6560 H     1 <1>   0.1500 
 40 H        4.5220     7.0620     2.1300 H     1 <1>   0.1500 
 41 H        4.2150     9.2950     1.4060 H     1 <1>   0.0800 
 42 H        3.0760     9.4530     0.0890 H     1 <1>   0.0800 
 43 H        4.7900     9.5800    -0.2200 H     1 <1>   0.0800 
@<TRIPOS>BOND
  1   1   2  2   
  2   1   3  2   
  3   1   4  am  
  4   1   5  1   
  5   4   6  1   
  6   4   7  1   
  7   5   8  1   
  8   5  23  1   
  9   5  24  1   
 10   6  25  1   
 11   6  26  1   
 12   6  27  1   
 13   7  28  1   
 14   7  29  1   
 15   7  30  1   
 16   8   9  1   
 17   8  10  1   
 18   8  31  1   
 19   9  11  1   
 20   9  12  1   
 21   9  32  1   
 22  10  13  1   
 23  10  33  1   
 24  10  34  1   
 25  11  14  am  
 26  11  35  1   
 27  12  13  1   
 28  12  36  1   
 29  12  37  1   
 30  14  15  2   
 31  14  16  1   
 32  16  17  ar  
 33  16  18  ar  
 34  17  19  ar  
 35  17  38  1   
 36  18  20  ar  
 37  18  39  1   
 38  19  21  ar  
 39  20  21  ar  
 40  20  40  1   
 41  21  22  1   
 42  22  41  1   
 43  22  42  1   
 44  22  43  1   
@<TRIPOS>SUBSTRUCTURE
  1 ****  11 GROUP 4 **** **** 0

# MOE 2024.06 (io_trps.svl 2023.06)
