@<TRIPOS>MOLECULE
NONAME
50 51 1 0 0 
SMALL
USER_CHARGES


@<TRIPOS>ATOM
  1 S        1.3220     1.1250    -2.2380 S.o2  1 <1>   1.3330 
  2 O        0.9440     2.1570    -3.1770 O.2   1 <1>  -0.6500 
  3 O        1.5230    -0.2300    -2.7020 O.2   1 <1>  -0.6500 
  4 N        0.1280     1.0870    -1.0280 N.am  1 <1>  -0.8490 
  5 C        2.8000     1.6340    -1.3570 C.3   1 <1>  -0.0550 
  6 C       -0.9440     0.1370    -1.3400 C.3   1 <1>   0.1160 
  7 C       -0.4490     2.4060    -0.7430 C.3   1 <1>   0.1160 
  8 C        3.3570     0.5680    -0.3880 C.3   1 <1>  -0.0800 
  9 C        4.6980     0.9090     0.2460 C.3   1 <1>   0.2200 
 10 C        2.4760     0.2610     0.8310 C.3   1 <1>   0.1200 
 11 N        4.7220     2.3170     0.7070 N.am  1 <1>  -0.7300 
 12 C        4.6590     0.0040     1.4680 C.3   1 <1>   0.1200 
 13 O        3.3410     0.0760     1.9160 O.3   1 <1>  -0.5600 
 14 C        5.3300     3.3570     0.0650 C.2   1 <1>   0.7150 
 15 O        5.8160     3.1350    -1.0290 O.2   1 <1>  -0.5700 
 16 C        5.3580     4.6650     0.6810 C.2   1 <1>   0.0550 
 17 O        5.8270     5.7250     0.0290 O.3   1 <1>  -0.2800 
 18 C        4.9560     5.0740     1.9180 C.2   1 <1>  -0.1500 
 19 C        5.7430     6.7920     0.7970 C.2   1 <1>   0.1600 
 20 C        5.2060     6.4420     1.9890 C.2   1 <1>  -0.1500 
 21 C        6.1880     8.0600     0.3140 C.1   1 <1>  -0.0200 
 22 C        6.5610     9.1180    -0.0860 C.1   1 <1>  -0.2000 
 23 C        7.0330    10.4310    -0.6020 C.3   1 <1>   0.4800 
 24 O        6.8220    11.3630     0.3780 O.3   1 <1>  -0.6800 
 25 C        8.5300    10.4020    -0.8870 C.3   1 <1>  -0.2400 
 26 C        6.2270    10.8640    -1.8210 C.3   1 <1>  -0.2400 
 27 H        3.5630     1.8510    -2.0810 H     1 <1>   0.0800 
 28 H        2.6000     2.5430    -0.8260 H     1 <1>   0.0800 
 29 H       -1.6780     0.1290    -0.5530 H     1 <1>   0.0800 
 30 H       -0.5410    -0.8580    -1.4330 H     1 <1>   0.0800 
 31 H       -1.4210     0.4030    -2.2690 H     1 <1>   0.0800 
 32 H       -1.1290     2.3400     0.0890 H     1 <1>   0.0800 
 33 H       -0.9830     2.7780    -1.6020 H     1 <1>   0.0800 
 34 H        0.3280     3.1070    -0.4910 H     1 <1>   0.0800 
 35 H        3.4800    -0.3510    -0.9350 H     1 <1>   0.0800 
 36 H        5.5350     0.6980    -0.4000 H     1 <1>   0.0800 
 37 H        1.8930    -0.6330     0.6880 H     1 <1>   0.0800 
 38 H        1.8250     1.0830     1.0740 H     1 <1>   0.0800 
 39 H        4.2480     2.4690     1.5980 H     1 <1>   0.3700 
 40 H        5.3290     0.3200     2.2480 H     1 <1>   0.0800 
 41 H        4.8640    -1.0180     1.1970 H     1 <1>   0.0800 
 42 H        4.5310     4.4850     2.7110 H     1 <1>   0.1500 
 43 H        5.0090     7.0840     2.8290 H     1 <1>   0.1500 
 44 H        7.1250    12.2300     0.0600 H     1 <1>   0.4000 
 45 H        8.7400     9.6630    -1.6400 H     1 <1>   0.0800 
 46 H        9.0690    10.1350     0.0040 H     1 <1>   0.0800 
 47 H        8.8720    11.3560    -1.2430 H     1 <1>   0.0800 
 48 H        6.3480    10.1430    -2.6090 H     1 <1>   0.0800 
 49 H        6.5570    11.8210    -2.1800 H     1 <1>   0.0800 
 50 H        5.1820    10.9140    -1.5720 H     1 <1>   0.0800 
@<TRIPOS>BOND
  1   1   2  2   
  2   1   3  2   
  3   1   4  am  
  4   1   5  1   
  5   4   6  1   
  6   4   7  1   
  7   5   8  1   
  8   5  27  1   
  9   5  28  1   
 10   6  29  1   
 11   6  30  1   
 12   6  31  1   
 13   7  32  1   
 14   7  33  1   
 15   7  34  1   
 16   8   9  1   
 17   8  10  1   
 18   8  35  1   
 19   9  11  1   
 20   9  12  1   
 21   9  36  1   
 22  10  13  1   
 23  10  37  1   
 24  10  38  1   
 25  11  14  am  
 26  11  39  1   
 27  12  13  1   
 28  12  40  1   
 29  12  41  1   
 30  14  15  2   
 31  14  16  1   
 32  16  17  1   
 33  16  18  2   
 34  17  19  1   
 35  18  20  1   
 36  18  42  1   
 37  19  20  2   
 38  19  21  1   
 39  20  43  1   
 40  21  22  3   
 41  22  23  1   
 42  23  24  1   
 43  23  25  1   
 44  23  26  1   
 45  24  44  1   
 46  25  45  1   
 47  25  46  1   
 48  25  47  1   
 49  26  48  1   
 50  26  49  1   
 51  26  50  1   
@<TRIPOS>SUBSTRUCTURE
  1 ****  14 GROUP 4 **** **** 0

# MOE 2024.06 (io_trps.svl 2023.06)
