@<TRIPOS>MOLECULE
NONAME
42 44 1 0 0 
SMALL
USER_CHARGES


@<TRIPOS>ATOM
  1 O        0.3850    -1.1060     1.3550 O.3   1 <1>  -0.5600 
  2 C        0.4770    -1.7960     0.1450 C.3   1 <1>   0.2000 
  3 C       -0.9150    -0.8570     1.7910 C.3   1 <1>   0.0400 
  4 C        1.8860    -1.6720    -0.4630 C.3   1 <1>   0.0000 
  5 C        0.2340    -3.2940     0.3540 C.3   1 <1>  -0.1600 
  6 C        2.9750    -1.6870     0.6380 C.3   1 <1>   0.2090 
  7 C        2.0300    -0.3770    -1.2920 C.3   1 <1>  -0.1600 
  8 C        1.9680    -2.9340    -1.3420 C.3   1 <1>  -0.1600 
  9 C        1.2010    -4.0240    -0.5870 C.3   1 <1>  -0.1600 
 10 N        4.3510    -1.5580     0.0460 N.pl3 1 <1>  -0.8380 
 11 C        3.4610    -0.2030    -1.8280 C.3   1 <1>  -0.1600 
 12 C        5.3830    -2.4130     0.2770 C.ar  1 <1>   0.4100 
 13 C        4.5100    -0.2790    -0.7130 C.3   1 <1>   0.2090 
 14 N        6.6140    -1.9420     0.1650 N.ar  1 <1>  -0.6200 
 15 C        5.1540    -3.7610     0.6240 C.ar  1 <1>  -0.1500 
 16 C        7.6140    -2.7550     0.4170 C.ar  1 <1>   0.7710 
 17 C        6.2080    -4.5720     0.8760 C.ar  1 <1>   0.2110 
 18 N        7.4500    -4.0410     0.7720 N.ar  1 <1>  -0.1790 
 19 N        8.8350    -2.2400     0.3040 N.pl3 1 <1>  -0.9000 
 20 H       -0.2450    -1.3980    -0.5480 H     1 <1>   0.0800 
 21 H       -0.8570    -0.3190     2.7210 H     1 <1>   0.0800 
 22 H       -1.4280    -1.7900     1.9450 H     1 <1>   0.0800 
 23 H       -1.4270    -0.2590     1.0580 H     1 <1>   0.0800 
 24 H        0.4450    -3.5690     1.3730 H     1 <1>   0.0800 
 25 H       -0.7850    -3.5420     0.1180 H     1 <1>   0.0800 
 26 H        2.8810    -2.5680     1.2430 H     1 <1>   0.0800 
 27 H        2.8200    -0.8460     1.2930 H     1 <1>   0.0800 
 28 H        1.3340    -0.3760    -2.1130 H     1 <1>   0.0800 
 29 H        1.7910     0.4630    -0.6630 H     1 <1>   0.0800 
 30 H        1.4660    -2.7510    -2.2770 H     1 <1>   0.0800 
 31 H        2.9800    -3.2270    -1.5590 H     1 <1>   0.0800 
 32 H        1.8810    -4.6250    -0.0100 H     1 <1>   0.0800 
 33 H        0.6730    -4.6650    -1.2730 H     1 <1>   0.0800 
 34 H        3.5440     0.7490    -2.3220 H     1 <1>   0.0800 
 35 H        3.6770    -0.9650    -2.5570 H     1 <1>   0.0800 
 36 H        4.3840     0.5490    -0.0360 H     1 <1>   0.0800 
 37 H        5.4890    -0.2040    -1.1520 H     1 <1>   0.0800 
 38 H        4.1500    -4.1300     0.6730 H     1 <1>   0.1500 
 39 H        6.0960    -5.6100     1.1480 H     1 <1>   0.1500 
 40 H        8.2900    -4.5830     0.9470 H     1 <1>   0.4570 
 41 H        9.7430    -2.6840     0.4500 H     1 <1>   0.4000 
 42 H        8.8970    -1.2520     0.0370 H     1 <1>   0.4000 
@<TRIPOS>BOND
  1   1   2  1   
  2   1   3  1   
  3   2   4  1   
  4   2   5  1   
  5   2  20  1   
  6   3  21  1   
  7   3  22  1   
  8   3  23  1   
  9   4   6  1   
 10   4   7  1   
 11   4   8  1   
 12   5   9  1   
 13   5  24  1   
 14   5  25  1   
 15   6  10  1   
 16   6  26  1   
 17   6  27  1   
 18   7  11  1   
 19   7  28  1   
 20   7  29  1   
 21   8   9  1   
 22   8  30  1   
 23   8  31  1   
 24   9  32  1   
 25   9  33  1   
 26  10  12  1   
 27  10  13  1   
 28  11  13  1   
 29  11  34  1   
 30  11  35  1   
 31  12  14  ar  
 32  12  15  ar  
 33  13  36  1   
 34  13  37  1   
 35  14  16  ar  
 36  15  17  ar  
 37  15  38  1   
 38  16  18  ar  
 39  16  19  1   
 40  17  18  ar  
 41  17  39  1   
 42  18  40  1   
 43  19  41  1   
 44  19  42  1   
@<TRIPOS>SUBSTRUCTURE
  1 ****  10 GROUP 4 **** **** 0

# MOE 2024.06 (io_trps.svl 2023.06)
