@<TRIPOS>MOLECULE
NONAME
54 56 1 0 0 
SMALL
USER_CHARGES


@<TRIPOS>ATOM
  1 O       -1.0550    -1.5040    -0.9660 O.co2 1 <1>  -0.9000 
  2 C       -0.3080    -2.4530    -0.6800 C.2   1 <1>   1.0330 
  3 O       -0.0690    -3.3090    -1.5540 O.co2 1 <1>  -0.9000 
  4 C        0.2060    -2.5990     0.6410 C.2   1 <1>  -0.2330 
  5 C       -0.3530    -3.4060     1.6340 C.2   1 <1>   0.3720 
  6 C        1.2910    -2.0500     1.2450 C.2   1 <1>   0.0870 
  7 N        0.3350    -3.3550     2.7180 N.2   1 <1>  -0.4100 
  8 N       -1.5210    -4.1730     1.5180 N.pl3 1 <1>  -0.8210 
  9 O        1.3240    -2.5350     2.4660 O.3   1 <1>  -0.0190 
 10 C        2.3020    -1.1200     0.8020 C.ar  1 <1>   0.0530 
 11 C       -1.4930    -5.0450     0.3220 C.3   1 <1>   0.2090 
 12 C       -2.7260    -3.3010     1.5590 C.3   1 <1>   0.1290 
 13 C        2.0950    -0.2570    -0.2760 C.ar  1 <1>  -0.1500 
 14 C        3.5390    -1.0430     1.4470 C.ar  1 <1>  -0.1500 
 15 C       -2.0620    -6.4120     0.6680 C.3   1 <1>  -0.1600 
 16 C        3.0680     0.6300    -0.6970 C.ar  1 <1>  -0.1500 
 17 C        4.5170    -0.1580     1.0340 C.ar  1 <1>  -0.1500 
 18 C       -2.0660    -7.3110    -0.5690 C.3   1 <1>   0.4230 
 19 C        4.2940     0.6860    -0.0410 C.ar  1 <1>   0.0830 
 20 N       -2.8460    -8.5370    -0.2470 N.4   1 <1>  -0.9590 
 21 C       -0.6530    -7.6570    -1.0590 C.3   1 <1>  -0.2400 
 22 O        5.3010     1.5240    -0.3880 O.3   1 <1>  -0.3630 
 23 C       -2.2130    -9.4790     0.7090 C.3   1 <1>   0.3430 
 24 C       -3.2370    -9.3430    -1.4280 C.3   1 <1>   0.3430 
 25 C        5.1770     2.3970    -1.4880 C.3   1 <1>   0.0400 
 26 C       -3.0190   -10.7610     0.5500 C.3   1 <1>  -0.1600 
 27 C       -3.6500   -10.6890    -0.8450 C.3   1 <1>  -0.1600 
 28 H       -0.4720    -5.1630     0.0000 H     1 <1>   0.0800 
 29 H       -2.0480    -4.5910    -0.4840 H     1 <1>   0.0800 
 30 H       -2.6690    -2.6490     2.4150 H     1 <1>   0.0800 
 31 H       -3.6150    -3.8990     1.6410 H     1 <1>   0.0800 
 32 H       -2.7830    -2.6930     0.6700 H     1 <1>   0.0800 
 33 H        1.1530    -0.2750    -0.7950 H     1 <1>   0.1500 
 34 H        3.7350    -1.6920     2.2820 H     1 <1>   0.1500 
 35 H       -3.0650    -6.2730     1.0250 H     1 <1>   0.0800 
 36 H       -1.4580    -6.8370     1.4500 H     1 <1>   0.0800 
 37 H        2.8490     1.2650    -1.5330 H     1 <1>   0.1500 
 38 H        5.4630    -0.1160     1.5430 H     1 <1>   0.1500 
 39 H       -2.5750    -6.7810    -1.3610 H     1 <1>   0.0800 
 40 H       -3.7190    -8.2220     0.1930 H     1 <1>   0.4500 
 41 H       -0.0310    -8.0060    -0.2540 H     1 <1>   0.0800 
 42 H       -0.1870    -6.7760    -1.4650 H     1 <1>   0.0800 
 43 H       -0.6700    -8.3870    -1.8450 H     1 <1>   0.0800 
 44 H       -2.2440    -9.1060     1.7210 H     1 <1>   0.0800 
 45 H       -1.1900    -9.6630     0.4250 H     1 <1>   0.0800 
 46 H       -2.3900    -9.4820    -2.0790 H     1 <1>   0.0800 
 47 H       -4.0400    -8.8810    -1.9800 H     1 <1>   0.0800 
 48 H        6.0950     2.9490    -1.5810 H     1 <1>   0.0800 
 49 H        4.3600     3.0720    -1.3070 H     1 <1>   0.0800 
 50 H        5.0080     1.8150    -2.3770 H     1 <1>   0.0800 
 51 H       -3.7830   -10.8050     1.3070 H     1 <1>   0.0800 
 52 H       -2.3820   -11.6220     0.6580 H     1 <1>   0.0800 
 53 H       -3.3080   -11.4880    -1.4780 H     1 <1>   0.0800 
 54 H       -4.7230   -10.7450    -0.7760 H     1 <1>   0.0800 
@<TRIPOS>BOND
  1   1   2  ar  
  2   2   3  ar  
  3   2   4  1   
  4   4   5  1   
  5   4   6  2   
  6   5   7  2   
  7   5   8  1   
  8   6   9  1   
  9   6  10  1   
 10   7   9  1   
 11   8  11  1   
 12   8  12  1   
 13  10  13  ar  
 14  10  14  ar  
 15  11  15  1   
 16  11  28  1   
 17  11  29  1   
 18  12  30  1   
 19  12  31  1   
 20  12  32  1   
 21  13  16  ar  
 22  13  33  1   
 23  14  17  ar  
 24  14  34  1   
 25  15  18  1   
 26  15  35  1   
 27  15  36  1   
 28  16  19  ar  
 29  16  37  1   
 30  17  19  ar  
 31  17  38  1   
 32  18  20  1   
 33  18  21  1   
 34  18  39  1   
 35  19  22  1   
 36  20  23  1   
 37  20  24  1   
 38  20  40  1   
 39  21  41  1   
 40  21  42  1   
 41  21  43  1   
 42  22  25  1   
 43  23  26  1   
 44  23  44  1   
 45  23  45  1   
 46  24  27  1   
 47  24  46  1   
 48  24  47  1   
 49  25  48  1   
 50  25  49  1   
 51  25  50  1   
 52  26  27  1   
 53  26  51  1   
 54  26  52  1   
 55  27  53  1   
 56  27  54  1   
@<TRIPOS>SUBSTRUCTURE
  1 ****   4 GROUP 4 **** **** 0

# MOE 2024.06 (io_trps.svl 2023.06)
