@<TRIPOS>MOLECULE
NONAME
44 46 1 0 0 
SMALL
USER_CHARGES


@<TRIPOS>ATOM
  1 CL      -0.2310     0.4110    -0.1480 Cl    1 <1>  -0.1770 
  2 C        1.2070    -0.5700    -0.4210 C.ar  1 <1>   0.1770 
  3 C        1.1210    -1.9780    -0.6440 C.ar  1 <1>   0.4100 
  4 C        2.4220     0.0470    -0.4770 C.ar  1 <1>   0.2170 
  5 N        2.2040    -2.6520    -1.0040 N.ar  1 <1>  -0.6200 
  6 N       -0.0190    -2.7240    -0.5200 N.pl3 1 <1>  -0.8380 
  7 N        3.4960    -0.7250    -0.7840 N.ar  1 <1>  -0.1790 
  8 C        2.6820     1.5330    -0.2450 C.3   1 <1>  -0.0970 
  9 C        3.3560    -2.0320    -1.0550 C.ar  1 <1>   0.7710 
 10 C       -0.3060    -3.8620    -1.4700 C.3   1 <1>   0.2090 
 11 C       -1.1590    -2.4130     0.3960 C.3   1 <1>   0.2090 
 12 N        4.4050    -2.7730    -1.3920 N.pl3 1 <1>  -0.9000 
 13 C       -0.7810    -5.1630    -0.7920 C.3   1 <1>  -0.1060 
 14 C       -1.6820    -3.6560     1.1110 C.3   1 <1>  -0.1600 
 15 C       -1.3440    -6.0430    -1.9120 C.2   1 <1>   0.9060 
 16 C       -1.9660    -4.7890     0.1240 C.3   1 <1>   0.2000 
 17 C        0.3980    -5.9770    -0.1570 C.3   1 <1>  -0.0650 
 18 O       -0.9770    -5.8640    -3.0790 O.co2 1 <1>  -0.9000 
 19 O       -2.1530    -6.9380    -1.6220 O.co2 1 <1>  -0.9000 
 20 O       -2.4090    -5.8950     0.8180 O.3   1 <1>  -0.6800 
 21 C        0.7790    -5.7670     1.3180 C.3   1 <1>  -0.1950 
 22 C        1.7940    -4.7760     1.7880 C.3   1 <1>  -0.2000 
 23 C        2.1120    -6.2420     1.8040 C.3   1 <1>  -0.2000 
 24 H        4.4340    -0.3430    -0.8450 H     1 <1>   0.4570 
 25 H        1.7890     2.0570     0.0430 H     1 <1>   0.0800 
 26 H        3.0550     1.9910    -1.1450 H     1 <1>   0.0800 
 27 H        3.4050     1.6690     0.5400 H     1 <1>   0.0800 
 28 H       -1.0810    -3.5300    -2.1410 H     1 <1>   0.0800 
 29 H        0.5470    -4.0820    -2.0890 H     1 <1>   0.0800 
 30 H       -0.8500    -1.7120     1.1500 H     1 <1>   0.0800 
 31 H       -1.9560    -1.9720    -0.1800 H     1 <1>   0.0800 
 32 H        5.3860    -2.5120    -1.4960 H     1 <1>   0.4000 
 33 H        4.2170    -3.7650    -1.5860 H     1 <1>   0.4000 
 34 H       -2.5950    -3.4050     1.6190 H     1 <1>   0.0800 
 35 H       -0.9710    -3.9520     1.8520 H     1 <1>   0.0800 
 36 H       -2.7860    -4.4820    -0.5050 H     1 <1>   0.0800 
 37 H        0.1400    -7.0210    -0.2300 H     1 <1>   0.0800 
 38 H        1.2710    -5.8480    -0.7710 H     1 <1>   0.0800 
 39 H       -2.4950    -6.6100     0.1250 H     1 <1>   0.4000 
 40 H       -0.0410    -6.0060     1.9740 H     1 <1>   0.1000 
 41 H        2.2930    -4.1600     1.0680 H     1 <1>   0.1000 
 42 H        1.6060    -4.2640     2.7150 H     1 <1>   0.1000 
 43 H        2.1540    -6.7590     2.7470 H     1 <1>   0.1000 
 44 H        2.8140    -6.6310     1.0880 H     1 <1>   0.1000 
@<TRIPOS>BOND
  1   1   2  1   
  2   2   3  ar  
  3   2   4  ar  
  4   3   5  ar  
  5   3   6  1   
  6   4   7  ar  
  7   4   8  1   
  8   5   9  ar  
  9   6  10  1   
 10   6  11  1   
 11   7   9  ar  
 12   7  24  1   
 13   8  25  1   
 14   8  26  1   
 15   8  27  1   
 16   9  12  1   
 17  10  13  1   
 18  10  28  1   
 19  10  29  1   
 20  11  14  1   
 21  11  30  1   
 22  11  31  1   
 23  12  32  1   
 24  12  33  1   
 25  13  15  1   
 26  13  16  1   
 27  13  17  1   
 28  14  16  1   
 29  14  34  1   
 30  14  35  1   
 31  15  18  ar  
 32  15  19  ar  
 33  16  20  1   
 34  16  36  1   
 35  17  21  1   
 36  17  37  1   
 37  17  38  1   
 38  20  39  1   
 39  21  22  1   
 40  21  23  1   
 41  21  40  1   
 42  22  23  1   
 43  22  41  1   
 44  22  42  1   
 45  23  43  1   
 46  23  44  1   
@<TRIPOS>SUBSTRUCTURE
  1 ****   6 GROUP 4 **** **** 0

# MOE 2024.06 (io_trps.svl 2023.06)
