@<TRIPOS>MOLECULE
NONAME
53 56 1 0 0 
SMALL
USER_CHARGES


@<TRIPOS>ATOM
  1 O        5.0080    -0.2260     0.6200 O.2   1 <1>  -0.5700 
  2 C        3.8000    -0.2170     0.4610 C.2   1 <1>   0.7030 
  3 N        3.3640    -0.0570    -0.8380 N.am  1 <1>  -0.6600 
  4 C        2.9080    -0.3070     1.6130 C.2   1 <1>   0.2770 
  5 C        3.9340    -0.8890    -1.9580 C.3   1 <1>   0.1400 
  6 C        2.7420     1.2280    -1.2580 C.3   1 <1>   0.1400 
  7 N        1.5540    -0.6700     1.6710 N.pl3 1 <1>  -0.7640 
  8 C        3.2710    -0.0580     2.8990 C.2   1 <1>   0.2000 
  9 C        5.3550    -0.4730    -2.4160 C.3   1 <1>   0.3430 
 10 C        3.8040     2.3230    -1.4410 C.3   1 <1>  -0.1600 
 11 C        1.1720    -0.6230     2.9430 C.cat 1 <1>   0.6500 
 12 C        0.7000    -1.1080     0.5290 C.3   1 <1>   0.2740 
 13 N        2.1850    -0.2510     3.7060 N.pl3 1 <1>  -0.7000 
 14 N        5.7570     0.8650    -1.8860 N.4   1 <1>  -0.9590 
 15 C        4.9320     1.9880    -2.4220 C.3   1 <1>   0.3430 
 16 C        7.2250     1.1080    -1.9670 C.3   1 <1>   0.4860 
 17 C        7.5510     2.2780    -1.0680 C.ar  1 <1>  -0.1440 
 18 C        7.9050     3.5030    -1.5790 C.ar  1 <1>   0.1600 
 19 C        7.4790     2.1710     0.3000 C.ar  1 <1>   0.1600 
 20 N        8.1140     4.5390    -0.8110 N.ar  1 <1>  -0.6200 
 21 N        7.6790     3.1950     1.0890 N.ar  1 <1>  -0.6200 
 22 C        7.9700     4.3700     0.5110 C.ar  1 <1>   0.6200 
 23 C        8.1430     5.5280     1.3840 C.ar  1 <1>   0.3100 
 24 N        7.3590     6.6080     1.2180 N.ar  1 <1>  -0.6200 
 25 C        9.1180     5.4840     2.3830 C.ar  1 <1>  -0.1500 
 26 C        7.5620     7.6260     2.0340 C.ar  1 <1>   0.1600 
 27 C        9.3170     6.5520     3.2290 C.ar  1 <1>  -0.1500 
 28 C        8.5110     7.6510     3.0410 C.ar  1 <1>  -0.1500 
 29 H        3.2710    -0.8460    -2.8060 H     1 <1>   0.0800 
 30 H        3.9670    -1.9210    -1.6500 H     1 <1>   0.0800 
 31 H        2.0340     1.5490    -0.5120 H     1 <1>   0.0800 
 32 H        2.1990     1.0850    -2.1790 H     1 <1>   0.0800 
 33 H        4.2410     0.2420     3.2680 H     1 <1>   0.1500 
 34 H        5.4080    -0.4860    -3.4920 H     1 <1>   0.0800 
 35 H        6.0460    -1.2170    -2.0510 H     1 <1>   0.0800 
 36 H        4.2240     2.5960    -0.4880 H     1 <1>   0.0800 
 37 H        3.3040     3.2020    -1.8100 H     1 <1>   0.0800 
 38 H        0.1800    -0.8600     3.3080 H     1 <1>   0.1500 
 39 H        1.2060    -1.8710    -0.0400 H     1 <1>   0.0800 
 40 H        0.4850    -0.2730    -0.1150 H     1 <1>   0.0800 
 41 H       -0.2310    -1.5130     0.8880 H     1 <1>   0.0800 
 42 H        2.1640    -0.1400     4.7270 H     1 <1>   0.4500 
 43 H        5.5380     0.8010    -0.8740 H     1 <1>   0.4500 
 44 H        5.5430     2.8690    -2.5440 H     1 <1>   0.0800 
 45 H        4.5250     1.7310    -3.3870 H     1 <1>   0.0800 
 46 H        7.5170     1.3190    -2.9830 H     1 <1>   0.0800 
 47 H        7.7650     0.2390    -1.6260 H     1 <1>   0.0800 
 48 H        8.0120     3.6530    -2.6420 H     1 <1>   0.1500 
 49 H        7.2430     1.2290     0.7690 H     1 <1>   0.1500 
 50 H        9.7190     4.5990     2.4880 H     1 <1>   0.1500 
 51 H        6.9360     8.4910     1.8960 H     1 <1>   0.1500 
 52 H       10.0670     6.5290     4.0020 H     1 <1>   0.1500 
 53 H        8.6130     8.5200     3.6650 H     1 <1>   0.1500 
@<TRIPOS>BOND
  1   1   2  2   
  2   2   3  am  
  3   2   4  1   
  4   3   5  1   
  5   3   6  1   
  6   4   7  1   
  7   4   8  2   
  8   5   9  1   
  9   5  29  1   
 10   5  30  1   
 11   6  10  1   
 12   6  31  1   
 13   6  32  1   
 14   7  11  ar  
 15   7  12  1   
 16   8  13  1   
 17   8  33  1   
 18   9  14  1   
 19   9  34  1   
 20   9  35  1   
 21  10  15  1   
 22  10  36  1   
 23  10  37  1   
 24  11  13  ar  
 25  11  38  1   
 26  12  39  1   
 27  12  40  1   
 28  12  41  1   
 29  13  42  1   
 30  14  15  1   
 31  14  16  1   
 32  14  43  1   
 33  15  44  1   
 34  15  45  1   
 35  16  17  1   
 36  16  46  1   
 37  16  47  1   
 38  17  18  ar  
 39  17  19  ar  
 40  18  20  ar  
 41  18  48  1   
 42  19  21  ar  
 43  19  49  1   
 44  20  22  ar  
 45  21  22  ar  
 46  22  23  1   
 47  23  24  ar  
 48  23  25  ar  
 49  24  26  ar  
 50  25  27  ar  
 51  25  50  1   
 52  26  28  ar  
 53  26  51  1   
 54  27  28  ar  
 55  27  52  1   
 56  28  53  1   
@<TRIPOS>SUBSTRUCTURE
  1 ****  19 GROUP 4 **** **** 0

# MOE 2024.06 (io_trps.svl 2023.06)
