@<TRIPOS>MOLECULE
NONAME
49 51 1 0 0 
SMALL
USER_CHARGES


@<TRIPOS>ATOM
  1 F        2.8580    -4.6920     0.2110 F     1 <1>  -0.1900 
  2 C        2.3700    -3.5400    -0.1640 C.ar  1 <1>   0.1900 
  3 C        1.3550    -2.9570     0.5800 C.ar  1 <1>  -0.1440 
  4 C        2.9050    -2.9550    -1.3000 C.ar  1 <1>  -0.1500 
  5 C        0.8950    -1.7310     0.1190 C.ar  1 <1>   0.1900 
  6 C        0.7940    -3.6330     1.8340 C.3   1 <1>   0.0450 
  7 C        2.4160    -1.7300    -1.7260 C.ar  1 <1>  -0.1500 
  8 F       -0.0670    -1.1230     0.7620 F     1 <1>  -0.1900 
  9 C        1.4020    -1.1120    -1.0110 C.ar  1 <1>  -0.1500 
 10 C        0.1110    -4.9650     1.5490 C.2   1 <1>   0.5690 
 11 O        0.3820    -5.9070     2.2570 O.2   1 <1>  -0.5700 
 12 N       -0.8330    -5.0920     0.5600 N.am  1 <1>  -0.6600 
 13 C       -1.3010    -6.4350     0.1480 C.3   1 <1>   0.1400 
 14 C       -1.8260    -4.0140     0.2760 C.3   1 <1>   0.1400 
 15 C       -2.7780    -6.4710     0.5770 C.3   1 <1>   0.4230 
 16 C       -3.0430    -4.5260    -0.5670 C.3   1 <1>  -0.1600 
 17 N       -3.0750    -7.5690     1.5650 N.4   1 <1>  -0.9590 
 18 C       -3.6850    -6.0290    -0.6560 C.3   1 <1>   0.0000 
 19 C       -3.1340    -8.8600     0.9070 C.3   1 <1>   0.3430 
 20 C       -2.1400    -7.5690     2.7410 C.3   1 <1>   0.2630 
 21 C       -4.3350    -7.5010    -0.8710 C.3   1 <1>  -0.1600 
 22 C       -4.6140    -5.4940    -1.8610 C.3   1 <1>   0.1200 
 23 C       -4.3730    -8.7190     0.0760 C.3   1 <1>  -0.1600 
 24 O       -5.8220    -5.0650    -1.3150 O.3   1 <1>  -0.6800 
 25 H        3.6920    -3.4530    -1.8370 H     1 <1>   0.1500 
 26 H        0.0980    -2.9970     2.3440 H     1 <1>   0.0800 
 27 H        1.6090    -3.8120     2.5130 H     1 <1>   0.0800 
 28 H        2.8240    -1.2610    -2.6070 H     1 <1>   0.1500 
 29 H        1.0090    -0.1610    -1.3240 H     1 <1>   0.1500 
 30 H       -1.2090    -6.5270    -0.9210 H     1 <1>   0.0800 
 31 H       -0.7100    -7.2130     0.5940 H     1 <1>   0.0800 
 32 H       -2.1830    -3.6170     1.2120 H     1 <1>   0.0800 
 33 H       -1.3420    -3.2110    -0.2530 H     1 <1>   0.0800 
 34 H       -2.8900    -5.6430     1.2530 H     1 <1>   0.0800 
 35 H       -3.8230    -3.8060    -0.3680 H     1 <1>   0.0800 
 36 H       -2.6350    -4.2920    -1.5370 H     1 <1>   0.0800 
 37 H       -4.0220    -7.3720     1.9140 H     1 <1>   0.4500 
 38 H       -2.2620    -9.0300     0.2960 H     1 <1>   0.0800 
 39 H       -3.2460    -9.6590     1.6230 H     1 <1>   0.0800 
 40 H       -1.1420    -7.8440     2.4390 H     1 <1>   0.0800 
 41 H       -2.4750    -8.2700     3.4880 H     1 <1>   0.0800 
 42 H       -2.0950    -6.5870     3.1840 H     1 <1>   0.0800 
 43 H       -5.3900    -7.4550    -1.1060 H     1 <1>   0.0800 
 44 H       -3.8510    -7.8880    -1.7550 H     1 <1>   0.0800 
 45 H       -4.8430    -6.2180    -2.6290 H     1 <1>   0.0800 
 46 H       -4.2630    -4.6690    -2.4580 H     1 <1>   0.0800 
 47 H       -4.5090    -9.6180    -0.5010 H     1 <1>   0.0800 
 48 H       -5.2260    -8.6440     0.7310 H     1 <1>   0.0800 
 49 H       -6.4300    -4.7370    -2.0100 H     1 <1>   0.4000 
@<TRIPOS>BOND
  1   1   2  1   
  2   2   3  ar  
  3   2   4  ar  
  4   3   5  ar  
  5   3   6  1   
  6   4   7  ar  
  7   4  25  1   
  8   5   8  1   
  9   5   9  ar  
 10   6  10  1   
 11   6  26  1   
 12   6  27  1   
 13   7   9  ar  
 14   7  28  1   
 15   9  29  1   
 16  10  11  2   
 17  10  12  am  
 18  12  13  1   
 19  12  14  1   
 20  13  15  1   
 21  13  30  1   
 22  13  31  1   
 23  14  16  1   
 24  14  32  1   
 25  14  33  1   
 26  15  17  1   
 27  15  18  1   
 28  15  34  1   
 29  16  18  1   
 30  16  35  1   
 31  16  36  1   
 32  17  19  1   
 33  17  20  1   
 34  17  37  1   
 35  18  21  1   
 36  18  22  1   
 37  19  23  1   
 38  19  38  1   
 39  19  39  1   
 40  20  40  1   
 41  20  41  1   
 42  20  42  1   
 43  21  23  1   
 44  21  43  1   
 45  21  44  1   
 46  22  24  1   
 47  22  45  1   
 48  22  46  1   
 49  23  47  1   
 50  23  48  1   
 51  24  49  1   
@<TRIPOS>SUBSTRUCTURE
  1 ****  12 GROUP 4 **** **** 0

# MOE 2024.06 (io_trps.svl 2023.06)
