@<TRIPOS>MOLECULE
NONAME
42 44 1 0 0 
SMALL
USER_CHARGES


@<TRIPOS>ATOM
  1 S       -3.1630     0.1390     1.6000 S.3   1 <1>  -0.0800 
  2 C       -2.8220    -0.6470     0.0510 C.2   1 <1>  -0.0450 
  3 C       -1.8080     1.2340     1.4290 C.2   1 <1>  -0.1100 
  4 C       -3.6390    -1.7440    -0.4130 C.2   1 <1>   0.7150 
  5 C       -1.7200    -0.0660    -0.4890 C.2   1 <1>  -0.1500 
  6 C       -1.1550     0.9940     0.2780 C.2   1 <1>  -0.1500 
  7 O       -3.1050    -2.6390    -1.0450 O.2   1 <1>  -0.5700 
  8 N       -5.0020    -1.8200    -0.2030 N.am  1 <1>  -0.6600 
  9 C       -5.6900    -3.1460    -0.2760 C.3   1 <1>   0.1400 
 10 C       -5.8530    -0.6080    -0.0160 C.3   1 <1>   0.1400 
 11 C       -6.0950    -3.4870    -1.7170 C.3   1 <1>   0.1400 
 12 C       -7.1220    -0.5810    -0.8800 C.3   1 <1>  -0.1600 
 13 N       -7.2550    -2.6630    -2.1820 N.am  1 <1>  -0.6600 
 14 C       -6.9720    -1.2050    -2.2720 C.3   1 <1>   0.1400 
 15 C       -8.5290    -3.1350    -2.4060 C.2   1 <1>   0.5690 
 16 O       -9.4020    -2.4110    -2.8320 O.2   1 <1>  -0.5700 
 17 C       -8.9440    -4.5770    -2.1070 C.3   1 <1>   0.2010 
 18 N       -9.4110    -4.7390    -0.6930 N.am  1 <1>  -0.4690 
 19 C       -8.6080    -5.3610     0.2500 C.2   1 <1>   0.8410 
 20 C      -10.6230    -4.2110    -0.3290 C.2   1 <1>  -0.0410 
 21 O       -7.5210    -5.8120    -0.0650 O.2   1 <1>  -0.5700 
 22 N       -9.0110    -5.4710     1.5550 N.2   1 <1>  -0.6610 
 23 C      -11.0120    -4.3290     0.9610 C.2   1 <1>  -0.1360 
 24 C      -10.1530    -4.9800     1.8730 C.2   1 <1>   0.3760 
 25 H       -1.6400     1.9470     2.2160 H     1 <1>   0.1500 
 26 H       -1.2810    -0.3680    -1.4250 H     1 <1>   0.1500 
 27 H       -0.2840     1.5250    -0.0660 H     1 <1>   0.1500 
 28 H       -6.5530    -3.1600     0.3670 H     1 <1>   0.0800 
 29 H       -5.0150    -3.9080     0.0760 H     1 <1>   0.0800 
 30 H       -5.2730     0.2630    -0.2690 H     1 <1>   0.0800 
 31 H       -6.1250    -0.5270     1.0230 H     1 <1>   0.0800 
 32 H       -6.3200    -4.5320    -1.7730 H     1 <1>   0.0800 
 33 H       -5.2550    -3.3210    -2.3690 H     1 <1>   0.0800 
 34 H       -7.4050     0.4490    -1.0010 H     1 <1>   0.0800 
 35 H       -7.9320    -1.0580    -0.3560 H     1 <1>   0.0800 
 36 H       -5.9830    -1.0380    -2.6660 H     1 <1>   0.0800 
 37 H       -7.6730    -0.7430    -2.9470 H     1 <1>   0.0800 
 38 H       -8.1470    -5.2590    -2.3330 H     1 <1>   0.0800 
 39 H       -9.7580    -4.8280    -2.7610 H     1 <1>   0.0800 
 40 H      -11.2200    -3.7160    -1.0820 H     1 <1>   0.1500 
 41 H      -11.9480    -3.9420     1.3190 H     1 <1>   0.1500 
 42 H      -10.4870    -5.0610     2.8920 H     1 <1>   0.0600 
@<TRIPOS>BOND
  1   1   2  1   
  2   1   3  1   
  3   2   4  1   
  4   2   5  2   
  5   3   6  2   
  6   3  25  1   
  7   4   7  2   
  8   4   8  am  
  9   5   6  1   
 10   5  26  1   
 11   6  27  1   
 12   8   9  1   
 13   8  10  1   
 14   9  11  1   
 15   9  28  1   
 16   9  29  1   
 17  10  12  1   
 18  10  30  1   
 19  10  31  1   
 20  11  13  1   
 21  11  32  1   
 22  11  33  1   
 23  12  14  1   
 24  12  34  1   
 25  12  35  1   
 26  13  14  1   
 27  13  15  am  
 28  14  36  1   
 29  14  37  1   
 30  15  16  2   
 31  15  17  1   
 32  17  18  1   
 33  17  38  1   
 34  17  39  1   
 35  18  19  am  
 36  18  20  1   
 37  19  21  2   
 38  19  22  1   
 39  20  23  2   
 40  20  40  1   
 41  22  24  2   
 42  23  24  1   
 43  23  41  1   
 44  24  42  1   
@<TRIPOS>SUBSTRUCTURE
  1 ****   9 GROUP 4 **** **** 0

# MOE 2024.06 (io_trps.svl 2023.06)
