@<TRIPOS>MOLECULE
NONAME
44 46 1 0 0 
SMALL
USER_CHARGES


@<TRIPOS>ATOM
  1 O        0.3650     1.0960     0.1930 O.2   1 <1>  -0.5700 
  2 C        0.1250     2.2680     0.0180 C.2   1 <1>   0.5690 
  3 N       -0.8560     2.9300     0.7060 N.am  1 <1>  -0.6600 
  4 C        0.9410     3.0220    -1.0310 C.3   1 <1>   0.1810 
  5 C       -1.1530     4.3770     0.4420 C.3   1 <1>   0.3640 
  6 C       -1.6430     2.2840     1.7960 C.3   1 <1>   0.0600 
  7 O        0.9910     4.4030    -0.7780 O.3   1 <1>  -0.5600 
  8 C       -2.6520     4.5970     0.1830 C.ar  1 <1>  -0.1440 
  9 C       -0.2860     5.0200    -0.6730 C.3   1 <1>   0.2610 
 10 C       -3.4150     3.8840    -0.7490 C.ar  1 <1>  -0.1440 
 11 C       -3.2750     5.5830     0.9400 C.ar  1 <1>  -0.1500 
 12 C       -0.1150     6.5140    -0.3810 C.2   1 <1>   0.5690 
 13 C       -4.7660     4.1700    -0.8860 C.ar  1 <1>  -0.1500 
 14 C       -2.8510     2.7820    -1.6400 C.3   1 <1>  -0.0960 
 15 C       -4.6200     5.8610     0.7920 C.ar  1 <1>  -0.1500 
 16 O       -0.9970     7.2910    -0.6550 O.2   1 <1>  -0.5700 
 17 N        1.0390     6.9370     0.1920 N.am  1 <1>  -0.7300 
 18 C       -5.3690     5.1500    -0.1230 C.ar  1 <1>  -0.1500 
 19 C        1.4400     8.3340     0.3700 C.3   1 <1>   0.3200 
 20 C        2.9280     8.4350     0.1000 C.2   1 <1>  -0.3320 
 21 N        3.6580     9.5140     0.4530 N.pl3 1 <1>   0.3000 
 22 C        3.7840     7.5730    -0.4960 C.2   1 <1>  -0.1500 
 23 N        4.9520     9.3740     0.1130 N.2   1 <1>  -0.7070 
 24 C        5.0180     8.2100    -0.4570 C.2   1 <1>   0.1390 
 25 H        0.5190     2.8630    -2.0060 H     1 <1>   0.0800 
 26 H        1.9500     2.6520    -1.0260 H     1 <1>   0.0800 
 27 H       -0.9020     4.8940     1.3520 H     1 <1>   0.0800 
 28 H       -1.5610     2.8610     2.7000 H     1 <1>   0.0800 
 29 H       -1.2800     1.2890     1.9900 H     1 <1>   0.0800 
 30 H       -2.6800     2.2200     1.5130 H     1 <1>   0.0800 
 31 H       -0.7770     4.9270    -1.6230 H     1 <1>   0.0800 
 32 H       -2.7130     6.1590     1.6550 H     1 <1>   0.1500 
 33 H       -5.3670     3.6270    -1.5940 H     1 <1>   0.1500 
 34 H       -3.5450     2.5260    -2.4200 H     1 <1>   0.0800 
 35 H       -2.6670     1.8960    -1.0590 H     1 <1>   0.0800 
 36 H       -1.9390     3.0920    -2.1090 H     1 <1>   0.0800 
 37 H       -5.0810     6.6310     1.3850 H     1 <1>   0.1500 
 38 H        1.7960     6.2580     0.3020 H     1 <1>   0.3700 
 39 H       -6.4180     5.3610    -0.2430 H     1 <1>   0.1500 
 40 H        0.8910     8.9680    -0.3070 H     1 <1>   0.0800 
 41 H        1.2220     8.6320     1.3820 H     1 <1>   0.0800 
 42 H        3.3130    10.3610     0.9230 H     1 <1>   0.2700 
 43 H        3.5950     6.6050    -0.9260 H     1 <1>   0.1500 
 44 H        5.9310     7.7950    -0.8510 H     1 <1>   0.1500 
@<TRIPOS>BOND
  1   1   2  2   
  2   2   3  am  
  3   2   4  1   
  4   3   5  1   
  5   3   6  1   
  6   4   7  1   
  7   4  25  1   
  8   4  26  1   
  9   5   8  1   
 10   5   9  1   
 11   5  27  1   
 12   6  28  1   
 13   6  29  1   
 14   6  30  1   
 15   7   9  1   
 16   8  10  ar  
 17   8  11  ar  
 18   9  12  1   
 19   9  31  1   
 20  10  13  ar  
 21  10  14  1   
 22  11  15  ar  
 23  11  32  1   
 24  12  16  2   
 25  12  17  am  
 26  13  18  ar  
 27  13  33  1   
 28  14  34  1   
 29  14  35  1   
 30  14  36  1   
 31  15  18  ar  
 32  15  37  1   
 33  17  19  1   
 34  17  38  1   
 35  18  39  1   
 36  19  20  1   
 37  19  40  1   
 38  19  41  1   
 39  20  21  1   
 40  20  22  2   
 41  21  23  1   
 42  21  42  1   
 43  22  24  1   
 44  22  43  1   
 45  23  24  2   
 46  24  44  1   
@<TRIPOS>SUBSTRUCTURE
  1 ****   9 GROUP 4 **** **** 0

# MOE 2024.06 (io_trps.svl 2023.06)
