@<TRIPOS>MOLECULE
NONAME
50 53 1 0 0 
SMALL
USER_CHARGES


@<TRIPOS>ATOM
  1 O       -0.5050     0.2890    -0.2960 O.2   1 <1>  -0.5700 
  2 C       -1.5600     0.8980    -0.3710 C.2   1 <1>   0.7160 
  3 N       -2.7180     0.1470    -0.4780 N.am  1 <1>  -0.6600 
  4 C       -1.5360     2.3570    -0.3420 C.2   1 <1>   0.2030 
  5 C       -4.1040     0.6730    -0.5680 C.3   1 <1>   0.1400 
  6 C       -2.7250    -1.3360    -0.4670 C.3   1 <1>   0.1400 
  7 N       -2.5370     3.1880    -0.4030 N.2   1 <1>  -0.4100 
  8 C       -0.3730     3.1080    -0.2360 C.2   1 <1>  -0.1500 
  9 C       -5.0010    -0.5650    -0.6380 C.3   1 <1>   0.2000 
 10 C       -4.1590    -1.7190    -0.0980 C.3   1 <1>  -0.0800 
 11 O       -2.1130     4.4260    -0.3450 O.3   1 <1>  -0.0190 
 12 C       -0.8030     4.3740    -0.2430 C.2   1 <1>  -0.0400 
 13 O       -6.1420    -0.4140     0.1340 O.3   1 <1>  -0.6800 
 14 C       -4.5980    -3.0860    -0.6480 C.3   1 <1>  -0.0170 
 15 C       -0.0380     5.6890    -0.1560 C.3   1 <1>   0.1000 
 16 C       -3.7220    -4.2030    -0.1100 C.ar  1 <1>   0.1670 
 17 C        1.4770     5.4750    -0.2700 C.3   1 <1>  -0.2400 
 18 C       -0.3670     6.4050     1.1570 C.3   1 <1>  -0.2400 
 19 N       -2.6440    -4.4880    -0.7740 N.ar  1 <1>  -0.6200 
 20 C       -4.1060    -4.8590     1.0700 C.ar  1 <1>  -0.1500 
 21 C       -1.8440    -5.4720    -0.2890 C.ar  1 <1>   0.3100 
 22 C       -3.3240    -5.8520     1.5780 C.ar  1 <1>  -0.1500 
 23 C       -2.1450    -6.1870     0.8920 C.ar  1 <1>   0.0000 
 24 C       -0.6660    -5.7930    -0.9820 C.ar  1 <1>  -0.1500 
 25 C       -1.2590    -7.1910     1.3290 C.ar  1 <1>  -0.1500 
 26 C        0.1820    -6.7740    -0.5410 C.ar  1 <1>  -0.1500 
 27 C       -0.1190    -7.4800     0.6280 C.ar  1 <1>  -0.1500 
 28 H       -4.3220     1.2590     0.3080 H     1 <1>   0.0800 
 29 H       -4.2180     1.2740    -1.4530 H     1 <1>   0.0800 
 30 H       -2.4710    -1.6950    -1.4500 H     1 <1>   0.0800 
 31 H       -2.0170    -1.7270     0.2450 H     1 <1>   0.0800 
 32 H        0.6210     2.7060    -0.1670 H     1 <1>   0.1500 
 33 H       -5.3000    -0.7410    -1.6570 H     1 <1>   0.0800 
 34 H       -4.2140    -1.7330     0.9760 H     1 <1>   0.0800 
 35 H       -5.9020    -0.2060     1.0570 H     1 <1>   0.4000 
 36 H       -4.5410    -3.0840    -1.7230 H     1 <1>   0.0800 
 37 H       -5.6230    -3.2690    -0.3800 H     1 <1>   0.0800 
 38 H       -0.3540     6.3100    -0.9770 H     1 <1>   0.0800 
 39 H        1.8370     4.8730     0.5450 H     1 <1>   0.0800 
 40 H        1.9880     6.4210    -0.2510 H     1 <1>   0.0800 
 41 H        1.7120     4.9810    -1.1970 H     1 <1>   0.0800 
 42 H       -0.0800     5.7970     1.9970 H     1 <1>   0.0800 
 43 H       -1.4240     6.5960     1.2200 H     1 <1>   0.0800 
 44 H        0.1520     7.3450     1.2140 H     1 <1>   0.0800 
 45 H       -5.0150    -4.5670     1.5630 H     1 <1>   0.1500 
 46 H       -3.5840    -6.3780     2.4790 H     1 <1>   0.1500 
 47 H       -0.4530    -5.2380    -1.8770 H     1 <1>   0.1500 
 48 H       -1.4950    -7.7300     2.2280 H     1 <1>   0.1500 
 49 H        1.0820    -7.0090    -1.0820 H     1 <1>   0.1500 
 50 H        0.5570    -8.2470     0.9640 H     1 <1>   0.1500 
@<TRIPOS>BOND
  1   1   2  2   
  2   2   3  am  
  3   2   4  1   
  4   3   5  1   
  5   3   6  1   
  6   4   7  2   
  7   4   8  1   
  8   5   9  1   
  9   5  28  1   
 10   5  29  1   
 11   6  10  1   
 12   6  30  1   
 13   6  31  1   
 14   7  11  1   
 15   8  12  2   
 16   8  32  1   
 17   9  10  1   
 18   9  13  1   
 19   9  33  1   
 20  10  14  1   
 21  10  34  1   
 22  11  12  1   
 23  12  15  1   
 24  13  35  1   
 25  14  16  1   
 26  14  36  1   
 27  14  37  1   
 28  15  17  1   
 29  15  18  1   
 30  15  38  1   
 31  16  19  ar  
 32  16  20  ar  
 33  17  39  1   
 34  17  40  1   
 35  17  41  1   
 36  18  42  1   
 37  18  43  1   
 38  18  44  1   
 39  19  21  ar  
 40  20  22  ar  
 41  20  45  1   
 42  21  23  ar  
 43  21  24  ar  
 44  22  23  ar  
 45  22  46  1   
 46  23  25  ar  
 47  24  26  ar  
 48  24  47  1   
 49  25  27  ar  
 50  25  48  1   
 51  26  27  ar  
 52  26  49  1   
 53  27  50  1   
@<TRIPOS>SUBSTRUCTURE
  1 ****   6 GROUP 4 **** **** 0

# MOE 2024.06 (io_trps.svl 2023.06)
