@<TRIPOS>MOLECULE
NONAME
52 54 1 0 0 
SMALL
USER_CHARGES


@<TRIPOS>ATOM
  1 O       -0.6710     0.0220    -0.9300 O.2   1 <1>  -0.5700 
  2 C       -1.7100     0.4790    -0.5050 C.2   1 <1>   0.5440 
  3 N       -1.6830     1.7890    -0.1660 N.am  1 <1>  -0.8000 
  4 C       -2.9020    -0.3390    -0.3540 C.ar  1 <1>   0.0860 
  5 C       -4.1820     0.2170    -0.2680 C.ar  1 <1>  -0.1500 
  6 C       -2.8110    -1.7310    -0.2890 C.ar  1 <1>  -0.1500 
  7 C       -5.3040    -0.5750    -0.1130 C.ar  1 <1>  -0.1500 
  8 C       -3.9280    -2.5320    -0.1350 C.ar  1 <1>  -0.1500 
  9 C       -5.1900    -1.9540    -0.0440 C.ar  1 <1>   0.0830 
 10 O       -6.3350    -2.6560     0.1080 O.3   1 <1>  -0.3630 
 11 C       -6.3450    -4.0590     0.1740 C.3   1 <1>   0.1200 
 12 C       -7.8020    -4.4910     0.3380 C.3   1 <1>  -0.1600 
 13 C       -7.9200    -6.0120     0.3870 C.3   1 <1>   0.3430 
 14 N       -9.3290    -6.4050     0.6480 N.4   1 <1>  -0.9590 
 15 C      -10.3190    -6.0600    -0.4090 C.3   1 <1>   0.3430 
 16 C       -9.5180    -7.8610     0.9180 C.3   1 <1>   0.3430 
 17 C      -11.5400    -6.8990    -0.0360 C.3   1 <1>   0.2000 
 18 C      -10.9280    -8.2250     0.4200 C.3   1 <1>  -0.0800 
 19 O      -12.1360    -6.3010     1.0670 O.3   1 <1>  -0.6800 
 20 C      -10.8850    -9.2620    -0.7210 C.3   1 <1>   0.0200 
 21 C       -9.9930   -10.4350    -0.3630 C.2   1 <1>  -0.0400 
 22 O      -10.0660   -10.9660     0.8280 O.3   1 <1>  -0.0190 
 23 C       -9.0490   -11.0940    -1.0520 C.2   1 <1>  -0.1500 
 24 N       -9.2090   -11.9300     0.9800 N.2   1 <1>  -0.4100 
 25 C       -8.5890   -12.0400    -0.1400 C.2   1 <1>   0.1080 
 26 C       -7.5090   -13.0640    -0.4160 C.3   1 <1>  -0.0590 
 27 H       -0.8030     2.2960    -0.2650 H     1 <1>   0.3700 
 28 H       -2.4350     2.2660     0.3280 H     1 <1>   0.3700 
 29 H       -4.3040     1.2830    -0.3300 H     1 <1>   0.1500 
 30 H       -1.8380    -2.1870    -0.3610 H     1 <1>   0.1500 
 31 H       -6.2800    -0.1290    -0.0480 H     1 <1>   0.1500 
 32 H       -3.7930    -3.5950    -0.0900 H     1 <1>   0.1500 
 33 H       -5.9230    -4.4410    -0.7400 H     1 <1>   0.0800 
 34 H       -5.7490    -4.3610     1.0190 H     1 <1>   0.0800 
 35 H       -8.1800    -4.0690     1.2530 H     1 <1>   0.0800 
 36 H       -8.3620    -4.1030    -0.4950 H     1 <1>   0.0800 
 37 H       -7.2900    -6.3890     1.1770 H     1 <1>   0.0800 
 38 H       -7.5840    -6.4380    -0.5460 H     1 <1>   0.0800 
 39 H       -9.6740    -5.9150     1.4900 H     1 <1>   0.4500 
 40 H      -10.5570    -5.0090    -0.4170 H     1 <1>   0.0800 
 41 H       -9.9500    -6.3590    -1.3760 H     1 <1>   0.0800 
 42 H       -8.7770    -8.4400     0.3910 H     1 <1>   0.0800 
 43 H       -9.4270    -8.0650     1.9740 H     1 <1>   0.0800 
 44 H      -12.2650    -6.9800    -0.8300 H     1 <1>   0.0800 
 45 H      -11.4940    -8.6520     1.2310 H     1 <1>   0.0800 
 46 H      -12.9980    -6.7200     1.2820 H     1 <1>   0.4000 
 47 H      -10.5200    -8.8200    -1.6320 H     1 <1>   0.0800 
 48 H      -11.8800    -9.6310    -0.9060 H     1 <1>   0.0800 
 49 H       -8.6990   -10.9640    -2.0600 H     1 <1>   0.1500 
 50 H       -6.6130   -12.5750    -0.7490 H     1 <1>   0.0800 
 51 H       -7.8420   -13.7490    -1.1730 H     1 <1>   0.0800 
 52 H       -7.2900   -13.6170     0.4800 H     1 <1>   0.0800 
@<TRIPOS>BOND
  1   1   2  2   
  2   2   3  am  
  3   2   4  1   
  4   3  27  1   
  5   3  28  1   
  6   4   5  ar  
  7   4   6  ar  
  8   5   7  ar  
  9   5  29  1   
 10   6   8  ar  
 11   6  30  1   
 12   7   9  ar  
 13   7  31  1   
 14   8   9  ar  
 15   8  32  1   
 16   9  10  1   
 17  10  11  1   
 18  11  12  1   
 19  11  33  1   
 20  11  34  1   
 21  12  13  1   
 22  12  35  1   
 23  12  36  1   
 24  13  14  1   
 25  13  37  1   
 26  13  38  1   
 27  14  15  1   
 28  14  16  1   
 29  14  39  1   
 30  15  17  1   
 31  15  40  1   
 32  15  41  1   
 33  16  18  1   
 34  16  42  1   
 35  16  43  1   
 36  17  18  1   
 37  17  19  1   
 38  17  44  1   
 39  18  20  1   
 40  18  45  1   
 41  19  46  1   
 42  20  21  1   
 43  20  47  1   
 44  20  48  1   
 45  21  22  1   
 46  21  23  2   
 47  22  24  1   
 48  23  25  1   
 49  23  49  1   
 50  24  25  2   
 51  25  26  1   
 52  26  50  1   
 53  26  51  1   
 54  26  52  1   
@<TRIPOS>SUBSTRUCTURE
  1 ****  13 GROUP 4 **** **** 0

# MOE 2024.06 (io_trps.svl 2023.06)
