@<TRIPOS>MOLECULE
NONAME
51 52 1 0 0 
SMALL
USER_CHARGES


@<TRIPOS>ATOM
  1 O       -0.3200     1.0370    -1.2310 O.2   1 <1>  -0.5700 
  2 C       -0.4520     2.2300    -1.0880 C.2   1 <1>   0.5690 
  3 N       -1.1750     2.8030    -0.0730 N.am  1 <1>  -0.6600 
  4 C        0.2240     3.1410    -2.1070 C.3   1 <1>   0.1810 
  5 C       -1.2900     4.2980     0.0290 C.3   1 <1>   0.3640 
  6 C       -1.8210     2.0530     1.0400 C.3   1 <1>   0.2200 
  7 O        0.6710     4.3310    -1.5130 O.3   1 <1>  -0.5600 
  8 C       -2.7450     4.7120    -0.2040 C.ar  1 <1>  -0.1440 
  9 C       -0.3620     5.1070    -0.9230 C.3   1 <1>   0.2610 
 10 C       -0.7580     1.3620     1.8930 C.3   1 <1>  -0.2400 
 11 C       -2.8670     1.0660     0.5180 C.3   1 <1>  -0.2400 
 12 C       -3.3350     5.6520     0.6290 C.ar  1 <1>  -0.1500 
 13 C       -3.4940     4.1750    -1.2450 C.ar  1 <1>  -0.1500 
 14 C        0.2440     6.2860    -0.1520 C.2   1 <1>   0.5690 
 15 C       -4.6470     6.0450     0.4300 C.ar  1 <1>  -0.1500 
 16 C       -4.8060     4.5660    -1.4440 C.ar  1 <1>  -0.1500 
 17 O       -0.4830     7.1010     0.3650 O.2   1 <1>  -0.5700 
 18 N        1.5960     6.3890    -0.0600 N.am  1 <1>  -0.7300 
 19 C       -5.3840     5.5020    -0.6060 C.ar  1 <1>  -0.1500 
 20 C        2.3400     7.4390     0.6780 C.3   1 <1>   0.1400 
 21 C        2.4200     8.7160    -0.1560 C.3   1 <1>   0.1200 
 22 O        3.2760     9.6080     0.4860 O.3   1 <1>  -0.5600 
 23 C        3.3830    10.8420    -0.1520 C.3   1 <1>   0.1200 
 24 C        4.3180    11.7290     0.6710 C.3   1 <1>   0.1200 
 25 O        4.5320    12.9250    -0.0030 O.3   1 <1>  -0.6800 
 26 H       -0.4620     3.3810    -2.8990 H     1 <1>   0.0800 
 27 H        1.0790     2.6390    -2.5220 H     1 <1>   0.0800 
 28 H       -1.0260     4.5630     1.0390 H     1 <1>   0.0800 
 29 H       -2.3390     2.7550     1.6730 H     1 <1>   0.0800 
 30 H       -0.9490     5.5140    -1.7260 H     1 <1>   0.0800 
 31 H       -0.2550     0.5960     1.3300 H     1 <1>   0.0800 
 32 H       -1.2200     0.9010     2.7470 H     1 <1>   0.0800 
 33 H       -0.0370     2.0790     2.2400 H     1 <1>   0.0800 
 34 H       -2.4100     0.2810    -0.0560 H     1 <1>   0.0800 
 35 H       -3.5890     1.5780    -0.0910 H     1 <1>   0.0800 
 36 H       -3.3830     0.6160     1.3450 H     1 <1>   0.0800 
 37 H       -2.7740     6.0950     1.4360 H     1 <1>   0.1500 
 38 H       -3.0630     3.4410    -1.9040 H     1 <1>   0.1500 
 39 H       -5.0920     6.7770     1.0820 H     1 <1>   0.1500 
 40 H       -5.3780     4.1420    -2.2510 H     1 <1>   0.1500 
 41 H        2.1490     5.6730    -0.5450 H     1 <1>   0.3700 
 42 H       -6.4040     5.8080    -0.7600 H     1 <1>   0.1500 
 43 H        1.8330     7.6520     1.6040 H     1 <1>   0.0800 
 44 H        3.3320     7.0830     0.8940 H     1 <1>   0.0800 
 45 H        1.4430     9.1640    -0.2370 H     1 <1>   0.0800 
 46 H        2.8180     8.5030    -1.1330 H     1 <1>   0.0800 
 47 H        3.7840    10.6820    -1.1370 H     1 <1>   0.0800 
 48 H        2.4050    11.2890    -0.2080 H     1 <1>   0.0800 
 49 H        5.2690    11.2490     0.8210 H     1 <1>   0.0800 
 50 H        3.8690    11.9600     1.6210 H     1 <1>   0.0800 
 51 H        5.0780    12.7800    -0.8000 H     1 <1>   0.4000 
@<TRIPOS>BOND
  1   1   2  2   
  2   2   3  am  
  3   2   4  1   
  4   3   5  1   
  5   3   6  1   
  6   4   7  1   
  7   4  26  1   
  8   4  27  1   
  9   5   8  1   
 10   5   9  1   
 11   5  28  1   
 12   6  10  1   
 13   6  11  1   
 14   6  29  1   
 15   7   9  1   
 16   8  12  ar  
 17   8  13  ar  
 18   9  14  1   
 19   9  30  1   
 20  10  31  1   
 21  10  32  1   
 22  10  33  1   
 23  11  34  1   
 24  11  35  1   
 25  11  36  1   
 26  12  15  ar  
 27  12  37  1   
 28  13  16  ar  
 29  13  38  1   
 30  14  17  2   
 31  14  18  am  
 32  15  19  ar  
 33  15  39  1   
 34  16  19  ar  
 35  16  40  1   
 36  18  20  1   
 37  18  41  1   
 38  19  42  1   
 39  20  21  1   
 40  20  43  1   
 41  20  44  1   
 42  21  22  1   
 43  21  45  1   
 44  21  46  1   
 45  22  23  1   
 46  23  24  1   
 47  23  47  1   
 48  23  48  1   
 49  24  25  1   
 50  24  49  1   
 51  24  50  1   
 52  25  51  1   
@<TRIPOS>SUBSTRUCTURE
  1 ****   9 GROUP 4 **** **** 0

# MOE 2024.06 (io_trps.svl 2023.06)
