@<TRIPOS>MOLECULE
NONAME
46 48 1 0 0 
SMALL
USER_CHARGES


@<TRIPOS>ATOM
  1 S        0.2270    -0.2560     1.4600 S.o2  1 <1>   1.5760 
  2 O       -0.5010     0.1810     2.6310 O.2   1 <1>  -0.6500 
  3 O        1.5980    -0.7050     1.5670 O.2   1 <1>  -0.6500 
  4 N       -0.6920    -1.4410     0.6870 N.am  1 <1>  -0.8490 
  5 N        0.1730     0.9650     0.2960 N.am  1 <1>  -0.8490 
  6 C       -2.1150    -1.0300     0.6160 C.3   1 <1>   0.1960 
  7 C       -0.5760    -2.7350     1.3740 C.3   1 <1>   0.1960 
  8 C        0.9430     0.6000    -0.8970 C.3   1 <1>   0.1960 
  9 C        0.6430     2.2320     0.8550 C.3   1 <1>   0.1960 
 10 C       -2.9670    -1.8130    -0.4020 C.3   1 <1>   0.2090 
 11 C       -0.5370    -3.8950     0.3730 C.3   1 <1>  -0.1600 
 12 C        0.7640     1.6630    -1.9850 C.3   1 <1>  -0.1600 
 13 C        0.4620     3.3610    -0.1660 C.3   1 <1>  -0.1600 
 14 N       -2.8600    -3.2990    -0.2530 N.pl3 1 <1>  -0.8380 
 15 C       -1.5630    -3.8170    -0.7580 C.3   1 <1>   0.2090 
 16 C        1.1830     3.0490    -1.4820 C.3   1 <1>  -0.1600 
 17 C       -3.9920    -4.0730    -0.4560 C.ar  1 <1>   0.4100 
 18 N       -4.6570    -3.8010    -1.5740 N.ar  1 <1>  -0.6200 
 19 C       -4.3960    -5.0790     0.4560 C.ar  1 <1>   0.3830 
 20 C       -5.7160    -4.5670    -1.7430 C.ar  1 <1>   0.1600 
 21 N       -5.4720    -5.8460     0.2640 N.ar  1 <1>  -0.6200 
 22 C       -3.6110    -5.2760     1.6430 C.1   1 <1>   0.4840 
 23 C       -6.1110    -5.5570    -0.8560 C.ar  1 <1>   0.1600 
 24 N       -2.9710    -5.4300     2.5790 N.1   1 <1>  -0.5570 
 25 H       -2.1730     0.0070     0.3330 H     1 <1>   0.0800 
 26 H       -2.5690    -1.1090     1.5890 H     1 <1>   0.0800 
 27 H       -1.3950    -2.8740     2.0610 H     1 <1>   0.0800 
 28 H        0.3300    -2.7800     1.9560 H     1 <1>   0.0800 
 29 H        0.6000    -0.3490    -1.2760 H     1 <1>   0.0800 
 30 H        1.9880     0.5040    -0.6480 H     1 <1>   0.0800 
 31 H        1.6810     2.1470     1.1350 H     1 <1>   0.0800 
 32 H        0.0740     2.4710     1.7400 H     1 <1>   0.0800 
 33 H       -2.6710    -1.5300    -1.3980 H     1 <1>   0.0800 
 34 H       -3.9950    -1.5160    -0.2830 H     1 <1>   0.0800 
 35 H       -0.6810    -4.8120     0.9150 H     1 <1>   0.0800 
 36 H        0.4450    -3.9420    -0.0610 H     1 <1>   0.0800 
 37 H       -0.2690     1.6810    -2.2850 H     1 <1>   0.0800 
 38 H        1.3520     1.3960    -2.8450 H     1 <1>   0.0800 
 39 H        0.8410     4.2790     0.2470 H     1 <1>   0.0800 
 40 H       -0.5900     3.4930    -0.3500 H     1 <1>   0.0800 
 41 H       -1.6950    -4.7920    -1.1970 H     1 <1>   0.0800 
 42 H       -1.1890    -3.1630    -1.5270 H     1 <1>   0.0800 
 43 H        0.9470     3.7970    -2.2190 H     1 <1>   0.0800 
 44 H        2.2480     3.0630    -1.3180 H     1 <1>   0.0800 
 45 H       -6.3040    -4.4050    -2.6300 H     1 <1>   0.1500 
 46 H       -6.9920    -6.1330    -1.0830 H     1 <1>   0.1500 
@<TRIPOS>BOND
  1   1   2  2   
  2   1   3  2   
  3   1   4  am  
  4   1   5  am  
  5   4   6  1   
  6   4   7  1   
  7   5   8  1   
  8   5   9  1   
  9   6  10  1   
 10   6  25  1   
 11   6  26  1   
 12   7  11  1   
 13   7  27  1   
 14   7  28  1   
 15   8  12  1   
 16   8  29  1   
 17   8  30  1   
 18   9  13  1   
 19   9  31  1   
 20   9  32  1   
 21  10  14  1   
 22  10  33  1   
 23  10  34  1   
 24  11  15  1   
 25  11  35  1   
 26  11  36  1   
 27  12  16  1   
 28  12  37  1   
 29  12  38  1   
 30  13  16  1   
 31  13  39  1   
 32  13  40  1   
 33  14  15  1   
 34  14  17  1   
 35  15  41  1   
 36  15  42  1   
 37  16  43  1   
 38  16  44  1   
 39  17  18  ar  
 40  17  19  ar  
 41  18  20  ar  
 42  19  21  ar  
 43  19  22  1   
 44  20  23  ar  
 45  20  45  1   
 46  21  23  ar  
 47  22  24  3   
 48  23  46  1   
@<TRIPOS>SUBSTRUCTURE
  1 ****   6 GROUP 4 **** **** 0

# MOE 2024.06 (io_trps.svl 2023.06)
