@<TRIPOS>MOLECULE
NONAME
50 52 1 0 0 
SMALL
USER_CHARGES


@<TRIPOS>ATOM
  1 F       -1.7730     1.3660    -2.2970 F     1 <1>  -0.1900 
  2 C       -2.3720     1.4820    -1.1390 C.ar  1 <1>   0.1900 
  3 C       -1.8010     2.1960    -0.0800 C.ar  1 <1>   0.0820 
  4 C       -3.6040     0.8650    -1.0280 C.ar  1 <1>  -0.1500 
  5 O       -0.6040     2.8450    -0.0730 O.3   1 <1>  -0.3630 
  6 C       -2.5180     2.2630     1.1050 C.ar  1 <1>  -0.1500 
  7 C       -4.3100     0.9530     0.1640 C.ar  1 <1>  -0.1430 
  8 C        0.3070     2.7940    -1.1490 C.3   1 <1>   0.0400 
  9 C       -3.7550     1.6500     1.2300 C.ar  1 <1>  -0.1500 
 10 C       -5.6750     0.3040     0.3010 C.3   1 <1>   0.4870 
 11 N       -6.6700     1.1150    -0.4550 N.4   1 <1>  -0.9590 
 12 C       -6.7940     2.4980     0.0920 C.3   1 <1>   0.3430 
 13 C       -7.9850     0.4220    -0.5340 C.3   1 <1>   0.3430 
 14 C       -7.7240     3.3220    -0.7940 C.3   1 <1>  -0.1600 
 15 C       -8.9360     1.2260    -1.4130 C.3   1 <1>  -0.1600 
 16 C       -9.1100     2.6720    -0.9220 C.3   1 <1>   0.2800 
 17 O       -9.7910     3.3160    -1.9590 O.3   1 <1>  -0.5600 
 18 C       -9.9250     2.7480     0.3990 C.3   1 <1>  -0.1600 
 19 C      -10.4220     4.5340    -1.6750 C.3   1 <1>   0.1200 
 20 C      -11.4080     3.0470     0.1630 C.3   1 <1>   0.2800 
 21 C      -11.5540     4.3350    -0.6530 C.3   1 <1>  -0.1600 
 22 O      -11.9220     2.0260    -0.5900 O.3   1 <1>  -0.6800 
 23 C      -12.2130     3.0840     1.4590 C.3   1 <1>  -0.2400 
 24 H       -3.9870     0.3250    -1.8760 H     1 <1>   0.1500 
 25 H       -2.0930     2.8020     1.9340 H     1 <1>   0.1500 
 26 H        1.1900     3.3380    -0.8660 H     1 <1>   0.0800 
 27 H       -0.1410     3.2530    -2.0120 H     1 <1>   0.0800 
 28 H        0.5610     1.7670    -1.3460 H     1 <1>   0.0800 
 29 H       -4.2700     1.7250     2.1740 H     1 <1>   0.1500 
 30 H       -5.9530     0.2450     1.3410 H     1 <1>   0.0800 
 31 H       -5.6320    -0.6970    -0.0970 H     1 <1>   0.0800 
 32 H       -6.3040     1.2100    -1.4120 H     1 <1>   0.4500 
 33 H       -5.8260     2.9730     0.1230 H     1 <1>   0.0800 
 34 H       -7.1870     2.4630     1.0960 H     1 <1>   0.0800 
 35 H       -8.4070     0.3160     0.4530 H     1 <1>   0.0800 
 36 H       -7.8620    -0.5640    -0.9550 H     1 <1>   0.0800 
 37 H       -7.2790     3.4230    -1.7690 H     1 <1>   0.0800 
 38 H       -7.8120     4.3070    -0.3730 H     1 <1>   0.0800 
 39 H       -9.8860     0.7240    -1.4310 H     1 <1>   0.0800 
 40 H       -8.5560     1.2300    -2.4200 H     1 <1>   0.0800 
 41 H       -9.5350     3.5390     1.0140 H     1 <1>   0.0800 
 42 H       -9.8310     1.8470     0.9750 H     1 <1>   0.0800 
 43 H      -10.8170     4.9240    -2.5980 H     1 <1>   0.0800 
 44 H       -9.6860     5.2250    -1.3030 H     1 <1>   0.0800 
 45 H      -12.5090     4.3500    -1.1490 H     1 <1>   0.0800 
 46 H      -11.5420     5.1820     0.0080 H     1 <1>   0.0800 
 47 H      -11.5920     2.1480    -1.5040 H     1 <1>   0.4000 
 48 H      -11.8500     3.8620     2.1060 H     1 <1>   0.0800 
 49 H      -12.1350     2.1450     1.9770 H     1 <1>   0.0800 
 50 H      -13.2490     3.2780     1.2450 H     1 <1>   0.0800 
@<TRIPOS>BOND
  1   1   2  1   
  2   2   3  ar  
  3   2   4  ar  
  4   3   5  1   
  5   3   6  ar  
  6   4   7  ar  
  7   4  24  1   
  8   5   8  1   
  9   6   9  ar  
 10   6  25  1   
 11   7   9  ar  
 12   7  10  1   
 13   8  26  1   
 14   8  27  1   
 15   8  28  1   
 16   9  29  1   
 17  10  11  1   
 18  10  30  1   
 19  10  31  1   
 20  11  12  1   
 21  11  13  1   
 22  11  32  1   
 23  12  14  1   
 24  12  33  1   
 25  12  34  1   
 26  13  15  1   
 27  13  35  1   
 28  13  36  1   
 29  14  16  1   
 30  14  37  1   
 31  14  38  1   
 32  15  16  1   
 33  15  39  1   
 34  15  40  1   
 35  16  17  1   
 36  16  18  1   
 37  17  19  1   
 38  18  20  1   
 39  18  41  1   
 40  18  42  1   
 41  19  21  1   
 42  19  43  1   
 43  19  44  1   
 44  20  21  1   
 45  20  22  1   
 46  20  23  1   
 47  21  45  1   
 48  21  46  1   
 49  22  47  1   
 50  23  48  1   
 51  23  49  1   
 52  23  50  1   
@<TRIPOS>SUBSTRUCTURE
  1 ****  12 GROUP 4 **** **** 0

# MOE 2024.06 (io_trps.svl 2023.06)
