@<TRIPOS>MOLECULE
NONAME
59 62 1 0 0 
SMALL
USER_CHARGES


@<TRIPOS>ATOM
  1 O       -0.8650     0.9980     1.8390 O.3   1 <1>  -0.5600 
  2 C        0.0710     0.9250     0.8170 C.3   1 <1>   0.1200 
  3 C       -2.1300     1.2010     1.2820 C.3   1 <1>   0.1200 
  4 C       -0.3730     2.0410    -0.1210 C.3   1 <1>   0.4230 
  5 C       -1.8860     1.8420    -0.0980 C.3   1 <1>  -0.0800 
  6 N       -0.0670     3.3490     0.5210 N.4   1 <1>  -0.9060 
  7 C       -2.3600     0.9320    -1.2500 C.3   1 <1>  -0.0170 
  8 C        1.3480     3.7730     0.4910 C.3   1 <1>   0.4230 
  9 C       -3.8690     0.7560    -1.2180 C.ar  1 <1>  -0.1430 
 10 C        1.5040     4.9420     1.4660 C.3   1 <1>  -0.1600 
 11 C        1.7460     4.1450    -0.9430 C.3   1 <1>  -0.1600 
 12 C       -4.4620    -0.4010    -0.7500 C.ar  1 <1>  -0.1500 
 13 C       -4.7270     1.7440    -1.6600 C.ar  1 <1>  -0.1500 
 14 C        2.9160     5.5130     1.3940 C.3   1 <1>   0.2090 
 15 C        3.1530     4.7350    -0.9680 C.3   1 <1>   0.2090 
 16 C       -5.8430    -0.5040    -0.7340 C.ar  1 <1>   0.1600 
 17 C       -6.0960     1.5380    -1.6020 C.ar  1 <1>   0.1600 
 18 N        3.1780     5.8600    -0.0160 N.pl3 1 <1>  -0.8380 
 19 N       -6.6720     0.4400    -1.1440 N.ar  1 <1>  -0.6200 
 20 C        4.1450     6.8420    -0.2320 C.ar  1 <1>   0.1000 
 21 C        3.7950     8.1580    -0.5560 C.ar  1 <1>  -0.1430 
 22 C        5.4890     6.5070    -0.1080 C.ar  1 <1>  -0.1500 
 23 C        4.7930     9.1140    -0.7340 C.ar  1 <1>  -0.1430 
 24 C        2.3190     8.5280    -0.7020 C.3   1 <1>  -0.0970 
 25 C        6.4750     7.4520    -0.2970 C.ar  1 <1>  -0.1500 
 26 C        6.1260     8.7520    -0.6070 C.ar  1 <1>  -0.1500 
 27 C        4.4770    10.5680    -1.0630 C.3   1 <1>  -0.0970 
 28 H        1.0600     1.0540     1.2190 H     1 <1>   0.0800 
 29 H       -0.0090    -0.0440     0.3520 H     1 <1>   0.0800 
 30 H       -2.6240     0.2460     1.2150 H     1 <1>   0.0800 
 31 H       -2.6930     1.8450     1.9370 H     1 <1>   0.0800 
 32 H        0.0490     1.9670    -1.1100 H     1 <1>   0.0800 
 33 H       -2.4130     2.7770    -0.1750 H     1 <1>   0.0800 
 34 H       -0.6430     4.0960     0.1240 H     1 <1>   0.4500 
 35 H       -0.3520     3.2320     1.5050 H     1 <1>   0.4500 
 36 H       -1.8870    -0.0340    -1.1930 H     1 <1>   0.0800 
 37 H       -2.0890     1.3680    -2.1970 H     1 <1>   0.0800 
 38 H        1.9810     2.9680     0.8300 H     1 <1>   0.0800 
 39 H        0.8180     5.7350     1.2220 H     1 <1>   0.0800 
 40 H        1.3180     4.6180     2.4740 H     1 <1>   0.0800 
 41 H        1.7350     3.2810    -1.5810 H     1 <1>   0.0800 
 42 H        1.0740     4.8830    -1.3420 H     1 <1>   0.0800 
 43 H       -3.8730    -1.2270    -0.3970 H     1 <1>   0.1500 
 44 H       -4.3540     2.6710    -2.0520 H     1 <1>   0.1500 
 45 H        3.6460     4.7980     1.7350 H     1 <1>   0.0800 
 46 H        2.9950     6.3990     2.0040 H     1 <1>   0.0800 
 47 H        3.3920     5.0950    -1.9560 H     1 <1>   0.0800 
 48 H        3.8890     4.0010    -0.6840 H     1 <1>   0.0800 
 49 H       -6.2900    -1.4120    -0.3650 H     1 <1>   0.1500 
 50 H       -6.7530     2.3180    -1.9500 H     1 <1>   0.1500 
 51 H        5.7620     5.5000     0.1400 H     1 <1>   0.1500 
 52 H        2.1780     9.3400    -1.3880 H     1 <1>   0.0800 
 53 H        1.9240     8.8060     0.2580 H     1 <1>   0.0800 
 54 H        1.7530     7.6970    -1.0800 H     1 <1>   0.0800 
 55 H        7.5110     7.1820    -0.2000 H     1 <1>   0.1500 
 56 H        6.9030     9.4820    -0.7480 H     1 <1>   0.1500 
 57 H        5.3570    11.1800    -0.9940 H     1 <1>   0.0800 
 58 H        3.7480    10.9540    -0.3740 H     1 <1>   0.0800 
 59 H        4.0920    10.6400    -2.0640 H     1 <1>   0.0800 
@<TRIPOS>BOND
  1   1   2  1   
  2   1   3  1   
  3   2   4  1   
  4   2  28  1   
  5   2  29  1   
  6   3   5  1   
  7   3  30  1   
  8   3  31  1   
  9   4   5  1   
 10   4   6  1   
 11   4  32  1   
 12   5   7  1   
 13   5  33  1   
 14   6   8  1   
 15   6  34  1   
 16   6  35  1   
 17   7   9  1   
 18   7  36  1   
 19   7  37  1   
 20   8  10  1   
 21   8  11  1   
 22   8  38  1   
 23   9  12  ar  
 24   9  13  ar  
 25  10  14  1   
 26  10  39  1   
 27  10  40  1   
 28  11  15  1   
 29  11  41  1   
 30  11  42  1   
 31  12  16  ar  
 32  12  43  1   
 33  13  17  ar  
 34  13  44  1   
 35  14  18  1   
 36  14  45  1   
 37  14  46  1   
 38  15  18  1   
 39  15  47  1   
 40  15  48  1   
 41  16  19  ar  
 42  16  49  1   
 43  17  19  ar  
 44  17  50  1   
 45  18  20  1   
 46  20  21  ar  
 47  20  22  ar  
 48  21  23  ar  
 49  21  24  1   
 50  22  25  ar  
 51  22  51  1   
 52  23  26  ar  
 53  23  27  1   
 54  24  52  1   
 55  24  53  1   
 56  24  54  1   
 57  25  26  ar  
 58  25  55  1   
 59  26  56  1   
 60  27  57  1   
 61  27  58  1   
 62  27  59  1   
@<TRIPOS>SUBSTRUCTURE
  1 ****   6 GROUP 4 **** **** 0

# MOE 2024.06 (io_trps.svl 2023.06)
