@<TRIPOS>MOLECULE
NONAME
40 42 1 0 0 
SMALL
USER_CHARGES


@<TRIPOS>ATOM
  1 F       -0.4580     0.8230     0.9090 F     1 <1>  -0.1900 
  2 C       -1.3830     1.1440     0.0280 C.ar  1 <1>   0.1900 
  3 C       -1.6740     2.4810    -0.2670 C.ar  1 <1>   0.4100 
  4 C       -2.0640     0.1380    -0.6170 C.ar  1 <1>   0.1660 
  5 N       -2.5980     2.7440    -1.1790 N.ar  1 <1>  -0.6200 
  6 N       -1.0770     3.5960     0.3170 N.pl3 1 <1>  -0.8380 
  7 N       -2.9940     0.4190    -1.5160 N.ar  1 <1>  -0.6200 
  8 C       -1.8010    -1.3390    -0.3490 C.3   1 <1>  -0.0170 
  9 C       -3.1970     1.7070    -1.7370 C.ar  1 <1>   0.4700 
 10 C       -0.6000     4.6990    -0.5990 C.3   1 <1>   0.5280 
 11 C       -0.4520     3.5280     1.6680 C.3   1 <1>   0.1290 
 12 C       -2.8110    -1.9160     0.6500 C.3   1 <1>  -0.2400 
 13 C        0.9190     4.9560    -0.4710 C.ar  1 <1>   0.1660 
 14 C       -1.4360     5.9990    -0.4440 C.3   1 <1>  -0.1950 
 15 N        1.7170     4.2310    -1.2530 N.ar  1 <1>  -0.6200 
 16 C        1.4050     5.9060     0.4240 C.ar  1 <1>  -0.1500 
 17 C       -2.0460     6.5170     0.8280 C.3   1 <1>  -0.2000 
 18 C       -2.9260     6.0030    -0.2740 C.3   1 <1>  -0.2000 
 19 C        3.0160     4.4540    -1.1380 C.ar  1 <1>   0.1600 
 20 C        2.7610     6.1300     0.5320 C.ar  1 <1>  -0.1500 
 21 C        3.5810     5.3760    -0.2770 C.ar  1 <1>  -0.1500 
 22 H       -0.8040    -1.4790     0.0300 H     1 <1>   0.0800 
 23 H       -1.8690    -1.8780    -1.2780 H     1 <1>   0.0800 
 24 H       -3.9490     1.9440    -2.4710 H     1 <1>   0.1500 
 25 H       -0.7480     4.3760    -1.6150 H     1 <1>   0.0800 
 26 H       -1.0380     2.8960     2.3130 H     1 <1>   0.0800 
 27 H       -0.3980     4.5050     2.1110 H     1 <1>   0.0800 
 28 H        0.5450     3.1280     1.5910 H     1 <1>   0.0800 
 29 H       -2.7420    -1.3980     1.5900 H     1 <1>   0.0800 
 30 H       -2.6170    -2.9600     0.8120 H     1 <1>   0.0800 
 31 H       -3.8110    -1.8050     0.2670 H     1 <1>   0.0800 
 32 H       -1.0570     6.7440    -1.1210 H     1 <1>   0.1000 
 33 H        0.7310     6.4710     1.0400 H     1 <1>   0.1500 
 34 H       -2.0290     7.5760     1.0180 H     1 <1>   0.1000 
 35 H       -2.0320     5.9390     1.7330 H     1 <1>   0.1000 
 36 H       -3.4420     5.0720    -0.1120 H     1 <1>   0.1000 
 37 H       -3.5090     6.7000    -0.8500 H     1 <1>   0.1000 
 38 H        3.6650     3.8690    -1.7670 H     1 <1>   0.1500 
 39 H        3.1590     6.8590     1.2160 H     1 <1>   0.1500 
 40 H        4.6480     5.5000    -0.2430 H     1 <1>   0.1500 
@<TRIPOS>BOND
  1   1   2  1   
  2   2   3  ar  
  3   2   4  ar  
  4   3   5  ar  
  5   3   6  1   
  6   4   7  ar  
  7   4   8  1   
  8   5   9  ar  
  9   6  10  1   
 10   6  11  1   
 11   7   9  ar  
 12   8  12  1   
 13   8  22  1   
 14   8  23  1   
 15   9  24  1   
 16  10  13  1   
 17  10  14  1   
 18  10  25  1   
 19  11  26  1   
 20  11  27  1   
 21  11  28  1   
 22  12  29  1   
 23  12  30  1   
 24  12  31  1   
 25  13  15  ar  
 26  13  16  ar  
 27  14  17  1   
 28  14  18  1   
 29  14  32  1   
 30  15  19  ar  
 31  16  20  ar  
 32  16  33  1   
 33  17  18  1   
 34  17  34  1   
 35  17  35  1   
 36  18  36  1   
 37  18  37  1   
 38  19  21  ar  
 39  19  38  1   
 40  20  21  ar  
 41  20  39  1   
 42  21  40  1   
@<TRIPOS>SUBSTRUCTURE
  1 ****   6 GROUP 4 **** **** 0

# MOE 2024.06 (io_trps.svl 2023.06)
