@<TRIPOS>MOLECULE
NONAME
59 63 1 0 0 
SMALL
USER_CHARGES


@<TRIPOS>ATOM
  1 O        1.4310     1.0870    -1.2020 O.2   1 <1>  -0.5700 
  2 C        2.4330     1.2740    -0.5310 C.2   1 <1>   0.5440 
  3 N        2.3160     1.9820     0.6370 N.am  1 <1>  -0.6600 
  4 C        3.7090     0.7780    -0.9760 C.ar  1 <1>   0.0860 
  5 C        3.5060     2.3930     1.4070 C.3   1 <1>   0.7690 
  6 C        1.1480     2.8920     0.8370 C.3   1 <1>   0.1400 
  7 C        4.8050     0.8990    -0.1180 C.ar  1 <1>   0.1000 
  8 C        3.8940     0.1740    -2.2220 C.ar  1 <1>  -0.1500 
  9 N        4.6630     1.4910     1.1340 N.pl3 1 <1>  -0.8380 
 10 C        3.8000     3.8570     1.0880 C.2   1 <1>  -0.3320 
 11 C        1.4520     4.2650     0.2120 C.3   1 <1>   0.0210 
 12 C        6.0440     0.4050    -0.5230 C.ar  1 <1>  -0.1500 
 13 C        5.1290    -0.3050    -2.6130 C.ar  1 <1>  -0.1500 
 14 C        4.9560     0.5980     2.2920 C.3   1 <1>   0.1290 
 15 N        4.9640     4.5600     1.2980 N.pl3 1 <1>   0.0480 
 16 C        2.8680     4.6880     0.5620 C.2   1 <1>  -0.1810 
 17 C        6.2100    -0.1900    -1.7560 C.ar  1 <1>  -0.1500 
 18 C        4.7490     5.8540     0.8700 C.ar  1 <1>  -0.1520 
 19 C        6.2670     4.0910     1.8230 C.3   1 <1>   0.1570 
 20 C        3.4420     5.9640     0.4070 C.ar  1 <1>   0.0000 
 21 C        5.6050     6.9610     0.8360 C.ar  1 <1>  -0.1500 
 22 C        7.2780     3.9680     0.7010 C.2   1 <1>   0.5690 
 23 C        2.9730     7.1870    -0.0820 C.ar  1 <1>  -0.1500 
 24 C        5.1330     8.1600     0.3530 C.ar  1 <1>  -0.1500 
 25 O        8.3880     4.4080     0.8750 O.2   1 <1>  -0.5700 
 26 N        6.9100     3.3680    -0.4580 N.am  1 <1>  -0.7300 
 27 C        3.8150     8.2740    -0.1050 C.ar  1 <1>  -0.1500 
 28 C        7.7530     3.1670    -1.6710 C.3   1 <1>   0.2810 
 29 C        9.1210     2.5010    -1.3860 C.2   1 <1>   0.6590 
 30 C        7.8330     4.5080    -2.4120 C.3   1 <1>  -0.2400 
 31 O        9.2000     1.3240    -1.1260 O.2   1 <1>  -0.5700 
 32 O       10.2100     3.2640    -1.4720 O.3   1 <1>  -0.4300 
 33 C       11.4960     2.7650    -1.1780 C.3   1 <1>   0.0400 
 34 H        3.2600     2.3300     2.4530 H     1 <1>   0.0800 
 35 H        0.2590     2.4740     0.3950 H     1 <1>   0.0800 
 36 H        0.9700     3.0080     1.8920 H     1 <1>   0.0800 
 37 H        3.0510     0.0820    -2.8850 H     1 <1>   0.1500 
 38 H        1.3550     4.2000    -0.8570 H     1 <1>   0.0800 
 39 H        0.7460     4.9910     0.5730 H     1 <1>   0.0800 
 40 H        6.8920     0.4970     0.1330 H     1 <1>   0.1500 
 41 H        5.2520    -0.7690    -3.5770 H     1 <1>   0.1500 
 42 H        5.8100    -0.0250     2.0880 H     1 <1>   0.0800 
 43 H        4.1090    -0.0400     2.4830 H     1 <1>   0.0800 
 44 H        5.1640     1.1810     3.1720 H     1 <1>   0.0800 
 45 H        7.1790    -0.5590    -2.0480 H     1 <1>   0.1500 
 46 H        6.6240     4.8050     2.5390 H     1 <1>   0.0800 
 47 H        6.1560     3.1480     2.3130 H     1 <1>   0.0800 
 48 H        6.6200     6.8730     1.1800 H     1 <1>   0.1500 
 49 H        1.9600     7.2580    -0.4340 H     1 <1>   0.1500 
 50 H        5.7760     9.0220     0.3200 H     1 <1>   0.1500 
 51 H        5.9760     2.9380    -0.4990 H     1 <1>   0.3700 
 52 H        3.4700     9.2220    -0.4780 H     1 <1>   0.1500 
 53 H        7.2240     2.4810    -2.3080 H     1 <1>   0.0800 
 54 H        8.3520     5.2340    -1.8110 H     1 <1>   0.0800 
 55 H        6.8460     4.8720    -2.6310 H     1 <1>   0.0800 
 56 H        8.3680     4.3850    -3.3360 H     1 <1>   0.0800 
 57 H       12.2070     3.5610    -1.3080 H     1 <1>   0.0800 
 58 H       11.7170     1.9530    -1.8490 H     1 <1>   0.0800 
 59 H       11.5080     2.4200    -0.1590 H     1 <1>   0.0800 
@<TRIPOS>BOND
  1   1   2  2   
  2   2   3  am  
  3   2   4  1   
  4   3   5  1   
  5   3   6  1   
  6   4   7  ar  
  7   4   8  ar  
  8   5   9  1   
  9   5  10  1   
 10   5  34  1   
 11   6  11  1   
 12   6  35  1   
 13   6  36  1   
 14   7   9  1   
 15   7  12  ar  
 16   8  13  ar  
 17   8  37  1   
 18   9  14  1   
 19  10  15  1   
 20  10  16  2   
 21  11  16  1   
 22  11  38  1   
 23  11  39  1   
 24  12  17  ar  
 25  12  40  1   
 26  13  17  ar  
 27  13  41  1   
 28  14  42  1   
 29  14  43  1   
 30  14  44  1   
 31  15  18  1   
 32  15  19  1   
 33  16  20  1   
 34  17  45  1   
 35  18  20  ar  
 36  18  21  ar  
 37  19  22  1   
 38  19  46  1   
 39  19  47  1   
 40  20  23  ar  
 41  21  24  ar  
 42  21  48  1   
 43  22  25  2   
 44  22  26  am  
 45  23  27  ar  
 46  23  49  1   
 47  24  27  ar  
 48  24  50  1   
 49  26  28  1   
 50  26  51  1   
 51  27  52  1   
 52  28  29  1   
 53  28  30  1   
 54  28  53  1   
 55  29  31  2   
 56  29  32  1   
 57  30  54  1   
 58  30  55  1   
 59  30  56  1   
 60  32  33  1   
 61  33  57  1   
 62  33  58  1   
 63  33  59  1   
@<TRIPOS>SUBSTRUCTURE
  1 ****  26 GROUP 4 **** **** 0

# MOE 2024.06 (io_trps.svl 2023.06)
