@<TRIPOS>MOLECULE
NONAME
44 46 1 0 0 
SMALL
USER_CHARGES


@<TRIPOS>ATOM
  1 CL       1.9340     2.3560     3.6170 Cl    1 <1>  -0.1770 
  2 C        1.1580     2.9070     2.1540 C.ar  1 <1>   0.1770 
  3 C        1.8210     3.7980     1.3390 C.ar  1 <1>  -0.1500 
  4 C       -0.1040     2.4420     1.8370 C.ar  1 <1>  -0.1500 
  5 C        1.2210     4.2490     0.1690 C.ar  1 <1>   0.1000 
  6 C       -0.7080     2.8870     0.6730 C.ar  1 <1>  -0.1500 
  7 N        1.8920     5.1490    -0.6560 N.pl3 1 <1>  -0.8380 
  8 C       -0.0560     3.7840    -0.1590 C.ar  1 <1>  -0.1430 
  9 C        2.0150     6.5640    -0.1990 C.3   1 <1>   0.2090 
 10 C        2.9760     4.6170    -1.5320 C.3   1 <1>   0.2090 
 11 C       -0.7470     4.2560    -1.4320 C.3   1 <1>  -0.0970 
 12 C        3.4420     6.8880     0.2900 C.3   1 <1>   0.3430 
 13 C        4.3760     4.9920    -1.0010 C.3   1 <1>   0.3430 
 14 N        4.5140     6.4660    -0.6950 N.4   1 <1>  -0.9590 
 15 C        5.8920     6.7850    -0.2240 C.3   1 <1>   0.3430 
 16 C        6.1250     8.2970    -0.2430 C.3   1 <1>  -0.1600 
 17 C        7.5480     8.6640     0.2230 C.3   1 <1>   0.0960 
 18 N        7.6910    10.1300     0.3440 N.pl3 1 <1>   0.3140 
 19 N        6.9230    10.8550     1.1260 N.2   1 <1>  -0.4180 
 20 C        8.5280    10.9500    -0.2620 C.2   1 <1>   0.0360 
 21 N        7.3020    12.0730     0.9770 N.2   1 <1>   0.0000 
 22 N        8.3060    12.1510     0.1100 N.2   1 <1>  -0.3380 
 23 H        2.7970     4.1330     1.6200 H     1 <1>   0.1500 
 24 H       -0.6010     1.7470     2.4890 H     1 <1>   0.1500 
 25 H       -1.6910     2.5280     0.4230 H     1 <1>   0.1500 
 26 H        1.3140     6.7430     0.6000 H     1 <1>   0.0800 
 27 H        1.7500     7.2180    -1.0110 H     1 <1>   0.0800 
 28 H        2.8450     5.0050    -2.5270 H     1 <1>   0.0800 
 29 H        2.8920     3.5440    -1.5910 H     1 <1>   0.0800 
 30 H       -0.1610     3.9800    -2.2890 H     1 <1>   0.0800 
 31 H       -0.8520     5.3260    -1.4140 H     1 <1>   0.0800 
 32 H       -1.7240     3.8190    -1.5300 H     1 <1>   0.0800 
 33 H        3.5960     6.3810     1.2280 H     1 <1>   0.0800 
 34 H        3.5040     7.9470     0.4770 H     1 <1>   0.0800 
 35 H        5.1120     4.6970    -1.7320 H     1 <1>   0.0800 
 36 H        4.5560     4.4200    -0.1060 H     1 <1>   0.0800 
 37 H        4.3320     6.9720    -1.5730 H     1 <1>   0.4500 
 38 H        6.6130     6.3110    -0.8720 H     1 <1>   0.0800 
 39 H        6.0350     6.4030     0.7740 H     1 <1>   0.0800 
 40 H        5.4220     8.7720     0.4180 H     1 <1>   0.0800 
 41 H        5.9790     8.6750    -1.2400 H     1 <1>   0.0800 
 42 H        8.2830     8.3010    -0.4720 H     1 <1>   0.0800 
 43 H        7.7460     8.2390     1.1910 H     1 <1>   0.0800 
 44 H        9.2810    10.6440    -0.9630 H     1 <1>   0.1500 
@<TRIPOS>BOND
  1   1   2  1   
  2   2   3  ar  
  3   2   4  ar  
  4   3   5  ar  
  5   3  23  1   
  6   4   6  ar  
  7   4  24  1   
  8   5   7  1   
  9   5   8  ar  
 10   6   8  ar  
 11   6  25  1   
 12   7   9  1   
 13   7  10  1   
 14   8  11  1   
 15   9  12  1   
 16   9  26  1   
 17   9  27  1   
 18  10  13  1   
 19  10  28  1   
 20  10  29  1   
 21  11  30  1   
 22  11  31  1   
 23  11  32  1   
 24  12  14  1   
 25  12  33  1   
 26  12  34  1   
 27  13  14  1   
 28  13  35  1   
 29  13  36  1   
 30  14  15  1   
 31  14  37  1   
 32  15  16  1   
 33  15  38  1   
 34  15  39  1   
 35  16  17  1   
 36  16  40  1   
 37  16  41  1   
 38  17  18  1   
 39  17  42  1   
 40  17  43  1   
 41  18  19  1   
 42  18  20  1   
 43  19  21  2   
 44  20  22  2   
 45  20  44  1   
 46  21  22  1   
@<TRIPOS>SUBSTRUCTURE
  1 ****  12 GROUP 4 **** **** 0

# MOE 2024.06 (io_trps.svl 2023.06)
