@<TRIPOS>MOLECULE
NONAME
56 59 1 0 0 
SMALL
USER_CHARGES


@<TRIPOS>ATOM
  1 O       -0.4100    -1.4150     2.1550 O.2   1 <1>  -0.5700 
  2 C        0.2570    -1.9530     1.3040 C.2   1 <1>   0.5690 
  3 N        1.4390    -1.4340     0.8650 N.am  1 <1>  -0.6600 
  4 C       -0.2740    -3.2130     0.6530 C.3   1 <1>  -0.0990 
  5 C        2.2410    -2.1220    -0.1890 C.3   1 <1>   0.1400 
  6 C        1.9620    -0.1350     1.3760 C.3   1 <1>   0.2840 
  7 C        0.6050    -4.4530     0.8630 C.3   1 <1>   0.1200 
  8 C        2.8120    -3.4920     0.2720 C.3   1 <1>   0.2800 
  9 C        1.8170     0.9570     0.3240 C.ar  1 <1>   0.1660 
 10 O        1.9450    -4.1660     1.1570 O.3   1 <1>  -0.5600 
 11 C        3.0990    -4.3920    -0.9510 C.3   1 <1>  -0.1600 
 12 C        4.0920    -3.2740     1.1130 C.3   1 <1>  -0.1600 
 13 N        2.8920     1.2600    -0.3970 N.ar  1 <1>  -0.6200 
 14 C        0.5830     1.5720     0.1730 C.ar  1 <1>  -0.1500 
 15 C        4.1530    -5.4500    -0.6320 C.3   1 <1>   0.1400 
 16 C        5.3830    -3.4270     0.3070 C.3   1 <1>   0.1400 
 17 C        2.7230     2.2190    -1.2940 C.ar  1 <1>   0.1600 
 18 C        0.4240     2.5660    -0.7680 C.ar  1 <1>  -0.1500 
 19 N        5.4510    -4.7840    -0.3150 N.am  1 <1>  -0.6600 
 20 C        1.5330     2.8920    -1.5170 C.ar  1 <1>  -0.1500 
 21 C        6.6300    -5.4940    -0.4090 C.2   1 <1>   0.7160 
 22 O        6.5750    -6.6970    -0.5930 O.2   1 <1>  -0.5700 
 23 C        7.9180    -4.8460    -0.2950 C.2   1 <1>  -0.0860 
 24 C        9.0300    -5.2400     0.3860 C.2   1 <1>  -0.0400 
 25 C        8.3040    -3.6300    -0.9000 C.2   1 <1>  -0.1500 
 26 O       10.0040    -4.3750     0.2460 O.3   1 <1>  -0.2800 
 27 C        9.2830    -6.4690     1.2360 C.3   1 <1>  -0.0600 
 28 C        9.5790    -3.4020    -0.5290 C.2   1 <1>  -0.0400 
 29 C       10.5280    -2.2720    -0.8580 C.3   1 <1>  -0.0600 
 30 H       -0.3980    -3.0340    -0.3970 H     1 <1>   0.0800 
 31 H       -1.2540    -3.4180     1.0430 H     1 <1>   0.0800 
 32 H        3.0530    -1.4890    -0.5030 H     1 <1>   0.0800 
 33 H        1.6230    -2.2640    -1.0570 H     1 <1>   0.0800 
 34 H        2.9980    -0.2420     1.6430 H     1 <1>   0.0800 
 35 H        1.4290     0.1560     2.2640 H     1 <1>   0.0800 
 36 H        0.5530    -5.1150     0.0190 H     1 <1>   0.0800 
 37 H        0.2310    -4.9900     1.7180 H     1 <1>   0.0800 
 38 H        3.4780    -3.7950    -1.7610 H     1 <1>   0.0800 
 39 H        2.2050    -4.8620    -1.3100 H     1 <1>   0.0800 
 40 H        4.1310    -3.9960     1.9110 H     1 <1>   0.0800 
 41 H        4.0770    -2.3040     1.5720 H     1 <1>   0.0800 
 42 H       -0.2470     1.2660     0.7880 H     1 <1>   0.1500 
 43 H        4.2820    -6.1050    -1.4770 H     1 <1>   0.0800 
 44 H        3.8410    -6.0430     0.2120 H     1 <1>   0.0800 
 45 H        6.2250    -3.2800     0.9630 H     1 <1>   0.0800 
 46 H        5.4220    -2.6800    -0.4680 H     1 <1>   0.0800 
 47 H        3.5810     2.4860    -1.8870 H     1 <1>   0.1500 
 48 H       -0.5210     3.0620    -0.9090 H     1 <1>   0.1500 
 49 H        1.4800     3.6600    -2.2670 H     1 <1>   0.1500 
 50 H        7.6770    -3.0340    -1.5370 H     1 <1>   0.1500 
 51 H        8.4030    -7.0830     1.2890 H     1 <1>   0.0800 
 52 H        9.5620    -6.1710     2.2300 H     1 <1>   0.0800 
 53 H       10.0820    -7.0440     0.8060 H     1 <1>   0.0800 
 54 H       10.0480    -1.5570    -1.5000 H     1 <1>   0.0800 
 55 H       11.3970    -2.6640    -1.3550 H     1 <1>   0.0800 
 56 H       10.8360    -1.7820     0.0480 H     1 <1>   0.0800 
@<TRIPOS>BOND
  1   1   2  2   
  2   2   3  am  
  3   2   4  1   
  4   3   5  1   
  5   3   6  1   
  6   4   7  1   
  7   4  30  1   
  8   4  31  1   
  9   5   8  1   
 10   5  32  1   
 11   5  33  1   
 12   6   9  1   
 13   6  34  1   
 14   6  35  1   
 15   7  10  1   
 16   7  36  1   
 17   7  37  1   
 18   8  10  1   
 19   8  11  1   
 20   8  12  1   
 21   9  13  ar  
 22   9  14  ar  
 23  11  15  1   
 24  11  38  1   
 25  11  39  1   
 26  12  16  1   
 27  12  40  1   
 28  12  41  1   
 29  13  17  ar  
 30  14  18  ar  
 31  14  42  1   
 32  15  19  1   
 33  15  43  1   
 34  15  44  1   
 35  16  19  1   
 36  16  45  1   
 37  16  46  1   
 38  17  20  ar  
 39  17  47  1   
 40  18  20  ar  
 41  18  48  1   
 42  19  21  am  
 43  20  49  1   
 44  21  22  2   
 45  21  23  1   
 46  23  24  2   
 47  23  25  1   
 48  24  26  1   
 49  24  27  1   
 50  25  28  2   
 51  25  50  1   
 52  26  28  1   
 53  27  51  1   
 54  27  52  1   
 55  27  53  1   
 56  28  29  1   
 57  29  54  1   
 58  29  55  1   
 59  29  56  1   
@<TRIPOS>SUBSTRUCTURE
  1 ****  12 GROUP 4 **** **** 0

# MOE 2024.06 (io_trps.svl 2023.06)
