@<TRIPOS>MOLECULE
NONAME
45 46 1 0 0 
SMALL
USER_CHARGES


@<TRIPOS>ATOM
  1 S        0.1140     0.6910     0.8070 S.o2  1 <1>   1.0900 
  2 O        0.8330     0.9640     2.0290 O.2   1 <1>  -0.6500 
  3 O        0.1030    -0.6280     0.2130 O.2   1 <1>  -0.6500 
  4 C       -1.5740     1.2050     0.9470 C.3   1 <1>  -0.0550 
  5 C        0.5520     1.8370    -0.4830 C.3   1 <1>  -0.0550 
  6 C       -1.9140     1.7170    -0.4410 C.3   1 <1>   0.2000 
  7 C       -0.7200     2.6050    -0.8870 C.3   1 <1>   0.1900 
  8 O       -2.0370     0.6270    -1.2990 O.3   1 <1>  -0.6800 
  9 N       -0.6930     3.9370    -0.2190 N.3   1 <1>  -0.8100 
 10 C        0.3070     4.8410    -0.8250 C.3   1 <1>   0.1100 
 11 C       -2.0010     4.6230    -0.1800 C.3   1 <1>   0.0300 
 12 C        0.9330     5.7150     0.2640 C.3   1 <1>  -0.1600 
 13 C        1.9850     6.6540    -0.3260 C.3   1 <1>   0.1200 
 14 O        2.5060     7.4450     0.7170 O.3   1 <1>  -0.3630 
 15 C        3.4560     8.3810     0.4980 C.ar  1 <1>   0.0830 
 16 C        3.9110     9.0840     1.6010 C.ar  1 <1>  -0.1500 
 17 C        3.9930     8.6680    -0.7530 C.ar  1 <1>  -0.1500 
 18 C        4.8810    10.0590     1.4640 C.ar  1 <1>  -0.1500 
 19 C        4.9620     9.6460    -0.8810 C.ar  1 <1>  -0.1500 
 20 C        5.4300    10.3720     0.2170 C.ar  1 <1>   0.0860 
 21 C        6.4420    11.4020     0.0520 C.2   1 <1>   0.5440 
 22 O        7.1650    11.4390    -0.9200 O.2   1 <1>  -0.5700 
 23 N        6.6260    12.3890     0.9610 N.am  1 <1>  -0.8000 
 24 H       -2.2260     0.4110     1.2560 H     1 <1>   0.0800 
 25 H       -1.6470     2.0180     1.6440 H     1 <1>   0.0800 
 26 H        1.3300     2.4930    -0.1470 H     1 <1>   0.0800 
 27 H        0.9110     1.2860    -1.3300 H     1 <1>   0.0800 
 28 H       -2.8550     2.2340    -0.4710 H     1 <1>   0.0800 
 29 H       -0.7650     2.7510    -1.9540 H     1 <1>   0.0800 
 30 H       -1.4010    -0.0950    -1.0780 H     1 <1>   0.4000 
 31 H        1.0920     4.2820    -1.3040 H     1 <1>   0.0800 
 32 H       -0.1550     5.4560    -1.5810 H     1 <1>   0.0800 
 33 H       -1.8890     5.6300     0.1860 H     1 <1>   0.0800 
 34 H       -2.6720     4.1180     0.4920 H     1 <1>   0.0800 
 35 H       -2.4380     4.6610    -1.1640 H     1 <1>   0.0800 
 36 H        1.4000     5.0810     0.9980 H     1 <1>   0.0800 
 37 H        0.1740     6.3050     0.7440 H     1 <1>   0.0800 
 38 H        1.5420     7.3090    -1.0570 H     1 <1>   0.0800 
 39 H        2.7940     6.0960    -0.7640 H     1 <1>   0.0800 
 40 H        3.4980     8.8550     2.5680 H     1 <1>   0.1500 
 41 H        3.6710     8.1440    -1.6320 H     1 <1>   0.1500 
 42 H        5.2210    10.5780     2.3410 H     1 <1>   0.1500 
 43 H        5.3730     9.8600    -1.8530 H     1 <1>   0.1500 
 44 H        7.3310    13.1000     0.7660 H     1 <1>   0.3700 
 45 H        6.0050    12.5610     1.7490 H     1 <1>   0.3700 
@<TRIPOS>BOND
  1   1   2  2   
  2   1   3  2   
  3   1   4  1   
  4   1   5  1   
  5   4   6  1   
  6   4  24  1   
  7   4  25  1   
  8   5   7  1   
  9   5  26  1   
 10   5  27  1   
 11   6   7  1   
 12   6   8  1   
 13   6  28  1   
 14   7   9  1   
 15   7  29  1   
 16   8  30  1   
 17   9  10  1   
 18   9  11  1   
 19  10  12  1   
 20  10  31  1   
 21  10  32  1   
 22  11  33  1   
 23  11  34  1   
 24  11  35  1   
 25  12  13  1   
 26  12  36  1   
 27  12  37  1   
 28  13  14  1   
 29  13  38  1   
 30  13  39  1   
 31  14  15  1   
 32  15  16  ar  
 33  15  17  ar  
 34  16  18  ar  
 35  16  40  1   
 36  17  19  ar  
 37  17  41  1   
 38  18  20  ar  
 39  18  42  1   
 40  19  20  ar  
 41  19  43  1   
 42  20  21  1   
 43  21  22  2   
 44  21  23  am  
 45  23  44  1   
 46  23  45  1   
@<TRIPOS>SUBSTRUCTURE
  1 ****  13 GROUP 4 **** **** 0

# MOE 2024.06 (io_trps.svl 2023.06)
