@<TRIPOS>MOLECULE
NONAME
58 61 1 0 0 
SMALL
USER_CHARGES


@<TRIPOS>ATOM
  1 O        0.7790     1.4780     1.1350 O.2   1 <1>  -0.5700 
  2 C        0.2090     2.0170     0.2030 C.2   1 <1>   0.5440 
  3 N        0.9490     2.2390    -0.9280 N.am  1 <1>  -0.7300 
  4 C       -1.1740     2.4310     0.3330 C.ar  1 <1>   0.0860 
  5 C        2.4160     1.9510    -1.0500 C.3   1 <1>   0.1400 
  6 C       -1.7380     3.5450    -0.3150 C.ar  1 <1>   0.0830 
  7 C       -2.0260     1.6900     1.1590 C.ar  1 <1>  -0.1500 
  8 C        3.3480     2.9620    -0.3170 C.3   1 <1>   0.2800 
  9 O       -1.0310     4.3600    -1.1270 O.3   1 <1>  -0.3630 
 10 C       -3.0790     3.8610    -0.1710 C.ar  1 <1>  -0.1500 
 11 C       -3.3580     2.0140     1.3170 C.ar  1 <1>  -0.1500 
 12 O        2.7290     3.3680     0.8640 O.3   1 <1>  -0.6800 
 13 C        3.6480     4.2160    -1.1750 C.3   1 <1>   0.1400 
 14 C        4.6780     2.2910     0.0870 C.3   1 <1>  -0.1600 
 15 C       -0.0310     5.2170    -0.6030 C.3   1 <1>   0.1200 
 16 C       -3.8990     3.1000     0.6500 C.ar  1 <1>   0.0830 
 17 N        4.4990     5.2290    -0.4590 N.am  1 <1>  -0.6600 
 18 C        5.8350     3.2860     0.3340 C.3   1 <1>  -0.1600 
 19 C       -0.5760     6.1810     0.4550 C.3   1 <1>   0.0960 
 20 O       -5.2130     3.3500     0.8480 O.3   1 <1>  -0.3630 
 21 C        4.3580     6.5560    -0.7590 C.2   1 <1>   0.5690 
 22 C        5.3640     4.7130     0.6440 C.3   1 <1>   0.1400 
 23 N        0.4090     7.2610     0.6280 N.pl3 1 <1>   0.3140 
 24 C       -5.8760     4.4040     0.1860 C.3   1 <1>   0.0400 
 25 O        3.9430     6.9100    -1.8380 O.2   1 <1>  -0.5700 
 26 C        4.6900     7.6220     0.2810 C.3   1 <1>  -0.0990 
 27 N        0.1190     8.5430     0.3920 N.2   1 <1>  -0.4180 
 28 C        1.7320     7.1170     0.7190 C.2   1 <1>  -0.3020 
 29 C        3.6780     8.7820     0.3120 C.3   1 <1>   0.0210 
 30 N        1.2230     9.2010     0.3110 N.2   1 <1>  -0.2270 
 31 C        2.2310     8.3370     0.4730 C.2   1 <1>   0.0460 
 32 H        0.5080     2.7660    -1.6890 H     1 <1>   0.3700 
 33 H        2.6850     1.9030    -2.0910 H     1 <1>   0.0800 
 34 H        2.5930     0.9710    -0.6410 H     1 <1>   0.0800 
 35 H       -1.6290     0.8370     1.6850 H     1 <1>   0.1500 
 36 H       -3.4630     4.7060    -0.7080 H     1 <1>   0.1500 
 37 H       -3.9920     1.4270     1.9580 H     1 <1>   0.1500 
 38 H        2.1220     2.6400     1.1560 H     1 <1>   0.4000 
 39 H        2.7230     4.6730    -1.4760 H     1 <1>   0.0800 
 40 H        4.1650     3.9170    -2.0690 H     1 <1>   0.0800 
 41 H        4.9900     1.6220    -0.6950 H     1 <1>   0.0800 
 42 H        4.5160     1.6920     0.9670 H     1 <1>   0.0800 
 43 H        0.3630     5.7750    -1.4360 H     1 <1>   0.0800 
 44 H        0.7550     4.6260    -0.1770 H     1 <1>   0.0800 
 45 H        6.4610     3.3290    -0.5400 H     1 <1>   0.0800 
 46 H        6.4450     2.9300     1.1450 H     1 <1>   0.0800 
 47 H       -0.7170     5.6820     1.3960 H     1 <1>   0.0800 
 48 H       -1.5000     6.6160     0.1230 H     1 <1>   0.0800 
 49 H        4.8050     4.7180     1.5640 H     1 <1>   0.0800 
 50 H        6.2220     5.3530     0.7630 H     1 <1>   0.0800 
 51 H       -6.9080     4.3910     0.4890 H     1 <1>   0.0800 
 52 H       -5.8060     4.2500    -0.8760 H     1 <1>   0.0800 
 53 H       -5.4240     5.3370     0.4720 H     1 <1>   0.0800 
 54 H        5.6680     8.0090     0.0660 H     1 <1>   0.0800 
 55 H        4.7090     7.1830     1.2590 H     1 <1>   0.0800 
 56 H        2.2190     6.1770     0.9030 H     1 <1>   0.1500 
 57 H        3.7520     9.3290    -0.6120 H     1 <1>   0.0800 
 58 H        3.9230     9.4580     1.1120 H     1 <1>   0.0800 
@<TRIPOS>BOND
  1   1   2  2   
  2   2   3  am  
  3   2   4  1   
  4   3   5  1   
  5   3  32  1   
  6   4   6  ar  
  7   4   7  ar  
  8   5   8  1   
  9   5  33  1   
 10   5  34  1   
 11   6   9  1   
 12   6  10  ar  
 13   7  11  ar  
 14   7  35  1   
 15   8  12  1   
 16   8  13  1   
 17   8  14  1   
 18   9  15  1   
 19  10  16  ar  
 20  10  36  1   
 21  11  16  ar  
 22  11  37  1   
 23  12  38  1   
 24  13  17  1   
 25  13  39  1   
 26  13  40  1   
 27  14  18  1   
 28  14  41  1   
 29  14  42  1   
 30  15  19  1   
 31  15  43  1   
 32  15  44  1   
 33  16  20  1   
 34  17  21  am  
 35  17  22  1   
 36  18  22  1   
 37  18  45  1   
 38  18  46  1   
 39  19  23  1   
 40  19  47  1   
 41  19  48  1   
 42  20  24  1   
 43  21  25  2   
 44  21  26  1   
 45  22  49  1   
 46  22  50  1   
 47  23  27  1   
 48  23  28  1   
 49  24  51  1   
 50  24  52  1   
 51  24  53  1   
 52  26  29  1   
 53  26  54  1   
 54  26  55  1   
 55  27  30  2   
 56  28  31  2   
 57  28  56  1   
 58  29  31  1   
 59  29  57  1   
 60  29  58  1   
 61  30  31  1   
@<TRIPOS>SUBSTRUCTURE
  1 ****  15 GROUP 4 **** **** 0

# MOE 2024.06 (io_trps.svl 2023.06)
