@<TRIPOS>MOLECULE
NONAME
50 53 1 0 0 
SMALL
USER_CHARGES


@<TRIPOS>ATOM
  1 F       -1.1750     1.1220    -1.2960 F     1 <1>  -0.1900 
  2 C       -0.8550     2.3620    -1.0460 C.ar  1 <1>   0.1900 
  3 C        0.4630     2.7530    -1.1840 C.ar  1 <1>  -0.1500 
  4 C       -1.8440     3.2420    -0.6530 C.ar  1 <1>  -0.1500 
  5 C        0.7940     4.0700    -0.9170 C.ar  1 <1>  -0.1500 
  6 C       -1.4950     4.5550    -0.3900 C.ar  1 <1>  -0.1500 
  7 C       -0.1760     4.9910    -0.5170 C.ar  1 <1>   0.0000 
  8 C        0.1780     6.3640    -0.2410 C.ar  1 <1>   0.0000 
  9 C       -0.4250     7.4150    -0.9230 C.ar  1 <1>  -0.1500 
 10 C        1.1310     6.6830     0.7220 C.ar  1 <1>  -0.1500 
 11 C       -0.0850     8.7290    -0.6590 C.ar  1 <1>  -0.1500 
 12 C        1.4710     7.9960     0.9840 C.ar  1 <1>  -0.1500 
 13 C        0.8800     9.0560     0.2930 C.ar  1 <1>   0.0860 
 14 C        1.2450    10.4380     0.5500 C.2   1 <1>   0.5440 
 15 O        0.4090    11.3190     0.4790 O.2   1 <1>  -0.5700 
 16 N        2.5390    10.8210     0.8310 N.am  1 <1>  -0.6600 
 17 C        2.8070    12.0090     1.7070 C.3   1 <1>   0.1400 
 18 C        3.7150    10.2180     0.1400 C.3   1 <1>   0.1400 
 19 C        3.4690    13.2410     1.0250 C.3   1 <1>   0.4230 
 20 C        4.3270    11.1970    -0.8860 C.3   1 <1>  -0.0800 
 21 N        3.1550    13.4540    -0.4440 N.4   1 <1>  -0.9590 
 22 C        4.9930    13.2840     1.2750 C.3   1 <1>   0.1200 
 23 C        5.6770    11.7780    -0.4360 C.3   1 <1>   0.1200 
 24 C        3.3170    12.2630    -1.3480 C.3   1 <1>   0.3430 
 25 C        1.7650    13.9900    -0.5970 C.3   1 <1>   0.2630 
 26 O        5.6470    12.1070     0.9150 O.3   1 <1>  -0.5600 
 27 H        1.2060     2.0400    -1.4930 H     1 <1>   0.1500 
 28 H       -2.8590     2.9020    -0.5560 H     1 <1>   0.1500 
 29 H        1.8150     4.3940    -1.0230 H     1 <1>   0.1500 
 30 H       -2.2520     5.2550    -0.0770 H     1 <1>   0.1500 
 31 H       -1.1700     7.1950    -1.6680 H     1 <1>   0.1500 
 32 H        1.6010     5.8870     1.2740 H     1 <1>   0.1500 
 33 H       -0.5770     9.5210    -1.1970 H     1 <1>   0.1500 
 34 H        2.2020     8.2080     1.7450 H     1 <1>   0.1500 
 35 H        1.8780    12.3360     2.1420 H     1 <1>   0.0800 
 36 H        3.4220    11.6910     2.5310 H     1 <1>   0.0800 
 37 H        4.4470     9.9120     0.8700 H     1 <1>   0.0800 
 38 H        3.4030     9.3310    -0.3850 H     1 <1>   0.0800 
 39 H        3.0890    14.1010     1.5510 H     1 <1>   0.0800 
 40 H        4.5450    10.6090    -1.7590 H     1 <1>   0.0800 
 41 H        3.8070    14.1720    -0.7790 H     1 <1>   0.4500 
 42 H        5.1680    13.4130     2.3290 H     1 <1>   0.0800 
 43 H        5.4540    14.1100     0.7630 H     1 <1>   0.0800 
 44 H        5.9710    12.6380    -1.0130 H     1 <1>   0.0800 
 45 H        6.4400    11.0250    -0.5450 H     1 <1>   0.0800 
 46 H        2.3610    11.7770    -1.4610 H     1 <1>   0.0800 
 47 H        3.6090    12.6120    -2.3250 H     1 <1>   0.0800 
 48 H        1.0430    13.2770    -0.2380 H     1 <1>   0.0800 
 49 H        1.5530    14.1950    -1.6340 H     1 <1>   0.0800 
 50 H        1.6490    14.9030    -0.0360 H     1 <1>   0.0800 
@<TRIPOS>BOND
  1   1   2  1   
  2   2   3  ar  
  3   2   4  ar  
  4   3   5  ar  
  5   3  27  1   
  6   4   6  ar  
  7   4  28  1   
  8   5   7  ar  
  9   5  29  1   
 10   6   7  ar  
 11   6  30  1   
 12   7   8  1   
 13   8   9  ar  
 14   8  10  ar  
 15   9  11  ar  
 16   9  31  1   
 17  10  12  ar  
 18  10  32  1   
 19  11  13  ar  
 20  11  33  1   
 21  12  13  ar  
 22  12  34  1   
 23  13  14  1   
 24  14  15  2   
 25  14  16  am  
 26  16  17  1   
 27  16  18  1   
 28  17  19  1   
 29  17  35  1   
 30  17  36  1   
 31  18  20  1   
 32  18  37  1   
 33  18  38  1   
 34  19  21  1   
 35  19  22  1   
 36  19  39  1   
 37  20  23  1   
 38  20  24  1   
 39  20  40  1   
 40  21  24  1   
 41  21  25  1   
 42  21  41  1   
 43  22  26  1   
 44  22  42  1   
 45  22  43  1   
 46  23  26  1   
 47  23  44  1   
 48  23  45  1   
 49  24  46  1   
 50  24  47  1   
 51  25  48  1   
 52  25  49  1   
 53  25  50  1   
@<TRIPOS>SUBSTRUCTURE
  1 ****  13 GROUP 4 **** **** 0

# MOE 2024.06 (io_trps.svl 2023.06)
