@<TRIPOS>MOLECULE
NONAME
41 42 1 0 0 
SMALL
USER_CHARGES


@<TRIPOS>ATOM
  1 CL      -1.2920    -0.1810    -2.4940 Cl    1 <1>  -0.1770 
  2 C       -1.9400    -1.1020    -1.1570 C.ar  1 <1>   0.1770 
  3 C       -1.7700    -0.6680     0.1460 C.ar  1 <1>   0.1770 
  4 C       -2.6250    -2.2710    -1.4230 C.ar  1 <1>  -0.1500 
  5 CL      -0.9060     0.8070     0.5000 Cl    1 <1>  -0.1770 
  6 C       -2.2910    -1.4060     1.1920 C.ar  1 <1>  -0.1500 
  7 C       -3.1570    -3.0430    -0.3870 C.ar  1 <1>   0.0860 
  8 C       -2.9770    -2.5790     0.9230 C.ar  1 <1>  -0.1500 
  9 C       -3.8680    -4.2760    -0.6790 C.2   1 <1>   0.5440 
 10 O       -4.4140    -4.4370    -1.7530 O.2   1 <1>  -0.5700 
 11 N       -3.9500    -5.2810     0.2400 N.am  1 <1>  -0.7300 
 12 C       -4.6480    -6.5690     0.0180 C.3   1 <1>   0.2200 
 13 C       -6.1320    -6.3970     0.3520 C.3   1 <1>  -0.0800 
 14 C       -4.1820    -7.6020     1.0410 C.3   1 <1>   0.1200 
 15 C       -6.3290    -7.2540     1.6090 C.3   1 <1>   0.1200 
 16 C       -7.0690    -6.6790    -0.8460 C.3   1 <1>  -0.0550 
 17 O       -5.0500    -7.4500     2.1170 O.3   1 <1>  -0.5600 
 18 S       -7.1550    -8.3650    -1.4720 S.o2  1 <1>   1.3330 
 19 O       -5.8520    -8.9820    -1.3620 O.2   1 <1>  -0.6500 
 20 O       -7.8310    -8.3550    -2.7500 O.2   1 <1>  -0.6500 
 21 N       -8.1950    -9.1430    -0.3750 N.am  1 <1>  -0.8490 
 22 C       -9.6180    -8.9370    -0.6720 C.3   1 <1>   0.1160 
 23 C       -7.9170   -10.5790    -0.2690 C.3   1 <1>   0.1160 
 24 H       -2.7490    -2.5910    -2.4430 H     1 <1>   0.1500 
 25 H       -2.1600    -1.0610     2.2030 H     1 <1>   0.1500 
 26 H       -3.3870    -3.1390     1.7460 H     1 <1>   0.1500 
 27 H       -3.5710    -5.1690     1.1810 H     1 <1>   0.3700 
 28 H       -4.4670    -6.9110    -0.9870 H     1 <1>   0.0800 
 29 H       -6.3100    -5.3770     0.6420 H     1 <1>   0.0800 
 30 H       -3.1680    -7.4520     1.3630 H     1 <1>   0.0800 
 31 H       -4.3020    -8.6010     0.6570 H     1 <1>   0.0800 
 32 H       -6.7360    -8.2250     1.3990 H     1 <1>   0.0800 
 33 H       -6.9300    -6.7620     2.3540 H     1 <1>   0.0800 
 34 H       -6.7430    -6.0460    -1.6510 H     1 <1>   0.0800 
 35 H       -8.0580    -6.3580    -0.5880 H     1 <1>   0.0800 
 36 H      -10.2240    -9.3680     0.1060 H     1 <1>   0.0800 
 37 H       -9.8770    -9.3960    -1.6120 H     1 <1>   0.0800 
 38 H       -9.8380    -7.8850    -0.7310 H     1 <1>   0.0800 
 39 H       -8.5860   -11.0390     0.4380 H     1 <1>   0.0800 
 40 H       -6.9080   -10.7350     0.0760 H     1 <1>   0.0800 
 41 H       -8.0310   -11.0540    -1.2290 H     1 <1>   0.0800 
@<TRIPOS>BOND
  1   1   2  1   
  2   2   3  ar  
  3   2   4  ar  
  4   3   5  1   
  5   3   6  ar  
  6   4   7  ar  
  7   4  24  1   
  8   6   8  ar  
  9   6  25  1   
 10   7   8  ar  
 11   7   9  1   
 12   8  26  1   
 13   9  10  2   
 14   9  11  am  
 15  11  12  1   
 16  11  27  1   
 17  12  13  1   
 18  12  14  1   
 19  12  28  1   
 20  13  15  1   
 21  13  16  1   
 22  13  29  1   
 23  14  17  1   
 24  14  30  1   
 25  14  31  1   
 26  15  17  1   
 27  15  32  1   
 28  15  33  1   
 29  16  18  1   
 30  16  34  1   
 31  16  35  1   
 32  18  19  2   
 33  18  20  2   
 34  18  21  am  
 35  21  22  1   
 36  21  23  1   
 37  22  36  1   
 38  22  37  1   
 39  22  38  1   
 40  23  39  1   
 41  23  40  1   
 42  23  41  1   
@<TRIPOS>SUBSTRUCTURE
  1 ****  11 GROUP 4 **** **** 0

# MOE 2024.06 (io_trps.svl 2023.06)
