@<TRIPOS>MOLECULE
NONAME
49 50 1 0 0 
SMALL
USER_CHARGES


@<TRIPOS>ATOM
  1 S        0.1810     0.1970     0.3530 S.3   1 <1>  -0.4600 
  2 C       -0.8430    -0.6690    -0.8700 C.3   1 <1>   0.2140 
  3 C        0.4780     1.8080    -0.4180 C.3   1 <1>   0.0700 
  4 C       -1.0840    -2.0880    -0.3830 C.ar  1 <1>  -0.1440 
  5 C        1.1630     2.7040     0.6110 C.3   1 <1>  -0.0990 
  6 C       -0.4700    -3.1610    -1.0110 C.ar  1 <1>  -0.1500 
  7 C       -1.9270    -2.3220     0.6930 C.ar  1 <1>  -0.1500 
  8 C        1.5620     4.0170    -0.0330 C.2   1 <1>   0.5690 
  9 C       -0.7000    -4.4540    -0.5720 C.ar  1 <1>  -0.1500 
 10 C       -2.1580    -3.6140     1.1330 C.ar  1 <1>  -0.1500 
 11 O        0.6860     4.8360    -0.1750 O.2   1 <1>  -0.5700 
 12 N        2.8540     4.2450    -0.4480 N.am  1 <1>  -0.6600 
 13 C       -1.5460    -4.6810     0.5000 C.ar  1 <1>  -0.1500 
 14 C        3.2340     5.5660    -1.0520 C.3   1 <1>   0.1400 
 15 C        3.8870     3.1700    -0.5190 C.3   1 <1>   0.0600 
 16 C        3.9350     6.5560    -0.0770 C.3   1 <1>   0.0000 
 17 C        4.1760     7.8780    -0.8330 C.3   1 <1>  -0.1600 
 18 C        2.9850     7.0050     1.0460 C.3   1 <1>  -0.1600 
 19 C        5.2420     5.9250     0.4630 C.3   1 <1>   0.1200 
 20 C        2.8490     8.6430    -0.7710 C.3   1 <1>  -0.1600 
 21 C        2.0780     8.0690     0.4230 C.3   1 <1>  -0.1600 
 22 O        5.9630     6.8000     1.2650 O.3   1 <1>  -0.6800 
 23 H       -0.3110    -0.6540    -1.8040 H     1 <1>   0.0800 
 24 H       -1.7670    -0.1260    -0.9600 H     1 <1>   0.0800 
 25 H       -0.4730     2.2160    -0.7160 H     1 <1>   0.0800 
 26 H        1.1000     1.6440    -1.2800 H     1 <1>   0.0800 
 27 H        2.0140     2.2070     1.0360 H     1 <1>   0.0800 
 28 H        0.4750     2.9120     1.4100 H     1 <1>   0.0800 
 29 H        0.1920    -2.9970    -1.8430 H     1 <1>   0.1500 
 30 H       -2.4000    -1.4960     1.1940 H     1 <1>   0.1500 
 31 H       -0.2210    -5.2820    -1.0630 H     1 <1>   0.1500 
 32 H       -2.8130    -3.7870     1.9690 H     1 <1>   0.1500 
 33 H       -1.7250    -5.6850     0.8420 H     1 <1>   0.1500 
 34 H        2.3480     6.0320    -1.4480 H     1 <1>   0.0800 
 35 H        3.8780     5.3880    -1.8950 H     1 <1>   0.0800 
 36 H        3.4560     2.2650    -0.9100 H     1 <1>   0.0800 
 37 H        4.2780     2.9750     0.4650 H     1 <1>   0.0800 
 38 H        4.6980     3.4620    -1.1640 H     1 <1>   0.0800 
 39 H        4.4990     7.7220    -1.8480 H     1 <1>   0.0800 
 40 H        4.9160     8.4740    -0.3320 H     1 <1>   0.0800 
 41 H        3.5460     7.4630     1.8420 H     1 <1>   0.0800 
 42 H        2.4190     6.1930     1.4660 H     1 <1>   0.0800 
 43 H        5.8790     5.6280    -0.3520 H     1 <1>   0.0800 
 44 H        5.0180     5.0640     1.0660 H     1 <1>   0.0800 
 45 H        2.2840     8.4830    -1.6740 H     1 <1>   0.0800 
 46 H        3.0200     9.6990    -0.6540 H     1 <1>   0.0800 
 47 H        1.8310     8.8320     1.1410 H     1 <1>   0.0800 
 48 H        1.1660     7.6100     0.0800 H     1 <1>   0.0800 
 49 H        6.0480     7.6690     0.8290 H     1 <1>   0.4000 
@<TRIPOS>BOND
  1   1   2  1   
  2   1   3  1   
  3   2   4  1   
  4   2  23  1   
  5   2  24  1   
  6   3   5  1   
  7   3  25  1   
  8   3  26  1   
  9   4   6  ar  
 10   4   7  ar  
 11   5   8  1   
 12   5  27  1   
 13   5  28  1   
 14   6   9  ar  
 15   6  29  1   
 16   7  10  ar  
 17   7  30  1   
 18   8  11  2   
 19   8  12  am  
 20   9  13  ar  
 21   9  31  1   
 22  10  13  ar  
 23  10  32  1   
 24  12  14  1   
 25  12  15  1   
 26  13  33  1   
 27  14  16  1   
 28  14  34  1   
 29  14  35  1   
 30  15  36  1   
 31  15  37  1   
 32  15  38  1   
 33  16  17  1   
 34  16  18  1   
 35  16  19  1   
 36  17  20  1   
 37  17  39  1   
 38  17  40  1   
 39  18  21  1   
 40  18  41  1   
 41  18  42  1   
 42  19  22  1   
 43  19  43  1   
 44  19  44  1   
 45  20  21  1   
 46  20  45  1   
 47  20  46  1   
 48  21  47  1   
 49  21  48  1   
 50  22  49  1   
@<TRIPOS>SUBSTRUCTURE
  1 ****   5 GROUP 4 **** **** 0

# MOE 2024.06 (io_trps.svl 2023.06)
