@<TRIPOS>MOLECULE
NONAME
55 58 1 0 0 
SMALL
USER_CHARGES


@<TRIPOS>ATOM
  1 O       -1.3800    -2.2160    -1.2820 O.2   1 <1>  -0.5700 
  2 C       -0.2500    -2.2420    -0.8130 C.2   1 <1>   0.7670 
  3 N        0.1750    -1.1220    -0.1530 N.2   1 <1>  -0.6610 
  4 C        0.5960    -3.3900    -0.9470 C.2   1 <1>  -0.1240 
  5 C        1.3600    -1.1270     0.3240 C.2   1 <1>   0.4390 
  6 C        1.8510    -3.3350    -0.4280 C.2   1 <1>  -0.0380 
  7 C        0.0430    -4.6280    -1.6630 C.3   1 <1>   0.0390 
  8 N        2.2130    -2.1810     0.2090 N.pl3 1 <1>  -0.5500 
  9 C        1.8760     0.0830     1.0610 C.3   1 <1>  -0.1790 
 10 C        2.9130    -4.4220    -0.4620 C.3   1 <1>  -0.1020 
 11 C       -0.2360    -5.7770    -0.7030 C.2   1 <1>   0.5690 
 12 O        0.5270    -6.7150    -0.7220 O.2   1 <1>  -0.5700 
 13 N       -1.3100    -5.7580     0.1470 N.am  1 <1>  -0.6600 
 14 C       -2.3710    -4.7240     0.2080 C.3   1 <1>   0.1400 
 15 C       -1.6270    -6.8780     1.0530 C.3   1 <1>   0.1400 
 16 C       -3.5330    -5.3570     0.9870 C.3   1 <1>  -0.0800 
 17 C       -3.1430    -6.8310     1.2370 C.3   1 <1>  -0.0800 
 18 C       -4.9420    -5.1320     0.3750 C.3   1 <1>   0.4240 
 19 C       -3.8710    -7.8010     0.2900 C.3   1 <1>  -0.1600 
 20 O       -4.8870    -5.2580    -1.0020 O.3   1 <1>  -0.6800 
 21 C       -5.4430    -3.7110     0.7050 C.ar  1 <1>  -0.1440 
 22 C       -5.8770    -6.2670     0.8350 C.3   1 <1>  -0.1600 
 23 C       -5.4040    -7.6740     0.4020 C.3   1 <1>  -0.1600 
 24 C       -6.3400    -3.4590     1.7400 C.ar  1 <1>  -0.1500 
 25 C       -4.9730    -2.6230    -0.0260 C.ar  1 <1>  -0.1500 
 26 C       -6.7520    -2.1700     2.0310 C.ar  1 <1>  -0.1500 
 27 C       -5.3800    -1.3330     0.2640 C.ar  1 <1>  -0.1500 
 28 C       -6.2720    -1.1040     1.2940 C.ar  1 <1>  -0.1500 
 29 H        0.7590    -4.9590    -2.3910 H     1 <1>   0.0800 
 30 H       -0.8530    -4.4080    -2.2110 H     1 <1>   0.0800 
 31 H        3.1430    -2.0960     0.6240 H     1 <1>   0.4000 
 32 H        2.7390     0.4780     0.5590 H     1 <1>   0.0800 
 33 H        2.1350    -0.1840     2.0690 H     1 <1>   0.0800 
 34 H        1.1170     0.8450     1.0920 H     1 <1>   0.0800 
 35 H        3.8390    -4.0220    -0.8340 H     1 <1>   0.0800 
 36 H        2.6350    -5.2430    -1.0950 H     1 <1>   0.0800 
 37 H        3.0730    -4.8060     0.5300 H     1 <1>   0.0800 
 38 H       -2.0100    -3.8540     0.7290 H     1 <1>   0.0800 
 39 H       -2.6530    -4.4380    -0.7890 H     1 <1>   0.0800 
 40 H       -1.2980    -7.8180     0.6420 H     1 <1>   0.0800 
 41 H       -1.1310    -6.7100     1.9930 H     1 <1>   0.0800 
 42 H       -3.5410    -4.8830     1.9530 H     1 <1>   0.0800 
 43 H       -3.3830    -7.1110     2.2480 H     1 <1>   0.0800 
 44 H       -3.5610    -7.5990    -0.7210 H     1 <1>   0.0800 
 45 H       -3.5800    -8.8140     0.5100 H     1 <1>   0.0800 
 46 H       -4.6250    -6.1730    -1.2020 H     1 <1>   0.4000 
 47 H       -5.9170    -6.2540     1.9090 H     1 <1>   0.0800 
 48 H       -6.8750    -6.0830     0.4750 H     1 <1>   0.0800 
 49 H       -5.7700    -8.3910     1.1180 H     1 <1>   0.0800 
 50 H       -5.8430    -7.9260    -0.5490 H     1 <1>   0.0800 
 51 H       -6.7340    -4.2550     2.3420 H     1 <1>   0.1500 
 52 H       -4.2790    -2.7690    -0.8360 H     1 <1>   0.1500 
 53 H       -7.4480    -1.9950     2.8330 H     1 <1>   0.1500 
 54 H       -4.9960    -0.5110    -0.3150 H     1 <1>   0.1500 
 55 H       -6.5900    -0.1010     1.5190 H     1 <1>   0.1500 
@<TRIPOS>BOND
  1   1   2  2   
  2   2   3  1   
  3   2   4  1   
  4   3   5  2   
  5   4   6  2   
  6   4   7  1   
  7   5   8  1   
  8   5   9  1   
  9   6   8  1   
 10   6  10  1   
 11   7  11  1   
 12   7  29  1   
 13   7  30  1   
 14   8  31  1   
 15   9  32  1   
 16   9  33  1   
 17   9  34  1   
 18  10  35  1   
 19  10  36  1   
 20  10  37  1   
 21  11  12  2   
 22  11  13  am  
 23  13  14  1   
 24  13  15  1   
 25  14  16  1   
 26  14  38  1   
 27  14  39  1   
 28  15  17  1   
 29  15  40  1   
 30  15  41  1   
 31  16  17  1   
 32  16  18  1   
 33  16  42  1   
 34  17  19  1   
 35  17  43  1   
 36  18  20  1   
 37  18  21  1   
 38  18  22  1   
 39  19  23  1   
 40  19  44  1   
 41  19  45  1   
 42  20  46  1   
 43  21  24  ar  
 44  21  25  ar  
 45  22  23  1   
 46  22  47  1   
 47  22  48  1   
 48  23  49  1   
 49  23  50  1   
 50  24  26  ar  
 51  24  51  1   
 52  25  27  ar  
 53  25  52  1   
 54  26  28  ar  
 55  26  53  1   
 56  27  28  ar  
 57  27  54  1   
 58  28  55  1   
@<TRIPOS>SUBSTRUCTURE
  1 ****  14 GROUP 4 **** **** 0

# MOE 2024.06 (io_trps.svl 2023.06)
