@<TRIPOS>MOLECULE
NONAME
59 63 1 0 0 
SMALL
USER_CHARGES


@<TRIPOS>ATOM
  1 O       -2.6860     1.0530    -2.7450 O.2   1 <1>  -0.5700 
  2 C       -2.1460     0.9620    -1.6670 C.2   1 <1>   0.5690 
  3 N       -1.9260    -0.2570    -1.1110 N.am  1 <1>  -0.7300 
  4 C       -1.7210     2.2230    -0.8840 C.3   1 <1>   0.0610 
  5 C       -2.3050    -1.5540    -1.7130 C.3   1 <1>   0.2200 
  6 C       -0.2000     2.1930    -0.5920 C.3   1 <1>  -0.1600 
  7 C       -2.0280     3.5200    -1.6760 C.3   1 <1>  -0.1600 
  8 C       -2.4770     2.2920     0.4660 C.3   1 <1>  -0.1600 
  9 C       -3.5600    -2.1170    -1.0580 C.3   1 <1>  -0.0800 
 10 C       -1.2820    -2.6020    -1.3000 C.3   1 <1>   0.1200 
 11 C        0.2600     3.4300     0.2130 C.3   1 <1>   0.0000 
 12 C       -1.6010     4.7650    -0.8810 C.3   1 <1>  -0.0800 
 13 C       -2.0490     3.5310     1.2700 C.3   1 <1>  -0.0800 
 14 C       -3.0120    -2.8280     0.1850 C.3   1 <1>   0.1200 
 15 C       -4.6800    -1.1000    -0.7650 C.3   1 <1>  -0.0170 
 16 O       -1.6300    -2.9510     0.0050 O.3   1 <1>  -0.5600 
 17 C       -0.0880     4.6960    -0.6020 C.3   1 <1>  -0.1600 
 18 C       -0.5340     3.4650     1.5400 C.3   1 <1>  -0.1600 
 19 C        1.7840     3.3100     0.4600 C.3   1 <1>  -0.1600 
 20 C       -2.3630     4.7980     0.4550 C.3   1 <1>  -0.1600 
 21 C       -5.9060    -1.7920    -0.1920 C.ar  1 <1>  -0.1440 
 22 C        2.4330     4.4560     1.2540 C.3   1 <1>  -0.2400 
 23 C       -6.8210    -2.4340    -1.0010 C.ar  1 <1>  -0.1500 
 24 C       -6.1690    -1.8160     1.1630 C.ar  1 <1>  -0.1500 
 25 C       -7.9210    -3.0560    -0.4330 C.ar  1 <1>   0.1600 
 26 C       -7.2990    -2.4680     1.6300 C.ar  1 <1>   0.1600 
 27 N       -8.1800    -3.0900     0.8640 N.ar  1 <1>  -0.6200 
 28 H       -1.4920    -0.3360    -0.1890 H     1 <1>   0.3700 
 29 H       -2.3950    -1.4660    -2.7830 H     1 <1>   0.0800 
 30 H        0.0460     1.3030    -0.0410 H     1 <1>   0.0800 
 31 H        0.3330     2.1500    -1.5260 H     1 <1>   0.0800 
 32 H       -1.5110     3.5000    -2.6190 H     1 <1>   0.0800 
 33 H       -3.0820     3.5740    -1.8890 H     1 <1>   0.0800 
 34 H       -3.5370     2.3300     0.2820 H     1 <1>   0.0800 
 35 H       -2.2800     1.4100     1.0490 H     1 <1>   0.0800 
 36 H       -3.9580    -2.8740    -1.7110 H     1 <1>   0.0800 
 37 H       -0.2720    -2.2330    -1.3230 H     1 <1>   0.0800 
 38 H       -1.3670    -3.4830    -1.9130 H     1 <1>   0.0800 
 39 H       -1.8250     5.6520    -1.4490 H     1 <1>   0.0800 
 40 H       -2.5830     3.5610     2.2040 H     1 <1>   0.0800 
 41 H       -3.4390    -3.8090     0.3030 H     1 <1>   0.0800 
 42 H       -3.1730    -2.2510     1.0790 H     1 <1>   0.0800 
 43 H       -4.9490    -0.5940    -1.6770 H     1 <1>   0.0800 
 44 H       -4.3390    -0.3530    -0.0710 H     1 <1>   0.0800 
 45 H        0.2010     5.5790    -0.0620 H     1 <1>   0.0800 
 46 H        0.4500     4.6920    -1.5340 H     1 <1>   0.0800 
 47 H       -0.3080     2.5920     2.1270 H     1 <1>   0.0800 
 48 H       -0.2520     4.3270     2.1180 H     1 <1>   0.0800 
 49 H        1.9780     2.3910     0.9850 H     1 <1>   0.0800 
 50 H        2.2830     3.2400    -0.4910 H     1 <1>   0.0800 
 51 H       -3.4210     4.8600     0.2690 H     1 <1>   0.0800 
 52 H       -2.0790     5.6720     1.0150 H     1 <1>   0.0800 
 53 H        2.0090     4.5360     2.2380 H     1 <1>   0.0800 
 54 H        2.3180     5.3950     0.7440 H     1 <1>   0.0800 
 55 H        3.4860     4.2650     1.3620 H     1 <1>   0.0800 
 56 H       -6.6900    -2.4550    -2.0680 H     1 <1>   0.1500 
 57 H       -5.5080    -1.3360     1.8610 H     1 <1>   0.1500 
 58 H       -8.6240    -3.5510    -1.0800 H     1 <1>   0.1500 
 59 H       -7.4880    -2.4770     2.6900 H     1 <1>   0.1500 
@<TRIPOS>BOND
  1   1   2  2   
  2   2   3  am  
  3   2   4  1   
  4   3   5  1   
  5   3  28  1   
  6   4   6  1   
  7   4   7  1   
  8   4   8  1   
  9   5   9  1   
 10   5  10  1   
 11   5  29  1   
 12   6  11  1   
 13   6  30  1   
 14   6  31  1   
 15   7  12  1   
 16   7  32  1   
 17   7  33  1   
 18   8  13  1   
 19   8  34  1   
 20   8  35  1   
 21   9  14  1   
 22   9  15  1   
 23   9  36  1   
 24  10  16  1   
 25  10  37  1   
 26  10  38  1   
 27  11  17  1   
 28  11  18  1   
 29  11  19  1   
 30  12  17  1   
 31  12  20  1   
 32  12  39  1   
 33  13  18  1   
 34  13  20  1   
 35  13  40  1   
 36  14  16  1   
 37  14  41  1   
 38  14  42  1   
 39  15  21  1   
 40  15  43  1   
 41  15  44  1   
 42  17  45  1   
 43  17  46  1   
 44  18  47  1   
 45  18  48  1   
 46  19  22  1   
 47  19  49  1   
 48  19  50  1   
 49  20  51  1   
 50  20  52  1   
 51  21  23  ar  
 52  21  24  ar  
 53  22  53  1   
 54  22  54  1   
 55  22  55  1   
 56  23  25  ar  
 57  23  56  1   
 58  24  26  ar  
 59  24  57  1   
 60  25  27  ar  
 61  25  58  1   
 62  26  27  ar  
 63  26  59  1   
@<TRIPOS>SUBSTRUCTURE
  1 ****   3 GROUP 4 **** **** 0

# MOE 2024.06 (io_trps.svl 2023.06)
