@<TRIPOS>MOLECULE
NONAME
49 51 1 0 0 
SMALL
USER_CHARGES


@<TRIPOS>ATOM
  1 S        0.4710    -0.2170    -1.4600 S.3   1 <1>  -0.0800 
  2 C       -0.7400     0.6230    -0.5010 C.2   1 <1>  -0.1400 
  3 C        1.7560     0.7650    -0.7790 C.2   1 <1>  -0.1100 
  4 C       -0.1610     1.5700     0.2610 C.2   1 <1>  -0.1500 
  5 C       -2.1870     0.1970    -0.6610 C.3   1 <1>   0.0200 
  6 C        1.2600     1.6500     0.1040 C.2   1 <1>  -0.1500 
  7 C       -2.4340    -1.1860    -0.0450 C.3   1 <1>  -0.1600 
  8 C       -3.9090    -1.6160    -0.1800 C.3   1 <1>  -0.0990 
  9 C       -4.2370    -2.9720     0.4430 C.2   1 <1>   0.5690 
 10 O       -3.3170    -3.6660     0.8100 O.2   1 <1>  -0.5700 
 11 N       -5.5430    -3.3850     0.5800 N.am  1 <1>  -0.6600 
 12 C       -6.7090    -2.6230     0.0360 C.3   1 <1>   0.2200 
 13 C       -5.8260    -4.6650     1.3060 C.3   1 <1>   0.0600 
 14 C       -7.7600    -3.4780    -0.6710 C.3   1 <1>  -0.1600 
 15 C       -7.4850    -1.8960     1.1280 C.3   1 <1>  -0.1600 
 16 C       -9.0170    -2.5980    -0.6830 C.3   1 <1>  -0.0800 
 17 C       -8.8610    -1.6200     0.5060 C.3   1 <1>  -0.0800 
 18 C      -10.3220    -3.4190    -0.6900 C.3   1 <1>   0.1400 
 19 C      -10.0120    -1.7010     1.5250 C.3   1 <1>  -0.0990 
 20 N      -11.4650    -2.5720    -0.2680 N.am  1 <1>  -0.6600 
 21 C      -11.3470    -1.7370     0.8100 C.2   1 <1>   0.5690 
 22 C      -12.7330    -2.7240    -1.0290 C.3   1 <1>   0.0600 
 23 O      -12.2460    -1.0400     1.2140 O.2   1 <1>  -0.5700 
 24 H        2.7580     0.5700    -1.1160 H     1 <1>   0.1500 
 25 H       -0.6760     2.2270     0.9390 H     1 <1>   0.1500 
 26 H       -2.8160     0.9230    -0.1760 H     1 <1>   0.0800 
 27 H       -2.4340     0.1860    -1.7080 H     1 <1>   0.0800 
 28 H        1.8360     2.3680     0.6610 H     1 <1>   0.1500 
 29 H       -1.8070    -1.9130    -0.5320 H     1 <1>   0.0800 
 30 H       -2.1610    -1.1650     0.9960 H     1 <1>   0.0800 
 31 H       -4.1620    -1.6610    -1.2230 H     1 <1>   0.0800 
 32 H       -4.5240    -0.8730     0.2930 H     1 <1>   0.0800 
 33 H       -6.3750    -1.8910    -0.6770 H     1 <1>   0.0800 
 34 H       -6.7250    -4.5830     1.8890 H     1 <1>   0.0800 
 35 H       -5.0180    -4.9090     1.9750 H     1 <1>   0.0800 
 36 H       -5.9330    -5.4650     0.5960 H     1 <1>   0.0800 
 37 H       -7.4480    -3.7400    -1.6660 H     1 <1>   0.0800 
 38 H       -7.9650    -4.3730    -0.1130 H     1 <1>   0.0800 
 39 H       -7.5900    -2.5310     1.9890 H     1 <1>   0.0800 
 40 H       -6.9950    -0.9850     1.4180 H     1 <1>   0.0800 
 41 H       -9.0010    -2.0120    -1.5870 H     1 <1>   0.0800 
 42 H       -8.8570    -0.6220     0.0990 H     1 <1>   0.0800 
 43 H      -10.2470    -4.2450    -0.0030 H     1 <1>   0.0800 
 44 H      -10.4950    -3.8150    -1.6760 H     1 <1>   0.0800 
 45 H       -9.9810    -0.8540     2.1860 H     1 <1>   0.0800 
 46 H       -9.9340    -2.5940     2.1160 H     1 <1>   0.0800 
 47 H      -12.5750    -2.4530    -2.0580 H     1 <1>   0.0800 
 48 H      -13.4980    -2.0860    -0.6200 H     1 <1>   0.0800 
 49 H      -13.0710    -3.7440    -0.9750 H     1 <1>   0.0800 
@<TRIPOS>BOND
  1   1   2  1   
  2   1   3  1   
  3   2   4  2   
  4   2   5  1   
  5   3   6  2   
  6   3  24  1   
  7   4   6  1   
  8   4  25  1   
  9   5   7  1   
 10   5  26  1   
 11   5  27  1   
 12   6  28  1   
 13   7   8  1   
 14   7  29  1   
 15   7  30  1   
 16   8   9  1   
 17   8  31  1   
 18   8  32  1   
 19   9  10  2   
 20   9  11  am  
 21  11  12  1   
 22  11  13  1   
 23  12  14  1   
 24  12  15  1   
 25  12  33  1   
 26  13  34  1   
 27  13  35  1   
 28  13  36  1   
 29  14  16  1   
 30  14  37  1   
 31  14  38  1   
 32  15  17  1   
 33  15  39  1   
 34  15  40  1   
 35  16  17  1   
 36  16  18  1   
 37  16  41  1   
 38  17  19  1   
 39  17  42  1   
 40  18  20  1   
 41  18  43  1   
 42  18  44  1   
 43  19  21  1   
 44  19  45  1   
 45  19  46  1   
 46  20  21  am  
 47  20  22  1   
 48  21  23  2   
 49  22  47  1   
 50  22  48  1   
 51  22  49  1   
@<TRIPOS>SUBSTRUCTURE
  1 ****  12 GROUP 4 **** **** 0

# MOE 2024.06 (io_trps.svl 2023.06)
