@<TRIPOS>MOLECULE
NONAME
44 47 1 0 0 
SMALL
USER_CHARGES


@<TRIPOS>ATOM
  1 S       -2.2710    -0.7820     0.3140 S.3   1 <1>  -0.0800 
  2 C       -1.2630    -2.0530    -0.2900 C.2   1 <1>   0.4420 
  3 C       -0.8520     0.2090     0.3980 C.2   1 <1>   0.1980 
  4 N       -0.0340    -1.7010    -0.3780 N.2   1 <1>  -0.3380 
  5 N       -1.8910    -3.2420    -0.5920 N.am  1 <1>  -0.4940 
  6 N        0.1940    -0.4110     0.0170 N.2   1 <1>  -0.3380 
  7 C       -1.0110     1.6380     0.9190 C.3   1 <1>   0.3800 
  8 C       -1.3560    -4.4310    -1.0150 C.2   1 <1>   0.5690 
  9 O       -2.0800     2.2520     0.2540 O.3   1 <1>  -0.5600 
 10 C        0.2430     2.4900     0.6920 C.3   1 <1>  -0.2400 
 11 O       -0.1760    -4.6160    -1.1550 O.2   1 <1>  -0.5700 
 12 C       -2.2790    -5.5950    -1.3320 C.3   1 <1>   0.1570 
 13 C       -2.7560     3.2380     0.9720 C.3   1 <1>   0.0400 
 14 N       -3.5600    -5.4640    -0.6130 N.pl3 1 <1>   0.0480 
 15 C       -4.6340    -4.7470    -1.0380 C.ar  1 <1>  -0.1520 
 16 C       -3.7990    -5.7360     0.7000 C.2   1 <1>   0.1010 
 17 C       -5.4710    -4.6500     0.0580 C.ar  1 <1>   0.2270 
 18 C       -4.9710    -4.1480    -2.2560 C.ar  1 <1>  -0.1500 
 19 N       -4.9190    -5.2740     1.1320 N.2   1 <1>  -0.5650 
 20 C       -2.8020    -6.4900     1.5670 C.3   1 <1>  -0.0150 
 21 C       -6.6760    -3.9580    -0.0410 C.ar  1 <1>  -0.1500 
 22 C       -6.1620    -3.4630    -2.3440 C.ar  1 <1>  -0.1500 
 23 C       -2.5740    -7.9540     1.3480 C.3   1 <1>  -0.2000 
 24 C       -3.2830    -7.4830     2.5800 C.3   1 <1>  -0.2000 
 25 C       -7.0160    -3.3680    -1.2380 C.ar  1 <1>  -0.1500 
 26 H       -2.9030    -3.2290    -0.4510 H     1 <1>   0.3700 
 27 H       -1.2400     1.5860     1.9690 H     1 <1>   0.0800 
 28 H        0.4480     2.5640    -0.3610 H     1 <1>   0.0800 
 29 H        1.0870     2.0240     1.1680 H     1 <1>   0.0800 
 30 H        0.1240     3.4720     1.1070 H     1 <1>   0.0800 
 31 H       -1.8020    -6.5130    -1.0440 H     1 <1>   0.0800 
 32 H       -2.4630    -5.6240    -2.3880 H     1 <1>   0.0800 
 33 H       -3.5490     3.6150     0.3510 H     1 <1>   0.0800 
 34 H       -2.0800     4.0390     1.2150 H     1 <1>   0.0800 
 35 H       -3.1730     2.8060     1.8650 H     1 <1>   0.0800 
 36 H       -4.3190    -4.2240    -3.1080 H     1 <1>   0.1500 
 37 H       -1.9620    -5.8800     1.8530 H     1 <1>   0.1000 
 38 H       -7.3100    -3.9020     0.8250 H     1 <1>   0.1500 
 39 H       -6.4520    -2.9930    -3.2680 H     1 <1>   0.1500 
 40 H       -1.5760    -8.3450     1.4460 H     1 <1>   0.1000 
 41 H       -3.1530    -8.4740     0.6040 H     1 <1>   0.1000 
 42 H       -4.3450    -7.6380     2.6690 H     1 <1>   0.1000 
 43 H       -2.7780    -7.5290     3.5290 H     1 <1>   0.1000 
 44 H       -7.9430    -2.8300    -1.3330 H     1 <1>   0.1500 
@<TRIPOS>BOND
  1   1   2  1   
  2   1   3  1   
  3   2   4  2   
  4   2   5  1   
  5   3   6  2   
  6   3   7  1   
  7   4   6  1   
  8   5   8  am  
  9   5  26  1   
 10   7   9  1   
 11   7  10  1   
 12   7  27  1   
 13   8  11  2   
 14   8  12  1   
 15   9  13  1   
 16  10  28  1   
 17  10  29  1   
 18  10  30  1   
 19  12  14  1   
 20  12  31  1   
 21  12  32  1   
 22  13  33  1   
 23  13  34  1   
 24  13  35  1   
 25  14  15  1   
 26  14  16  1   
 27  15  17  ar  
 28  15  18  ar  
 29  16  19  2   
 30  16  20  1   
 31  17  19  1   
 32  17  21  ar  
 33  18  22  ar  
 34  18  36  1   
 35  20  23  1   
 36  20  24  1   
 37  20  37  1   
 38  21  25  ar  
 39  21  38  1   
 40  22  25  ar  
 41  22  39  1   
 42  23  24  1   
 43  23  40  1   
 44  23  41  1   
 45  24  42  1   
 46  24  43  1   
 47  25  44  1   
@<TRIPOS>SUBSTRUCTURE
  1 ****   5 GROUP 4 **** **** 0

# MOE 2024.06 (io_trps.svl 2023.06)
