@<TRIPOS>MOLECULE
NONAME
51 52 1 0 0 
SMALL
USER_CHARGES


@<TRIPOS>ATOM
  1 O        1.8980     0.2060     2.1610 O.co2 1 <1>  -0.9000 
  2 C        1.7400    -0.1210     0.9790 C.2   1 <1>   0.9060 
  3 O        1.4430    -1.2820     0.6600 O.co2 1 <1>  -0.9000 
  4 C        2.0150     0.8770    -0.1490 C.3   1 <1>  -0.1060 
  5 C        3.2900     0.3030    -0.8130 C.3   1 <1>   0.2000 
  6 C        2.3020     2.3210     0.3650 C.3   1 <1>  -0.1600 
  7 C        0.8020     0.9300    -1.1260 C.3   1 <1>  -0.0160 
  8 O        2.9590    -0.7210    -1.6870 O.3   1 <1>  -0.6800 
  9 C        4.1380     1.3750    -1.5100 C.3   1 <1>   0.1400 
 10 C        3.7750     2.5370     0.7140 C.3   1 <1>   0.1400 
 11 C       -0.4010     1.7160    -0.6070 C.ar  1 <1>  -0.1440 
 12 N        4.6190     2.4100    -0.5220 N.am  1 <1>  -0.6600 
 13 C       -0.7460     2.9330    -1.1750 C.ar  1 <1>  -0.1500 
 14 C       -1.1670     1.2160     0.4350 C.ar  1 <1>  -0.1500 
 15 C        5.7330     3.1600    -0.8410 C.2   1 <1>   0.5690 
 16 C       -1.8380     3.6430    -0.7060 C.ar  1 <1>  -0.1500 
 17 C       -2.2580     1.9250     0.9070 C.ar  1 <1>  -0.1500 
 18 O        6.1600     3.1090    -1.9760 O.2   1 <1>  -0.5700 
 19 C        6.5040     4.0770     0.1590 C.3   1 <1>   0.0610 
 20 C       -2.5960     3.1390     0.3370 C.ar  1 <1>  -0.1500 
 21 C        7.9090     4.3580    -0.4430 C.3   1 <1>   0.1200 
 22 C        6.7150     3.4130     1.5440 C.3   1 <1>  -0.2400 
 23 C        5.7800     5.4340     0.3260 C.3   1 <1>  -0.2400 
 24 O        8.6780     5.1880     0.3840 O.3   1 <1>  -0.5600 
 25 C        9.9350     5.4810    -0.1310 C.3   1 <1>   0.0400 
 26 H        3.9150    -0.1450    -0.0570 H     1 <1>   0.0800 
 27 H        1.6920     2.5270     1.2280 H     1 <1>   0.0800 
 28 H        2.0410     3.0480    -0.3830 H     1 <1>   0.0800 
 29 H        1.1260     1.3660    -2.0540 H     1 <1>   0.0800 
 30 H        0.4710    -0.0670    -1.3580 H     1 <1>   0.0800 
 31 H        2.3880    -1.3390    -1.1600 H     1 <1>   0.4000 
 32 H        3.5540     1.8610    -2.2700 H     1 <1>   0.0800 
 33 H        4.9850     0.9000    -1.9720 H     1 <1>   0.0800 
 34 H        4.0810     1.8030     1.4430 H     1 <1>   0.0800 
 35 H        3.8740     3.5090     1.1500 H     1 <1>   0.0800 
 36 H       -0.1630     3.3330    -1.9850 H     1 <1>   0.1500 
 37 H       -0.9100     0.2710     0.8870 H     1 <1>   0.1500 
 38 H       -2.0970     4.5870    -1.1520 H     1 <1>   0.1500 
 39 H       -2.8370     1.5250     1.7200 H     1 <1>   0.1500 
 40 H       -3.4430     3.6890     0.7050 H     1 <1>   0.1500 
 41 H        7.8090     4.8460    -1.3980 H     1 <1>   0.0800 
 42 H        8.4390     3.4300    -0.5790 H     1 <1>   0.0800 
 43 H        7.4070     3.9810     2.1390 H     1 <1>   0.0800 
 44 H        7.1130     2.4220     1.4200 H     1 <1>   0.0800 
 45 H        5.8080     3.3490     2.1090 H     1 <1>   0.0800 
 46 H        6.3350     6.0770     0.9860 H     1 <1>   0.0800 
 47 H        4.7950     5.3180     0.7290 H     1 <1>   0.0800 
 48 H        5.6950     5.9210    -0.6290 H     1 <1>   0.0800 
 49 H       10.4450     6.1150     0.5720 H     1 <1>   0.0800 
 50 H        9.8230     5.9950    -1.0700 H     1 <1>   0.0800 
 51 H       10.4870     4.5660    -0.2620 H     1 <1>   0.0800 
@<TRIPOS>BOND
  1   1   2  ar  
  2   2   3  ar  
  3   2   4  1   
  4   4   5  1   
  5   4   6  1   
  6   4   7  1   
  7   5   8  1   
  8   5   9  1   
  9   5  26  1   
 10   6  10  1   
 11   6  27  1   
 12   6  28  1   
 13   7  11  1   
 14   7  29  1   
 15   7  30  1   
 16   8  31  1   
 17   9  12  1   
 18   9  32  1   
 19   9  33  1   
 20  10  12  1   
 21  10  34  1   
 22  10  35  1   
 23  11  13  ar  
 24  11  14  ar  
 25  12  15  am  
 26  13  16  ar  
 27  13  36  1   
 28  14  17  ar  
 29  14  37  1   
 30  15  18  2   
 31  15  19  1   
 32  16  20  ar  
 33  16  38  1   
 34  17  20  ar  
 35  17  39  1   
 36  19  21  1   
 37  19  22  1   
 38  19  23  1   
 39  20  40  1   
 40  21  24  1   
 41  21  41  1   
 42  21  42  1   
 43  22  43  1   
 44  22  44  1   
 45  22  45  1   
 46  23  46  1   
 47  23  47  1   
 48  23  48  1   
 49  24  25  1   
 50  25  49  1   
 51  25  50  1   
 52  25  51  1   
@<TRIPOS>SUBSTRUCTURE
  1 ****   6 GROUP 4 **** **** 0

# MOE 2024.06 (io_trps.svl 2023.06)
