@<TRIPOS>MOLECULE
NONAME
54 55 1 0 0 
SMALL
USER_CHARGES


@<TRIPOS>ATOM
  1 S       -1.1680     0.8360     0.2980 S.o2  1 <1>   1.3330 
  2 O       -1.0620     0.9080     1.7370 O.2   1 <1>  -0.6500 
  3 O       -2.4140     1.1660    -0.3570 O.2   1 <1>  -0.6500 
  4 N        0.0800     1.7590    -0.3900 N.am  1 <1>  -0.8490 
  5 C       -0.7550    -0.8350    -0.2100 C.3   1 <1>  -0.0550 
  6 C        1.2560     1.8890     0.4770 C.3   1 <1>   0.1160 
  7 C       -0.3750     3.0890    -0.8120 C.3   1 <1>   0.1160 
  8 C       -1.8030    -1.8710     0.2410 C.3   1 <1>  -0.1600 
  9 C       -1.4590    -3.2720    -0.2630 C.3   1 <1>   0.3430 
 10 N       -2.4570    -4.2550     0.2160 N.4   1 <1>  -0.9590 
 11 C       -1.9290    -5.6520     0.0460 C.3   1 <1>   0.3430 
 12 C       -3.7820    -4.1420    -0.4540 C.3   1 <1>   0.3430 
 13 C       -2.9850    -6.7460     0.3040 C.3   1 <1>  -0.1060 
 14 C       -4.8110    -4.9680     0.3270 C.3   1 <1>  -0.1600 
 15 C       -3.5240    -7.2060    -1.0400 C.2   1 <1>   0.9060 
 16 C       -4.1920    -6.1660     1.0690 C.3   1 <1>   0.2000 
 17 C       -2.3420    -7.9520     1.0420 C.3   1 <1>  -0.0170 
 18 O       -3.1710    -6.6200    -2.0690 O.co2 1 <1>  -0.9000 
 19 O       -4.3770    -8.0930    -1.0520 O.co2 1 <1>  -0.9000 
 20 O       -3.7740    -5.7000     2.3160 O.3   1 <1>  -0.6800 
 21 C       -0.9350    -8.2710     0.5430 C.ar  1 <1>  -0.1440 
 22 C       -0.7430    -8.8090    -0.7200 C.ar  1 <1>  -0.1500 
 23 C        0.1680    -8.0170     1.3460 C.ar  1 <1>  -0.1500 
 24 C        0.5340    -9.0760    -1.1810 C.ar  1 <1>  -0.1500 
 25 C        1.4460    -8.2860     0.8870 C.ar  1 <1>  -0.1500 
 26 C        1.6300    -8.8130    -0.3780 C.ar  1 <1>  -0.1500 
 27 H       -0.6780    -0.8540    -1.2800 H     1 <1>   0.0800 
 28 H        0.2040    -1.0970     0.1950 H     1 <1>   0.0800 
 29 H        2.0460     2.4010    -0.0440 H     1 <1>   0.0800 
 30 H        1.6140     0.9160     0.7660 H     1 <1>   0.0800 
 31 H        1.0070     2.4430     1.3680 H     1 <1>   0.0800 
 32 H        0.4370     3.6370    -1.2590 H     1 <1>   0.0800 
 33 H       -0.7530     3.6410     0.0330 H     1 <1>   0.0800 
 34 H       -1.1600     2.9970    -1.5430 H     1 <1>   0.0800 
 35 H       -1.8490    -1.8730     1.3170 H     1 <1>   0.0800 
 36 H       -2.7610    -1.5660    -0.1430 H     1 <1>   0.0800 
 37 H       -0.4840    -3.5490     0.1040 H     1 <1>   0.0800 
 38 H       -1.4300    -3.2860    -1.3410 H     1 <1>   0.0800 
 39 H       -2.6480    -4.1660     1.2280 H     1 <1>   0.4500 
 40 H       -1.5200    -5.7790    -0.9440 H     1 <1>   0.0800 
 41 H       -1.1190    -5.7920     0.7410 H     1 <1>   0.0800 
 42 H       -4.1080    -3.1170    -0.5000 H     1 <1>   0.0800 
 43 H       -3.7060    -4.5180    -1.4630 H     1 <1>   0.0800 
 44 H       -5.5270    -5.3390    -0.3860 H     1 <1>   0.0800 
 45 H       -5.3510    -4.3420     1.0140 H     1 <1>   0.0800 
 46 H       -4.9450    -6.9220     1.2300 H     1 <1>   0.0800 
 47 H       -2.2840    -7.7540     2.0960 H     1 <1>   0.0800 
 48 H       -2.9610    -8.8270     0.9290 H     1 <1>   0.0800 
 49 H       -3.8550    -6.4220     2.9740 H     1 <1>   0.4000 
 50 H       -1.5870    -9.0230    -1.3570 H     1 <1>   0.1500 
 51 H        0.0410    -7.6140     2.3350 H     1 <1>   0.1500 
 52 H        0.6690    -9.4890    -2.1650 H     1 <1>   0.1500 
 53 H        2.2980    -8.0890     1.5150 H     1 <1>   0.1500 
 54 H        2.6220    -9.0230    -0.7380 H     1 <1>   0.1500 
@<TRIPOS>BOND
  1   1   2  2   
  2   1   3  2   
  3   1   4  am  
  4   1   5  1   
  5   4   6  1   
  6   4   7  1   
  7   5   8  1   
  8   5  27  1   
  9   5  28  1   
 10   6  29  1   
 11   6  30  1   
 12   6  31  1   
 13   7  32  1   
 14   7  33  1   
 15   7  34  1   
 16   8   9  1   
 17   8  35  1   
 18   8  36  1   
 19   9  10  1   
 20   9  37  1   
 21   9  38  1   
 22  10  11  1   
 23  10  12  1   
 24  10  39  1   
 25  11  13  1   
 26  11  40  1   
 27  11  41  1   
 28  12  14  1   
 29  12  42  1   
 30  12  43  1   
 31  13  15  1   
 32  13  16  1   
 33  13  17  1   
 34  14  16  1   
 35  14  44  1   
 36  14  45  1   
 37  15  18  ar  
 38  15  19  ar  
 39  16  20  1   
 40  16  46  1   
 41  17  21  1   
 42  17  47  1   
 43  17  48  1   
 44  20  49  1   
 45  21  22  ar  
 46  21  23  ar  
 47  22  24  ar  
 48  22  50  1   
 49  23  25  ar  
 50  23  51  1   
 51  24  26  ar  
 52  24  52  1   
 53  25  26  ar  
 54  25  53  1   
 55  26  54  1   
@<TRIPOS>SUBSTRUCTURE
  1 ****  10 GROUP 4 **** **** 0

# MOE 2024.06 (io_trps.svl 2023.06)
