@<TRIPOS>MOLECULE
NONAME
44 46 1 0 0 
SMALL
USER_CHARGES


@<TRIPOS>ATOM
  1 O       -0.0420     1.7220    -0.0420 O.co2 1 <1>  -0.9000 
  2 C        1.0080     1.7300     0.6160 C.2   1 <1>   0.9470 
  3 O        1.0370     2.2040     1.7610 O.co2 1 <1>  -0.9000 
  4 C        2.3330     1.3730    -0.0640 C.3   1 <1>  -0.2420 
  5 C        3.1040     0.0810    -0.2020 C.3   1 <1>  -0.2420 
  6 C        3.3420     2.4850     0.1440 C.3   1 <1>   0.2350 
  7 C        2.2910     0.6000    -1.3590 C.3   1 <1>  -0.2000 
  8 C        2.8160    -1.3180     0.3490 C.2   1 <1>   0.9470 
  9 C        4.5870     0.4050    -0.1070 C.3   1 <1>   0.2350 
 10 N        4.6680     1.8910    -0.1830 N.am  1 <1>  -0.6600 
 11 O        2.3450    -2.1830    -0.4020 O.co2 1 <1>  -0.9000 
 12 O        3.2040    -1.6030     1.4900 O.co2 1 <1>  -0.9000 
 13 C        5.7760     2.5660    -0.5930 C.2   1 <1>   0.5690 
 14 O        6.7880     1.9970    -0.9330 O.2   1 <1>  -0.5700 
 15 C        5.7390     4.0900    -0.6310 C.3   1 <1>  -0.0990 
 16 C        7.1240     4.7620    -0.6700 C.3   1 <1>  -0.1600 
 17 C        7.0080     6.2910    -0.6660 C.3   1 <1>  -0.0160 
 18 C        8.3840     6.9330    -0.6660 C.ar  1 <1>  -0.1440 
 19 C        9.0290     7.2070     0.5300 C.ar  1 <1>  -0.1500 
 20 C        9.0100     7.2510    -1.8620 C.ar  1 <1>  -0.1500 
 21 C       10.2820     7.7940     0.5370 C.ar  1 <1>  -0.1500 
 22 C       10.2630     7.8380    -1.8590 C.ar  1 <1>  -0.1500 
 23 C       10.9070     8.1150    -0.6650 C.ar  1 <1>   0.0820 
 24 O       12.1320     8.6930    -0.7500 O.3   1 <1>  -0.3630 
 25 C       12.8750     9.0040     0.4070 C.3   1 <1>   0.0400 
 26 H        3.3410     2.7990     1.1740 H     1 <1>   0.0800 
 27 H        3.1090     3.3180    -0.4940 H     1 <1>   0.0800 
 28 H        2.7920     0.9860    -2.2270 H     1 <1>   0.1000 
 29 H        1.3830     0.0740    -1.6050 H     1 <1>   0.1000 
 30 H        5.1350    -0.0580    -0.9080 H     1 <1>   0.0800 
 31 H        4.9800     0.0770     0.8400 H     1 <1>   0.0800 
 32 H        5.1740     4.3810    -1.4980 H     1 <1>   0.0800 
 33 H        5.2180     4.4370     0.2420 H     1 <1>   0.0800 
 34 H        7.6960     4.4420     0.1840 H     1 <1>   0.0800 
 35 H        7.6520     4.4460    -1.5540 H     1 <1>   0.0800 
 36 H        6.4650     6.6130     0.2050 H     1 <1>   0.0800 
 37 H        6.4580     6.6170    -1.5320 H     1 <1>   0.0800 
 38 H        8.5550     6.9590     1.4640 H     1 <1>   0.1500 
 39 H        8.5260     7.0400    -2.7990 H     1 <1>   0.1500 
 40 H       10.7520     7.9910     1.4800 H     1 <1>   0.1500 
 41 H       10.7490     8.0850    -2.7850 H     1 <1>   0.1500 
 42 H       13.8050     9.4460     0.0980 H     1 <1>   0.0800 
 43 H       13.0640     8.0980     0.9550 H     1 <1>   0.0800 
 44 H       12.3160     9.7060     1.0010 H     1 <1>   0.0800 
@<TRIPOS>BOND
  1   1   2  ar  
  2   2   3  ar  
  3   2   4  1   
  4   4   5  1   
  5   4   6  1   
  6   4   7  1   
  7   5   7  1   
  8   5   8  1   
  9   5   9  1   
 10   6  10  1   
 11   6  26  1   
 12   6  27  1   
 13   7  28  1   
 14   7  29  1   
 15   8  11  ar  
 16   8  12  ar  
 17   9  10  1   
 18   9  30  1   
 19   9  31  1   
 20  10  13  am  
 21  13  14  2   
 22  13  15  1   
 23  15  16  1   
 24  15  32  1   
 25  15  33  1   
 26  16  17  1   
 27  16  34  1   
 28  16  35  1   
 29  17  18  1   
 30  17  36  1   
 31  17  37  1   
 32  18  19  ar  
 33  18  20  ar  
 34  19  21  ar  
 35  19  38  1   
 36  20  22  ar  
 37  20  39  1   
 38  21  23  ar  
 39  21  40  1   
 40  22  23  ar  
 41  22  41  1   
 42  23  24  1   
 43  24  25  1   
 44  25  42  1   
 45  25  43  1   
 46  25  44  1   
@<TRIPOS>SUBSTRUCTURE
  1 ****  15 GROUP 4 **** **** 0

# MOE 2024.06 (io_trps.svl 2023.06)
