@<TRIPOS>MOLECULE
NONAME
49 52 1 0 0 
SMALL
USER_CHARGES


@<TRIPOS>ATOM
  1 O        1.0770    -0.2530    -1.9050 O.3   1 <1>  -0.0190 
  2 N        1.3020     1.0230    -1.8330 N.2   1 <1>  -0.4100 
  3 C        1.6480    -0.9070    -0.9320 C.2   1 <1>  -0.0400 
  4 C        2.0430     1.2170    -0.7840 C.2   1 <1>   0.2350 
  5 C        2.2930    -0.0170    -0.1680 C.2   1 <1>  -0.1500 
  6 C        1.5030    -2.4160    -0.8420 C.3   1 <1>   0.2900 
  7 C        2.5270     2.5070    -0.3280 C.ar  1 <1>   0.0540 
  8 N        0.2820    -2.7960    -0.1110 N.3   1 <1>  -0.8100 
  9 C        1.8980     3.6870    -0.7220 C.ar  1 <1>  -0.1500 
 10 C        3.6310     2.6250     0.5150 C.ar  1 <1>  -0.1500 
 11 C       -0.9580    -2.2870    -0.7180 C.3   1 <1>   0.1100 
 12 C        0.1130    -4.2520     0.0240 C.3   1 <1>   0.1100 
 13 C        2.3410     4.9240    -0.2910 C.ar  1 <1>  -0.1500 
 14 C        4.0790     3.8600     0.9500 C.ar  1 <1>  -0.1500 
 15 C       -2.0460    -3.1520    -0.0990 C.3   1 <1>   0.2000 
 16 C       -1.3940    -4.5370    -0.1010 C.3   1 <1>  -0.0800 
 17 C        3.4350     5.0190     0.5520 C.ar  1 <1>  -0.1430 
 18 O       -2.2150    -2.7210     1.2040 O.3   1 <1>  -0.6800 
 19 C       -1.9310    -5.5120     0.9650 C.3   1 <1>   0.0200 
 20 C        3.9250     6.3750     1.0260 C.3   1 <1>  -0.0970 
 21 C       -1.3690    -6.9170     0.8230 C.2   1 <1>  -0.0400 
 22 O       -1.6100    -7.7880     1.7660 O.3   1 <1>  -0.0190 
 23 C       -0.6270    -7.5280    -0.1150 C.2   1 <1>  -0.1500 
 24 N       -1.0700    -8.9440     1.5130 N.2   1 <1>  -0.4100 
 25 C       -0.4710    -8.8180     0.3840 C.2   1 <1>   0.1080 
 26 C        0.2960    -9.9290    -0.2980 C.3   1 <1>  -0.0590 
 27 H        2.8660    -0.1810     0.7240 H     1 <1>   0.1500 
 28 H        2.3550    -2.8110    -0.3160 H     1 <1>   0.0800 
 29 H        1.4930    -2.8340    -1.8340 H     1 <1>   0.0800 
 30 H        1.0460     3.6320    -1.3780 H     1 <1>   0.1500 
 31 H        4.1560     1.7450     0.8350 H     1 <1>   0.1500 
 32 H       -1.1080    -1.2420    -0.5060 H     1 <1>   0.0800 
 33 H       -0.9380    -2.4360    -1.7850 H     1 <1>   0.0800 
 34 H        0.6490    -4.7790    -0.7480 H     1 <1>   0.0800 
 35 H        0.4900    -4.5620     0.9840 H     1 <1>   0.0800 
 36 H        1.8310     5.8130    -0.6170 H     1 <1>   0.1500 
 37 H        4.9340     3.9160     1.6000 H     1 <1>   0.1500 
 38 H       -2.9910    -3.1080    -0.6120 H     1 <1>   0.0800 
 39 H       -1.5680    -4.9680    -1.0700 H     1 <1>   0.0800 
 40 H       -1.3160    -2.5120     1.5410 H     1 <1>   0.4000 
 41 H       -3.0030    -5.5640     0.8950 H     1 <1>   0.0800 
 42 H       -1.6880    -5.1470     1.9480 H     1 <1>   0.0800 
 43 H        3.1050     7.0670     1.0950 H     1 <1>   0.0800 
 44 H        4.6490     6.7620     0.3320 H     1 <1>   0.0800 
 45 H        4.3810     6.2920     1.9960 H     1 <1>   0.0800 
 46 H       -0.2300    -7.1590    -1.0410 H     1 <1>   0.1500 
 47 H       -0.1200   -10.1150    -1.2710 H     1 <1>   0.0800 
 48 H        0.2330   -10.8300     0.2850 H     1 <1>   0.0800 
 49 H        1.3280    -9.6510    -0.3990 H     1 <1>   0.0800 
@<TRIPOS>BOND
  1   1   2  1   
  2   1   3  1   
  3   2   4  2   
  4   3   5  2   
  5   3   6  1   
  6   4   5  1   
  7   4   7  1   
  8   5  27  1   
  9   6   8  1   
 10   6  28  1   
 11   6  29  1   
 12   7   9  ar  
 13   7  10  ar  
 14   8  11  1   
 15   8  12  1   
 16   9  13  ar  
 17   9  30  1   
 18  10  14  ar  
 19  10  31  1   
 20  11  15  1   
 21  11  32  1   
 22  11  33  1   
 23  12  16  1   
 24  12  34  1   
 25  12  35  1   
 26  13  17  ar  
 27  13  36  1   
 28  14  17  ar  
 29  14  37  1   
 30  15  16  1   
 31  15  18  1   
 32  15  38  1   
 33  16  19  1   
 34  16  39  1   
 35  17  20  1   
 36  18  40  1   
 37  19  21  1   
 38  19  41  1   
 39  19  42  1   
 40  20  43  1   
 41  20  44  1   
 42  20  45  1   
 43  21  22  1   
 44  21  23  2   
 45  22  24  1   
 46  23  25  1   
 47  23  46  1   
 48  24  25  2   
 49  25  26  1   
 50  26  47  1   
 51  26  48  1   
 52  26  49  1   
@<TRIPOS>SUBSTRUCTURE
  1 ****   8 GROUP 4 **** **** 0

# MOE 2024.06 (io_trps.svl 2023.06)
