@<TRIPOS>MOLECULE
NONAME
42 43 1 0 0 
SMALL
USER_CHARGES


@<TRIPOS>ATOM
  1 S        0.1110    -0.0020     1.1170 S.o2  1 <1>   1.3330 
  2 O        1.1420     0.3770     2.0560 O.2   1 <1>  -0.6500 
  3 O       -0.8650    -0.9990     1.4930 O.2   1 <1>  -0.6500 
  4 N        0.8680    -0.5350    -0.3080 N.am  1 <1>  -0.8490 
  5 C       -0.7450     1.4850     0.5950 C.3   1 <1>  -0.0550 
  6 C       -0.0120    -1.3340    -1.1690 C.3   1 <1>   0.1160 
  7 C        2.1030    -1.2760    -0.0360 C.3   1 <1>   0.1160 
  8 C        0.1670     2.5560    -0.0450 C.3   1 <1>  -0.0800 
  9 C       -0.5930     3.7380    -0.6530 C.3   1 <1>   0.2000 
 10 C        1.1680     3.2030     0.9230 C.3   1 <1>   0.1400 
 11 O       -1.5810     4.1470     0.2300 O.3   1 <1>  -0.6800 
 12 C        0.4550     4.8440    -0.7300 C.3   1 <1>   0.1400 
 13 N        1.3180     4.6070     0.4540 N.am  1 <1>  -0.6600 
 14 C        2.3390     5.4270     0.8760 C.2   1 <1>   0.5440 
 15 O        3.1620     4.9820     1.6500 O.2   1 <1>  -0.5700 
 16 C        2.4620     6.7950     0.4100 C.ar  1 <1>   0.0860 
 17 C        1.4240     7.7160     0.5510 C.ar  1 <1>  -0.1500 
 18 C        3.6370     7.2440    -0.1880 C.ar  1 <1>  -0.1500 
 19 C        1.5490     9.0170     0.0970 C.ar  1 <1>  -0.1500 
 20 C        3.7650     8.5440    -0.6420 C.ar  1 <1>  -0.1500 
 21 C        2.7210     9.4530    -0.5100 C.ar  1 <1>   0.0730 
 22 C        2.8500    10.8020    -0.9830 C.1   1 <1>   0.4840 
 23 N        2.9470    11.8730    -1.3620 N.1   1 <1>  -0.5570 
 24 H       -1.4990     1.2140    -0.1170 H     1 <1>   0.0800 
 25 H       -1.2480     1.9070     1.4430 H     1 <1>   0.0800 
 26 H        0.4870    -1.5660    -2.0940 H     1 <1>   0.0800 
 27 H       -0.9100    -0.7840    -1.3950 H     1 <1>   0.0800 
 28 H       -0.2850    -2.2540    -0.6770 H     1 <1>   0.0800 
 29 H        2.5620    -1.5920    -0.9570 H     1 <1>   0.0800 
 30 H        1.8940    -2.1420     0.5720 H     1 <1>   0.0800 
 31 H        2.8030    -0.6470     0.4890 H     1 <1>   0.0800 
 32 H        0.7360     2.0990    -0.8360 H     1 <1>   0.0800 
 33 H       -1.0500     3.5170    -1.6030 H     1 <1>   0.0800 
 34 H        2.1170     2.6900     0.9090 H     1 <1>   0.0800 
 35 H        0.7910     3.2080     1.9320 H     1 <1>   0.0800 
 36 H       -1.1520     4.4760     1.0460 H     1 <1>   0.4000 
 37 H       -0.0010     5.8180    -0.7210 H     1 <1>   0.0800 
 38 H        1.0460     4.7280    -1.6220 H     1 <1>   0.0800 
 39 H        0.5120     7.4020     1.0300 H     1 <1>   0.1500 
 40 H        4.4590     6.5540    -0.2900 H     1 <1>   0.1500 
 41 H        0.7280     9.7040     0.2190 H     1 <1>   0.1500 
 42 H        4.6880     8.8570    -1.1020 H     1 <1>   0.1500 
@<TRIPOS>BOND
  1   1   2  2   
  2   1   3  2   
  3   1   4  am  
  4   1   5  1   
  5   4   6  1   
  6   4   7  1   
  7   5   8  1   
  8   5  24  1   
  9   5  25  1   
 10   6  26  1   
 11   6  27  1   
 12   6  28  1   
 13   7  29  1   
 14   7  30  1   
 15   7  31  1   
 16   8   9  1   
 17   8  10  1   
 18   8  32  1   
 19   9  11  1   
 20   9  12  1   
 21   9  33  1   
 22  10  13  1   
 23  10  34  1   
 24  10  35  1   
 25  11  36  1   
 26  12  13  1   
 27  12  37  1   
 28  12  38  1   
 29  13  14  am  
 30  14  15  2   
 31  14  16  1   
 32  16  17  ar  
 33  16  18  ar  
 34  17  19  ar  
 35  17  39  1   
 36  18  20  ar  
 37  18  40  1   
 38  19  21  ar  
 39  19  41  1   
 40  20  21  ar  
 41  20  42  1   
 42  21  22  1   
 43  22  23  3   
@<TRIPOS>SUBSTRUCTURE
  1 ****  13 GROUP 4 **** **** 0

# MOE 2024.06 (io_trps.svl 2023.06)
