@<TRIPOS>MOLECULE
NONAME
56 59 1 0 0 
SMALL
USER_CHARGES


@<TRIPOS>ATOM
  1 F        1.9560    -2.2740     0.0700 F     1 <1>  -0.3400 
  2 C        1.7250    -3.1840     1.0060 C.3   1 <1>   1.1640 
  3 F        1.7450    -2.5400     2.1680 F     1 <1>  -0.3400 
  4 F        2.7830    -3.9880     1.0120 F     1 <1>  -0.3400 
  5 C        0.4170    -3.9500     0.7560 C.ar  1 <1>  -0.1440 
  6 C        0.3750    -4.9820    -0.1780 C.ar  1 <1>  -0.1500 
  7 C       -0.7500    -3.6280     1.4430 C.ar  1 <1>  -0.1500 
  8 C       -0.7970    -5.6820    -0.4210 C.ar  1 <1>  -0.1440 
  9 C       -1.9230    -4.3210     1.2040 C.ar  1 <1>  -0.1500 
 10 C       -1.9460    -5.3440     0.2750 C.ar  1 <1>  -0.1500 
 11 C       -0.8410    -6.8080    -1.4450 C.3   1 <1>   0.2840 
 12 N       -1.1810    -8.0920    -0.7780 N.am  1 <1>  -0.6600 
 13 C       -2.3120    -8.7860    -1.1020 C.2   1 <1>   0.5690 
 14 C       -0.2360    -8.6110     0.2590 C.3   1 <1>   0.1400 
 15 O       -3.0870    -8.4130    -1.9500 O.2   1 <1>  -0.5700 
 16 C       -2.6390   -10.0500    -0.3350 C.3   1 <1>  -0.0990 
 17 C        0.4550    -9.9480    -0.1360 C.3   1 <1>   0.2800 
 18 C       -1.6440   -11.1900    -0.5810 C.3   1 <1>   0.1200 
 19 O       -0.3630   -10.7570    -0.9500 O.3   1 <1>  -0.5600 
 20 C        0.8600   -10.7370     1.1290 C.3   1 <1>  -0.1600 
 21 C        1.6880    -9.6640    -1.0290 C.3   1 <1>  -0.1600 
 22 C        1.9600   -11.7510     0.8210 C.3   1 <1>   0.1400 
 23 C        3.0190    -9.7100    -0.2740 C.3   1 <1>   0.1400 
 24 N        3.1990   -11.0380     0.3870 N.am  1 <1>  -0.6600 
 25 C        4.4130   -11.6930     0.4320 C.2   1 <1>   0.5440 
 26 O        4.4310   -12.8810     0.6890 O.2   1 <1>  -0.5700 
 27 C        5.6630   -11.0120     0.1750 C.ar  1 <1>   0.0860 
 28 C        6.5670   -11.5370    -0.7450 C.ar  1 <1>   0.1600 
 29 C        6.0240    -9.8330     0.8150 C.ar  1 <1>  -0.1500 
 30 N        7.7290   -10.9980    -1.0850 N.ar  1 <1>  -0.6200 
 31 C        7.2310    -9.2580     0.4830 C.ar  1 <1>  -0.1500 
 32 C        8.0360    -9.8710    -0.4630 C.ar  1 <1>   0.1600 
 33 H        1.2670    -5.2410    -0.7250 H     1 <1>   0.1500 
 34 H       -0.7580    -2.8330     2.1710 H     1 <1>   0.1500 
 35 H       -2.8210    -4.0640     1.7390 H     1 <1>   0.1500 
 36 H       -2.8620    -5.8800     0.0880 H     1 <1>   0.1500 
 37 H        0.1080    -6.9080    -1.9410 H     1 <1>   0.0800 
 38 H       -1.5750    -6.5690    -2.1960 H     1 <1>   0.0800 
 39 H       -0.7780    -8.7480     1.1770 H     1 <1>   0.0800 
 40 H        0.5190    -7.8750     0.4700 H     1 <1>   0.0800 
 41 H       -3.6200   -10.3850    -0.6170 H     1 <1>   0.0800 
 42 H       -2.6840    -9.8260     0.7130 H     1 <1>   0.0800 
 43 H       -2.0010   -11.7770    -1.4090 H     1 <1>   0.0800 
 44 H       -1.5750   -11.8410     0.2710 H     1 <1>   0.0800 
 45 H        0.0170   -11.2320     1.5680 H     1 <1>   0.0800 
 46 H        1.2410   -10.0630     1.8750 H     1 <1>   0.0800 
 47 H        1.5890    -8.7090    -1.5090 H     1 <1>   0.0800 
 48 H        1.7460   -10.4000    -1.8130 H     1 <1>   0.0800 
 49 H        1.6420   -12.4180     0.0370 H     1 <1>   0.0800 
 50 H        2.1740   -12.3380     1.6980 H     1 <1>   0.0800 
 51 H        3.0420    -8.9370     0.4750 H     1 <1>   0.0800 
 52 H        3.8200    -9.5320    -0.9710 H     1 <1>   0.0800 
 53 H        6.3020   -12.4630    -1.2280 H     1 <1>   0.1500 
 54 H        5.3770    -9.3910     1.5520 H     1 <1>   0.1500 
 55 H        7.5520    -8.3450     0.9510 H     1 <1>   0.1500 
 56 H        8.9770    -9.4140    -0.7180 H     1 <1>   0.1500 
@<TRIPOS>BOND
  1   1   2  1   
  2   2   3  1   
  3   2   4  1   
  4   2   5  1   
  5   5   6  ar  
  6   5   7  ar  
  7   6   8  ar  
  8   6  33  1   
  9   7   9  ar  
 10   7  34  1   
 11   8  10  ar  
 12   8  11  1   
 13   9  10  ar  
 14   9  35  1   
 15  10  36  1   
 16  11  12  1   
 17  11  37  1   
 18  11  38  1   
 19  12  13  am  
 20  12  14  1   
 21  13  15  2   
 22  13  16  1   
 23  14  17  1   
 24  14  39  1   
 25  14  40  1   
 26  16  18  1   
 27  16  41  1   
 28  16  42  1   
 29  17  19  1   
 30  17  20  1   
 31  17  21  1   
 32  18  19  1   
 33  18  43  1   
 34  18  44  1   
 35  20  22  1   
 36  20  45  1   
 37  20  46  1   
 38  21  23  1   
 39  21  47  1   
 40  21  48  1   
 41  22  24  1   
 42  22  49  1   
 43  22  50  1   
 44  23  24  1   
 45  23  51  1   
 46  23  52  1   
 47  24  25  am  
 48  25  26  2   
 49  25  27  1   
 50  27  28  ar  
 51  27  29  ar  
 52  28  30  ar  
 53  28  53  1   
 54  29  31  ar  
 55  29  54  1   
 56  30  32  ar  
 57  31  32  ar  
 58  31  55  1   
 59  32  56  1   
@<TRIPOS>SUBSTRUCTURE
  1 ****  21 GROUP 4 **** **** 0

# MOE 2024.06 (io_trps.svl 2023.06)
