@<TRIPOS>MOLECULE
NONAME
50 52 1 0 0 
SMALL
USER_CHARGES


@<TRIPOS>ATOM
  1 F       -0.0850    -0.8910    -0.0180 F     1 <1>  -0.1900 
  2 C       -0.5250    -2.1210    -0.0310 C.ar  1 <1>   0.1900 
  3 C        0.3880    -3.1550    -0.1070 C.ar  1 <1>  -0.1500 
  4 C       -1.8870    -2.3420     0.0340 C.ar  1 <1>  -0.1500 
  5 C       -0.0850    -4.4560    -0.1200 C.ar  1 <1>  -0.1500 
  6 C       -2.3480    -3.6480     0.0200 C.ar  1 <1>  -0.1500 
  7 C       -1.4500    -4.7070    -0.0570 C.ar  1 <1>  -0.1430 
  8 C       -1.9540    -6.1420    -0.0670 C.3   1 <1>  -0.0160 
  9 C       -1.8810    -6.7400     1.3370 C.3   1 <1>   0.1400 
 10 N       -2.3760    -8.1340     1.3170 N.am  1 <1>  -0.7300 
 11 C       -1.6050    -9.2500     1.2470 C.2   1 <1>   0.5690 
 12 O       -0.4000    -9.1970     1.1800 O.2   1 <1>  -0.5700 
 13 C       -2.2990   -10.6170     1.2430 C.3   1 <1>   0.1710 
 14 N       -3.6490   -10.6260     0.6060 N.3   1 <1>  -0.8100 
 15 C       -3.5940   -10.3470    -0.8380 C.3   1 <1>   0.1100 
 16 C       -4.3340   -11.9230     0.7520 C.3   1 <1>   0.1100 
 17 C       -4.9000   -10.9120    -1.3780 C.3   1 <1>   0.2000 
 18 C       -5.0750   -12.1970    -0.5710 C.3   1 <1>  -0.0800 
 19 O       -5.9110   -10.0430    -1.0180 O.3   1 <1>  -0.6800 
 20 C       -4.4890   -13.4060    -1.3240 C.3   1 <1>   0.0200 
 21 C       -4.5790   -14.6800    -0.5050 C.2   1 <1>  -0.0400 
 22 O       -5.7400   -15.1150    -0.0930 O.3   1 <1>  -0.0190 
 23 C       -3.6400   -15.5330    -0.0690 C.2   1 <1>  -0.1500 
 24 N       -5.6280   -16.2110     0.6000 N.2   1 <1>  -0.4100 
 25 C       -4.3740   -16.4880     0.6290 C.2   1 <1>   0.1080 
 26 C       -3.7860   -17.6920     1.3300 C.3   1 <1>  -0.0590 
 27 H        1.4410    -2.9430    -0.1560 H     1 <1>   0.1500 
 28 H       -2.5650    -1.5110     0.0920 H     1 <1>   0.1500 
 29 H        0.6130    -5.2750    -0.1780 H     1 <1>   0.1500 
 30 H       -3.4060    -3.8360     0.0700 H     1 <1>   0.1500 
 31 H       -1.3470    -6.7280    -0.7340 H     1 <1>   0.0800 
 32 H       -2.9690    -6.1700    -0.4200 H     1 <1>   0.0800 
 33 H       -2.4750    -6.1580     2.0210 H     1 <1>   0.0800 
 34 H       -0.8600    -6.7260     1.6820 H     1 <1>   0.0800 
 35 H       -3.3900    -8.2810     1.2900 H     1 <1>   0.3700 
 36 H       -2.3950   -10.9270     2.2680 H     1 <1>   0.0800 
 37 H       -1.6560   -11.3210     0.7450 H     1 <1>   0.0800 
 38 H       -3.5010    -9.2930    -1.0400 H     1 <1>   0.0800 
 39 H       -2.7640   -10.8680    -1.2850 H     1 <1>   0.0800 
 40 H       -3.6270   -12.7070     0.9670 H     1 <1>   0.0800 
 41 H       -5.0350   -11.8650     1.5680 H     1 <1>   0.0800 
 42 H       -4.9170   -11.0440    -2.4470 H     1 <1>   0.0800 
 43 H       -6.1180   -12.3910    -0.3850 H     1 <1>   0.0800 
 44 H       -5.7820    -9.8420    -0.0670 H     1 <1>   0.4000 
 45 H       -3.4580   -13.2240    -1.5740 H     1 <1>   0.0800 
 46 H       -5.0330   -13.5520    -2.2410 H     1 <1>   0.0800 
 47 H       -2.5750   -15.5180    -0.2040 H     1 <1>   0.1500 
 48 H       -3.0530   -17.3770     2.0490 H     1 <1>   0.0800 
 49 H       -3.3230   -18.3420     0.6110 H     1 <1>   0.0800 
 50 H       -4.5620   -18.2350     1.8400 H     1 <1>   0.0800 
@<TRIPOS>BOND
  1   1   2  1   
  2   2   3  ar  
  3   2   4  ar  
  4   3   5  ar  
  5   3  27  1   
  6   4   6  ar  
  7   4  28  1   
  8   5   7  ar  
  9   5  29  1   
 10   6   7  ar  
 11   6  30  1   
 12   7   8  1   
 13   8   9  1   
 14   8  31  1   
 15   8  32  1   
 16   9  10  1   
 17   9  33  1   
 18   9  34  1   
 19  10  11  am  
 20  10  35  1   
 21  11  12  2   
 22  11  13  1   
 23  13  14  1   
 24  13  36  1   
 25  13  37  1   
 26  14  15  1   
 27  14  16  1   
 28  15  17  1   
 29  15  38  1   
 30  15  39  1   
 31  16  18  1   
 32  16  40  1   
 33  16  41  1   
 34  17  18  1   
 35  17  19  1   
 36  17  42  1   
 37  18  20  1   
 38  18  43  1   
 39  19  44  1   
 40  20  21  1   
 41  20  45  1   
 42  20  46  1   
 43  21  22  1   
 44  21  23  2   
 45  22  24  1   
 46  23  25  1   
 47  23  47  1   
 48  24  25  2   
 49  25  26  1   
 50  26  48  1   
 51  26  49  1   
 52  26  50  1   
@<TRIPOS>SUBSTRUCTURE
  1 ****  14 GROUP 4 **** **** 0

# MOE 2024.06 (io_trps.svl 2023.06)
