@<TRIPOS>MOLECULE
NONAME
51 52 1 0 0 
SMALL
USER_CHARGES


@<TRIPOS>ATOM
  1 SI      -0.1010     0.0410     0.0280 Si    1 <1>   0.5390 
  2 O       -1.4810    -0.5650    -0.6370 O.3   1 <1>  -0.5770 
  3 C       -0.4460     1.7380     0.6470 C.3   1 <1>  -0.0810 
  4 C        0.4160    -1.0500     1.3730 C.3   1 <1>  -0.3200 
  5 C        1.1710     0.0490    -1.2500 C.3   1 <1>  -0.3200 
  6 C       -1.6340    -1.8680    -1.1060 C.3   1 <1>   0.2000 
  7 C        0.7890     2.3940     1.2920 C.3   1 <1>  -0.2400 
  8 C       -1.5610     1.7470     1.7100 C.3   1 <1>  -0.2400 
  9 C       -0.9080     2.6760    -0.4830 C.3   1 <1>  -0.2400 
 10 C       -2.7850    -1.8560    -2.1000 C.3   1 <1>   0.2000 
 11 C       -2.1870    -2.7510     0.0220 C.3   1 <1>   0.3430 
 12 O       -2.8450    -3.0910    -2.7530 O.3   1 <1>  -0.6800 
 13 C       -3.9930    -1.7250    -1.1680 C.3   1 <1>   0.3430 
 14 N       -3.6730    -2.5340     0.0590 N.4   1 <1>  -0.9590 
 15 C       -4.4230    -3.8160     0.0720 C.3   1 <1>   0.4860 
 16 C       -5.8980    -3.5080     0.2380 C.ar  1 <1>  -0.1440 
 17 C       -6.7600    -3.6370    -0.8420 C.ar  1 <1>  -0.1500 
 18 C       -6.3970    -3.0920     1.4640 C.ar  1 <1>  -0.1500 
 19 C       -8.1040    -3.3410    -0.7000 C.ar  1 <1>  -0.1500 
 20 C       -7.7420    -2.7960     1.6050 C.ar  1 <1>  -0.1500 
 21 C       -8.5950    -2.9190     0.5230 C.ar  1 <1>  -0.1500 
 22 H        1.3080    -0.6890     1.8510 H     1 <1>   0.0800 
 23 H        0.6390    -2.0450     1.0370 H     1 <1>   0.0800 
 24 H       -0.3270    -1.1310     2.1440 H     1 <1>   0.0800 
 25 H        2.0970     0.4630    -0.8940 H     1 <1>   0.0800 
 26 H        0.8840     0.6350    -2.1030 H     1 <1>   0.0800 
 27 H        1.4000    -0.9340    -1.6150 H     1 <1>   0.0800 
 28 H       -0.7080    -2.2130    -1.5330 H     1 <1>   0.0800 
 29 H        0.5600     3.3860     1.6410 H     1 <1>   0.0800 
 30 H        1.5940     2.4710     0.5830 H     1 <1>   0.0800 
 31 H        1.1340     1.8180     2.1330 H     1 <1>   0.0800 
 32 H       -1.7640     2.7490     2.0450 H     1 <1>   0.0800 
 33 H       -1.2760     1.1620     2.5670 H     1 <1>   0.0800 
 34 H       -2.4700     1.3390     1.3060 H     1 <1>   0.0800 
 35 H       -1.1280     3.6590    -0.1040 H     1 <1>   0.0800 
 36 H       -1.7960     2.2920    -0.9540 H     1 <1>   0.0800 
 37 H       -0.1450     2.7740    -1.2340 H     1 <1>   0.0800 
 38 H       -2.7230    -1.0670    -2.8300 H     1 <1>   0.0800 
 39 H       -1.7240    -2.5130     0.9640 H     1 <1>   0.0800 
 40 H       -1.9810    -3.7800    -0.2240 H     1 <1>   0.0800 
 41 H       -2.2770    -3.0930    -3.5540 H     1 <1>   0.4000 
 42 H       -4.8990    -2.0480    -1.6540 H     1 <1>   0.0800 
 43 H       -4.0960    -0.6890    -0.8890 H     1 <1>   0.0800 
 44 H       -3.9440    -1.9830     0.8820 H     1 <1>   0.4500 
 45 H       -4.2580    -4.3510    -0.8490 H     1 <1>   0.0800 
 46 H       -4.0950    -4.4330     0.8930 H     1 <1>   0.0800 
 47 H       -6.4000    -3.9700    -1.8020 H     1 <1>   0.1500 
 48 H       -5.7540    -2.9960     2.3230 H     1 <1>   0.1500 
 49 H       -8.7730    -3.4420    -1.5380 H     1 <1>   0.1500 
 50 H       -8.1300    -2.4730     2.5560 H     1 <1>   0.1500 
 51 H       -9.6410    -2.6890     0.6330 H     1 <1>   0.1500 
@<TRIPOS>BOND
  1   1   2  1   
  2   1   3  1   
  3   1   4  1   
  4   1   5  1   
  5   2   6  1   
  6   3   7  1   
  7   3   8  1   
  8   3   9  1   
  9   4  22  1   
 10   4  23  1   
 11   4  24  1   
 12   5  25  1   
 13   5  26  1   
 14   5  27  1   
 15   6  10  1   
 16   6  11  1   
 17   6  28  1   
 18   7  29  1   
 19   7  30  1   
 20   7  31  1   
 21   8  32  1   
 22   8  33  1   
 23   8  34  1   
 24   9  35  1   
 25   9  36  1   
 26   9  37  1   
 27  10  12  1   
 28  10  13  1   
 29  10  38  1   
 30  11  14  1   
 31  11  39  1   
 32  11  40  1   
 33  12  41  1   
 34  13  14  1   
 35  13  42  1   
 36  13  43  1   
 37  14  15  1   
 38  14  44  1   
 39  15  16  1   
 40  15  45  1   
 41  15  46  1   
 42  16  17  ar  
 43  16  18  ar  
 44  17  19  ar  
 45  17  47  1   
 46  18  20  ar  
 47  18  48  1   
 48  19  21  ar  
 49  19  49  1   
 50  20  21  ar  
 51  20  50  1   
 52  21  51  1   
@<TRIPOS>SUBSTRUCTURE
  1 ****  14 GROUP 4 **** **** 0

# MOE 2024.06 (io_trps.svl 2023.06)
