@<TRIPOS>MOLECULE
NONAME
62 65 1 0 0 
SMALL
USER_CHARGES


@<TRIPOS>ATOM
  1 O        0.0170     0.3350     1.6060 O.2   1 <1>  -0.5700 
  2 C        0.0060     1.5340     1.4010 C.2   1 <1>   0.5440 
  3 N       -1.1900     2.1510     1.0960 N.am  1 <1>  -0.6600 
  4 C        1.2490     2.2780     1.4720 C.ar  1 <1>   0.0860 
  5 C       -2.4760     1.4000     1.2090 C.3   1 <1>   0.1400 
  6 C       -1.2610     3.5260     0.5190 C.3   1 <1>   0.1400 
  7 C        2.3450     1.9090     0.6980 C.ar  1 <1>  -0.1500 
  8 C        1.3910     3.3840     2.3100 C.ar  1 <1>  -0.1500 
  9 C       -3.6450     2.3680     1.4130 C.3   1 <1>  -0.1600 
 10 C       -2.4330     3.6160    -0.4570 C.3   1 <1>  -0.1600 
 11 C        3.5330     2.6160     0.7360 C.ar  1 <1>   0.0820 
 12 C        2.5740     4.1000     2.3600 C.ar  1 <1>  -0.1500 
 13 C       -3.7840     3.3970     0.2650 C.3   1 <1>   0.2800 
 14 O        4.5320     2.1730    -0.0650 O.3   1 <1>  -0.3630 
 15 C        3.6470     3.7220     1.5740 C.ar  1 <1>  -0.1500 
 16 O       -4.0560     4.6300     0.8990 O.3   1 <1>  -0.5600 
 17 C       -4.9290     2.9800    -0.7160 C.3   1 <1>   0.2000 
 18 C        5.8160     2.7560    -0.0280 C.3   1 <1>   0.1200 
 19 C       -5.1960     5.3570     0.5450 C.3   1 <1>   0.1200 
 20 O       -4.6010     1.8120    -1.4220 O.3   1 <1>  -0.6800 
 21 C       -5.4030     4.1380    -1.6530 C.3   1 <1>   0.2800 
 22 C        6.7240     1.9930    -0.9880 C.3   1 <1>  -0.0170 
 23 C       -5.2390     5.5090    -0.9750 C.3   1 <1>  -0.1600 
 24 O       -6.7570     3.9660    -1.8690 O.3   1 <1>  -0.6800 
 25 C       -4.7670     4.1480    -3.0510 C.3   1 <1>  -0.2400 
 26 C        8.1220     2.5900    -0.9650 C.ar  1 <1>  -0.1430 
 27 C        8.4650     3.6030    -1.8480 C.ar  1 <1>  -0.1500 
 28 C        9.0630     2.1320    -0.0560 C.ar  1 <1>  -0.1500 
 29 C        9.7360     4.1520    -1.8210 C.ar  1 <1>  -0.1500 
 30 C       10.3340     2.6800    -0.0290 C.ar  1 <1>  -0.1500 
 31 C       10.6710     3.6910    -0.9120 C.ar  1 <1>  -0.1500 
 32 H       -2.6260     0.8220     0.3130 H     1 <1>   0.0800 
 33 H       -2.4230     0.7180     2.0410 H     1 <1>   0.0800 
 34 H       -1.3960     4.2400     1.3150 H     1 <1>   0.0800 
 35 H       -0.3470     3.7570     0.0000 H     1 <1>   0.0800 
 36 H        2.2670     1.0500     0.0560 H     1 <1>   0.1500 
 37 H        0.5610     3.6760     2.9290 H     1 <1>   0.1500 
 38 H       -3.4850     2.8750     2.3480 H     1 <1>   0.0800 
 39 H       -4.5470     1.7930     1.5130 H     1 <1>   0.0800 
 40 H       -2.2760     2.8720    -1.2150 H     1 <1>   0.0800 
 41 H       -2.4210     4.5760    -0.9360 H     1 <1>   0.0800 
 42 H        2.6600     4.9510     3.0140 H     1 <1>   0.1500 
 43 H        4.5530     4.2950     1.6270 H     1 <1>   0.1500 
 44 H       -5.7700     2.7120    -0.1000 H     1 <1>   0.0800 
 45 H        5.7340     3.7860    -0.3280 H     1 <1>   0.0800 
 46 H        6.1930     2.6900     0.9780 H     1 <1>   0.0800 
 47 H       -6.0680     4.8430     0.9170 H     1 <1>   0.0800 
 48 H       -5.1290     6.3190     1.0220 H     1 <1>   0.0800 
 49 H       -4.0040     2.0240    -2.1630 H     1 <1>   0.4000 
 50 H        6.7680     0.9590    -0.6950 H     1 <1>   0.0800 
 51 H        6.3220     2.0470    -1.9840 H     1 <1>   0.0800 
 52 H       -4.3190     5.9740    -1.2800 H     1 <1>   0.0800 
 53 H       -6.0380     6.1720    -1.2540 H     1 <1>   0.0800 
 54 H       -7.0570     4.5540    -2.5860 H     1 <1>   0.4000 
 55 H       -3.6980     4.2190    -2.9770 H     1 <1>   0.0800 
 56 H       -5.1140     4.9940    -3.6170 H     1 <1>   0.0800 
 57 H       -5.0130     3.2490    -3.5870 H     1 <1>   0.0800 
 58 H        7.7470     3.9690    -2.5600 H     1 <1>   0.1500 
 59 H        8.8120     1.3460     0.6340 H     1 <1>   0.1500 
 60 H        9.9970     4.9370    -2.5090 H     1 <1>   0.1500 
 61 H       11.0600     2.3200     0.6780 H     1 <1>   0.1500 
 62 H       11.6590     4.1170    -0.8910 H     1 <1>   0.1500 
@<TRIPOS>BOND
  1   1   2  2   
  2   2   3  am  
  3   2   4  1   
  4   3   5  1   
  5   3   6  1   
  6   4   7  ar  
  7   4   8  ar  
  8   5   9  1   
  9   5  32  1   
 10   5  33  1   
 11   6  10  1   
 12   6  34  1   
 13   6  35  1   
 14   7  11  ar  
 15   7  36  1   
 16   8  12  ar  
 17   8  37  1   
 18   9  13  1   
 19   9  38  1   
 20   9  39  1   
 21  10  13  1   
 22  10  40  1   
 23  10  41  1   
 24  11  14  1   
 25  11  15  ar  
 26  12  15  ar  
 27  12  42  1   
 28  13  16  1   
 29  13  17  1   
 30  14  18  1   
 31  15  43  1   
 32  16  19  1   
 33  17  20  1   
 34  17  21  1   
 35  17  44  1   
 36  18  22  1   
 37  18  45  1   
 38  18  46  1   
 39  19  23  1   
 40  19  47  1   
 41  19  48  1   
 42  20  49  1   
 43  21  23  1   
 44  21  24  1   
 45  21  25  1   
 46  22  26  1   
 47  22  50  1   
 48  22  51  1   
 49  23  52  1   
 50  23  53  1   
 51  24  54  1   
 52  25  55  1   
 53  25  56  1   
 54  25  57  1   
 55  26  27  ar  
 56  26  28  ar  
 57  27  29  ar  
 58  27  58  1   
 59  28  30  ar  
 60  28  59  1   
 61  29  31  ar  
 62  29  60  1   
 63  30  31  ar  
 64  30  61  1   
 65  31  62  1   
@<TRIPOS>SUBSTRUCTURE
  1 ****   4 GROUP 4 **** **** 0

# MOE 2024.06 (io_trps.svl 2023.06)
