@<TRIPOS>MOLECULE
NONAME
57 60 1 0 0 
SMALL
USER_CHARGES


@<TRIPOS>ATOM
  1 O       -0.0020     0.8840     0.8600 O.2   1 <1>  -0.5700 
  2 C        0.0260     2.0870     0.8020 C.2   1 <1>   0.5690 
  3 N       -1.0700     2.8170     1.1020 N.am  1 <1>  -0.7300 
  4 C        1.3010     2.8030     0.3470 C.3   1 <1>   0.1810 
  5 C       -1.1100     4.2990     1.0560 C.3   1 <1>   0.3640 
  6 O        1.3150     4.1770     0.6700 O.3   1 <1>  -0.5600 
  7 C       -2.3900     4.7350     0.3470 C.ar  1 <1>  -0.1440 
  8 C        0.1320     4.8860     0.3340 C.3   1 <1>   0.2610 
  9 C       -3.1250     5.7990     0.8510 C.ar  1 <1>  -0.1500 
 10 C       -2.8340     4.1000    -0.8070 C.ar  1 <1>  -0.1500 
 11 C        0.2970     6.3890     0.6140 C.2   1 <1>   0.5690 
 12 C       -4.2810     6.2210     0.2160 C.ar  1 <1>  -0.1500 
 13 C       -3.9900     4.5200    -1.4420 C.ar  1 <1>  -0.1500 
 14 O       -0.2010     6.8410     1.6240 O.2   1 <1>  -0.5700 
 15 N        0.9810     7.1960    -0.2690 N.am  1 <1>  -0.5090 
 16 C       -4.7140     5.5820    -0.9310 C.ar  1 <1>  -0.1500 
 17 C        1.0010     8.6700    -0.1050 C.3   1 <1>   0.0490 
 18 C        1.9430     6.6870    -1.2870 C.3   1 <1>   0.2840 
 19 C       -0.2920     9.4200    -0.0510 C.3   1 <1>  -0.2000 
 20 C        0.5810     9.5270    -1.2590 C.3   1 <1>  -0.2000 
 21 C        3.3700     7.0550    -0.9110 C.ar  1 <1>  -0.1430 
 22 C        4.0850     7.9720    -1.6660 C.ar  1 <1>  -0.1500 
 23 C        3.9740     6.4750     0.1930 C.ar  1 <1>  -0.1500 
 24 C        5.3850     8.2990    -1.3240 C.ar  1 <1>  -0.1500 
 25 C        5.2740     6.8040     0.5330 C.ar  1 <1>  -0.1500 
 26 C        5.9940     7.7180    -0.2210 C.ar  1 <1>  -0.1430 
 27 C        7.4290     8.0930     0.1430 C.3   1 <1>   0.0630 
 28 C        8.3480     6.8690     0.0730 C.3   1 <1>  -0.2400 
 29 C        7.4900     8.7410     1.5290 C.3   1 <1>  -0.2400 
 30 H       -1.9190     2.3380     1.4050 H     1 <1>   0.3700 
 31 H        1.4040     2.7040    -0.7180 H     1 <1>   0.0800 
 32 H        2.1520     2.3470     0.8210 H     1 <1>   0.0800 
 33 H       -1.1290     4.6530     2.0730 H     1 <1>   0.0800 
 34 H       -0.0230     4.7670    -0.7220 H     1 <1>   0.0800 
 35 H       -2.8000     6.3130     1.7410 H     1 <1>   0.1500 
 36 H       -2.2860     3.2700    -1.2210 H     1 <1>   0.1500 
 37 H       -4.8410     7.0480     0.6160 H     1 <1>   0.1500 
 38 H       -4.3280     4.0200    -2.3340 H     1 <1>   0.1500 
 39 H       -5.6130     5.9090    -1.4240 H     1 <1>   0.1500 
 40 H        1.8130     9.0040     0.5220 H     1 <1>   0.1000 
 41 H        1.8840     5.6200    -1.3830 H     1 <1>   0.0800 
 42 H        1.6950     7.1110    -2.2440 H     1 <1>   0.0800 
 43 H       -1.2090     8.8600    -0.1070 H     1 <1>   0.1000 
 44 H       -0.3630    10.2630     0.6130 H     1 <1>   0.1000 
 45 H        1.0990    10.4540    -1.4290 H     1 <1>   0.1000 
 46 H        0.2350     9.0700    -2.1690 H     1 <1>   0.1000 
 47 H        3.6340     8.4400    -2.5230 H     1 <1>   0.1500 
 48 H        3.4320     5.7670     0.7970 H     1 <1>   0.1500 
 49 H        5.9210     9.0130    -1.9230 H     1 <1>   0.1500 
 50 H        5.7210     6.3420     1.3950 H     1 <1>   0.1500 
 51 H        7.7900     8.8130    -0.5720 H     1 <1>   0.0800 
 52 H        8.0630     6.1340     0.8040 H     1 <1>   0.0800 
 53 H        9.3680     7.1570     0.2550 H     1 <1>   0.0800 
 54 H        8.2870     6.4220    -0.9030 H     1 <1>   0.0800 
 55 H        7.1870     8.0460     2.2910 H     1 <1>   0.0800 
 56 H        6.8330     9.5920     1.5620 H     1 <1>   0.0800 
 57 H        8.4900     9.0720     1.7430 H     1 <1>   0.0800 
@<TRIPOS>BOND
  1   1   2  2   
  2   2   3  am  
  3   2   4  1   
  4   3   5  1   
  5   3  30  1   
  6   4   6  1   
  7   4  31  1   
  8   4  32  1   
  9   5   7  1   
 10   5   8  1   
 11   5  33  1   
 12   6   8  1   
 13   7   9  ar  
 14   7  10  ar  
 15   8  11  1   
 16   8  34  1   
 17   9  12  ar  
 18   9  35  1   
 19  10  13  ar  
 20  10  36  1   
 21  11  14  2   
 22  11  15  am  
 23  12  16  ar  
 24  12  37  1   
 25  13  16  ar  
 26  13  38  1   
 27  15  17  1   
 28  15  18  1   
 29  16  39  1   
 30  17  19  1   
 31  17  20  1   
 32  17  40  1   
 33  18  21  1   
 34  18  41  1   
 35  18  42  1   
 36  19  20  1   
 37  19  43  1   
 38  19  44  1   
 39  20  45  1   
 40  20  46  1   
 41  21  22  ar  
 42  21  23  ar  
 43  22  24  ar  
 44  22  47  1   
 45  23  25  ar  
 46  23  48  1   
 47  24  26  ar  
 48  24  49  1   
 49  25  26  ar  
 50  25  50  1   
 51  26  27  1   
 52  27  28  1   
 53  27  29  1   
 54  27  51  1   
 55  28  52  1   
 56  28  53  1   
 57  28  54  1   
 58  29  55  1   
 59  29  56  1   
 60  29  57  1   
@<TRIPOS>SUBSTRUCTURE
  1 ****  11 GROUP 4 **** **** 0

# MOE 2024.06 (io_trps.svl 2023.06)
