@<TRIPOS>MOLECULE
NONAME
49 50 1 0 0 
SMALL
USER_CHARGES


@<TRIPOS>ATOM
  1 S        0.3750     0.6040    -0.2620 S.3   1 <1>  -0.4600 
  2 C        1.8830    -0.1430    -0.9310 C.3   1 <1>   0.0700 
  3 C       -0.7030    -0.7450     0.3570 C.3   1 <1>   0.0700 
  4 C        2.8500    -0.3580     0.2490 C.3   1 <1>   0.4230 
  5 C       -0.0260    -2.1190     0.4670 C.3   1 <1>   0.0700 
  6 N        4.2490     0.1230    -0.0420 N.4   1 <1>  -0.9590 
  7 C        2.8340    -1.8180     0.7230 C.3   1 <1>   0.0700 
  8 S        1.3230    -2.0810     1.6880 S.3   1 <1>  -0.4600 
  9 C        4.2540     1.6190    -0.1670 C.3   1 <1>   0.3430 
 10 C        4.8790    -0.5640    -1.2220 C.3   1 <1>   0.2630 
 11 C        5.5280     2.2340     0.4260 C.3   1 <1>  -0.0800 
 12 C        5.4510     3.7690     0.4730 C.3   1 <1>   0.1400 
 13 C        6.8190     1.9220    -0.3490 C.3   1 <1>  -0.0990 
 14 N        6.8270     4.2210     0.1780 N.am  1 <1>  -0.6600 
 15 C        7.6050     3.1950    -0.2540 C.2   1 <1>   0.5690 
 16 C        7.2540     5.6470     0.3090 C.3   1 <1>   0.3000 
 17 O        8.7710     3.2210    -0.5560 O.2   1 <1>  -0.5700 
 18 C        8.3840     5.7370     1.3380 C.3   1 <1>  -0.2400 
 19 C        7.7270     6.1560    -1.0560 C.3   1 <1>  -0.2400 
 20 C        6.0980     6.5420     0.7790 C.3   1 <1>  -0.2400 
 21 H        2.2620     0.5700    -1.6400 H     1 <1>   0.0800 
 22 H        1.6170    -1.0480    -1.4440 H     1 <1>   0.0800 
 23 H       -1.5350    -0.7990    -0.3240 H     1 <1>   0.0800 
 24 H       -1.0680    -0.4300     1.3190 H     1 <1>   0.0800 
 25 H        2.4790     0.2310     1.0730 H     1 <1>   0.0800 
 26 H        0.3590    -2.4720    -0.4720 H     1 <1>   0.0800 
 27 H       -0.7360    -2.8390     0.8360 H     1 <1>   0.0800 
 28 H        4.8070    -0.1030     0.7960 H     1 <1>   0.4500 
 29 H        3.6460    -2.0200     1.3970 H     1 <1>   0.0800 
 30 H        2.8330    -2.5250    -0.0870 H     1 <1>   0.0800 
 31 H        3.4090     2.0220     0.3700 H     1 <1>   0.0800 
 32 H        4.1510     1.9080    -1.2010 H     1 <1>   0.0800 
 33 H        4.3610    -0.3040    -2.1310 H     1 <1>   0.0800 
 34 H        4.8430    -1.6340    -1.0980 H     1 <1>   0.0800 
 35 H        5.9120    -0.2750    -1.3220 H     1 <1>   0.0800 
 36 H        5.6420     1.9030     1.4440 H     1 <1>   0.0800 
 37 H        5.1380     4.1020     1.4490 H     1 <1>   0.0800 
 38 H        4.7860     4.1610    -0.2790 H     1 <1>   0.0800 
 39 H        6.6370     1.7390    -1.3910 H     1 <1>   0.0800 
 40 H        7.3730     1.1110     0.0860 H     1 <1>   0.0800 
 41 H        9.2500     5.1930     1.0060 H     1 <1>   0.0800 
 42 H        8.0630     5.3390     2.2830 H     1 <1>   0.0800 
 43 H        8.6770     6.7610     1.4810 H     1 <1>   0.0800 
 44 H        8.5980     5.6210    -1.3870 H     1 <1>   0.0800 
 45 H        7.9910     7.1960    -0.9940 H     1 <1>   0.0800 
 46 H        6.9490     6.0460    -1.7890 H     1 <1>   0.0800 
 47 H        5.7600     6.2540     1.7570 H     1 <1>   0.0800 
 48 H        5.2800     6.5130     0.0830 H     1 <1>   0.0800 
 49 H        6.4320     7.5630     0.8440 H     1 <1>   0.0800 
@<TRIPOS>BOND
  1   1   2  1   
  2   1   3  1   
  3   2   4  1   
  4   2  21  1   
  5   2  22  1   
  6   3   5  1   
  7   3  23  1   
  8   3  24  1   
  9   4   6  1   
 10   4   7  1   
 11   4  25  1   
 12   5   8  1   
 13   5  26  1   
 14   5  27  1   
 15   6   9  1   
 16   6  10  1   
 17   6  28  1   
 18   7   8  1   
 19   7  29  1   
 20   7  30  1   
 21   9  11  1   
 22   9  31  1   
 23   9  32  1   
 24  10  33  1   
 25  10  34  1   
 26  10  35  1   
 27  11  12  1   
 28  11  13  1   
 29  11  36  1   
 30  12  14  1   
 31  12  37  1   
 32  12  38  1   
 33  13  15  1   
 34  13  39  1   
 35  13  40  1   
 36  14  15  am  
 37  14  16  1   
 38  15  17  2   
 39  16  18  1   
 40  16  19  1   
 41  16  20  1   
 42  18  41  1   
 43  18  42  1   
 44  18  43  1   
 45  19  44  1   
 46  19  45  1   
 47  19  46  1   
 48  20  47  1   
 49  20  48  1   
 50  20  49  1   
@<TRIPOS>SUBSTRUCTURE
  1 ****   9 GROUP 4 **** **** 0

# MOE 2024.06 (io_trps.svl 2023.06)
