@<TRIPOS>MOLECULE
NONAME
42 45 1 0 0 
SMALL
USER_CHARGES


@<TRIPOS>ATOM
  1 F        0.3100    -1.4350     2.7430 F     1 <1>  -0.3400 
  2 C        0.3080    -1.7110     1.4480 C.3   1 <1>   1.1640 
  3 F        1.4300    -1.2030     0.9510 F     1 <1>  -0.3400 
  4 F       -0.6880    -1.0230     0.9100 F     1 <1>  -0.3400 
  5 C        0.1770    -3.2230     1.1790 C.ar  1 <1>  -0.1440 
  6 C        1.1400    -3.9540     0.5140 C.ar  1 <1>  -0.1500 
  7 C       -0.9590    -3.9010     1.6380 C.ar  1 <1>  -0.1500 
  8 C        0.9930    -5.3300     0.2850 C.ar  1 <1>   0.3610 
  9 C       -1.1250    -5.2410     1.4010 C.ar  1 <1>  -0.1500 
 10 N        2.0190    -6.0570    -0.2770 N.ar  1 <1>  -0.1790 
 11 C       -0.1890    -5.9940     0.6670 C.ar  1 <1>   0.0000 
 12 C        1.9350    -7.3830    -0.4770 C.ar  1 <1>   0.2180 
 13 C       -0.3450    -7.3840     0.3470 C.ar  1 <1>   0.1000 
 14 C        0.7740    -8.0440    -0.1700 C.ar  1 <1>  -0.1500 
 15 C        3.1380    -8.1050    -1.0610 C.3   1 <1>  -0.0970 
 16 N       -1.5180    -8.0560     0.4820 N.pl3 1 <1>  -0.8380 
 17 C       -1.6310    -9.4940     0.9200 C.3   1 <1>   0.2090 
 18 C       -2.8640    -7.4810     0.1100 C.3   1 <1>   0.2090 
 19 C       -2.3050   -10.3810    -0.1510 C.3   1 <1>   0.2200 
 20 C       -3.5680    -8.3250    -0.9700 C.3   1 <1>   0.1400 
 21 N       -3.5540    -9.7660    -0.6130 N.am  1 <1>  -0.6600 
 22 C       -2.8130   -11.7150     0.4190 C.3   1 <1>   0.1200 
 23 C       -4.6060   -10.4650    -0.1330 C.2   1 <1>   0.7800 
 24 O       -4.2200   -11.5780     0.4750 O.3   1 <1>  -0.4300 
 25 O       -5.7670   -10.1270    -0.1780 O.2   1 <1>  -0.5700 
 26 H        2.0350    -3.4650     0.1670 H     1 <1>   0.1500 
 27 H       -1.7120    -3.3590     2.1910 H     1 <1>   0.1500 
 28 H       -1.9940    -5.7320     1.8020 H     1 <1>   0.1500 
 29 H        2.8780    -5.5580    -0.5200 H     1 <1>   0.4570 
 30 H        0.7040    -9.0970    -0.3660 H     1 <1>   0.1500 
 31 H        3.3850    -7.7060    -2.0290 H     1 <1>   0.0800 
 32 H        2.9340    -9.1550    -1.1750 H     1 <1>   0.0800 
 33 H        3.9900    -8.0010    -0.4120 H     1 <1>   0.0800 
 34 H       -2.2270    -9.5250     1.8170 H     1 <1>   0.0800 
 35 H       -0.6650    -9.8930     1.1710 H     1 <1>   0.0800 
 36 H       -2.7540    -6.4810    -0.2690 H     1 <1>   0.0800 
 37 H       -3.4900    -7.4430     0.9840 H     1 <1>   0.0800 
 38 H       -1.6360   -10.5450    -0.9770 H     1 <1>   0.0800 
 39 H       -3.0640    -8.1930    -1.9110 H     1 <1>   0.0800 
 40 H       -4.5840    -7.9900    -1.0850 H     1 <1>   0.0800 
 41 H       -2.4390   -11.9230     1.4050 H     1 <1>   0.0800 
 42 H       -2.5830   -12.5310    -0.2430 H     1 <1>   0.0800 
@<TRIPOS>BOND
  1   1   2  1   
  2   2   3  1   
  3   2   4  1   
  4   2   5  1   
  5   5   6  ar  
  6   5   7  ar  
  7   6   8  ar  
  8   6  26  1   
  9   7   9  ar  
 10   7  27  1   
 11   8  10  ar  
 12   8  11  ar  
 13   9  11  ar  
 14   9  28  1   
 15  10  12  ar  
 16  10  29  1   
 17  11  13  ar  
 18  12  14  ar  
 19  12  15  1   
 20  13  14  ar  
 21  13  16  1   
 22  14  30  1   
 23  15  31  1   
 24  15  32  1   
 25  15  33  1   
 26  16  17  1   
 27  16  18  1   
 28  17  19  1   
 29  17  34  1   
 30  17  35  1   
 31  18  20  1   
 32  18  36  1   
 33  18  37  1   
 34  19  21  1   
 35  19  22  1   
 36  19  38  1   
 37  20  21  1   
 38  20  39  1   
 39  20  40  1   
 40  21  23  am  
 41  22  24  1   
 42  22  41  1   
 43  22  42  1   
 44  23  24  1   
 45  23  25  2   
@<TRIPOS>SUBSTRUCTURE
  1 ****  13 GROUP 4 **** **** 0

# MOE 2024.06 (io_trps.svl 2023.06)
