@<TRIPOS>MOLECULE
NONAME
43 45 1 0 0 
SMALL
USER_CHARGES


@<TRIPOS>ATOM
  1 F       -2.4690    -1.0490     0.9490 F     1 <1>  -0.1900 
  2 C       -1.8360    -2.1550     0.6660 C.ar  1 <1>   0.1900 
  3 C       -2.1530    -2.8220    -0.5020 C.ar  1 <1>  -0.1500 
  4 C       -0.8770    -2.6170     1.5460 C.ar  1 <1>  -0.1500 
  5 C       -1.4870    -4.0010    -0.8040 C.ar  1 <1>  -0.1440 
  6 C       -0.2120    -3.7910     1.2390 C.ar  1 <1>  -0.1500 
  7 C       -0.5160    -4.4750     0.0710 C.ar  1 <1>  -0.1500 
  8 C       -1.8130    -4.7730    -2.0800 C.3   1 <1>   0.0450 
  9 C       -2.0930    -6.2500    -1.8380 C.2   1 <1>   0.5690 
 10 O       -1.3380    -7.0550    -2.3300 O.2   1 <1>  -0.5700 
 11 N       -3.1750    -6.6490    -1.0990 N.am  1 <1>  -0.6600 
 12 C       -4.1340    -5.7670    -0.3880 C.3   1 <1>   0.1400 
 13 C       -3.4600    -8.0750    -0.8100 C.3   1 <1>   0.1400 
 14 C       -5.1850    -6.7170     0.1830 C.3   1 <1>   0.2000 
 15 C       -4.4730    -8.0580     0.3360 C.3   1 <1>  -0.0800 
 16 O       -5.6580    -6.2790     1.4090 O.3   1 <1>  -0.6800 
 17 C       -5.4310    -9.2590     0.3300 C.3   1 <1>   0.0210 
 18 C       -4.6660   -10.5670     0.3600 C.2   1 <1>   0.1080 
 19 N       -3.8760   -10.8980     1.3340 N.2   1 <1>  -0.7070 
 20 C       -4.7080   -11.5380    -0.6350 C.2   1 <1>  -0.1500 
 21 N       -3.3890   -12.1020     0.9830 N.pl3 1 <1>   0.3000 
 22 C       -3.8770   -12.5110    -0.2070 C.2   1 <1>  -0.3320 
 23 C       -3.5130   -13.8250    -0.8730 C.3   1 <1>  -0.0600 
 24 H       -2.9060    -2.4150    -1.1530 H     1 <1>   0.1500 
 25 H       -0.6580    -2.0690     2.4450 H     1 <1>   0.1500 
 26 H        0.5430    -4.1750     1.9050 H     1 <1>   0.1500 
 27 H        0.0100    -5.3890    -0.1550 H     1 <1>   0.1500 
 28 H       -0.9780    -4.6890    -2.7520 H     1 <1>   0.0800 
 29 H       -2.6650    -4.3440    -2.5720 H     1 <1>   0.0800 
 30 H       -3.6200    -5.2520     0.4060 H     1 <1>   0.0800 
 31 H       -4.5820    -5.0630    -1.0660 H     1 <1>   0.0800 
 32 H       -3.8780    -8.5330    -1.6910 H     1 <1>   0.0800 
 33 H       -2.5620    -8.6010    -0.5300 H     1 <1>   0.0800 
 34 H       -6.0170    -6.7880    -0.4960 H     1 <1>   0.0800 
 35 H       -3.9080    -8.0660     1.2520 H     1 <1>   0.0800 
 36 H       -4.9520    -6.3330     2.0820 H     1 <1>   0.4000 
 37 H       -6.0540    -9.2310    -0.5450 H     1 <1>   0.0800 
 38 H       -6.0680    -9.2130     1.1960 H     1 <1>   0.0800 
 39 H       -5.2860   -11.4960    -1.5410 H     1 <1>   0.1500 
 40 H       -2.7260   -12.6170     1.5750 H     1 <1>   0.2700 
 41 H       -4.0300   -13.9200    -1.8110 H     1 <1>   0.0800 
 42 H       -3.7910   -14.6510    -0.2430 H     1 <1>   0.0800 
 43 H       -2.4540   -13.8660    -1.0600 H     1 <1>   0.0800 
@<TRIPOS>BOND
  1   1   2  1   
  2   2   3  ar  
  3   2   4  ar  
  4   3   5  ar  
  5   3  24  1   
  6   4   6  ar  
  7   4  25  1   
  8   5   7  ar  
  9   5   8  1   
 10   6   7  ar  
 11   6  26  1   
 12   7  27  1   
 13   8   9  1   
 14   8  28  1   
 15   8  29  1   
 16   9  10  2   
 17   9  11  am  
 18  11  12  1   
 19  11  13  1   
 20  12  14  1   
 21  12  30  1   
 22  12  31  1   
 23  13  15  1   
 24  13  32  1   
 25  13  33  1   
 26  14  15  1   
 27  14  16  1   
 28  14  34  1   
 29  15  17  1   
 30  15  35  1   
 31  16  36  1   
 32  17  18  1   
 33  17  37  1   
 34  17  38  1   
 35  18  19  2   
 36  18  20  1   
 37  19  21  1   
 38  20  22  2   
 39  20  39  1   
 40  21  22  1   
 41  21  40  1   
 42  22  23  1   
 43  23  41  1   
 44  23  42  1   
 45  23  43  1   
@<TRIPOS>SUBSTRUCTURE
  1 ****  11 GROUP 4 **** **** 0

# MOE 2024.06 (io_trps.svl 2023.06)
