@<TRIPOS>MOLECULE
NONAME
25 25 1 0 0 
SMALL
USER_CHARGES


@<TRIPOS>ATOM
  1 O        0.7090     0.8900     0.5020 O.co2 1 <1>  -0.9000 
  2 C        1.8180     1.4370     0.5690 C.2   1 <1>   0.9060 
  3 O        1.9500     2.6670     0.4970 O.co2 1 <1>  -0.9000 
  4 C        3.0460     0.5730     0.8220 C.3   1 <1>   0.0140 
  5 O        3.8120     0.3350    -0.3580 O.3   1 <1>  -0.3630 
  6 C        5.0130    -0.2650    -0.1710 C.ar  1 <1>   0.0820 
  7 C        6.1830     0.4690     0.0950 C.ar  1 <1>   0.0820 
  8 C        5.0620    -1.6560    -0.2520 C.ar  1 <1>  -0.1440 
  9 O        6.2950     1.8290     0.1560 O.3   1 <1>  -0.3630 
 10 C        7.3660    -0.2180     0.3160 C.ar  1 <1>  -0.1500 
 11 C        6.2620    -2.3140    -0.0330 C.ar  1 <1>  -0.1500 
 12 C        3.8140    -2.4680    -0.5770 C.3   1 <1>  -0.0970 
 13 C        5.3430     2.6910    -0.4360 C.3   1 <1>   0.0400 
 14 C        7.4100    -1.5990     0.2550 C.ar  1 <1>  -0.1500 
 15 H        2.7280    -0.3710     1.2160 H     1 <1>   0.0800 
 16 H        3.6690     1.0710     1.5390 H     1 <1>   0.0800 
 17 H        8.2560     0.3430     0.5320 H     1 <1>   0.1500 
 18 H        6.3070    -3.3870    -0.0860 H     1 <1>   0.1500 
 19 H        3.2610    -1.9940    -1.3690 H     1 <1>   0.0800 
 20 H        3.1820    -2.5290     0.2900 H     1 <1>   0.0800 
 21 H        4.0700    -3.4620    -0.8920 H     1 <1>   0.0800 
 22 H        5.7910     3.6590    -0.5550 H     1 <1>   0.0800 
 23 H        4.4880     2.7720     0.2100 H     1 <1>   0.0800 
 24 H        5.0540     2.2990    -1.3960 H     1 <1>   0.0800 
 25 H        8.3380    -2.1150     0.4280 H     1 <1>   0.1500 
@<TRIPOS>BOND
  1   1   2  ar  
  2   2   3  ar  
  3   2   4  1   
  4   4   5  1   
  5   4  15  1   
  6   4  16  1   
  7   5   6  1   
  8   6   7  ar  
  9   6   8  ar  
 10   7   9  1   
 11   7  10  ar  
 12   8  11  ar  
 13   8  12  1   
 14   9  13  1   
 15  10  14  ar  
 16  10  17  1   
 17  11  14  ar  
 18  11  18  1   
 19  12  19  1   
 20  12  20  1   
 21  12  21  1   
 22  13  22  1   
 23  13  23  1   
 24  13  24  1   
 25  14  25  1   
@<TRIPOS>SUBSTRUCTURE
  1 ****   6 GROUP 4 **** **** 0

# MOE 2024.06 (io_trps.svl 2023.06)
