@<TRIPOS>MOLECULE
NONAME
28 28 1 0 0 
SMALL
USER_CHARGES


@<TRIPOS>ATOM
  1 F        0.9830     2.3830     2.4070 F     1 <1>  -0.3400 
  2 C        0.3940     1.8940     1.3190 C.3   1 <1>   1.0200 
  3 F       -0.7070     1.2850     1.7490 F     1 <1>  -0.3400 
  4 F        1.1960     0.9310     0.8700 F     1 <1>  -0.3400 
  5 C        0.0920     3.0080     0.2630 C.3   1 <1>   0.3440 
  6 O       -0.5410     2.5520    -0.9050 O.3   1 <1>  -0.6800 
  7 C        1.3240     3.7910    -0.1900 C.ar  1 <1>  -0.1440 
  8 C        1.5010     5.1030     0.2260 C.ar  1 <1>  -0.1500 
  9 C        2.2740     3.2120    -1.0190 C.ar  1 <1>  -0.1500 
 10 C        2.6090     5.8380    -0.1730 C.ar  1 <1>  -0.1440 
 11 C        3.3810     3.9350    -1.4230 C.ar  1 <1>  -0.1500 
 12 C        3.5460     5.2420    -1.0020 C.ar  1 <1>  -0.1500 
 13 C        2.8100     7.2820     0.2850 C.3   1 <1>   0.0630 
 14 C        2.9410     7.3590     1.8100 C.3   1 <1>  -0.2400 
 15 C        1.6700     8.1780    -0.2090 C.3   1 <1>  -0.2400 
 16 H       -0.5960     3.6910     0.7260 H     1 <1>   0.0800 
 17 H       -0.3850     3.2040    -1.6170 H     1 <1>   0.4000 
 18 H        0.7740     5.5640     0.8710 H     1 <1>   0.1500 
 19 H        2.1590     2.1940    -1.3540 H     1 <1>   0.1500 
 20 H        4.1150     3.4800    -2.0650 H     1 <1>   0.1500 
 21 H        4.4140     5.7900    -1.3240 H     1 <1>   0.1500 
 22 H        3.7260     7.6540    -0.1400 H     1 <1>   0.0800 
 23 H        2.0320     7.0470     2.2910 H     1 <1>   0.0800 
 24 H        3.1640     8.3660     2.1140 H     1 <1>   0.0800 
 25 H        3.7400     6.7180     2.1390 H     1 <1>   0.0800 
 26 H        0.7330     7.8850     0.2270 H     1 <1>   0.0800 
 27 H        1.5880     8.1060    -1.2790 H     1 <1>   0.0800 
 28 H        1.8640     9.2030     0.0500 H     1 <1>   0.0800 
@<TRIPOS>BOND
  1   1   2  1   
  2   2   3  1   
  3   2   4  1   
  4   2   5  1   
  5   5   6  1   
  6   5   7  1   
  7   5  16  1   
  8   6  17  1   
  9   7   8  ar  
 10   7   9  ar  
 11   8  10  ar  
 12   8  18  1   
 13   9  11  ar  
 14   9  19  1   
 15  10  12  ar  
 16  10  13  1   
 17  11  12  ar  
 18  11  20  1   
 19  12  21  1   
 20  13  14  1   
 21  13  15  1   
 22  13  22  1   
 23  14  23  1   
 24  14  24  1   
 25  14  25  1   
 26  15  26  1   
 27  15  27  1   
 28  15  28  1   
@<TRIPOS>SUBSTRUCTURE
  1 ****   7 GROUP 4 **** **** 0

# MOE 2024.06 (io_trps.svl 2023.06)
