@<TRIPOS>MOLECULE
NONAME
54 56 1 0 0 
SMALL
USER_CHARGES


@<TRIPOS>ATOM
  1 O        1.0620    -0.5670    -2.9450 O.2   1 <1>  -0.5700 
  2 C        1.3000    -1.2370    -1.9700 C.2   1 <1>   0.5690 
  3 N        2.0630    -0.8680    -0.9220 N.am  1 <1>  -0.6600 
  4 C        0.7650    -2.6270    -1.7750 C.3   1 <1>  -0.0990 
  5 C        2.2020    -1.9390     0.0790 C.3   1 <1>   0.1400 
  6 C        2.8840     0.3620    -0.8430 C.3   1 <1>   0.2840 
  7 C        1.0750    -2.9150    -0.2920 C.3   1 <1>  -0.0190 
  8 C        4.3600    -0.0090    -0.8010 C.ar  1 <1>  -0.1440 
  9 C        1.4550    -4.3710    -0.0240 C.2   1 <1>   0.5690 
 10 C        5.0980     0.0620     0.3780 C.ar  1 <1>   0.0820 
 11 C        4.9710    -0.4390    -1.9690 C.ar  1 <1>  -0.1500 
 12 O        2.4750    -4.7680    -0.5340 O.2   1 <1>  -0.5700 
 13 N        0.6810    -5.2040     0.7510 N.am  1 <1>  -0.6600 
 14 O        4.4590     0.4770     1.5050 O.3   1 <1>  -0.3630 
 15 C        6.4450    -0.2940     0.3660 C.ar  1 <1>  -0.1500 
 16 C        6.3090    -0.7920    -1.9740 C.ar  1 <1>  -0.1500 
 17 C        1.0780    -6.6340     0.9210 C.3   1 <1>   0.3200 
 18 C       -0.5340    -4.7820     1.5150 C.3   1 <1>   0.1400 
 19 C        5.1410     0.6300     2.7300 C.3   1 <1>   0.0400 
 20 C        7.0450    -0.7190    -0.8060 C.ar  1 <1>  -0.1500 
 21 C       -0.0650    -7.5400     0.5090 C.2   1 <1>  -0.3320 
 22 C       -1.7810    -4.7680     0.6220 C.3   1 <1>   0.1200 
 23 N       -0.9390    -8.1140     1.3590 N.pl3 1 <1>   0.0330 
 24 C       -0.4310    -7.9340    -0.7300 C.2   1 <1>   0.0770 
 25 O       -2.8600    -4.3500     1.3850 O.3   1 <1>  -0.6800 
 26 C       -1.7890    -8.8110     0.5760 C.2   1 <1>   0.0060 
 27 N       -1.5180    -8.7260    -0.6840 N.2   1 <1>  -0.5650 
 28 C       -2.9460    -9.6130     1.1330 C.3   1 <1>  -0.0600 
 29 H        1.3010    -3.2920    -2.4280 H     1 <1>   0.0800 
 30 H       -0.2860    -2.6700    -1.9850 H     1 <1>   0.0800 
 31 H        2.0860    -1.5530     1.0770 H     1 <1>   0.0800 
 32 H        3.1730    -2.3950    -0.0250 H     1 <1>   0.0800 
 33 H        2.5970     0.9250     0.0270 H     1 <1>   0.0800 
 34 H        2.6950     0.9750    -1.7070 H     1 <1>   0.0800 
 35 H        0.2190    -2.6200     0.2780 H     1 <1>   0.0800 
 36 H        4.3990    -0.5030    -2.8790 H     1 <1>   0.1500 
 37 H        7.0440    -0.2510     1.2550 H     1 <1>   0.1500 
 38 H        6.7720    -1.1260    -2.8860 H     1 <1>   0.1500 
 39 H        1.3510    -6.8130     1.9460 H     1 <1>   0.0800 
 40 H        1.9340    -6.8710     0.3130 H     1 <1>   0.0800 
 41 H       -0.3800    -3.8060     1.9390 H     1 <1>   0.0800 
 42 H       -0.6980    -5.4620     2.3320 H     1 <1>   0.0800 
 43 H        4.4390     0.9890     3.4610 H     1 <1>   0.0800 
 44 H        5.9330     1.3470     2.6010 H     1 <1>   0.0800 
 45 H        5.5300    -0.3250     3.0350 H     1 <1>   0.0800 
 46 H        8.0850    -0.9950    -0.8110 H     1 <1>   0.1500 
 47 H       -2.0000    -5.7500     0.2420 H     1 <1>   0.0800 
 48 H       -1.6630    -4.0810    -0.1970 H     1 <1>   0.0800 
 49 H       -0.9700    -8.0450     2.3800 H     1 <1>   0.2700 
 50 H        0.0350    -7.6780    -1.6680 H     1 <1>   0.1500 
 51 H       -3.6850    -4.3860     0.8590 H     1 <1>   0.4000 
 52 H       -3.6170    -8.9690     1.6710 H     1 <1>   0.0800 
 53 H       -2.5810   -10.3810     1.7900 H     1 <1>   0.0800 
 54 H       -3.4860   -10.0770     0.3270 H     1 <1>   0.0800 
@<TRIPOS>BOND
  1   1   2  2   
  2   2   3  am  
  3   2   4  1   
  4   3   5  1   
  5   3   6  1   
  6   4   7  1   
  7   4  29  1   
  8   4  30  1   
  9   5   7  1   
 10   5  31  1   
 11   5  32  1   
 12   6   8  1   
 13   6  33  1   
 14   6  34  1   
 15   7   9  1   
 16   7  35  1   
 17   8  10  ar  
 18   8  11  ar  
 19   9  12  2   
 20   9  13  am  
 21  10  14  1   
 22  10  15  ar  
 23  11  16  ar  
 24  11  36  1   
 25  13  17  1   
 26  13  18  1   
 27  14  19  1   
 28  15  20  ar  
 29  15  37  1   
 30  16  20  ar  
 31  16  38  1   
 32  17  21  1   
 33  17  39  1   
 34  17  40  1   
 35  18  22  1   
 36  18  41  1   
 37  18  42  1   
 38  19  43  1   
 39  19  44  1   
 40  19  45  1   
 41  20  46  1   
 42  21  23  1   
 43  21  24  2   
 44  22  25  1   
 45  22  47  1   
 46  22  48  1   
 47  23  26  1   
 48  23  49  1   
 49  24  27  1   
 50  24  50  1   
 51  25  51  1   
 52  26  27  2   
 53  26  28  1   
 54  28  52  1   
 55  28  53  1   
 56  28  54  1   
@<TRIPOS>SUBSTRUCTURE
  1 ****   7 GROUP 4 **** **** 0

# MOE 2024.06 (io_trps.svl 2023.06)
