@<TRIPOS>MOLECULE
NONAME
53 56 1 0 0 
SMALL
USER_CHARGES


@<TRIPOS>ATOM
  1 O       -3.2380    -0.9680    -3.0010 O.2   1 <1>  -0.5700 
  2 C       -3.1340    -1.2300    -1.8260 C.2   1 <1>   0.5690 
  3 N       -2.7490    -0.2970    -0.9080 N.am  1 <1>  -0.6600 
  4 C       -3.4360    -2.6460    -1.3920 C.3   1 <1>  -0.0190 
  5 C       -2.7220    -0.5970     0.5520 C.3   1 <1>   0.2200 
  6 C       -2.4010     1.0990    -1.2980 C.3   1 <1>   0.0600 
  7 C       -2.1810    -3.3030    -0.7860 C.3   1 <1>   0.1200 
  8 C       -4.7430    -2.7170    -0.5770 C.3   1 <1>   0.1400 
  9 C       -1.6500    -1.6670     0.8940 C.3   1 <1>   0.1200 
 10 C       -4.1500    -0.8760     1.0770 C.3   1 <1>   0.1400 
 11 O       -1.9770    -2.9930     0.5590 O.3   1 <1>  -0.5600 
 12 N       -4.6300    -2.2780     0.8540 N.am  1 <1>  -0.6600 
 13 C       -4.7570    -3.1240     1.9350 C.2   1 <1>   0.5690 
 14 O       -4.7650    -2.7030     3.0700 O.2   1 <1>  -0.5700 
 15 C       -4.8620    -4.6340     1.7600 C.3   1 <1>   0.0820 
 16 C       -6.2110    -5.0990     1.2240 C.2   1 <1>  -0.1810 
 17 C       -6.5060    -6.3860     0.7080 C.ar  1 <1>   0.0000 
 18 C       -7.3480    -4.3830     1.1300 C.2   1 <1>  -0.0100 
 19 C       -5.8190    -7.5910     0.5170 C.ar  1 <1>  -0.1430 
 20 C       -7.8390    -6.3090     0.3290 C.ar  1 <1>   0.1400 
 21 O       -8.3270    -5.0940     0.5930 O.3   1 <1>  -0.2800 
 22 C       -6.4930    -8.6520    -0.0550 C.ar  1 <1>  -0.1500 
 23 C       -4.3640    -7.7520     0.9270 C.3   1 <1>  -0.0970 
 24 C       -8.5270    -7.3770    -0.2440 C.ar  1 <1>  -0.1430 
 25 C       -7.8340    -8.5590    -0.4420 C.ar  1 <1>  -0.1430 
 26 C       -9.9930    -7.2120    -0.6290 C.3   1 <1>  -0.0970 
 27 C       -8.4940    -9.7780    -1.0710 C.3   1 <1>  -0.0970 
 28 H       -3.6310    -3.1820    -2.3020 H     1 <1>   0.0800 
 29 H       -2.4020     0.3050     1.0450 H     1 <1>   0.0800 
 30 H       -1.4090     1.3370    -0.9570 H     1 <1>   0.0800 
 31 H       -3.1040     1.7870    -0.8610 H     1 <1>   0.0800 
 32 H       -2.4290     1.2170    -2.3690 H     1 <1>   0.0800 
 33 H       -1.3000    -3.0260    -1.3390 H     1 <1>   0.0800 
 34 H       -2.2860    -4.3720    -0.8380 H     1 <1>   0.0800 
 35 H       -5.1060    -3.7260    -0.6290 H     1 <1>   0.0800 
 36 H       -5.4840    -2.1040    -1.0600 H     1 <1>   0.0800 
 37 H       -1.4950    -1.6610     1.9580 H     1 <1>   0.0800 
 38 H       -0.7170    -1.4180     0.4210 H     1 <1>   0.0800 
 39 H       -4.8390    -0.1900     0.6170 H     1 <1>   0.0800 
 40 H       -4.1550    -0.6570     2.1300 H     1 <1>   0.0800 
 41 H       -4.0770    -4.9390     1.0970 H     1 <1>   0.0800 
 42 H       -4.6870    -5.1040     2.7100 H     1 <1>   0.0800 
 43 H       -7.5570    -3.3650     1.4140 H     1 <1>   0.1500 
 44 H       -5.9770    -9.5830    -0.2100 H     1 <1>   0.1500 
 45 H       -4.0470    -8.7740     0.8200 H     1 <1>   0.0800 
 46 H       -4.2380    -7.4700     1.9570 H     1 <1>   0.0800 
 47 H       -3.7370    -7.1380     0.3080 H     1 <1>   0.0800 
 48 H      -10.5600    -8.0750    -0.3310 H     1 <1>   0.0800 
 49 H      -10.0770    -7.0840    -1.6920 H     1 <1>   0.0800 
 50 H      -10.4230    -6.3540    -0.1460 H     1 <1>   0.0800 
 51 H       -7.7620   -10.5170    -1.3450 H     1 <1>   0.0800 
 52 H       -9.0300    -9.4960    -1.9590 H     1 <1>   0.0800 
 53 H       -9.1810   -10.2220    -0.3730 H     1 <1>   0.0800 
@<TRIPOS>BOND
  1   1   2  2   
  2   2   3  am  
  3   2   4  1   
  4   3   5  1   
  5   3   6  1   
  6   4   7  1   
  7   4   8  1   
  8   4  28  1   
  9   5   9  1   
 10   5  10  1   
 11   5  29  1   
 12   6  30  1   
 13   6  31  1   
 14   6  32  1   
 15   7  11  1   
 16   7  33  1   
 17   7  34  1   
 18   8  12  1   
 19   8  35  1   
 20   8  36  1   
 21   9  11  1   
 22   9  37  1   
 23   9  38  1   
 24  10  12  1   
 25  10  39  1   
 26  10  40  1   
 27  12  13  am  
 28  13  14  2   
 29  13  15  1   
 30  15  16  1   
 31  15  41  1   
 32  15  42  1   
 33  16  17  1   
 34  16  18  2   
 35  17  19  ar  
 36  17  20  ar  
 37  18  21  1   
 38  18  43  1   
 39  19  22  ar  
 40  19  23  1   
 41  20  21  1   
 42  20  24  ar  
 43  22  25  ar  
 44  22  44  1   
 45  23  45  1   
 46  23  46  1   
 47  23  47  1   
 48  24  25  ar  
 49  24  26  1   
 50  25  27  1   
 51  26  48  1   
 52  26  49  1   
 53  26  50  1   
 54  27  51  1   
 55  27  52  1   
 56  27  53  1   
@<TRIPOS>SUBSTRUCTURE
  1 ****   8 GROUP 4 **** **** 0

# MOE 2024.06 (io_trps.svl 2023.06)
