@<TRIPOS>MOLECULE
NONAME
50 52 1 0 0 
SMALL
USER_CHARGES


@<TRIPOS>ATOM
  1 F       -0.9280    -0.7900     1.6470 F     1 <1>  -0.3400 
  2 C       -1.2380    -0.7520     0.3570 C.3   1 <1>   0.6800 
  3 F       -0.0720    -0.6560    -0.2650 F     1 <1>  -0.3400 
  4 C       -1.9160    -2.0640    -0.0250 C.3   1 <1>  -0.1600 
  5 C       -2.0670     0.5010     0.0870 C.3   1 <1>  -0.1600 
  6 C       -3.3010    -2.1340     0.6150 C.3   1 <1>   0.1400 
  7 C       -3.4550     0.3560     0.7120 C.3   1 <1>   0.1400 
  8 N       -4.0690    -0.9130     0.2240 N.am  1 <1>  -0.6600 
  9 C       -5.1570    -0.8910    -0.6300 C.2   1 <1>   0.5690 
 10 O       -5.7130     0.1500    -0.8930 O.2   1 <1>  -0.5700 
 11 C       -5.7420    -2.1610    -1.2630 C.3   1 <1>   0.2610 
 12 O       -4.7400    -2.9250    -1.9130 O.3   1 <1>  -0.5600 
 13 C       -6.5320    -2.9410    -0.1770 C.3   1 <1>   0.3640 
 14 C       -5.1980    -4.1570    -2.4020 C.3   1 <1>   0.1810 
 15 N       -6.3850    -4.4350    -0.2250 N.am  1 <1>  -0.6600 
 16 C       -8.0080    -2.5510    -0.2440 C.ar  1 <1>  -0.1440 
 17 C       -5.7350    -5.0350    -1.2760 C.2   1 <1>   0.5690 
 18 C       -6.8910    -5.1490     0.9810 C.3   1 <1>   0.2200 
 19 C       -8.8880    -3.1810    -1.1140 C.ar  1 <1>  -0.1500 
 20 C       -8.4840    -1.5330     0.5710 C.ar  1 <1>  -0.1500 
 21 O       -5.5560    -6.2270    -1.3620 O.2   1 <1>  -0.5700 
 22 C       -5.7190    -5.7260     1.7740 C.3   1 <1>  -0.2400 
 23 C       -7.9160    -6.2210     0.6120 C.3   1 <1>  -0.2400 
 24 C      -10.2200    -2.8070    -1.1630 C.ar  1 <1>  -0.1500 
 25 C       -9.8150    -1.1570     0.5230 C.ar  1 <1>  -0.1500 
 26 C      -10.6840    -1.7950    -0.3430 C.ar  1 <1>  -0.1500 
 27 H       -2.0290    -2.1110    -1.0930 H     1 <1>   0.0800 
 28 H       -1.3140    -2.8940     0.2960 H     1 <1>   0.0800 
 29 H       -1.5670     1.3640     0.4850 H     1 <1>   0.0800 
 30 H       -2.1840     0.6280    -0.9740 H     1 <1>   0.0800 
 31 H       -3.2080    -2.1610     1.6880 H     1 <1>   0.0800 
 32 H       -3.7970    -3.0370     0.3110 H     1 <1>   0.0800 
 33 H       -4.0600     1.2070     0.4500 H     1 <1>   0.0800 
 34 H       -3.3780     0.3240     1.7860 H     1 <1>   0.0800 
 35 H       -6.4290    -1.8480    -2.0290 H     1 <1>   0.0800 
 36 H       -6.1590    -2.6260     0.7820 H     1 <1>   0.0800 
 37 H       -5.9660    -3.9800    -3.1330 H     1 <1>   0.0800 
 38 H       -4.3690    -4.6500    -2.8760 H     1 <1>   0.0800 
 39 H       -7.3950    -4.4370     1.6150 H     1 <1>   0.0800 
 40 H       -8.5450    -3.9720    -1.7590 H     1 <1>   0.1500 
 41 H       -7.8220    -1.0160     1.2460 H     1 <1>   0.1500 
 42 H       -5.2160    -6.4900     1.2100 H     1 <1>   0.0800 
 43 H       -6.0800    -6.1660     2.6860 H     1 <1>   0.0800 
 44 H       -5.0200    -4.9500     2.0250 H     1 <1>   0.0800 
 45 H       -7.4650    -7.0210     0.0560 H     1 <1>   0.0800 
 46 H       -8.7140    -5.7920     0.0350 H     1 <1>   0.0800 
 47 H       -8.3380    -6.6390     1.5080 H     1 <1>   0.0800 
 48 H      -10.8940    -3.3040    -1.8380 H     1 <1>   0.1500 
 49 H      -10.1740    -0.3660     1.1580 H     1 <1>   0.1500 
 50 H      -11.7190    -1.5030    -0.3800 H     1 <1>   0.1500 
@<TRIPOS>BOND
  1   1   2  1   
  2   2   3  1   
  3   2   4  1   
  4   2   5  1   
  5   4   6  1   
  6   4  27  1   
  7   4  28  1   
  8   5   7  1   
  9   5  29  1   
 10   5  30  1   
 11   6   8  1   
 12   6  31  1   
 13   6  32  1   
 14   7   8  1   
 15   7  33  1   
 16   7  34  1   
 17   8   9  am  
 18   9  10  2   
 19   9  11  1   
 20  11  12  1   
 21  11  13  1   
 22  11  35  1   
 23  12  14  1   
 24  13  15  1   
 25  13  16  1   
 26  13  36  1   
 27  14  17  1   
 28  14  37  1   
 29  14  38  1   
 30  15  17  am  
 31  15  18  1   
 32  16  19  ar  
 33  16  20  ar  
 34  17  21  2   
 35  18  22  1   
 36  18  23  1   
 37  18  39  1   
 38  19  24  ar  
 39  19  40  1   
 40  20  25  ar  
 41  20  41  1   
 42  22  42  1   
 43  22  43  1   
 44  22  44  1   
 45  23  45  1   
 46  23  46  1   
 47  23  47  1   
 48  24  26  ar  
 49  24  48  1   
 50  25  26  ar  
 51  25  49  1   
 52  26  50  1   
@<TRIPOS>SUBSTRUCTURE
  1 ****  13 GROUP 4 **** **** 0

# MOE 2024.06 (io_trps.svl 2023.06)
