@<TRIPOS>MOLECULE
NONAME
48 50 1 0 0 
SMALL
USER_CHARGES


@<TRIPOS>ATOM
  1 O       -1.3190     0.8500     2.7750 O.3   1 <1>  -0.5600 
  2 C       -0.0830     0.6530     2.1610 C.3   1 <1>   0.1200 
  3 C       -2.3180     1.0270     1.8150 C.3   1 <1>   0.1200 
  4 C       -0.1640     1.4040     0.8360 C.3   1 <1>   0.2890 
  5 C       -1.6160     1.1380     0.4570 C.3   1 <1>  -0.0800 
  6 N        0.0660     2.8490     1.0930 N.pl3 1 <1>  -0.8690 
  7 C       -2.2680     2.1540    -0.5000 C.3   1 <1>  -0.0170 
  8 C        0.8480     3.7450     0.4930 C.ar  1 <1>   0.4100 
  9 C       -3.6880     1.7350    -0.8490 C.ar  1 <1>  -0.1430 
 10 N        0.8380     4.9500     1.0590 N.ar  1 <1>  -0.6200 
 11 C        1.6310     3.4860    -0.6370 C.ar  1 <1>  -0.1500 
 12 C       -4.7890     2.2960    -0.2340 C.ar  1 <1>  -0.1500 
 13 C       -3.9500     0.7670    -1.7980 C.ar  1 <1>  -0.1500 
 14 C        1.5840     5.8800     0.5420 C.ar  1 <1>   0.5280 
 15 C        2.4030     4.4840    -1.1560 C.ar  1 <1>   0.2180 
 16 C       -6.0610     1.8710    -0.5830 C.ar  1 <1>   0.1600 
 17 C       -5.2610     0.4140    -2.0740 C.ar  1 <1>   0.1600 
 18 N        2.3650     5.6850    -0.5430 N.ar  1 <1>  -0.1790 
 19 C        1.5780     7.2580     1.1900 C.3   1 <1>  -0.0160 
 20 C        3.2880     4.3010    -2.3770 C.3   1 <1>  -0.0970 
 21 N       -6.3230     0.9410    -1.4870 N.ar  1 <1>  -0.6200 
 22 C        0.8910     8.3180     0.3120 C.3   1 <1>  -0.1600 
 23 C        0.8900     9.6880     0.9960 C.3   1 <1>  -0.2400 
 24 H        0.7020     1.0180     2.8000 H     1 <1>   0.0800 
 25 H        0.0380    -0.4040     1.9970 H     1 <1>   0.0800 
 26 H       -2.9930     0.1890     1.8510 H     1 <1>   0.0800 
 27 H       -2.8490     1.9300     2.0650 H     1 <1>   0.0800 
 28 H        0.5310     1.0140     0.1150 H     1 <1>   0.0800 
 29 H       -1.6630     0.1660    -0.0030 H     1 <1>   0.0800 
 30 H       -0.4370     3.1650     1.9320 H     1 <1>   0.4000 
 31 H       -1.6880     2.2230    -1.4030 H     1 <1>   0.0800 
 32 H       -2.2870     3.1320    -0.0510 H     1 <1>   0.0800 
 33 H        1.6130     2.5080    -1.0760 H     1 <1>   0.1500 
 34 H       -4.6750     3.0600     0.5130 H     1 <1>   0.1500 
 35 H       -3.1510     0.2820    -2.3260 H     1 <1>   0.1500 
 36 H       -6.9070     2.3210    -0.0920 H     1 <1>   0.1500 
 37 H       -5.4460    -0.3430    -2.8170 H     1 <1>   0.1500 
 38 H        2.9210     6.4660    -0.8900 H     1 <1>   0.4570 
 39 H        1.0560     7.1950     2.1310 H     1 <1>   0.0800 
 40 H        2.5890     7.5560     1.4070 H     1 <1>   0.0800 
 41 H        3.2130     3.2940    -2.7500 H     1 <1>   0.0800 
 42 H        4.3180     4.4880    -2.1280 H     1 <1>   0.0800 
 43 H        2.9890     4.9710    -3.1640 H     1 <1>   0.0800 
 44 H        1.3880     8.4070    -0.6390 H     1 <1>   0.0800 
 45 H       -0.1290     8.0220     0.1280 H     1 <1>   0.0800 
 46 H        1.8950    10.0300     1.1780 H     1 <1>   0.0800 
 47 H        0.3660     9.6440     1.9360 H     1 <1>   0.0800 
 48 H        0.3960    10.4120     0.3720 H     1 <1>   0.0800 
@<TRIPOS>BOND
  1   1   2  1   
  2   1   3  1   
  3   2   4  1   
  4   2  24  1   
  5   2  25  1   
  6   3   5  1   
  7   3  26  1   
  8   3  27  1   
  9   4   5  1   
 10   4   6  1   
 11   4  28  1   
 12   5   7  1   
 13   5  29  1   
 14   6   8  1   
 15   6  30  1   
 16   7   9  1   
 17   7  31  1   
 18   7  32  1   
 19   8  10  ar  
 20   8  11  ar  
 21   9  12  ar  
 22   9  13  ar  
 23  10  14  ar  
 24  11  15  ar  
 25  11  33  1   
 26  12  16  ar  
 27  12  34  1   
 28  13  17  ar  
 29  13  35  1   
 30  14  18  ar  
 31  14  19  1   
 32  15  18  ar  
 33  15  20  1   
 34  16  21  ar  
 35  16  36  1   
 36  17  21  ar  
 37  17  37  1   
 38  18  38  1   
 39  19  22  1   
 40  19  39  1   
 41  19  40  1   
 42  20  41  1   
 43  20  42  1   
 44  20  43  1   
 45  22  23  1   
 46  22  44  1   
 47  22  45  1   
 48  23  46  1   
 49  23  47  1   
 50  23  48  1   
@<TRIPOS>SUBSTRUCTURE
  1 ****   6 GROUP 4 **** **** 0

# MOE 2024.06 (io_trps.svl 2023.06)
