@<TRIPOS>MOLECULE
NONAME
58 61 1 0 0 
SMALL
USER_CHARGES


@<TRIPOS>ATOM
  1 O        4.3080     0.1110     2.8280 O.3   1 <1>  -0.5600 
  2 C        4.1220     1.0350     1.8070 C.3   1 <1>   0.1200 
  3 C        3.6650    -1.1080     2.5830 C.3   1 <1>   0.1200 
  4 C        4.7360     0.4770     0.5160 C.3   1 <1>   0.1900 
  5 C        4.1550    -1.7690     1.2660 C.3   1 <1>   0.1900 
  6 N        4.0950    -0.8070     0.1230 N.3   1 <1>  -0.8100 
  7 C        4.6490     1.5180    -0.6180 C.3   1 <1>   0.3430 
  8 C        3.3120    -3.0250     0.9520 C.3   1 <1>  -0.1600 
  9 C        4.7350    -1.3310    -1.1100 C.3   1 <1>   0.1100 
 10 N        5.3140     1.0000    -1.8600 N.4   1 <1>  -0.9590 
 11 C        3.2600    -4.0500     2.0980 C.3   1 <1>  -0.1600 
 12 C        4.7060    -0.3070    -2.2670 C.3   1 <1>   0.3430 
 13 C        5.3560     2.0030    -2.9510 C.3   1 <1>   0.5240 
 14 C        2.5450    -5.3300     1.6560 C.3   1 <1>  -0.2400 
 15 C        6.4000     3.0660    -2.6470 C.2   1 <1>  -0.1810 
 16 C        7.4320     3.1060    -1.7530 C.2   1 <1>  -0.2050 
 17 C        6.4590     4.2780    -3.3210 C.2   1 <1>   0.1390 
 18 N        8.0340     4.3060    -1.9460 N.pl3 1 <1>   0.3000 
 19 C        7.8630     2.1550    -0.7680 C.ar  1 <1>   0.0530 
 20 N        7.4310     5.0260    -2.9050 N.2   1 <1>  -0.7070 
 21 C        8.3920     0.9250    -1.1460 C.ar  1 <1>  -0.1500 
 22 C        7.6950     2.4160     0.5890 C.ar  1 <1>  -0.1500 
 23 C        8.6650    -0.0450    -0.2010 C.ar  1 <1>  -0.1500 
 24 C        7.9720     1.4510     1.5390 C.ar  1 <1>  -0.1500 
 25 C        8.4310     0.1990     1.1420 C.ar  1 <1>   0.0820 
 26 O        8.6510    -0.8260     1.9970 O.3   1 <1>  -0.3630 
 27 C        8.2140    -0.7660     3.3390 C.3   1 <1>   0.0400 
 28 H        3.0680     1.2250     1.6920 H     1 <1>   0.0800 
 29 H        4.6150     1.9440     2.1020 H     1 <1>   0.0800 
 30 H        3.8750    -1.7460     3.4220 H     1 <1>   0.0800 
 31 H        2.6030    -0.9330     2.5440 H     1 <1>   0.0800 
 32 H        5.7730     0.2920     0.7190 H     1 <1>   0.0800 
 33 H        5.1780    -2.0730     1.4190 H     1 <1>   0.0800 
 34 H        5.1300     2.4280    -0.2990 H     1 <1>   0.0800 
 35 H        3.6110     1.7330    -0.8130 H     1 <1>   0.0800 
 36 H        2.3080    -2.7220     0.7070 H     1 <1>   0.0800 
 37 H        3.7280    -3.5320     0.1030 H     1 <1>   0.0800 
 38 H        5.7530    -1.6140    -0.9020 H     1 <1>   0.0800 
 39 H        4.2110    -2.2060    -1.4490 H     1 <1>   0.0800 
 40 H        6.2960     0.8270    -1.5970 H     1 <1>   0.4500 
 41 H        4.2600    -4.2980     2.4120 H     1 <1>   0.0800 
 42 H        2.7310    -3.6440     2.9440 H     1 <1>   0.0800 
 43 H        3.6800    -0.1570    -2.5600 H     1 <1>   0.0800 
 44 H        5.2380    -0.7160    -3.1100 H     1 <1>   0.0800 
 45 H        5.6190     1.5220    -3.8790 H     1 <1>   0.0800 
 46 H        4.3870     2.4610    -3.0690 H     1 <1>   0.0800 
 47 H        3.0650    -5.7920     0.8360 H     1 <1>   0.0800 
 48 H        1.5370    -5.1120     1.3490 H     1 <1>   0.0800 
 49 H        2.5070    -6.0310     2.4720 H     1 <1>   0.0800 
 50 H        5.7900     4.5920    -4.1070 H     1 <1>   0.1500 
 51 H        8.8600     4.6510    -1.4390 H     1 <1>   0.2700 
 52 H        8.5910     0.7270    -2.1860 H     1 <1>   0.1500 
 53 H        7.3310     3.3790     0.9040 H     1 <1>   0.1500 
 54 H        9.0660    -1.0020    -0.4910 H     1 <1>   0.1500 
 55 H        7.8220     1.6810     2.5790 H     1 <1>   0.1500 
 56 H        8.4060    -1.7200     3.7970 H     1 <1>   0.0800 
 57 H        7.1570    -0.5590     3.3570 H     1 <1>   0.0800 
 58 H        8.7650     0.0000     3.8540 H     1 <1>   0.0800 
@<TRIPOS>BOND
  1   1   2  1   
  2   1   3  1   
  3   2   4  1   
  4   2  28  1   
  5   2  29  1   
  6   3   5  1   
  7   3  30  1   
  8   3  31  1   
  9   4   6  1   
 10   4   7  1   
 11   4  32  1   
 12   5   6  1   
 13   5   8  1   
 14   5  33  1   
 15   6   9  1   
 16   7  10  1   
 17   7  34  1   
 18   7  35  1   
 19   8  11  1   
 20   8  36  1   
 21   8  37  1   
 22   9  12  1   
 23   9  38  1   
 24   9  39  1   
 25  10  12  1   
 26  10  13  1   
 27  10  40  1   
 28  11  14  1   
 29  11  41  1   
 30  11  42  1   
 31  12  43  1   
 32  12  44  1   
 33  13  15  1   
 34  13  45  1   
 35  13  46  1   
 36  14  47  1   
 37  14  48  1   
 38  14  49  1   
 39  15  16  2   
 40  15  17  1   
 41  16  18  1   
 42  16  19  1   
 43  17  20  2   
 44  17  50  1   
 45  18  20  1   
 46  18  51  1   
 47  19  21  ar  
 48  19  22  ar  
 49  21  23  ar  
 50  21  52  1   
 51  22  24  ar  
 52  22  53  1   
 53  23  25  ar  
 54  23  54  1   
 55  24  25  ar  
 56  24  55  1   
 57  25  26  1   
 58  26  27  1   
 59  27  56  1   
 60  27  57  1   
 61  27  58  1   
@<TRIPOS>SUBSTRUCTURE
  1 ****   4 GROUP 4 **** **** 0

# MOE 2024.06 (io_trps.svl 2023.06)
