@<TRIPOS>MOLECULE
NONAME
45 47 1 0 0 
SMALL
USER_CHARGES


@<TRIPOS>ATOM
  1 O        1.0060    -0.0010    -0.0020 O.3   1 <1>  -0.6800 
  2 C        0.9270     1.2610     0.5600 C.3   1 <1>   0.2000 
  3 C       -0.5440     1.6550     0.8430 C.3   1 <1>  -0.0800 
  4 C        1.5990     2.2560    -0.4040 C.3   1 <1>   0.3430 
  5 C       -0.7020     3.1990     0.9120 C.3   1 <1>  -0.1600 
  6 C       -1.5370     1.0570    -0.1790 C.3   1 <1>   0.1200 
  7 N        1.6120     3.6680     0.1280 N.4   1 <1>  -0.9590 
  8 C        0.6060     3.9330     1.2100 C.3   1 <1>   0.3430 
  9 O       -2.8080     1.5480     0.0650 O.3   1 <1>  -0.6800 
 10 C        1.4880     4.6470    -0.9920 C.3   1 <1>   0.4860 
 11 C        1.8230     6.0290    -0.4590 C.ar  1 <1>  -0.1440 
 12 C        3.1720     6.3030    -0.1050 C.ar  1 <1>   0.0000 
 13 C        0.8370     6.9770    -0.2960 C.ar  1 <1>  -0.1440 
 14 C        3.4670     7.5410     0.5090 C.ar  1 <1>   0.0000 
 15 C        4.2560     5.4160    -0.3310 C.ar  1 <1>  -0.1500 
 16 C        1.1600     8.2100     0.2850 C.ar  1 <1>  -0.1500 
 17 C       -0.6200     6.7760    -0.7030 C.3   1 <1>  -0.0970 
 18 C        2.4360     8.4790     0.6830 C.ar  1 <1>  -0.1500 
 19 C        4.7850     7.8140     0.9260 C.ar  1 <1>  -0.1500 
 20 C        5.5270     5.7100     0.0760 C.ar  1 <1>  -0.1500 
 21 C        5.7950     6.9190     0.7210 C.ar  1 <1>  -0.1500 
 22 H        0.7350    -0.6970     0.6340 H     1 <1>   0.4000 
 23 H        1.4910     1.2340     1.4780 H     1 <1>   0.0800 
 24 H       -0.7890     1.2500     1.8110 H     1 <1>   0.0800 
 25 H        1.0470     2.2280    -1.3280 H     1 <1>   0.0800 
 26 H        2.6070     1.9310    -0.6010 H     1 <1>   0.0800 
 27 H       -1.4230     3.4420     1.6740 H     1 <1>   0.0800 
 28 H       -1.0970     3.5780    -0.0150 H     1 <1>   0.0800 
 29 H       -1.5740    -0.0180    -0.1240 H     1 <1>   0.0800 
 30 H       -1.2680     1.3430    -1.1810 H     1 <1>   0.0800 
 31 H        2.5330     3.8660     0.5450 H     1 <1>   0.4500 
 32 H        0.9920     3.5820     2.1530 H     1 <1>   0.0800 
 33 H        0.4250     4.9920     1.3070 H     1 <1>   0.0800 
 34 H       -3.2530     1.0470     0.7790 H     1 <1>   0.4000 
 35 H        2.1720     4.4000    -1.7870 H     1 <1>   0.0800 
 36 H        0.4890     4.6220    -1.3910 H     1 <1>   0.0800 
 37 H        4.1030     4.4890    -0.8490 H     1 <1>   0.1500 
 38 H        0.3920     8.9530     0.4210 H     1 <1>   0.1500 
 39 H       -1.1020     7.7270    -0.8510 H     1 <1>   0.0800 
 40 H       -1.1560     6.2490     0.0650 H     1 <1>   0.0800 
 41 H       -0.7010     6.2380    -1.6300 H     1 <1>   0.0800 
 42 H        2.6740     9.4260     1.1350 H     1 <1>   0.1500 
 43 H        4.9860     8.7530     1.4110 H     1 <1>   0.1500 
 44 H        6.3430     5.0280    -0.0970 H     1 <1>   0.1500 
 45 H        6.8010     7.1350     1.0410 H     1 <1>   0.1500 
@<TRIPOS>BOND
  1   1   2  1   
  2   1  22  1   
  3   2   3  1   
  4   2   4  1   
  5   2  23  1   
  6   3   5  1   
  7   3   6  1   
  8   3  24  1   
  9   4   7  1   
 10   4  25  1   
 11   4  26  1   
 12   5   8  1   
 13   5  27  1   
 14   5  28  1   
 15   6   9  1   
 16   6  29  1   
 17   6  30  1   
 18   7   8  1   
 19   7  10  1   
 20   7  31  1   
 21   8  32  1   
 22   8  33  1   
 23   9  34  1   
 24  10  11  1   
 25  10  35  1   
 26  10  36  1   
 27  11  12  ar  
 28  11  13  ar  
 29  12  14  ar  
 30  12  15  ar  
 31  13  16  ar  
 32  13  17  1   
 33  14  18  ar  
 34  14  19  ar  
 35  15  20  ar  
 36  15  37  1   
 37  16  18  ar  
 38  16  38  1   
 39  17  39  1   
 40  17  40  1   
 41  17  41  1   
 42  18  42  1   
 43  19  21  ar  
 44  19  43  1   
 45  20  21  ar  
 46  20  44  1   
 47  21  45  1   
@<TRIPOS>SUBSTRUCTURE
  1 ****   7 GROUP 4 **** **** 0

# MOE 2024.06 (io_trps.svl 2023.06)
