@<TRIPOS>MOLECULE
NONAME
51 54 1 0 0 
SMALL
USER_CHARGES


@<TRIPOS>ATOM
  1 S        1.8010    -0.2730    -0.8580 S.3   1 <1>  -0.0800 
  2 C        0.4000    -0.8630     0.0080 C.2   1 <1>   0.1980 
  3 C        1.8230    -1.7440    -1.7730 C.2   1 <1>  -0.1100 
  4 N        0.0120    -2.0150    -0.3650 N.2   1 <1>  -0.5650 
  5 C       -0.2140     0.0180     1.0920 C.3   1 <1>   0.1000 
  6 C        0.8100    -2.5540    -1.3960 C.2   1 <1>   0.1410 
  7 C       -0.7450     1.3360     0.5120 C.3   1 <1>  -0.2400 
  8 C        0.7810     0.2890     2.2280 C.3   1 <1>  -0.2400 
  9 C        0.5690    -3.8800    -1.9650 C.2   1 <1>   0.7160 
 10 O        1.5170    -4.5050    -2.4090 O.2   1 <1>  -0.5700 
 11 N       -0.6790    -4.4720    -2.0350 N.am  1 <1>  -0.6600 
 12 C       -1.9760    -3.7560    -1.8640 C.3   1 <1>   0.1400 
 13 C       -0.8470    -5.9550    -2.0210 C.3   1 <1>   0.1400 
 14 C       -2.6480    -4.2050    -0.5550 C.3   1 <1>   0.1900 
 15 C       -1.5920    -6.3950    -0.7470 C.3   1 <1>   0.1100 
 16 N       -2.8780    -5.6740    -0.5780 N.3   1 <1>  -0.8100 
 17 C       -3.9730    -3.4480    -0.3390 C.3   1 <1>   0.1200 
 18 C       -3.5870    -6.0860     0.6560 C.3   1 <1>   0.3330 
 19 O       -4.5980    -3.8750     0.8380 O.3   1 <1>  -0.5600 
 20 C       -3.9510    -7.5700     0.6130 C.ar  1 <1>  -0.1430 
 21 C       -4.8710    -5.2510     0.8520 C.3   1 <1>   0.1200 
 22 C       -3.6880    -8.3830     1.7070 C.ar  1 <1>  -0.1500 
 23 C       -4.5520    -8.1240    -0.5090 C.ar  1 <1>  -0.1500 
 24 C       -4.0210    -9.7270     1.6790 C.ar  1 <1>  -0.1500 
 25 C       -4.8860    -9.4670    -0.5390 C.ar  1 <1>  -0.1500 
 26 C       -4.6200   -10.2690     0.5560 C.ar  1 <1>  -0.1500 
 27 H        2.5950    -1.8780    -2.5090 H     1 <1>   0.1500 
 28 H       -1.0480    -0.5220     1.5050 H     1 <1>   0.0800 
 29 H        0.0580     1.9310     0.1170 H     1 <1>   0.0800 
 30 H       -1.2490     1.9020     1.2750 H     1 <1>   0.0800 
 31 H       -1.4440     1.1320    -0.2800 H     1 <1>   0.0800 
 32 H        1.6200     0.8620     1.8740 H     1 <1>   0.0800 
 33 H        1.1440    -0.6420     2.6250 H     1 <1>   0.0800 
 34 H        0.3020     0.8350     3.0210 H     1 <1>   0.0800 
 35 H       -1.8330    -2.6910    -1.8680 H     1 <1>   0.0800 
 36 H       -2.6200    -3.9970    -2.6900 H     1 <1>   0.0800 
 37 H       -1.4120    -6.2560    -2.8860 H     1 <1>   0.0800 
 38 H        0.1090    -6.4470    -2.0610 H     1 <1>   0.0800 
 39 H       -1.9900    -3.9520     0.2590 H     1 <1>   0.0800 
 40 H       -0.9590    -6.2190     0.1060 H     1 <1>   0.0800 
 41 H       -1.7750    -7.4540    -0.8100 H     1 <1>   0.0800 
 42 H       -4.6440    -3.6130    -1.1640 H     1 <1>   0.0800 
 43 H       -3.7860    -2.3930    -0.2450 H     1 <1>   0.0800 
 44 H       -2.9460    -5.9080     1.5030 H     1 <1>   0.0800 
 45 H       -5.3200    -5.4870     1.8000 H     1 <1>   0.0800 
 46 H       -5.5790    -5.4680     0.0720 H     1 <1>   0.0800 
 47 H       -3.2230    -7.9760     2.5870 H     1 <1>   0.1500 
 48 H       -4.7540    -7.5040    -1.3650 H     1 <1>   0.1500 
 49 H       -3.8150   -10.3510     2.5310 H     1 <1>   0.1500 
 50 H       -5.3510    -9.8860    -1.4140 H     1 <1>   0.1500 
 51 H       -4.8800   -11.3130     0.5340 H     1 <1>   0.1500 
@<TRIPOS>BOND
  1   1   2  1   
  2   1   3  1   
  3   2   4  2   
  4   2   5  1   
  5   3   6  2   
  6   3  27  1   
  7   4   6  1   
  8   5   7  1   
  9   5   8  1   
 10   5  28  1   
 11   6   9  1   
 12   7  29  1   
 13   7  30  1   
 14   7  31  1   
 15   8  32  1   
 16   8  33  1   
 17   8  34  1   
 18   9  10  2   
 19   9  11  am  
 20  11  12  1   
 21  11  13  1   
 22  12  14  1   
 23  12  35  1   
 24  12  36  1   
 25  13  15  1   
 26  13  37  1   
 27  13  38  1   
 28  14  16  1   
 29  14  17  1   
 30  14  39  1   
 31  15  16  1   
 32  15  40  1   
 33  15  41  1   
 34  16  18  1   
 35  17  19  1   
 36  17  42  1   
 37  17  43  1   
 38  18  20  1   
 39  18  21  1   
 40  18  44  1   
 41  19  21  1   
 42  20  22  ar  
 43  20  23  ar  
 44  21  45  1   
 45  21  46  1   
 46  22  24  ar  
 47  22  47  1   
 48  23  25  ar  
 49  23  48  1   
 50  24  26  ar  
 51  24  49  1   
 52  25  26  ar  
 53  25  50  1   
 54  26  51  1   
@<TRIPOS>SUBSTRUCTURE
  1 ****  14 GROUP 4 **** **** 0

# MOE 2024.06 (io_trps.svl 2023.06)
