@<TRIPOS>MOLECULE
NONAME
48 49 1 0 0 
SMALL
USER_CHARGES


@<TRIPOS>ATOM
  1 N       -0.9500    -2.2640     1.5050 N.ar  1 <1>  -0.6200 
  2 C       -2.0770    -2.3370     0.8220 C.ar  1 <1>   0.4100 
  3 C       -0.2200    -3.3670     1.3910 C.ar  1 <1>   0.1600 
  4 N       -2.9130    -1.2170     0.8710 N.pl3 1 <1>  -0.8380 
  5 C       -2.4530    -3.4850     0.0580 C.ar  1 <1>   0.4100 
  6 C       -0.5930    -4.4780     0.6530 C.ar  1 <1>   0.1600 
  7 C       -2.3570    -0.0040     0.2110 C.3   1 <1>   0.1290 
  8 C       -3.4650    -0.9100     2.2180 C.3   1 <1>   0.1290 
  9 N       -1.7290    -4.5850    -0.0340 N.ar  1 <1>  -0.6200 
 10 N       -3.6560    -3.4890    -0.6310 N.pl3 1 <1>  -0.8690 
 11 C       -3.6260    -3.7430    -2.0920 C.3   1 <1>   0.2090 
 12 C       -4.6010    -4.8690    -2.4580 C.3   1 <1>  -0.1600 
 13 C       -4.2140    -6.2430    -1.8960 C.3   1 <1>   0.3430 
 14 N       -4.2480    -6.2500    -0.4140 N.4   1 <1>  -0.9590 
 15 C       -3.3680    -7.3080     0.1570 C.3   1 <1>   0.4230 
 16 C       -5.6300    -6.1660     0.1460 C.3   1 <1>   0.2630 
 17 C       -3.9510    -8.7140     0.0030 C.3   1 <1>  -0.1600 
 18 C       -3.1940    -7.1340     1.6650 C.3   1 <1>  -0.1600 
 19 C       -4.7260    -9.0250     1.2880 C.3   1 <1>  -0.1600 
 20 C       -4.1950    -8.0670     2.3600 C.3   1 <1>  -0.1600 
 21 H        0.7200    -3.3790     1.9140 H     1 <1>   0.1500 
 22 H        0.0760    -5.3210     0.6270 H     1 <1>   0.1500 
 23 H       -1.9210    -0.2680    -0.7370 H     1 <1>   0.0800 
 24 H       -1.5940     0.4360     0.8310 H     1 <1>   0.0800 
 25 H       -3.1390     0.7170     0.0460 H     1 <1>   0.0800 
 26 H       -3.8060    -1.8160     2.6900 H     1 <1>   0.0800 
 27 H       -4.2930    -0.2290     2.1310 H     1 <1>   0.0800 
 28 H       -2.7020    -0.4670     2.8370 H     1 <1>   0.0800 
 29 H       -4.0930    -2.5710    -0.4310 H     1 <1>   0.4000 
 30 H       -2.6270    -4.0000    -2.4090 H     1 <1>   0.0800 
 31 H       -3.9100    -2.8400    -2.6070 H     1 <1>   0.0800 
 32 H       -4.6050    -4.9520    -3.5300 H     1 <1>   0.0800 
 33 H       -5.5990    -4.5990    -2.1690 H     1 <1>   0.0800 
 34 H       -3.2160    -6.4780    -2.2280 H     1 <1>   0.0800 
 35 H       -4.8820    -6.9980    -2.2780 H     1 <1>   0.0800 
 36 H       -3.7710    -5.3460    -0.1740 H     1 <1>   0.4500 
 37 H       -2.4040    -7.2480    -0.3230 H     1 <1>   0.0800 
 38 H       -6.1940    -7.0450    -0.1180 H     1 <1>   0.0800 
 39 H       -6.1340    -5.2960    -0.2370 H     1 <1>   0.0800 
 40 H       -5.5900    -6.0870     1.2190 H     1 <1>   0.0800 
 41 H       -3.1270    -9.4030    -0.0620 H     1 <1>   0.0800 
 42 H       -4.5550    -8.8330    -0.8780 H     1 <1>   0.0800 
 43 H       -3.2980    -6.1090     1.9780 H     1 <1>   0.0800 
 44 H       -2.2010    -7.4590     1.9190 H     1 <1>   0.0800 
 45 H       -4.5860   -10.0520     1.5820 H     1 <1>   0.0800 
 46 H       -5.7800    -8.8600     1.1400 H     1 <1>   0.0800 
 47 H       -5.0050    -7.5050     2.7910 H     1 <1>   0.0800 
 48 H       -3.7080    -8.6140     3.1510 H     1 <1>   0.0800 
@<TRIPOS>BOND
  1   1   2  ar  
  2   1   3  ar  
  3   2   4  1   
  4   2   5  ar  
  5   3   6  ar  
  6   3  21  1   
  7   4   7  1   
  8   4   8  1   
  9   5   9  ar  
 10   5  10  1   
 11   6   9  ar  
 12   6  22  1   
 13   7  23  1   
 14   7  24  1   
 15   7  25  1   
 16   8  26  1   
 17   8  27  1   
 18   8  28  1   
 19  10  11  1   
 20  10  29  1   
 21  11  12  1   
 22  11  30  1   
 23  11  31  1   
 24  12  13  1   
 25  12  32  1   
 26  12  33  1   
 27  13  14  1   
 28  13  34  1   
 29  13  35  1   
 30  14  15  1   
 31  14  16  1   
 32  14  36  1   
 33  15  17  1   
 34  15  18  1   
 35  15  37  1   
 36  16  38  1   
 37  16  39  1   
 38  16  40  1   
 39  17  19  1   
 40  17  41  1   
 41  17  42  1   
 42  18  20  1   
 43  18  43  1   
 44  18  44  1   
 45  19  20  1   
 46  19  45  1   
 47  19  46  1   
 48  20  47  1   
 49  20  48  1   
@<TRIPOS>SUBSTRUCTURE
  1 ****   5 GROUP 4 **** **** 0

# MOE 2024.06 (io_trps.svl 2023.06)
