@<TRIPOS>MOLECULE
NONAME
48 50 1 0 0 
SMALL
USER_CHARGES


@<TRIPOS>ATOM
  1 O        0.4510     1.9530    -0.9510 O.3   1 <1>  -0.0190 
  2 N        0.7860     0.8660    -1.5790 N.2   1 <1>  -0.4100 
  3 C        1.1030     2.0870     0.1730 C.2   1 <1>  -0.0400 
  4 C        1.6540     0.2760    -0.8360 C.2   1 <1>   0.1080 
  5 C        1.9060     1.0210     0.3130 C.2   1 <1>  -0.1500 
  6 C        0.8820     3.3140     1.0360 C.3   1 <1>   0.0200 
  7 C        2.3040    -1.0470    -1.1760 C.3   1 <1>  -0.0590 
  8 C        0.9400     4.5940     0.1790 C.3   1 <1>  -0.0800 
  9 C        0.9630     5.9190     0.9400 C.3   1 <1>   0.2000 
 10 C        2.1640     4.6720    -0.7310 C.3   1 <1>   0.3430 
 11 O        1.8560     5.8380     2.0040 O.3   1 <1>  -0.6800 
 12 C        1.4930     6.9190    -0.0940 C.3   1 <1>   0.3430 
 13 N        2.3220     6.1170    -1.0500 N.4   1 <1>  -0.9590 
 14 C        3.7190     6.6060    -1.1460 C.3   1 <1>   0.5230 
 15 C        3.6720     7.9140    -1.9180 C.2   1 <1>   0.0060 
 16 N        2.8180     8.1280    -2.8740 N.2   1 <1>  -0.5650 
 17 N        4.4930     8.9640    -1.6700 N.pl3 1 <1>   0.0480 
 18 C        3.0990     9.3800    -3.2780 C.2   1 <1>   0.0770 
 19 C        4.1120     9.9030    -2.5550 C.2   1 <1>  -0.3020 
 20 C        5.5730     9.1110    -0.6680 C.3   1 <1>   0.0960 
 21 C        5.0180     9.4970     0.7060 C.3   1 <1>   0.1200 
 22 O        4.1750     8.4910     1.1920 O.3   1 <1>  -0.5600 
 23 C        3.6830     8.7810     2.4680 C.3   1 <1>   0.0400 
 24 H        2.5900     0.7640     1.1010 H     1 <1>   0.1500 
 25 H       -0.0820     3.2430     1.5100 H     1 <1>   0.0800 
 26 H        1.6290     3.3230     1.8110 H     1 <1>   0.0800 
 27 H        3.3690    -0.9280    -1.2420 H     1 <1>   0.0800 
 28 H        1.9340    -1.4080    -2.1190 H     1 <1>   0.0800 
 29 H        2.0750    -1.7710    -0.4150 H     1 <1>   0.0800 
 30 H        0.0740     4.5970    -0.4620 H     1 <1>   0.0800 
 31 H       -0.0020     6.1970     1.3320 H     1 <1>   0.0800 
 32 H        2.0290     4.0770    -1.6220 H     1 <1>   0.0800 
 33 H        3.0280     4.3140    -0.1950 H     1 <1>   0.0800 
 34 H        2.7870     5.8700     1.7120 H     1 <1>   0.4000 
 35 H        2.0560     7.7080     0.3760 H     1 <1>   0.0800 
 36 H        0.6640     7.3540    -0.6290 H     1 <1>   0.0800 
 37 H        1.9570     6.3330    -1.9970 H     1 <1>   0.4500 
 38 H        4.1430     6.7450    -0.1670 H     1 <1>   0.0800 
 39 H        4.3230     5.9030    -1.6940 H     1 <1>   0.0800 
 40 H        2.5520     9.8500    -4.0800 H     1 <1>   0.1500 
 41 H        4.5680    10.8740    -2.6300 H     1 <1>   0.1500 
 42 H        6.1300     8.1940    -0.5970 H     1 <1>   0.0800 
 43 H        6.2450     9.8790    -1.0050 H     1 <1>   0.0800 
 44 H        4.4630    10.4180     0.6370 H     1 <1>   0.0800 
 45 H        5.8320     9.6270     1.4010 H     1 <1>   0.0800 
 46 H        3.0500     7.9760     2.7910 H     1 <1>   0.0800 
 47 H        3.1110     9.6940     2.4320 H     1 <1>   0.0800 
 48 H        4.5060     8.8840     3.1550 H     1 <1>   0.0800 
@<TRIPOS>BOND
  1   1   2  1   
  2   1   3  1   
  3   2   4  2   
  4   3   5  2   
  5   3   6  1   
  6   4   5  1   
  7   4   7  1   
  8   5  24  1   
  9   6   8  1   
 10   6  25  1   
 11   6  26  1   
 12   7  27  1   
 13   7  28  1   
 14   7  29  1   
 15   8   9  1   
 16   8  10  1   
 17   8  30  1   
 18   9  11  1   
 19   9  12  1   
 20   9  31  1   
 21  10  13  1   
 22  10  32  1   
 23  10  33  1   
 24  11  34  1   
 25  12  13  1   
 26  12  35  1   
 27  12  36  1   
 28  13  14  1   
 29  13  37  1   
 30  14  15  1   
 31  14  38  1   
 32  14  39  1   
 33  15  16  2   
 34  15  17  1   
 35  16  18  1   
 36  17  19  1   
 37  17  20  1   
 38  18  19  2   
 39  18  40  1   
 40  19  41  1   
 41  20  21  1   
 42  20  42  1   
 43  20  43  1   
 44  21  22  1   
 45  21  44  1   
 46  21  45  1   
 47  22  23  1   
 48  23  46  1   
 49  23  47  1   
 50  23  48  1   
@<TRIPOS>SUBSTRUCTURE
  1 ****  13 GROUP 4 **** **** 0

# MOE 2024.06 (io_trps.svl 2023.06)
