@<TRIPOS>MOLECULE
NONAME
39 40 1 0 0 
SMALL
USER_CHARGES


@<TRIPOS>ATOM
  1 S        0.5320     0.7330     0.1610 S.3   1 <1>  -0.4600 
  2 C        2.2210     1.1760     0.7060 C.3   1 <1>   0.1310 
  3 C        0.5310    -1.0760     0.2410 C.3   1 <1>   0.0700 
  4 C        2.3860     2.6830     0.8990 C.2   1 <1>   0.5690 
  5 C       -0.8420    -1.5620    -0.2250 C.3   1 <1>  -0.1600 
  6 O        2.7270     3.0620     1.9980 O.2   1 <1>  -0.5700 
  7 N        2.2060     3.5710    -0.1340 N.am  1 <1>  -0.6600 
  8 C       -0.9310    -3.0910    -0.1900 C.3   1 <1>  -0.2400 
  9 C        2.2090     5.0320     0.1220 C.3   1 <1>   0.3200 
 10 C        2.0090     3.1940    -1.5620 C.3   1 <1>   0.0600 
 11 C        3.6330     5.5390     0.0390 C.2   1 <1>  -0.3320 
 12 N        4.5690     5.0980     0.9320 N.pl3 1 <1>   0.0330 
 13 C        4.2070     6.4210    -0.8160 C.2   1 <1>  -0.1500 
 14 C        5.7640     5.7070     0.6410 C.ar  1 <1>  -0.1520 
 15 C        5.5660     6.5460    -0.4550 C.ar  1 <1>   0.0000 
 16 C        7.0150     5.5890     1.2560 C.ar  1 <1>  -0.1500 
 17 C        6.6370     7.2920    -0.9570 C.ar  1 <1>  -0.1500 
 18 C        8.0690     6.3230     0.7600 C.ar  1 <1>  -0.1500 
 19 C        7.8550     7.1610    -0.3390 C.ar  1 <1>   0.1900 
 20 F        8.8740     7.8480    -0.7900 F     1 <1>  -0.1900 
 21 H        2.9090     0.8110    -0.0320 H     1 <1>   0.0800 
 22 H        2.3890     0.6710     1.6390 H     1 <1>   0.0800 
 23 H        0.7240    -1.3560     1.2620 H     1 <1>   0.0800 
 24 H        1.3170    -1.4310    -0.4020 H     1 <1>   0.0800 
 25 H       -1.0200    -1.2160    -1.2290 H     1 <1>   0.0800 
 26 H       -1.6010    -1.1450     0.4140 H     1 <1>   0.0800 
 27 H       -0.1920    -3.5270    -0.8390 H     1 <1>   0.0800 
 28 H       -1.9050    -3.4080    -0.5210 H     1 <1>   0.0800 
 29 H       -0.7760    -3.4550     0.8100 H     1 <1>   0.0800 
 30 H        1.8050     5.2330     1.1000 H     1 <1>   0.0800 
 31 H        1.5900     5.5330    -0.6020 H     1 <1>   0.0800 
 32 H        2.2720     2.1670    -1.7350 H     1 <1>   0.0800 
 33 H        2.6310     3.8110    -2.1880 H     1 <1>   0.0800 
 34 H        0.9780     3.3390    -1.8340 H     1 <1>   0.0800 
 35 H        4.3840     4.4020     1.6680 H     1 <1>   0.2700 
 36 H        3.7520     6.9520    -1.6330 H     1 <1>   0.1500 
 37 H        7.1390     4.9330     2.1010 H     1 <1>   0.1500 
 38 H        6.5010     7.9430    -1.7990 H     1 <1>   0.1500 
 39 H        9.0490     6.2680     1.1960 H     1 <1>   0.1500 
@<TRIPOS>BOND
  1   1   2  1   
  2   1   3  1   
  3   2   4  1   
  4   2  21  1   
  5   2  22  1   
  6   3   5  1   
  7   3  23  1   
  8   3  24  1   
  9   4   6  2   
 10   4   7  am  
 11   5   8  1   
 12   5  25  1   
 13   5  26  1   
 14   7   9  1   
 15   7  10  1   
 16   8  27  1   
 17   8  28  1   
 18   8  29  1   
 19   9  11  1   
 20   9  30  1   
 21   9  31  1   
 22  10  32  1   
 23  10  33  1   
 24  10  34  1   
 25  11  12  1   
 26  11  13  2   
 27  12  14  1   
 28  12  35  1   
 29  13  15  1   
 30  13  36  1   
 31  14  15  ar  
 32  14  16  ar  
 33  15  17  ar  
 34  16  18  ar  
 35  16  37  1   
 36  17  19  ar  
 37  17  38  1   
 38  18  19  ar  
 39  18  39  1   
 40  19  20  1   
@<TRIPOS>SUBSTRUCTURE
  1 ****   7 GROUP 4 **** **** 0

# MOE 2024.06 (io_trps.svl 2023.06)
