@<TRIPOS>MOLECULE
NONAME
36 38 1 0 0 
SMALL
USER_CHARGES


@<TRIPOS>ATOM
  1 CL       2.5580    -0.0870    -2.6470 Cl    1 <1>  -0.1770 
  2 C        2.6070    -0.5010    -0.9480 C.ar  1 <1>   0.1770 
  3 C        2.6580     0.4910     0.0300 C.ar  1 <1>  -0.1440 
  4 C        2.5790    -1.8490    -0.6250 C.ar  1 <1>  -0.1500 
  5 C        2.6530     0.0960     1.3620 C.ar  1 <1>  -0.1500 
  6 C        2.6940     1.9790    -0.3180 C.3   1 <1>   0.2540 
  7 C        2.5900    -2.2370     0.7040 C.ar  1 <1>  -0.1500 
  8 C        2.6250    -1.2520     1.6720 C.ar  1 <1>   0.1900 
  9 N        4.0610     2.5370    -0.3590 N.3   1 <1>  -0.8100 
 10 F        2.6300    -1.6050     2.9290 F     1 <1>  -0.1900 
 11 C        4.7610     2.4800     0.9500 C.3   1 <1>   0.1100 
 12 C        4.8440     2.0290    -1.5060 C.3   1 <1>   0.1100 
 13 C        6.0570     3.3290     1.0710 C.3   1 <1>   0.2200 
 14 C        6.1360     2.8180    -1.8050 C.3   1 <1>  -0.0190 
 15 N        6.1220     4.4310     0.0770 N.am  1 <1>  -0.7300 
 16 C        7.3280     2.4560     0.9860 C.3   1 <1>   0.1200 
 17 C        6.1120     4.2320    -1.2580 C.2   1 <1>   0.5690 
 18 C        7.4110     2.0840    -1.3600 C.3   1 <1>   0.1200 
 19 O        7.2990     1.5450    -0.0760 O.3   1 <1>  -0.5600 
 20 O        6.1170     5.1720    -2.0140 O.2   1 <1>  -0.5700 
 21 H        2.5460    -2.5840    -1.4110 H     1 <1>   0.1500 
 22 H        2.6730     0.8180     2.1580 H     1 <1>   0.1500 
 23 H        2.1240     2.5240     0.4150 H     1 <1>   0.0800 
 24 H        2.2150     2.1520    -1.2660 H     1 <1>   0.0800 
 25 H        2.5710    -3.2750     0.9860 H     1 <1>   0.1500 
 26 H        4.0830     2.8370     1.7050 H     1 <1>   0.0800 
 27 H        4.9910     1.4560     1.1900 H     1 <1>   0.0800 
 28 H        5.0760     0.9870    -1.3570 H     1 <1>   0.0800 
 29 H        4.2250     2.1010    -2.3830 H     1 <1>   0.0800 
 30 H        6.0630     3.7780     2.0480 H     1 <1>   0.0800 
 31 H        6.2080     2.9070    -2.8730 H     1 <1>   0.0800 
 32 H        5.9540     5.3840     0.3970 H     1 <1>   0.3700 
 33 H        7.4070     1.8700     1.8840 H     1 <1>   0.0800 
 34 H        8.2100     3.0670     0.9050 H     1 <1>   0.0800 
 35 H        8.2680     2.7350    -1.3960 H     1 <1>   0.0800 
 36 H        7.5900     1.2560    -2.0230 H     1 <1>   0.0800 
@<TRIPOS>BOND
  1   1   2  1   
  2   2   3  ar  
  3   2   4  ar  
  4   3   5  ar  
  5   3   6  1   
  6   4   7  ar  
  7   4  21  1   
  8   5   8  ar  
  9   5  22  1   
 10   6   9  1   
 11   6  23  1   
 12   6  24  1   
 13   7   8  ar  
 14   7  25  1   
 15   8  10  1   
 16   9  11  1   
 17   9  12  1   
 18  11  13  1   
 19  11  26  1   
 20  11  27  1   
 21  12  14  1   
 22  12  28  1   
 23  12  29  1   
 24  13  15  1   
 25  13  16  1   
 26  13  30  1   
 27  14  17  1   
 28  14  18  1   
 29  14  31  1   
 30  15  17  am  
 31  15  32  1   
 32  16  19  1   
 33  16  33  1   
 34  16  34  1   
 35  17  20  2   
 36  18  19  1   
 37  18  35  1   
 38  18  36  1   
@<TRIPOS>SUBSTRUCTURE
  1 ****   9 GROUP 4 **** **** 0

# MOE 2024.06 (io_trps.svl 2023.06)
