@<TRIPOS>MOLECULE
NONAME
56 59 1 0 0 
SMALL
USER_CHARGES


@<TRIPOS>ATOM
  1 O       -3.9140     1.5780    -0.0270 O.3   1 <1>  -0.6800 
  2 C       -3.3540     1.4450     1.2220 C.3   1 <1>   0.2800 
  3 C       -4.4660     1.1460     2.2470 C.3   1 <1>  -0.1600 
  4 C       -2.6750     2.7760     1.5350 C.3   1 <1>  -0.2400 
  5 C       -2.3240     0.3220     1.1240 C.3   1 <1>  -0.2400 
  6 C       -5.2870    -0.1250     1.9920 C.3   1 <1>   0.3430 
  7 N       -6.0500     0.0030     0.7280 N.4   1 <1>  -0.9590 
  8 C       -7.2650     0.8700     0.8770 C.3   1 <1>   0.3430 
  9 C       -6.3810    -1.3150     0.1240 C.3   1 <1>   0.3430 
 10 C       -7.9360     1.1450    -0.4800 C.3   1 <1>   0.1430 
 11 C       -7.0110    -1.1080    -1.2560 C.3   1 <1>  -0.1600 
 12 C       -9.2110     1.9180    -0.2370 C.ar  1 <1>   0.1670 
 13 C       -8.2430    -0.1840    -1.2020 C.3   1 <1>  -0.1600 
 14 C       -7.1190     2.1210    -1.3700 C.3   1 <1>  -0.1600 
 15 N      -10.1080     1.6070     0.6640 N.ar  1 <1>  -0.6200 
 16 C       -9.3150     2.9960    -1.0590 C.ar  1 <1>  -0.1440 
 17 C       -8.1290     3.1100    -1.9840 C.3   1 <1>  -0.0170 
 18 C      -11.1690     2.4260     0.7280 C.ar  1 <1>   0.6200 
 19 C      -10.4270     3.7860    -0.9300 C.ar  1 <1>   0.1600 
 20 N      -11.3530     3.5090    -0.0400 N.ar  1 <1>  -0.6200 
 21 C      -12.1950     2.1170     1.7130 C.ar  1 <1>   0.0000 
 22 C      -12.4980     0.7990     2.0660 C.ar  1 <1>  -0.1500 
 23 C      -12.9250     3.1250     2.3490 C.ar  1 <1>  -0.1500 
 24 C      -13.4700     0.5020     3.0050 C.ar  1 <1>  -0.1500 
 25 C      -13.8980     2.8360     3.2890 C.ar  1 <1>  -0.1500 
 26 C      -14.1730     1.5220     3.6200 C.ar  1 <1>  -0.1500 
 27 H       -3.2300     1.9360    -0.6320 H     1 <1>   0.4000 
 28 H       -5.1180     1.9950     2.3330 H     1 <1>   0.0800 
 29 H       -3.9980     1.0330     3.2090 H     1 <1>   0.0800 
 30 H       -3.3920     3.5780     1.5390 H     1 <1>   0.0800 
 31 H       -1.9060     2.9970     0.8160 H     1 <1>   0.0800 
 32 H       -2.2150     2.7350     2.5060 H     1 <1>   0.0800 
 33 H       -2.7740    -0.5980     0.7970 H     1 <1>   0.0800 
 34 H       -1.8690     0.1550     2.0850 H     1 <1>   0.0800 
 35 H       -1.5410     0.5840     0.4340 H     1 <1>   0.0800 
 36 H       -5.9640    -0.3000     2.8130 H     1 <1>   0.0800 
 37 H       -4.6150    -0.9650     1.9270 H     1 <1>   0.0800 
 38 H       -5.3970     0.5040     0.0890 H     1 <1>   0.4500 
 39 H       -7.0000     1.8120     1.3280 H     1 <1>   0.0800 
 40 H       -7.9800     0.3840     1.5200 H     1 <1>   0.0800 
 41 H       -7.0740    -1.8420     0.7610 H     1 <1>   0.0800 
 42 H       -5.4880    -1.9110     0.0250 H     1 <1>   0.0800 
 43 H       -7.3070    -2.0650    -1.6500 H     1 <1>   0.0800 
 44 H       -6.2700    -0.7070    -1.9250 H     1 <1>   0.0800 
 45 H       -8.6040     0.0110    -2.1980 H     1 <1>   0.0800 
 46 H       -9.0320    -0.6920    -0.6720 H     1 <1>   0.0800 
 47 H       -6.5510     1.6220    -2.1340 H     1 <1>   0.0800 
 48 H       -6.4370     2.6840    -0.7560 H     1 <1>   0.0800 
 49 H       -8.4130     2.8020    -2.9760 H     1 <1>   0.0800 
 50 H       -7.7380     4.1130    -2.0110 H     1 <1>   0.0800 
 51 H      -10.5620     4.6510    -1.5570 H     1 <1>   0.1500 
 52 H      -11.9650    -0.0080     1.5950 H     1 <1>   0.1500 
 53 H      -12.7260     4.1530     2.1020 H     1 <1>   0.1500 
 54 H      -13.6820    -0.5220     3.2570 H     1 <1>   0.1500 
 55 H      -14.4430     3.6340     3.7610 H     1 <1>   0.1500 
 56 H      -14.9300     1.2950     4.3500 H     1 <1>   0.1500 
@<TRIPOS>BOND
  1   1   2  1   
  2   1  27  1   
  3   2   3  1   
  4   2   4  1   
  5   2   5  1   
  6   3   6  1   
  7   3  28  1   
  8   3  29  1   
  9   4  30  1   
 10   4  31  1   
 11   4  32  1   
 12   5  33  1   
 13   5  34  1   
 14   5  35  1   
 15   6   7  1   
 16   6  36  1   
 17   6  37  1   
 18   7   8  1   
 19   7   9  1   
 20   7  38  1   
 21   8  10  1   
 22   8  39  1   
 23   8  40  1   
 24   9  11  1   
 25   9  41  1   
 26   9  42  1   
 27  10  12  1   
 28  10  13  1   
 29  10  14  1   
 30  11  13  1   
 31  11  43  1   
 32  11  44  1   
 33  12  15  ar  
 34  12  16  ar  
 35  13  45  1   
 36  13  46  1   
 37  14  17  1   
 38  14  47  1   
 39  14  48  1   
 40  15  18  ar  
 41  16  17  1   
 42  16  19  ar  
 43  17  49  1   
 44  17  50  1   
 45  18  20  ar  
 46  18  21  1   
 47  19  20  ar  
 48  19  51  1   
 49  21  22  ar  
 50  21  23  ar  
 51  22  24  ar  
 52  22  52  1   
 53  23  25  ar  
 54  23  53  1   
 55  24  26  ar  
 56  24  54  1   
 57  25  26  ar  
 58  25  55  1   
 59  26  56  1   
@<TRIPOS>SUBSTRUCTURE
  1 ****  12 GROUP 4 **** **** 0

# MOE 2024.06 (io_trps.svl 2023.06)
