@<TRIPOS>MOLECULE
NONAME
37 38 1 0 0 
SMALL
USER_CHARGES


@<TRIPOS>ATOM
  1 CL      -0.3720    -0.4430    -1.3640 Cl    1 <1>  -0.1770 
  2 C       -0.3580    -1.9750    -0.5140 C.ar  1 <1>   0.1770 
  3 C        0.8000    -2.7390    -0.3440 C.ar  1 <1>   0.0820 
  4 C       -1.5750    -2.4190    -0.0290 C.ar  1 <1>  -0.1500 
  5 O        2.0470    -2.4010    -0.7600 O.3   1 <1>  -0.3630 
  6 C        0.6880    -3.9620     0.2990 C.ar  1 <1>  -0.1500 
  7 C       -1.6880    -3.6360     0.6310 C.ar  1 <1>  -0.0090 
  8 C        2.5180    -1.0750    -0.6520 C.3   1 <1>   0.0400 
  9 C       -0.5350    -4.4010     0.7790 C.ar  1 <1>  -0.1500 
 10 S       -3.2930    -4.2010     1.2630 S.o2  1 <1>   1.4470 
 11 O       -3.1320    -5.5020     1.8740 O.2   1 <1>  -0.6500 
 12 O       -3.8610    -3.1090     2.0260 O.2   1 <1>  -0.6500 
 13 N       -4.1990    -4.3710    -0.1620 N.am  1 <1>  -0.8490 
 14 C       -3.8340    -5.5490    -0.9790 C.3   1 <1>   0.1960 
 15 C       -5.6590    -4.1690    -0.0120 C.3   1 <1>   0.1960 
 16 C       -4.4800    -6.8840    -0.5320 C.3   1 <1>   0.2000 
 17 C       -6.5080    -5.4160    -0.3060 C.3   1 <1>  -0.1600 
 18 O       -4.6870    -7.6190    -1.6850 O.3   1 <1>  -0.6800 
 19 C       -5.8180    -6.6890     0.2130 C.3   1 <1>  -0.1860 
 20 C       -6.7540    -7.8920     0.2470 C.2   1 <1>   0.9060 
 21 O       -7.6400    -7.9080     1.1040 O.co2 1 <1>  -0.9000 
 22 O       -6.6290    -8.8070    -0.5810 O.co2 1 <1>  -0.9000 
 23 H       -2.4520    -1.8100    -0.1690 H     1 <1>   0.1500 
 24 H        1.5690    -4.5670     0.4240 H     1 <1>   0.1500 
 25 H        3.5890    -1.1090    -0.5610 H     1 <1>   0.0800 
 26 H        2.0910    -0.6130     0.2200 H     1 <1>   0.0800 
 27 H        2.2520    -0.5370    -1.5440 H     1 <1>   0.0800 
 28 H       -0.5940    -5.3530     1.2810 H     1 <1>   0.1500 
 29 H       -4.1570    -5.3470    -1.9860 H     1 <1>   0.0800 
 30 H       -2.7650    -5.6680    -1.0030 H     1 <1>   0.0800 
 31 H       -5.8860    -3.8470     0.9900 H     1 <1>   0.0800 
 32 H       -5.9670    -3.3780    -0.6740 H     1 <1>   0.0800 
 33 H       -3.8040    -7.4490     0.0880 H     1 <1>   0.0800 
 34 H       -7.4680    -5.3080     0.1680 H     1 <1>   0.0800 
 35 H       -6.6810    -5.5070    -1.3640 H     1 <1>   0.0800 
 36 H       -5.4310    -8.2670    -1.4610 H     1 <1>   0.4000 
 37 H       -5.5750    -6.5090     1.2430 H     1 <1>   0.0800 
@<TRIPOS>BOND
  1   1   2  1   
  2   2   3  ar  
  3   2   4  ar  
  4   3   5  1   
  5   3   6  ar  
  6   4   7  ar  
  7   4  23  1   
  8   5   8  1   
  9   6   9  ar  
 10   6  24  1   
 11   7   9  ar  
 12   7  10  1   
 13   8  25  1   
 14   8  26  1   
 15   8  27  1   
 16   9  28  1   
 17  10  11  2   
 18  10  12  2   
 19  10  13  am  
 20  13  14  1   
 21  13  15  1   
 22  14  16  1   
 23  14  29  1   
 24  14  30  1   
 25  15  17  1   
 26  15  31  1   
 27  15  32  1   
 28  16  18  1   
 29  16  19  1   
 30  16  33  1   
 31  17  19  1   
 32  17  34  1   
 33  17  35  1   
 34  18  36  1   
 35  19  20  1   
 36  19  37  1   
 37  20  21  ar  
 38  20  22  ar  
@<TRIPOS>SUBSTRUCTURE
  1 ****  13 GROUP 4 **** **** 0

# MOE 2024.06 (io_trps.svl 2023.06)
