@<TRIPOS>MOLECULE
NONAME
36 38 1 0 0 
SMALL
USER_CHARGES


@<TRIPOS>ATOM
  1 O        1.3790    -0.5250    -2.1330 O.2   1 <1>  -0.5700 
  2 C        1.7780    -0.7690    -1.0110 C.2   1 <1>   0.5440 
  3 N        2.4050     0.1940    -0.2730 N.am  1 <1>  -0.4930 
  4 C        1.5990    -2.0810    -0.4450 C.ar  1 <1>   0.0860 
  5 C        2.6160     1.5670    -0.5700 C.2   1 <1>   0.0630 
  6 C        0.7070    -2.3270     0.5910 C.ar  1 <1>   0.1660 
  7 C        2.3270    -3.1750    -0.8920 C.ar  1 <1>   0.1660 
  8 C        3.3610     2.4160     0.1780 C.2   1 <1>  -0.0680 
  9 C        2.1140     2.3480    -1.6150 C.2   1 <1>   0.1390 
 10 N        0.5820    -3.5130     1.1460 N.ar  1 <1>  -0.6200 
 11 C       -0.1910    -1.2410     1.1640 C.3   1 <1>  -0.0960 
 12 N        2.2090    -4.3690    -0.3540 N.ar  1 <1>  -0.6200 
 13 C        3.3160    -3.0530    -2.0400 C.3   1 <1>  -0.0970 
 14 N        3.2490     3.6320    -0.4180 N.pl3 1 <1>   0.3140 
 15 N        4.1250     2.1790     1.3470 N.pl3 1 <1>  -0.8530 
 16 N        2.4880     3.5930    -1.5360 N.2   1 <1>  -0.7070 
 17 C        1.3410    -4.4680     0.6370 C.ar  1 <1>   0.4700 
 18 C        3.9140     4.8440     0.0860 C.3   1 <1>   0.0960 
 19 C        4.9980     3.2970     1.8000 C.3   1 <1>   0.2090 
 20 C        4.3130     4.6520     1.5610 C.3   1 <1>  -0.1600 
 21 H        2.7220    -0.0560     0.6640 H     1 <1>   0.3700 
 22 H        1.4830     1.9670    -2.3990 H     1 <1>   0.1500 
 23 H       -0.4380    -0.5020     0.4230 H     1 <1>   0.0800 
 24 H        0.2980    -0.7620     1.9920 H     1 <1>   0.0800 
 25 H       -1.1100    -1.6750     1.5150 H     1 <1>   0.0800 
 26 H        4.0070    -2.2500    -1.8600 H     1 <1>   0.0800 
 27 H        2.7860    -2.8600    -2.9550 H     1 <1>   0.0800 
 28 H        3.8760    -3.9640    -2.1550 H     1 <1>   0.0800 
 29 H        4.6550     1.3000     1.3020 H     1 <1>   0.4000 
 30 H        1.2400    -5.4430     1.0840 H     1 <1>   0.1500 
 31 H        3.2420     5.6760    -0.0230 H     1 <1>   0.0800 
 32 H        4.7840     5.0170    -0.5200 H     1 <1>   0.0800 
 33 H        5.9310     3.2580     1.2620 H     1 <1>   0.0800 
 34 H        5.2060     3.1780     2.8510 H     1 <1>   0.0800 
 35 H        3.4320     4.7080     2.1770 H     1 <1>   0.0800 
 36 H        4.9700     5.4480     1.8610 H     1 <1>   0.0800 
@<TRIPOS>BOND
  1   1   2  2   
  2   2   3  am  
  3   2   4  1   
  4   3   5  1   
  5   3  21  1   
  6   4   6  ar  
  7   4   7  ar  
  8   5   8  2   
  9   5   9  1   
 10   6  10  ar  
 11   6  11  1   
 12   7  12  ar  
 13   7  13  1   
 14   8  14  1   
 15   8  15  1   
 16   9  16  2   
 17   9  22  1   
 18  10  17  ar  
 19  11  23  1   
 20  11  24  1   
 21  11  25  1   
 22  12  17  ar  
 23  13  26  1   
 24  13  27  1   
 25  13  28  1   
 26  14  16  1   
 27  14  18  1   
 28  15  19  1   
 29  15  29  1   
 30  17  30  1   
 31  18  20  1   
 32  18  31  1   
 33  18  32  1   
 34  19  20  1   
 35  19  33  1   
 36  19  34  1   
 37  20  35  1   
 38  20  36  1   
@<TRIPOS>SUBSTRUCTURE
  1 ****   3 GROUP 4 **** **** 0

# MOE 2024.06 (io_trps.svl 2023.06)
