@<TRIPOS>MOLECULE
NONAME
29 30 1 0 0 
SMALL
USER_CHARGES


@<TRIPOS>ATOM
  1 F        1.1990    -0.6550    -1.1560 F     1 <1>  -0.2320 
  2 C        2.0040    -0.1260    -0.2430 C.3   1 <1>   0.4630 
  3 F        2.4140    -1.1160     0.5400 F     1 <1>  -0.2320 
  4 C        1.8650     1.2760     0.2580 C.3   1 <1>  -0.1150 
  5 C        2.9750     0.9030    -0.6960 C.3   1 <1>  -0.2000 
  6 C        0.7980     2.2430    -0.2890 C.ar  1 <1>  -0.0320 
  7 C        2.2060     1.4890     1.7270 C.2   1 <1>   0.9470 
  8 C        1.1740     3.5210    -0.7160 C.ar  1 <1>   0.0830 
  9 C       -0.5540     1.8960    -0.4050 C.ar  1 <1>   0.0830 
 10 O        3.3930     1.5960     2.0640 O.co2 1 <1>  -0.9000 
 11 O        1.3030     1.6010     2.5640 O.co2 1 <1>  -0.9000 
 12 O        2.4530     3.9590    -0.6510 O.3   1 <1>  -0.3630 
 13 C        0.2500     4.4000    -1.2590 C.ar  1 <1>  -0.1500 
 14 O       -1.0600     0.6960    -0.0310 O.3   1 <1>  -0.3630 
 15 C       -1.4710     2.7820    -0.9510 C.ar  1 <1>  -0.1500 
 16 C        2.9340     4.3500     0.6190 C.3   1 <1>   0.0400 
 17 C       -1.0760     4.0340    -1.3790 C.ar  1 <1>  -0.1500 
 18 C       -1.0810     0.3930     1.3470 C.3   1 <1>   0.0400 
 19 H        2.9110     1.2810    -1.6980 H     1 <1>   0.1000 
 20 H        3.9770     0.8950    -0.3080 H     1 <1>   0.1000 
 21 H        0.5810     5.3690    -1.5860 H     1 <1>   0.1500 
 22 H       -2.4980     2.4780    -1.0350 H     1 <1>   0.1500 
 23 H        3.8200     3.7790     0.8360 H     1 <1>   0.0800 
 24 H        2.1880     4.1610     1.3740 H     1 <1>   0.0800 
 25 H        3.1680     5.3970     0.5880 H     1 <1>   0.0800 
 26 H       -1.7920     4.7160    -1.8000 H     1 <1>   0.1500 
 27 H       -1.9390    -0.2200     1.5460 H     1 <1>   0.0800 
 28 H       -1.1360     1.3060     1.9160 H     1 <1>   0.0800 
 29 H       -0.1850    -0.1450     1.5980 H     1 <1>   0.0800 
@<TRIPOS>BOND
  1   1   2  1   
  2   2   3  1   
  3   2   4  1   
  4   2   5  1   
  5   4   5  1   
  6   4   6  1   
  7   4   7  1   
  8   5  19  1   
  9   5  20  1   
 10   6   8  ar  
 11   6   9  ar  
 12   7  10  ar  
 13   7  11  ar  
 14   8  12  1   
 15   8  13  ar  
 16   9  14  1   
 17   9  15  ar  
 18  12  16  1   
 19  13  17  ar  
 20  13  21  1   
 21  14  18  1   
 22  15  17  ar  
 23  15  22  1   
 24  16  23  1   
 25  16  24  1   
 26  16  25  1   
 27  17  26  1   
 28  18  27  1   
 29  18  28  1   
 30  18  29  1   
@<TRIPOS>SUBSTRUCTURE
  1 ****   6 GROUP 4 **** **** 0

# MOE 2024.06 (io_trps.svl 2023.06)
