@<TRIPOS>MOLECULE
NONAME
50 53 1 0 0 
SMALL
USER_CHARGES


@<TRIPOS>ATOM
  1 S        0.6400     0.2480    -0.2960 S.3   1 <1>  -0.0800 
  2 C        0.6680     2.0100    -0.1260 C.2   1 <1>  -0.0450 
  3 C       -0.5770     0.0600     0.9420 C.2   1 <1>  -0.1100 
  4 C        1.5710     2.7460    -0.9760 C.2   1 <1>   0.5940 
  5 C       -0.2310     2.3500     0.8400 C.2   1 <1>  -0.1500 
  6 C       -0.9260     1.2600     1.4380 C.2   1 <1>  -0.1500 
  7 O        2.2570     2.2110    -1.8110 O.2   1 <1>  -0.5700 
  8 C        1.6960     4.2630    -0.8620 C.3   1 <1>  -0.0190 
  9 C        2.2000     4.6690     0.5300 C.3   1 <1>   0.2090 
 10 C        0.4050     5.0090    -1.2690 C.3   1 <1>  -0.1600 
 11 N        2.2850     6.1550     0.6480 N.pl3 1 <1>  -0.8380 
 12 C        0.5830     6.5250    -1.0960 C.3   1 <1>  -0.1600 
 13 C        3.5060     6.7880     0.5560 C.ar  1 <1>   0.4100 
 14 C        1.0370     6.8920     0.3200 C.3   1 <1>   0.2090 
 15 N        4.4250     6.2290    -0.2250 N.ar  1 <1>  -0.6200 
 16 C        3.7460     7.9650     1.2620 C.ar  1 <1>  -0.1500 
 17 C        5.5870     6.8520    -0.3080 C.ar  1 <1>   0.1600 
 18 C        4.9570     8.6050     1.1570 C.ar  1 <1>  -0.1500 
 19 C        5.9240     8.0420     0.3300 C.ar  1 <1>   0.0860 
 20 C        7.2270     8.6300     0.1360 C.2   1 <1>   0.5440 
 21 O        8.2150     7.9350     0.2780 O.2   1 <1>  -0.5700 
 22 N        7.3960     9.9540    -0.2160 N.am  1 <1>  -0.6600 
 23 C        8.7380    10.6080    -0.1850 C.3   1 <1>   0.1400 
 24 C        6.3480    10.8100    -0.8490 C.3   1 <1>   0.1400 
 25 C        8.6300    12.0370     0.3730 C.3   1 <1>   0.1200 
 26 C        6.3700    12.2230    -0.2410 C.3   1 <1>   0.1200 
 27 O        7.6550    12.7720    -0.3150 O.3   1 <1>  -0.5600 
 28 H       -0.9060    -0.9380     1.1720 H     1 <1>   0.1500 
 29 H       -0.4470     3.3490     1.1710 H     1 <1>   0.1500 
 30 H       -1.6570     1.4200     2.2120 H     1 <1>   0.1500 
 31 H        2.4660     4.5620    -1.5530 H     1 <1>   0.0800 
 32 H        3.1690     4.2290     0.7040 H     1 <1>   0.0800 
 33 H        1.5430     4.3090     1.2990 H     1 <1>   0.0800 
 34 H       -0.4250     4.6860    -0.6700 H     1 <1>   0.0800 
 35 H        0.1750     4.7900    -2.2970 H     1 <1>   0.0800 
 36 H       -0.3440     7.0260    -1.3130 H     1 <1>   0.0800 
 37 H        1.3200     6.8840    -1.7940 H     1 <1>   0.0800 
 38 H        1.2040     7.9530     0.3770 H     1 <1>   0.0800 
 39 H        0.2750     6.6310     1.0340 H     1 <1>   0.0800 
 40 H        2.9730     8.3530     1.8960 H     1 <1>   0.1500 
 41 H        6.3390     6.3940    -0.9290 H     1 <1>   0.1500 
 42 H        5.1660     9.5100     1.7010 H     1 <1>   0.1500 
 43 H        9.1390    10.6420    -1.1820 H     1 <1>   0.0800 
 44 H        9.4180    10.0410     0.4280 H     1 <1>   0.0800 
 45 H        5.3700    10.3810    -0.7310 H     1 <1>   0.0800 
 46 H        6.5480    10.8830    -1.9040 H     1 <1>   0.0800 
 47 H        9.5690    12.5510     0.2600 H     1 <1>   0.0800 
 48 H        8.3720    12.0150     1.4170 H     1 <1>   0.0800 
 49 H        6.0640    12.1990     0.7900 H     1 <1>   0.0800 
 50 H        5.7060    12.8710    -0.7850 H     1 <1>   0.0800 
@<TRIPOS>BOND
  1   1   2  1   
  2   1   3  1   
  3   2   4  1   
  4   2   5  2   
  5   3   6  2   
  6   3  28  1   
  7   4   7  2   
  8   4   8  1   
  9   5   6  1   
 10   5  29  1   
 11   6  30  1   
 12   8   9  1   
 13   8  10  1   
 14   8  31  1   
 15   9  11  1   
 16   9  32  1   
 17   9  33  1   
 18  10  12  1   
 19  10  34  1   
 20  10  35  1   
 21  11  13  1   
 22  11  14  1   
 23  12  14  1   
 24  12  36  1   
 25  12  37  1   
 26  13  15  ar  
 27  13  16  ar  
 28  14  38  1   
 29  14  39  1   
 30  15  17  ar  
 31  16  18  ar  
 32  16  40  1   
 33  17  19  ar  
 34  17  41  1   
 35  18  19  ar  
 36  18  42  1   
 37  19  20  1   
 38  20  21  2   
 39  20  22  am  
 40  22  23  1   
 41  22  24  1   
 42  23  25  1   
 43  23  43  1   
 44  23  44  1   
 45  24  26  1   
 46  24  45  1   
 47  24  46  1   
 48  25  27  1   
 49  25  47  1   
 50  25  48  1   
 51  26  27  1   
 52  26  49  1   
 53  26  50  1   
@<TRIPOS>SUBSTRUCTURE
  1 ****  13 GROUP 4 **** **** 0

# MOE 2024.06 (io_trps.svl 2023.06)
