@<TRIPOS>MOLECULE
NONAME
55 58 1 0 0 
SMALL
USER_CHARGES


@<TRIPOS>ATOM
  1 O       -0.3890     0.4490     0.3150 O.2   1 <1>  -0.5700 
  2 C        0.6400     0.9920    -0.0450 C.2   1 <1>   0.5440 
  3 N        0.7800     2.3560     0.1230 N.am  1 <1>  -0.6600 
  4 C        1.6990     0.1990    -0.6470 C.ar  1 <1>   0.0860 
  5 C       -0.3920     3.2150     0.5230 C.3   1 <1>   0.2200 
  6 C        2.1380     2.9750     0.2410 C.3   1 <1>   0.1400 
  7 C        2.3520    -0.8370     0.0310 C.ar  1 <1>  -0.1440 
  8 C        2.1040     0.4840    -1.9510 C.ar  1 <1>  -0.1500 
  9 C       -0.0190     4.6910     0.8710 C.3   1 <1>   0.1380 
 10 C       -1.5840     3.1080    -0.4480 C.3   1 <1>  -0.1600 
 11 C        2.2980     3.7920     1.5360 C.3   1 <1>  -0.1600 
 12 C        3.3670    -1.5450    -0.5910 C.ar  1 <1>  -0.1500 
 13 C        1.9610    -1.2010     1.4580 C.3   1 <1>  -0.0970 
 14 C        3.1210    -0.2190    -2.5720 C.ar  1 <1>  -0.1430 
 15 C        0.5410     5.5720    -0.2910 C.2   1 <1>  -0.2760 
 16 C       -1.3120     5.3600     1.4310 C.3   1 <1>   0.1200 
 17 C        1.0430     4.5700     1.9870 C.3   1 <1>  -0.1600 
 18 C       -2.4890     4.3400    -0.3500 C.3   1 <1>   0.1200 
 19 C        3.7510    -1.2390    -1.8830 C.ar  1 <1>  -0.1500 
 20 C        3.5430     0.1120    -3.9910 C.3   1 <1>  -0.0970 
 21 C        0.6130     5.2420    -1.5890 C.2   1 <1>  -0.2880 
 22 C        1.0880     6.9490     0.1090 C.3   1 <1>  -0.0220 
 23 O       -2.5040     4.7720     0.9740 O.3   1 <1>  -0.5600 
 24 C        1.1910     6.1340    -2.6810 C.3   1 <1>   0.2580 
 25 C        1.2290     7.8720    -1.1090 C.3   1 <1>   0.1200 
 26 O        1.9030     7.1980    -2.1240 O.3   1 <1>  -0.5600 
 27 H       -0.7550     2.7910     1.4450 H     1 <1>   0.0800 
 28 H        2.9060     2.2220     0.2200 H     1 <1>   0.0800 
 29 H        2.3040     3.6100    -0.6090 H     1 <1>   0.0800 
 30 H        1.6020     1.2770    -2.4760 H     1 <1>   0.1500 
 31 H       -2.1670     2.2470    -0.1770 H     1 <1>   0.0800 
 32 H       -1.2670     2.9670    -1.4610 H     1 <1>   0.0800 
 33 H        2.5990     3.1270     2.3260 H     1 <1>   0.0800 
 34 H        3.1080     4.4840     1.3850 H     1 <1>   0.0800 
 35 H        3.8680    -2.3440    -0.0720 H     1 <1>   0.1500 
 36 H        2.6430    -1.9160     1.8790 H     1 <1>   0.0800 
 37 H        0.9720    -1.6250     1.4660 H     1 <1>   0.0800 
 38 H        1.9620    -0.3230     2.0790 H     1 <1>   0.0800 
 39 H       -1.3590     6.4000     1.1710 H     1 <1>   0.0800 
 40 H       -1.3350     5.2860     2.5030 H     1 <1>   0.0800 
 41 H        1.3240     5.5330     2.3720 H     1 <1>   0.0800 
 42 H        0.6070     4.0310     2.8110 H     1 <1>   0.0800 
 43 H       -3.4970     4.0940    -0.6350 H     1 <1>   0.0800 
 44 H       -2.1360     5.1460    -0.9710 H     1 <1>   0.0800 
 45 H        4.5410    -1.8000    -2.3510 H     1 <1>   0.1500 
 46 H        4.6140     0.1920    -4.0480 H     1 <1>   0.0800 
 47 H        3.1150     1.0450    -4.3120 H     1 <1>   0.0800 
 48 H        3.2160    -0.6650    -4.6590 H     1 <1>   0.0800 
 49 H        0.2820     4.3080    -1.9930 H     1 <1>   0.1500 
 50 H        2.0590     6.8340     0.5560 H     1 <1>   0.0800 
 51 H        0.4560     7.4410     0.8230 H     1 <1>   0.0800 
 52 H        0.4090     6.5330    -3.3030 H     1 <1>   0.0800 
 53 H        1.8790     5.5780    -3.2920 H     1 <1>   0.0800 
 54 H        1.8000     8.7480    -0.8560 H     1 <1>   0.0800 
 55 H        0.2630     8.1740    -1.4780 H     1 <1>   0.0800 
@<TRIPOS>BOND
  1   1   2  2   
  2   2   3  am  
  3   2   4  1   
  4   3   5  1   
  5   3   6  1   
  6   4   7  ar  
  7   4   8  ar  
  8   5   9  1   
  9   5  10  1   
 10   5  27  1   
 11   6  11  1   
 12   6  28  1   
 13   6  29  1   
 14   7  12  ar  
 15   7  13  1   
 16   8  14  ar  
 17   8  30  1   
 18   9  15  1   
 19   9  16  1   
 20   9  17  1   
 21  10  18  1   
 22  10  31  1   
 23  10  32  1   
 24  11  17  1   
 25  11  33  1   
 26  11  34  1   
 27  12  19  ar  
 28  12  35  1   
 29  13  36  1   
 30  13  37  1   
 31  13  38  1   
 32  14  19  ar  
 33  14  20  1   
 34  15  21  2   
 35  15  22  1   
 36  16  23  1   
 37  16  39  1   
 38  16  40  1   
 39  17  41  1   
 40  17  42  1   
 41  18  23  1   
 42  18  43  1   
 43  18  44  1   
 44  19  45  1   
 45  20  46  1   
 46  20  47  1   
 47  20  48  1   
 48  21  24  1   
 49  21  49  1   
 50  22  25  1   
 51  22  50  1   
 52  22  51  1   
 53  24  26  1   
 54  24  52  1   
 55  24  53  1   
 56  25  26  1   
 57  25  54  1   
 58  25  55  1   
@<TRIPOS>SUBSTRUCTURE
  1 ****   3 GROUP 4 **** **** 0

# MOE 2024.06 (io_trps.svl 2023.06)
