@<TRIPOS>MOLECULE
NONAME
37 40 1 0 0 
SMALL
USER_CHARGES


@<TRIPOS>ATOM
  1 O       -0.3230     0.7820    -0.5900 O.co2 1 <1>  -0.9000 
  2 C       -0.8550     1.8860    -0.3620 C.2   1 <1>   1.0330 
  3 O       -2.0980     1.9250    -0.2530 O.co2 1 <1>  -0.9000 
  4 C       -0.0920     3.1280    -0.2240 C.2   1 <1>  -0.0060 
  5 N        1.2720     3.3110    -0.3020 N.2   1 <1>  -0.5650 
  6 C       -0.6360     4.3360     0.0100 C.2   1 <1>  -0.0100 
  7 C        1.4330     4.5750    -0.1170 C.2   1 <1>   0.5620 
  8 O        0.3090     5.2360     0.0760 O.3   1 <1>  -0.2800 
  9 N        2.6410     5.2540    -0.1140 N.pl3 1 <1>  -0.8220 
 10 C        2.6770     6.7330    -0.2900 C.3   1 <1>   0.2090 
 11 C        3.8760     4.5220    -0.4960 C.3   1 <1>   0.2090 
 12 C        3.8730     7.3380     0.4530 C.3   1 <1>   0.1000 
 13 C        5.0770     5.1150     0.2480 C.3   1 <1>  -0.1600 
 14 C        3.9080     8.8400     0.2050 C.2   1 <1>   0.2980 
 15 C        5.1850     6.6360     0.0450 C.3   1 <1>  -0.1600 
 16 O        2.9040     9.5590     0.6850 O.3   1 <1>  -0.2800 
 17 N        4.8000     9.5070    -0.4280 N.2   1 <1>  -0.5650 
 18 C        3.1660    10.8020     0.3350 C.ar  1 <1>   0.1400 
 19 C        4.3490    10.7890    -0.3610 C.ar  1 <1>   0.2270 
 20 C        2.4540    11.9700     0.5710 C.ar  1 <1>  -0.1500 
 21 C        4.8730    11.9780    -0.8570 C.ar  1 <1>  -0.1500 
 22 C        2.9760    13.1510     0.0770 C.ar  1 <1>  -0.1500 
 23 C        4.1810    13.1540    -0.6340 C.ar  1 <1>  -0.1500 
 24 H       -1.6680     4.6130     0.1360 H     1 <1>   0.1500 
 25 H        1.7690     7.1750     0.0830 H     1 <1>   0.0800 
 26 H        2.7520     6.9560    -1.3410 H     1 <1>   0.0800 
 27 H        4.0170     4.6040    -1.5600 H     1 <1>   0.0800 
 28 H        3.7830     3.4770    -0.2480 H     1 <1>   0.0800 
 29 H        3.7170     7.1880     1.5060 H     1 <1>   0.0800 
 30 H        5.9760     4.6370    -0.0990 H     1 <1>   0.0800 
 31 H        4.9710     4.8940     1.2950 H     1 <1>   0.0800 
 32 H        6.0010     7.0250     0.6300 H     1 <1>   0.0800 
 33 H        5.3920     6.8410    -0.9910 H     1 <1>   0.0800 
 34 H        1.5310    11.9360     1.1210 H     1 <1>   0.1500 
 35 H        5.8000    11.9560    -1.4000 H     1 <1>   0.1500 
 36 H        2.4550    14.0800     0.2380 H     1 <1>   0.1500 
 37 H        4.5690    14.0860    -1.0090 H     1 <1>   0.1500 
@<TRIPOS>BOND
  1   1   2  ar  
  2   2   3  ar  
  3   2   4  1   
  4   4   5  1   
  5   4   6  2   
  6   5   7  2   
  7   6   8  1   
  8   6  24  1   
  9   7   8  1   
 10   7   9  1   
 11   9  10  1   
 12   9  11  1   
 13  10  12  1   
 14  10  25  1   
 15  10  26  1   
 16  11  13  1   
 17  11  27  1   
 18  11  28  1   
 19  12  14  1   
 20  12  15  1   
 21  12  29  1   
 22  13  15  1   
 23  13  30  1   
 24  13  31  1   
 25  14  16  1   
 26  14  17  2   
 27  15  32  1   
 28  15  33  1   
 29  16  18  1   
 30  17  19  1   
 31  18  19  ar  
 32  18  20  ar  
 33  19  21  ar  
 34  20  22  ar  
 35  20  34  1   
 36  21  23  ar  
 37  21  35  1   
 38  22  23  ar  
 39  22  36  1   
 40  23  37  1   
@<TRIPOS>SUBSTRUCTURE
  1 ****  10 GROUP 4 **** **** 0

# MOE 2024.06 (io_trps.svl 2023.06)
