@<TRIPOS>MOLECULE
NONAME
44 45 1 0 0 
SMALL
USER_CHARGES


@<TRIPOS>ATOM
  1 S        0.6910     0.3520    -0.0290 S.o2  1 <1>   1.3330 
  2 O        1.6250     0.5640     1.0550 O.2   1 <1>  -0.6500 
  3 O       -0.4360    -0.5300     0.1760 O.2   1 <1>  -0.6500 
  4 N        1.5770    -0.2320    -1.3540 N.am  1 <1>  -0.8490 
  5 C        0.0510     1.9120    -0.6370 C.3   1 <1>  -0.0550 
  6 C        1.6930    -1.6920    -1.3390 C.3   1 <1>   0.1160 
  7 C        2.9100     0.3720    -1.4670 C.3   1 <1>   0.1160 
  8 C       -0.7550     2.7080     0.4100 C.3   1 <1>  -0.0800 
  9 C       -1.4980     3.8660    -0.2540 C.3   1 <1>   0.2000 
 10 C        0.1740     3.4380     1.3810 C.3   1 <1>   0.1100 
 11 O       -2.5830     4.1970     0.5420 O.3   1 <1>  -0.6800 
 12 C       -0.4970     5.0290    -0.2400 C.3   1 <1>   0.1100 
 13 N        0.6160     4.6100     0.6300 N.3   1 <1>  -0.8100 
 14 C        1.2070     5.6780     1.4710 C.3   1 <1>   0.2900 
 15 C        1.9310     6.7580     0.6710 C.2   1 <1>   0.1980 
 16 S        0.9650     8.0430    -0.0270 S.3   1 <1>  -0.0800 
 17 N        3.1810     6.8790     0.4560 N.2   1 <1>  -0.5650 
 18 C        2.4150     8.7640    -0.6630 C.2   1 <1>  -0.1400 
 19 C        3.4630     8.0030    -0.3000 C.2   1 <1>   0.0460 
 20 C        2.2470    10.0410    -1.4620 C.3   1 <1>  -0.0600 
 21 C        4.9240     8.2320    -0.6230 C.3   1 <1>  -0.0590 
 22 H        0.8610     2.5180    -0.9960 H     1 <1>   0.0800 
 23 H       -0.5860     1.6990    -1.4730 H     1 <1>   0.0800 
 24 H        2.2460    -2.0320    -2.1970 H     1 <1>   0.0800 
 25 H        0.7130    -2.1400    -1.3720 H     1 <1>   0.0800 
 26 H        2.1920    -2.0190    -0.4410 H     1 <1>   0.0800 
 27 H        3.3930     0.0350    -2.3690 H     1 <1>   0.0800 
 28 H        3.5200     0.1020    -0.6210 H     1 <1>   0.0800 
 29 H        2.8320     1.4450    -1.5060 H     1 <1>   0.0800 
 30 H       -1.4330     2.0430     0.9180 H     1 <1>   0.0800 
 31 H       -1.8660     3.6410    -1.2410 H     1 <1>   0.0800 
 32 H        1.0170     2.8440     1.6920 H     1 <1>   0.0800 
 33 H       -0.3780     3.7440     2.2540 H     1 <1>   0.0800 
 34 H       -2.2710     4.4520     1.4300 H     1 <1>   0.4000 
 35 H       -0.9690     5.9290     0.1140 H     1 <1>   0.0800 
 36 H       -0.1120     5.2000    -1.2310 H     1 <1>   0.0800 
 37 H        0.4450     6.1330     2.0780 H     1 <1>   0.0800 
 38 H        1.9320     5.2310     2.1290 H     1 <1>   0.0800 
 39 H        3.1960    10.4030    -1.8090 H     1 <1>   0.0800 
 40 H        1.7910    10.7970    -0.8490 H     1 <1>   0.0800 
 41 H        1.6160     9.8560    -2.3140 H     1 <1>   0.0800 
 42 H        5.0570     9.1220    -1.2070 H     1 <1>   0.0800 
 43 H        5.3040     7.3920    -1.1740 H     1 <1>   0.0800 
 44 H        5.4810     8.3270     0.2910 H     1 <1>   0.0800 
@<TRIPOS>BOND
  1   1   2  2   
  2   1   3  2   
  3   1   4  am  
  4   1   5  1   
  5   4   6  1   
  6   4   7  1   
  7   5   8  1   
  8   5  22  1   
  9   5  23  1   
 10   6  24  1   
 11   6  25  1   
 12   6  26  1   
 13   7  27  1   
 14   7  28  1   
 15   7  29  1   
 16   8   9  1   
 17   8  10  1   
 18   8  30  1   
 19   9  11  1   
 20   9  12  1   
 21   9  31  1   
 22  10  13  1   
 23  10  32  1   
 24  10  33  1   
 25  11  34  1   
 26  12  13  1   
 27  12  35  1   
 28  12  36  1   
 29  13  14  1   
 30  14  15  1   
 31  14  37  1   
 32  14  38  1   
 33  15  16  1   
 34  15  17  2   
 35  16  18  1   
 36  17  19  1   
 37  18  19  2   
 38  18  20  1   
 39  19  21  1   
 40  20  39  1   
 41  20  40  1   
 42  20  41  1   
 43  21  42  1   
 44  21  43  1   
 45  21  44  1   
@<TRIPOS>SUBSTRUCTURE
  1 ****  13 GROUP 4 **** **** 0

# MOE 2024.06 (io_trps.svl 2023.06)
