@<TRIPOS>MOLECULE
NONAME
74 77 1 0 0 
SMALL
USER_CHARGES


@<TRIPOS>ATOM
  1 O        2.4320     2.6680    -0.1270 O.co2 1 <1>  -0.9000 
  2 C        2.3410     1.4400    -0.1820 C.2   1 <1>   0.9060 
  3 O        1.7000     0.8150     0.6680 O.co2 1 <1>  -0.9000 
  4 C        3.3420     0.6600    -1.0600 C.3   1 <1>  -0.1060 
  5 C        4.2120    -0.1200    -0.0550 C.3   1 <1>   0.4230 
  6 C        4.2890     1.6140    -1.8620 C.3   1 <1>  -0.1600 
  7 C        2.6390    -0.2900    -2.0670 C.3   1 <1>  -0.1600 
  8 N        3.3960    -1.2090     0.5970 N.4   1 <1>  -0.9590 
  9 C        4.8620     0.8910     0.9560 C.3   1 <1>   0.3430 
 10 C        5.3740     2.3340    -1.0360 C.3   1 <1>   0.3430 
 11 C        1.9440    -1.4740    -1.3800 C.3   1 <1>  -0.1600 
 12 C        2.8600    -2.1890    -0.3870 C.3   1 <1>   0.3430 
 13 C        3.9960    -1.8930     1.7790 C.3   1 <1>   0.2630 
 14 N        5.0260     2.2870     0.4080 N.4   1 <1>  -0.9590 
 15 C        5.8170     3.2040     1.2680 C.3   1 <1>   0.4860 
 16 C        5.8070     4.5990     0.6750 C.ar  1 <1>  -0.1430 
 17 C        6.9980     5.1840     0.2620 C.ar  1 <1>   0.0830 
 18 C        4.6100     5.2870     0.5320 C.ar  1 <1>  -0.1500 
 19 O        8.1390     4.4600     0.4190 O.3   1 <1>  -0.3620 
 20 C        6.9790     6.4620    -0.2930 C.ar  1 <1>  -0.1500 
 21 C        4.5990     6.5550    -0.0200 C.ar  1 <1>  -0.1500 
 22 C        9.4020     5.0200     0.1170 C.3   1 <1>   0.1200 
 23 C        5.7820     7.1420    -0.4310 C.ar  1 <1>  -0.1500 
 24 C       10.4880     3.9970     0.4630 C.3   1 <1>   0.1100 
 25 N       11.8340     4.4820     0.0890 N.3   1 <1>  -0.8100 
 26 C       12.3330     5.5420     1.0060 C.3   1 <1>   0.1100 
 27 C       12.8040     3.3610     0.0350 C.3   1 <1>   0.1100 
 28 C       13.7880     5.9770     0.6940 C.3   1 <1>   0.3430 
 29 C       14.2210     3.8150    -0.3990 C.3   1 <1>   0.3430 
 30 N       14.3030     5.3080    -0.5450 N.4   1 <1>  -0.9590 
 31 C       15.6320     5.8160    -0.9640 C.3   1 <1>   0.3430 
 32 C       15.9180     5.3880    -2.3980 C.3   1 <1>  -0.2400 
 33 H        5.0110    -0.5880    -0.6050 H     1 <1>   0.0800 
 34 H        3.6900     2.3640    -2.3530 H     1 <1>   0.0800 
 35 H        4.7940     1.0780    -2.6460 H     1 <1>   0.0800 
 36 H        1.9130     0.2670    -2.6370 H     1 <1>   0.0800 
 37 H        3.3590    -0.6860    -2.7620 H     1 <1>   0.0800 
 38 H        2.5380    -0.6730     0.9130 H     1 <1>   0.4500 
 39 H        5.8210     0.5090     1.2600 H     1 <1>   0.0800 
 40 H        4.2240     0.9510     1.8230 H     1 <1>   0.0800 
 41 H        5.4420     3.3580    -1.3710 H     1 <1>   0.0800 
 42 H        6.3320     1.8670    -1.1930 H     1 <1>   0.0800 
 43 H        1.6180    -2.1770    -2.1270 H     1 <1>   0.0800 
 44 H        1.0610    -1.1350    -0.8660 H     1 <1>   0.0800 
 45 H        3.6710    -2.6640    -0.9140 H     1 <1>   0.0800 
 46 H        2.2920    -2.9500     0.1250 H     1 <1>   0.0800 
 47 H        4.8920    -2.4210     1.4940 H     1 <1>   0.0800 
 48 H        3.2940    -2.6010     2.1880 H     1 <1>   0.0800 
 49 H        4.2350    -1.1780     2.5480 H     1 <1>   0.0800 
 50 H        4.0570     2.7090     0.4020 H     1 <1>   0.4500 
 51 H        5.3860     3.2430     2.2550 H     1 <1>   0.0800 
 52 H        6.8300     2.8500     1.3520 H     1 <1>   0.0800 
 53 H        3.6720     4.8480     0.8380 H     1 <1>   0.1500 
 54 H        7.8750     6.9490    -0.6270 H     1 <1>   0.1500 
 55 H        3.6660     7.0820    -0.1310 H     1 <1>   0.1500 
 56 H        9.4290     5.2460    -0.9350 H     1 <1>   0.0800 
 57 H        9.5190     5.9140     0.7010 H     1 <1>   0.0800 
 58 H        5.7660     8.1290    -0.8600 H     1 <1>   0.1500 
 59 H       10.2750     3.0970    -0.0880 H     1 <1>   0.0800 
 60 H       10.4560     3.7710     1.5160 H     1 <1>   0.0800 
 61 H       11.6990     6.4090     0.9320 H     1 <1>   0.0800 
 62 H       12.2870     5.1980     2.0260 H     1 <1>   0.0800 
 63 H       12.8690     2.8890     1.0020 H     1 <1>   0.0800 
 64 H       12.4570     2.6180    -0.6630 H     1 <1>   0.0800 
 65 H       14.4170     5.7280     1.5320 H     1 <1>   0.0800 
 66 H       13.8130     7.0480     0.5730 H     1 <1>   0.0800 
 67 H       14.4590     3.3440    -1.3380 H     1 <1>   0.0800 
 68 H       14.9390     3.4740     0.3280 H     1 <1>   0.0800 
 69 H       13.5990     5.5310    -1.2660 H     1 <1>   0.4500 
 70 H       15.6390     6.8930    -0.9140 H     1 <1>   0.0800 
 71 H       16.3990     5.4420    -0.3040 H     1 <1>   0.0800 
 72 H       15.1430     5.7300    -3.0610 H     1 <1>   0.0800 
 73 H       16.0210     4.3220    -2.4780 H     1 <1>   0.0800 
 74 H       16.8450     5.8300    -2.7180 H     1 <1>   0.0800 
@<TRIPOS>BOND
  1   1   2  ar  
  2   2   3  ar  
  3   2   4  1   
  4   4   5  1   
  5   4   6  1   
  6   4   7  1   
  7   5   8  1   
  8   5   9  1   
  9   5  33  1   
 10   6  10  1   
 11   6  34  1   
 12   6  35  1   
 13   7  11  1   
 14   7  36  1   
 15   7  37  1   
 16   8  12  1   
 17   8  13  1   
 18   8  38  1   
 19   9  14  1   
 20   9  39  1   
 21   9  40  1   
 22  10  14  1   
 23  10  41  1   
 24  10  42  1   
 25  11  12  1   
 26  11  43  1   
 27  11  44  1   
 28  12  45  1   
 29  12  46  1   
 30  13  47  1   
 31  13  48  1   
 32  13  49  1   
 33  14  15  1   
 34  14  50  1   
 35  15  16  1   
 36  15  51  1   
 37  15  52  1   
 38  16  17  ar  
 39  16  18  ar  
 40  17  19  1   
 41  17  20  ar  
 42  18  21  ar  
 43  18  53  1   
 44  19  22  1   
 45  20  23  ar  
 46  20  54  1   
 47  21  23  ar  
 48  21  55  1   
 49  22  24  1   
 50  22  56  1   
 51  22  57  1   
 52  23  58  1   
 53  24  25  1   
 54  24  59  1   
 55  24  60  1   
 56  25  26  1   
 57  25  27  1   
 58  26  28  1   
 59  26  61  1   
 60  26  62  1   
 61  27  29  1   
 62  27  63  1   
 63  27  64  1   
 64  28  30  1   
 65  28  65  1   
 66  28  66  1   
 67  29  30  1   
 68  29  67  1   
 69  29  68  1   
 70  30  31  1   
 71  30  69  1   
 72  31  32  1   
 73  31  70  1   
 74  31  71  1   
 75  32  72  1   
 76  32  73  1   
 77  32  74  1   
@<TRIPOS>SUBSTRUCTURE
  1 ****  19 GROUP 4 **** **** 0

# MOE 2024.06 (io_trps.svl 2023.06)
