@<TRIPOS>MOLECULE
NONAME
54 56 1 0 0 
SMALL
USER_CHARGES


@<TRIPOS>ATOM
  1 O       -0.0040     1.3120    -0.8370 O.2   1 <1>  -0.5700 
  2 C       -0.3210     2.4740    -0.7380 C.2   1 <1>   0.5690 
  3 N       -1.2270     2.9430     0.1790 N.am  1 <1>  -0.6600 
  4 C        0.3210     3.4640    -1.7040 C.3   1 <1>   0.1810 
  5 C       -1.5800     4.4040     0.2230 C.3   1 <1>   0.3640 
  6 C       -1.8580     2.1190     1.2480 C.3   1 <1>   0.2200 
  7 O        0.4980     4.7220    -1.1090 O.3   1 <1>  -0.5600 
  8 C       -3.0560     4.5760    -0.1490 C.ar  1 <1>  -0.1440 
  9 C       -0.7070     5.3310    -0.6710 C.3   1 <1>   0.2610 
 10 C       -0.7910     1.6120     2.2170 C.3   1 <1>  -0.2400 
 11 C       -2.6870     0.9770     0.6590 C.3   1 <1>  -0.2400 
 12 C       -3.6050     3.9220    -1.2450 C.ar  1 <1>  -0.1500 
 13 C       -3.8670     5.4060     0.6110 C.ar  1 <1>  -0.1500 
 14 C       -0.4000     6.6260     0.0910 C.2   1 <1>   0.5690 
 15 C       -4.9390     4.0900    -1.5710 C.ar  1 <1>  -0.1500 
 16 C       -5.2020     5.5760     0.2870 C.ar  1 <1>  -0.1500 
 17 O       -1.3080     7.3090     0.5050 O.2   1 <1>  -0.5700 
 18 N        0.8890     6.9830     0.3040 N.am  1 <1>  -0.7300 
 19 C       -5.7390     4.9180    -0.8040 C.ar  1 <1>  -0.1500 
 20 C        1.3640     8.2500     0.9270 C.3   1 <1>   0.2840 
 21 C        2.7610     8.6560     0.4440 C.ar  1 <1>   0.4770 
 22 N        3.6060     7.6710     0.1530 N.ar  1 <1>  -0.6200 
 23 N        2.9940     9.9580     0.3670 N.ar  1 <1>  -0.6200 
 24 C        4.7960     8.0400    -0.2590 C.ar  1 <1>   0.1670 
 25 C        4.1900    10.3040    -0.0480 C.ar  1 <1>   0.1670 
 26 C        5.1380     9.3660    -0.3770 C.ar  1 <1>  -0.1500 
 27 C        5.7770     6.9380    -0.5980 C.3   1 <1>  -0.0970 
 28 C        4.4780    11.7870    -0.1480 C.3   1 <1>  -0.0970 
 29 H       -0.2900     3.5750    -2.5810 H     1 <1>   0.0800 
 30 H        1.2900     3.1010    -1.9940 H     1 <1>   0.0800 
 31 H       -1.4520     4.7270     1.2420 H     1 <1>   0.0800 
 32 H       -2.5340     2.7430     1.8090 H     1 <1>   0.0800 
 33 H       -1.2630     5.5990    -1.5510 H     1 <1>   0.0800 
 34 H       -0.1280     0.9210     1.7280 H     1 <1>   0.0800 
 35 H       -1.2580     1.1020     3.0390 H     1 <1>   0.0800 
 36 H       -0.2200     2.4360     2.6050 H     1 <1>   0.0800 
 37 H       -2.0630     0.2630     0.1530 H     1 <1>   0.0800 
 38 H       -3.4160     1.3630    -0.0280 H     1 <1>   0.0800 
 39 H       -3.2060     0.4650     1.4470 H     1 <1>   0.0800 
 40 H       -2.9990     3.2690    -1.8500 H     1 <1>   0.1500 
 41 H       -3.4650     5.9350     1.4590 H     1 <1>   0.1500 
 42 H       -5.3560     3.5770    -2.4200 H     1 <1>   0.1500 
 43 H       -5.8210     6.2240     0.8830 H     1 <1>   0.1500 
 44 H        1.6430     6.4050    -0.0900 H     1 <1>   0.3700 
 45 H       -6.7770     5.0500    -1.0560 H     1 <1>   0.1500 
 46 H        0.6690     9.0400     0.7030 H     1 <1>   0.0800 
 47 H        1.3980     8.1230     1.9930 H     1 <1>   0.0800 
 48 H        6.1130     9.6580    -0.7150 H     1 <1>   0.1500 
 49 H        6.7190     7.3430    -0.9180 H     1 <1>   0.0800 
 50 H        5.3730     6.3280    -1.3860 H     1 <1>   0.0800 
 51 H        5.9380     6.3220     0.2680 H     1 <1>   0.0800 
 52 H        5.4780    11.9640    -0.4960 H     1 <1>   0.0800 
 53 H        4.3590    12.2410     0.8190 H     1 <1>   0.0800 
 54 H        3.7840    12.2410    -0.8310 H     1 <1>   0.0800 
@<TRIPOS>BOND
  1   1   2  2   
  2   2   3  am  
  3   2   4  1   
  4   3   5  1   
  5   3   6  1   
  6   4   7  1   
  7   4  29  1   
  8   4  30  1   
  9   5   8  1   
 10   5   9  1   
 11   5  31  1   
 12   6  10  1   
 13   6  11  1   
 14   6  32  1   
 15   7   9  1   
 16   8  12  ar  
 17   8  13  ar  
 18   9  14  1   
 19   9  33  1   
 20  10  34  1   
 21  10  35  1   
 22  10  36  1   
 23  11  37  1   
 24  11  38  1   
 25  11  39  1   
 26  12  15  ar  
 27  12  40  1   
 28  13  16  ar  
 29  13  41  1   
 30  14  17  2   
 31  14  18  am  
 32  15  19  ar  
 33  15  42  1   
 34  16  19  ar  
 35  16  43  1   
 36  18  20  1   
 37  18  44  1   
 38  19  45  1   
 39  20  21  1   
 40  20  46  1   
 41  20  47  1   
 42  21  22  ar  
 43  21  23  ar  
 44  22  24  ar  
 45  23  25  ar  
 46  24  26  ar  
 47  24  27  1   
 48  25  26  ar  
 49  25  28  1   
 50  26  48  1   
 51  27  49  1   
 52  27  50  1   
 53  27  51  1   
 54  28  52  1   
 55  28  53  1   
 56  28  54  1   
@<TRIPOS>SUBSTRUCTURE
  1 ****   9 GROUP 4 **** **** 0

# MOE 2024.06 (io_trps.svl 2023.06)
