@<TRIPOS>MOLECULE
NONAME
52 54 1 0 0 
SMALL
USER_CHARGES


@<TRIPOS>ATOM
  1 S        1.8950    -0.3570     2.3600 S.3   1 <1>  -0.4600 
  2 C        3.7130    -0.5340     2.2800 C.3   1 <1>   0.1310 
  3 C        1.3330    -2.0010     2.8730 C.3   1 <1>  -0.0100 
  4 C        4.4010     0.7990     1.9990 C.2   1 <1>   0.5690 
  5 O        4.8500     1.4020     2.9410 O.2   1 <1>  -0.5700 
  6 N        4.6060     1.3140     0.7580 N.am  1 <1>  -0.7300 
  7 C        4.4450     0.8120    -0.6270 C.3   1 <1>   0.3000 
  8 C        5.5600    -0.2230    -0.9670 C.3   1 <1>   0.2000 
  9 C        4.6040     2.0390    -1.5480 C.3   1 <1>  -0.1600 
 10 C        3.0230     0.2520    -0.8040 C.3   1 <1>  -0.2400 
 11 O        5.3000    -0.7910    -2.2250 O.3   1 <1>  -0.6800 
 12 C        7.0010     0.4070    -0.9020 C.3   1 <1>   0.2800 
 13 C        6.0610     2.3760    -1.9050 C.3   1 <1>   0.1200 
 14 O        6.9380     1.8140    -0.9800 O.3   1 <1>  -0.5600 
 15 C        7.9580    -0.0930    -2.0120 C.3   1 <1>  -0.1600 
 16 C        7.6550     0.0940     0.4590 C.3   1 <1>  -0.1600 
 17 C        9.3700     0.4770    -1.8710 C.3   1 <1>   0.1400 
 18 C        9.0790     0.6430     0.5910 C.3   1 <1>   0.1400 
 19 N        9.9120     0.1350    -0.5310 N.am  1 <1>  -0.6600 
 20 C       11.0930    -0.5780    -0.3750 C.2   1 <1>   0.7160 
 21 O       11.4770    -1.2360    -1.3310 O.2   1 <1>  -0.5700 
 22 C       11.8910    -0.5970     0.8530 C.2   1 <1>   0.2030 
 23 N       11.8920     0.2810     1.8460 N.2   1 <1>  -0.7070 
 24 C       12.8270    -1.6070     1.1260 C.2   1 <1>  -0.1500 
 25 N       12.8020    -0.1600     2.7240 N.pl3 1 <1>   0.3000 
 26 C       13.3820    -1.3010     2.3140 C.2   1 <1>  -0.3020 
 27 H        4.0270    -0.9020     3.2390 H     1 <1>   0.0800 
 28 H        3.9440    -1.2610     1.5270 H     1 <1>   0.0800 
 29 H        0.2600    -1.9730     2.9380 H     1 <1>   0.0800 
 30 H        1.7670    -2.2170     3.8330 H     1 <1>   0.0800 
 31 H        1.6530    -2.7110     2.1320 H     1 <1>   0.0800 
 32 H        5.1800     2.1620     0.7750 H     1 <1>   0.3700 
 33 H        5.5010    -1.0420    -0.2740 H     1 <1>   0.0800 
 34 H        4.1320     2.8960    -1.1010 H     1 <1>   0.0800 
 35 H        4.0910     1.8710    -2.4780 H     1 <1>   0.0800 
 36 H        2.8010     0.1010    -1.8450 H     1 <1>   0.0800 
 37 H        2.2950     0.9350    -0.4030 H     1 <1>   0.0800 
 38 H        2.9180    -0.7030    -0.3310 H     1 <1>   0.0800 
 39 H        5.3810    -0.1140    -2.9220 H     1 <1>   0.4000 
 40 H        6.2120     3.4420    -1.8920 H     1 <1>   0.0800 
 41 H        6.3170     2.0110    -2.8840 H     1 <1>   0.0800 
 42 H        8.0230    -1.1660    -1.9680 H     1 <1>   0.0800 
 43 H        7.5830     0.1590    -2.9840 H     1 <1>   0.0800 
 44 H        7.0670     0.5000     1.2590 H     1 <1>   0.0800 
 45 H        7.6960    -0.9710     0.6000 H     1 <1>   0.0800 
 46 H        9.3460     1.5480    -1.9740 H     1 <1>   0.0800 
 47 H       10.0000     0.0840    -2.6510 H     1 <1>   0.0800 
 48 H        9.4730     0.3340     1.5400 H     1 <1>   0.0800 
 49 H        9.0670     1.7200     0.5640 H     1 <1>   0.0800 
 50 H       13.0310    -2.4430     0.4790 H     1 <1>   0.1500 
 51 H       13.0120     0.3410     3.5970 H     1 <1>   0.2700 
 52 H       14.1390    -1.8160     2.8760 H     1 <1>   0.1500 
@<TRIPOS>BOND
  1   1   2  1   
  2   1   3  1   
  3   2   4  1   
  4   2  27  1   
  5   2  28  1   
  6   3  29  1   
  7   3  30  1   
  8   3  31  1   
  9   4   5  2   
 10   4   6  am  
 11   6   7  1   
 12   6  32  1   
 13   7   8  1   
 14   7   9  1   
 15   7  10  1   
 16   8  11  1   
 17   8  12  1   
 18   8  33  1   
 19   9  13  1   
 20   9  34  1   
 21   9  35  1   
 22  10  36  1   
 23  10  37  1   
 24  10  38  1   
 25  11  39  1   
 26  12  14  1   
 27  12  15  1   
 28  12  16  1   
 29  13  14  1   
 30  13  40  1   
 31  13  41  1   
 32  15  17  1   
 33  15  42  1   
 34  15  43  1   
 35  16  18  1   
 36  16  44  1   
 37  16  45  1   
 38  17  19  1   
 39  17  46  1   
 40  17  47  1   
 41  18  19  1   
 42  18  48  1   
 43  18  49  1   
 44  19  20  am  
 45  20  21  2   
 46  20  22  1   
 47  22  23  2   
 48  22  24  1   
 49  23  25  1   
 50  24  26  2   
 51  24  50  1   
 52  25  26  1   
 53  25  51  1   
 54  26  52  1   
@<TRIPOS>SUBSTRUCTURE
  1 ****  16 GROUP 4 **** **** 0

# MOE 2024.06 (io_trps.svl 2023.06)
