@<TRIPOS>MOLECULE
NONAME
52 55 1 0 0 
SMALL
USER_CHARGES


@<TRIPOS>ATOM
  1 S        0.0400     0.0320     1.5450 S.o2  1 <1>   1.4470 
  2 O       -0.6460    -1.1820     1.9320 O.2   1 <1>  -0.6500 
  3 O        0.2240     1.0930     2.5110 O.2   1 <1>  -0.6500 
  4 N       -0.8340     0.6950     0.2530 N.am  1 <1>  -0.8490 
  5 C        1.6410    -0.3630     0.7900 C.ar  1 <1>  -0.0090 
  6 C       -2.0630     1.3570     0.7340 C.3   1 <1>   0.1960 
  7 C       -1.1620    -0.3060    -0.7690 C.3   1 <1>   0.1960 
  8 C        2.3550     0.6100     0.1040 C.ar  1 <1>  -0.1500 
  9 C        2.1850    -1.6380     0.8720 C.ar  1 <1>  -0.1500 
 10 C       -2.7870     2.1080    -0.4010 C.3   1 <1>   0.1440 
 11 C       -1.8290     0.3660    -1.9750 C.3   1 <1>  -0.1600 
 12 C        3.5780     0.3280    -0.4960 C.ar  1 <1>   0.0820 
 13 C        3.4000    -1.9400     0.2820 C.ar  1 <1>  -0.1500 
 14 C       -4.0410     2.7460     0.1660 C.ar  1 <1>   0.1660 
 15 C       -3.0940     1.1330    -1.5560 C.3   1 <1>  -0.1600 
 16 C       -1.9700     3.3400    -0.8770 C.3   1 <1>  -0.1600 
 17 O        4.2900     1.2710    -1.1760 O.3   1 <1>  -0.3630 
 18 C        4.1070    -0.9620    -0.4090 C.ar  1 <1>   0.0820 
 19 N       -5.1330     2.1040     0.5090 N.ar  1 <1>  -0.6200 
 20 C       -3.9010     4.0960     0.3010 C.ar  1 <1>  -0.1430 
 21 C       -2.5410     4.5690    -0.1480 C.3   1 <1>  -0.0170 
 22 C        3.9190     2.6320    -1.1730 C.3   1 <1>   0.0400 
 23 O        5.3050    -1.2090    -1.0100 O.3   1 <1>  -0.3630 
 24 C       -6.0940     2.8870     0.9750 C.ar  1 <1>   0.7200 
 25 C       -4.9630     4.8030     0.8110 C.ar  1 <1>   0.1600 
 26 C        5.9310    -2.4700    -0.9360 C.3   1 <1>   0.0400 
 27 N       -6.0780     4.2000     1.1590 N.ar  1 <1>  -0.6200 
 28 N       -7.2190     2.2680     1.3360 N.pl3 1 <1>  -0.9000 
 29 H       -1.8190     2.0630     1.5100 H     1 <1>   0.0800 
 30 H       -2.7280     0.6220     1.1590 H     1 <1>   0.0800 
 31 H       -1.8230    -1.0520    -0.3560 H     1 <1>   0.0800 
 32 H       -0.2630    -0.8000    -1.1000 H     1 <1>   0.0800 
 33 H        1.9270     1.5930     0.0490 H     1 <1>   0.1500 
 34 H        1.6490    -2.4080     1.4040 H     1 <1>   0.1500 
 35 H       -2.0890    -0.3850    -2.6990 H     1 <1>   0.0800 
 36 H       -1.1240     1.0350    -2.4370 H     1 <1>   0.0800 
 37 H        3.7760    -2.9420     0.3720 H     1 <1>   0.1500 
 38 H       -3.5110     1.6620    -2.3950 H     1 <1>   0.0800 
 39 H       -3.8320     0.4230    -1.2250 H     1 <1>   0.0800 
 40 H       -2.1160     3.4820    -1.9330 H     1 <1>   0.0800 
 41 H       -0.9150     3.2280    -0.6960 H     1 <1>   0.0800 
 42 H       -2.6100     5.4210    -0.8010 H     1 <1>   0.0800 
 43 H       -1.9410     4.8130     0.7120 H     1 <1>   0.0800 
 44 H        4.6690     3.1810    -1.7140 H     1 <1>   0.0800 
 45 H        3.8740     2.9790    -0.1560 H     1 <1>   0.0800 
 46 H        2.9670     2.7350    -1.6620 H     1 <1>   0.0800 
 47 H       -4.8980     5.8700     0.9370 H     1 <1>   0.1500 
 48 H        6.8630    -2.4090    -1.4690 H     1 <1>   0.0800 
 49 H        5.2940    -3.2040    -1.3980 H     1 <1>   0.0800 
 50 H        6.1150    -2.7090     0.0960 H     1 <1>   0.0800 
 51 H       -7.8180     2.7970     1.9630 H     1 <1>   0.4000 
 52 H       -7.1290     1.2730     1.5120 H     1 <1>   0.4000 
@<TRIPOS>BOND
  1   1   2  2   
  2   1   3  2   
  3   1   4  am  
  4   1   5  1   
  5   4   6  1   
  6   4   7  1   
  7   5   8  ar  
  8   5   9  ar  
  9   6  10  1   
 10   6  29  1   
 11   6  30  1   
 12   7  11  1   
 13   7  31  1   
 14   7  32  1   
 15   8  12  ar  
 16   8  33  1   
 17   9  13  ar  
 18   9  34  1   
 19  10  14  1   
 20  10  15  1   
 21  10  16  1   
 22  11  15  1   
 23  11  35  1   
 24  11  36  1   
 25  12  17  1   
 26  12  18  ar  
 27  13  18  ar  
 28  13  37  1   
 29  14  19  ar  
 30  14  20  ar  
 31  15  38  1   
 32  15  39  1   
 33  16  21  1   
 34  16  40  1   
 35  16  41  1   
 36  17  22  1   
 37  18  23  1   
 38  19  24  ar  
 39  20  21  1   
 40  20  25  ar  
 41  21  42  1   
 42  21  43  1   
 43  22  44  1   
 44  22  45  1   
 45  22  46  1   
 46  23  26  1   
 47  24  27  ar  
 48  24  28  1   
 49  25  27  ar  
 50  25  47  1   
 51  26  48  1   
 52  26  49  1   
 53  26  50  1   
 54  28  51  1   
 55  28  52  1   
@<TRIPOS>SUBSTRUCTURE
  1 ****   4 GROUP 4 **** **** 0

# MOE 2024.06 (io_trps.svl 2023.06)
