@<TRIPOS>MOLECULE
NONAME
49 51 1 0 0 
SMALL
USER_CHARGES


@<TRIPOS>ATOM
  1 S        0.1550     0.2070     1.6390 S.o2  1 <1>   1.5010 
  2 O        0.5910     1.5370     2.0080 O.2   1 <1>  -0.6500 
  3 O       -0.0480    -0.7840     2.6750 O.2   1 <1>  -0.6500 
  4 N       -1.3140     0.3790     0.8070 N.am  1 <1>  -0.8490 
  5 C        1.2410    -0.4800     0.3770 C.2   1 <1>  -0.0630 
  6 C       -2.4340     0.5710     1.7280 C.3   1 <1>   0.1960 
  7 C       -1.2720     1.4810    -0.1550 C.3   1 <1>   0.1960 
  8 C        2.5670    -0.3430     0.1060 C.2   1 <1>  -0.3320 
  9 C        0.7970    -1.3720    -0.5910 C.2   1 <1>   0.1390 
 10 C       -3.7510     0.5320     0.9530 C.3   1 <1>  -0.1600 
 11 C       -2.5400     1.4720    -1.0080 C.3   1 <1>  -0.1600 
 12 N        2.8350    -1.1150    -0.9700 N.pl3 1 <1>   0.3140 
 13 C        3.6070     0.4970     0.8350 C.3   1 <1>  -0.0600 
 14 N        1.7370    -1.7480    -1.4030 N.2   1 <1>  -0.7070 
 15 C       -3.8190     1.6010    -0.1530 C.3   1 <1>   0.2800 
 16 C        4.1310    -1.3010    -1.6360 C.3   1 <1>   0.0160 
 17 O       -3.7540     2.8440     0.5130 O.3   1 <1>  -0.5600 
 18 C       -5.1450     1.4500    -0.9870 C.3   1 <1>   0.2000 
 19 C       -4.3490     3.9440    -0.0940 C.3   1 <1>   0.1200 
 20 O       -4.9480     1.8180    -2.3310 O.3   1 <1>  -0.6800 
 21 C       -6.3100     2.2920    -0.3930 C.3   1 <1>   0.2800 
 22 C       -5.8730     3.7560    -0.1760 C.3   1 <1>  -0.1600 
 23 O       -6.6560     1.7690     0.8380 O.3   1 <1>  -0.6800 
 24 C       -7.5990     2.2100    -1.2200 C.3   1 <1>  -0.2400 
 25 H       -2.4460    -0.2180     2.4620 H     1 <1>   0.0800 
 26 H       -2.3320     1.5120     2.2470 H     1 <1>   0.0800 
 27 H       -1.1830     2.4240     0.3630 H     1 <1>   0.0800 
 28 H       -0.4170     1.3720    -0.8010 H     1 <1>   0.0800 
 29 H       -0.2220    -1.7150    -0.6650 H     1 <1>   0.1500 
 30 H       -4.5580     0.6660     1.6470 H     1 <1>   0.0800 
 31 H       -3.8590    -0.4460     0.5190 H     1 <1>   0.0800 
 32 H       -2.5730     0.5510    -1.5620 H     1 <1>   0.0800 
 33 H       -2.4820     2.2730    -1.7200 H     1 <1>   0.0800 
 34 H        3.1670     1.0070     1.6730 H     1 <1>   0.0800 
 35 H        4.0220     1.2350     0.1710 H     1 <1>   0.0800 
 36 H        4.4000    -0.1300     1.2020 H     1 <1>   0.0800 
 37 H        4.4930    -0.3510    -1.9780 H     1 <1>   0.0800 
 38 H        4.0040    -1.9610    -2.4740 H     1 <1>   0.0800 
 39 H        4.8250    -1.7340    -0.9410 H     1 <1>   0.0800 
 40 H       -5.4370     0.4150    -1.0120 H     1 <1>   0.0800 
 41 H       -4.1120     4.8120     0.4970 H     1 <1>   0.0800 
 42 H       -3.9150     4.0680    -1.0700 H     1 <1>   0.0800 
 43 H       -4.6560     2.7460    -2.3790 H     1 <1>   0.4000 
 44 H       -6.2170     4.3590    -0.9970 H     1 <1>   0.0800 
 45 H       -6.3290     4.1560     0.7120 H     1 <1>   0.0800 
 46 H       -7.3730     2.3000     1.2300 H     1 <1>   0.4000 
 47 H       -7.4410     2.6130    -2.2040 H     1 <1>   0.0800 
 48 H       -8.3910     2.7680    -0.7550 H     1 <1>   0.0800 
 49 H       -7.9030     1.1840    -1.3310 H     1 <1>   0.0800 
@<TRIPOS>BOND
  1   1   2  2   
  2   1   3  2   
  3   1   4  am  
  4   1   5  1   
  5   4   6  1   
  6   4   7  1   
  7   5   8  2   
  8   5   9  1   
  9   6  10  1   
 10   6  25  1   
 11   6  26  1   
 12   7  11  1   
 13   7  27  1   
 14   7  28  1   
 15   8  12  1   
 16   8  13  1   
 17   9  14  2   
 18   9  29  1   
 19  10  15  1   
 20  10  30  1   
 21  10  31  1   
 22  11  15  1   
 23  11  32  1   
 24  11  33  1   
 25  12  14  1   
 26  12  16  1   
 27  13  34  1   
 28  13  35  1   
 29  13  36  1   
 30  15  17  1   
 31  15  18  1   
 32  16  37  1   
 33  16  38  1   
 34  16  39  1   
 35  17  19  1   
 36  18  20  1   
 37  18  21  1   
 38  18  40  1   
 39  19  22  1   
 40  19  41  1   
 41  19  42  1   
 42  20  43  1   
 43  21  22  1   
 44  21  23  1   
 45  21  24  1   
 46  22  44  1   
 47  22  45  1   
 48  23  46  1   
 49  24  47  1   
 50  24  48  1   
 51  24  49  1   
@<TRIPOS>SUBSTRUCTURE
  1 ****   7 GROUP 4 **** **** 0

# MOE 2024.06 (io_trps.svl 2023.06)
