@<TRIPOS>MOLECULE
NONAME
45 46 1 0 0 
SMALL
USER_CHARGES


@<TRIPOS>ATOM
  1 S        0.6300     1.1930    -0.4990 S.o2  1 <1>   1.3330 
  2 O        0.4650    -0.2000    -0.8520 O.2   1 <1>  -0.6500 
  3 O       -0.3530     2.1610    -0.9270 O.2   1 <1>  -0.6500 
  4 N        0.7220     1.2900     1.1950 N.am  1 <1>  -0.8490 
  5 C        2.2560     1.7170    -1.0500 C.3   1 <1>  -0.0550 
  6 C        0.6160     2.6630     1.7050 C.3   1 <1>   0.1160 
  7 C       -0.2790     0.4420     1.8470 C.3   1 <1>   0.1160 
  8 C        3.3900     0.7100    -0.7490 C.3   1 <1>  -0.0800 
  9 C        4.7540     1.1030    -1.2990 C.3   1 <1>   0.2200 
 10 C        3.6810     0.4810     0.7390 C.3   1 <1>   0.1200 
 11 N        5.0060     2.5400    -1.0560 N.am  1 <1>  -0.7300 
 12 C        5.6650     0.2820    -0.3980 C.3   1 <1>   0.1200 
 13 O        5.0660     0.3220     0.8610 O.3   1 <1>  -0.5600 
 14 C        4.9160     3.5300    -1.9810 C.2   1 <1>   0.5690 
 15 O        4.7370     3.2890    -3.1500 O.2   1 <1>  -0.5700 
 16 C        5.0110     4.9780    -1.5240 C.3   1 <1>   0.1810 
 17 O        4.3810     5.1340    -0.2590 O.3   1 <1>  -0.3630 
 18 C        4.2650     6.3500     0.3410 C.ar  1 <1>   0.0820 
 19 C        3.5280     6.4370     1.5220 C.ar  1 <1>   0.1900 
 20 C        4.8480     7.5120    -0.1670 C.ar  1 <1>  -0.1500 
 21 F        2.9690     5.3590     2.0140 F     1 <1>  -0.1900 
 22 C        3.3540     7.6240     2.2070 C.ar  1 <1>  -0.1500 
 23 C        4.6880     8.7170     0.5020 C.ar  1 <1>  -0.1500 
 24 C        3.9470     8.7500     1.6720 C.ar  1 <1>   0.1900 
 25 F        3.8040     9.8900     2.2930 F     1 <1>  -0.1900 
 26 H        2.2190     1.8610    -2.1130 H     1 <1>   0.0800 
 27 H        2.4820     2.6670    -0.6100 H     1 <1>   0.0800 
 28 H        0.7610     2.6730     2.7720 H     1 <1>   0.0800 
 29 H       -0.3540     3.0760     1.4800 H     1 <1>   0.0800 
 30 H        1.3690     3.2890     1.2580 H     1 <1>   0.0800 
 31 H       -0.1850     0.5090     2.9170 H     1 <1>   0.0800 
 32 H       -0.1330    -0.5870     1.5610 H     1 <1>   0.0800 
 33 H       -1.2710     0.7440     1.5570 H     1 <1>   0.0800 
 34 H        3.1210    -0.2410    -1.1760 H     1 <1>   0.0800 
 35 H        4.8750     0.8610    -2.3420 H     1 <1>   0.0800 
 36 H        3.1890    -0.4000     1.1140 H     1 <1>   0.0800 
 37 H        3.4030     1.3330     1.3370 H     1 <1>   0.0800 
 38 H        5.1060     2.7860    -0.0660 H     1 <1>   0.3700 
 39 H        6.6630     0.6790    -0.3390 H     1 <1>   0.0800 
 40 H        5.6940    -0.7450    -0.7170 H     1 <1>   0.0800 
 41 H        4.5110     5.6110    -2.2350 H     1 <1>   0.0800 
 42 H        6.0430     5.2600    -1.4330 H     1 <1>   0.0800 
 43 H        5.4270     7.5040    -1.0720 H     1 <1>   0.1500 
 44 H        2.7840     7.6710     3.1160 H     1 <1>   0.1500 
 45 H        5.1290     9.6240     0.1260 H     1 <1>   0.1500 
@<TRIPOS>BOND
  1   1   2  2   
  2   1   3  2   
  3   1   4  am  
  4   1   5  1   
  5   4   6  1   
  6   4   7  1   
  7   5   8  1   
  8   5  26  1   
  9   5  27  1   
 10   6  28  1   
 11   6  29  1   
 12   6  30  1   
 13   7  31  1   
 14   7  32  1   
 15   7  33  1   
 16   8   9  1   
 17   8  10  1   
 18   8  34  1   
 19   9  11  1   
 20   9  12  1   
 21   9  35  1   
 22  10  13  1   
 23  10  36  1   
 24  10  37  1   
 25  11  14  am  
 26  11  38  1   
 27  12  13  1   
 28  12  39  1   
 29  12  40  1   
 30  14  15  2   
 31  14  16  1   
 32  16  17  1   
 33  16  41  1   
 34  16  42  1   
 35  17  18  1   
 36  18  19  ar  
 37  18  20  ar  
 38  19  21  1   
 39  19  22  ar  
 40  20  23  ar  
 41  20  43  1   
 42  22  24  ar  
 43  22  44  1   
 44  23  24  ar  
 45  23  45  1   
 46  24  25  1   
@<TRIPOS>SUBSTRUCTURE
  1 ****  17 GROUP 4 **** **** 0

# MOE 2024.06 (io_trps.svl 2023.06)
