@<TRIPOS>MOLECULE
Untitled Document
48 52 1 0 0 
SMALL
USER_CHARGES


@<TRIPOS>ATOM
  1 O       -1.1310    -1.0120    -1.9480 O.2   1 <1>  -0.5700 
  2 C       -1.8440    -1.1440    -0.9850 C.2   1 <1>   0.6590 
  3 O       -2.9970    -0.4690    -0.8900 O.3   1 <1>  -0.4300 
  4 C       -1.5970    -2.1040     0.2200 C.3   1 <1>   0.4790 
  5 C       -3.8190    -0.7590     0.2310 C.3   1 <1>   0.3380 
  6 O       -0.3520    -2.7270     0.2870 O.3   1 <1>  -0.6800 
  7 C       -1.7790    -1.2190     1.4500 C.2   1 <1>  -0.2880 
  8 C       -2.7900    -3.1320     0.2050 C.3   1 <1>   0.0000 
  9 C       -2.9220    -0.5230     1.4470 C.2   1 <1>  -0.2880 
 10 C       -4.1400    -2.2910     0.2010 C.3   1 <1>  -0.0800 
 11 C       -2.6810    -4.0690    -1.0240 C.3   1 <1>  -0.1600 
 12 C       -2.7360    -4.0350     1.4710 C.3   1 <1>  -0.2400 
 13 C       -5.2340    -2.7160    -0.8470 C.3   1 <1>   0.0000 
 14 C       -3.9350    -4.9140    -1.3120 C.3   1 <1>  -0.1600 
 15 C       -5.3020    -4.2630    -0.9510 C.3   1 <1>  -0.0190 
 16 C       -6.6390    -2.2240    -0.4210 C.3   1 <1>  -0.1600 
 17 C       -5.0120    -2.1120    -2.2570 C.3   1 <1>  -0.2400 
 18 C       -6.0040    -4.8950     0.2650 C.2   1 <1>   0.6590 
 19 C       -7.1850    -2.8870     0.8500 C.3   1 <1>   0.3810 
 20 O       -5.6740    -5.9550     0.7240 O.2   1 <1>  -0.5700 
 21 O       -7.0610    -4.2810     0.7700 O.3   1 <1>  -0.4300 
 22 C       -8.6500    -2.5470     1.0550 C.2   1 <1>  -0.1810 
 23 C       -9.2030    -1.7260     1.9740 C.2   1 <1>  -0.0100 
 24 C       -9.7260    -3.0390     0.3010 C.2   1 <1>  -0.1500 
 25 O      -10.5120    -1.6770     1.8310 O.3   1 <1>  -0.2800 
 26 C      -10.8300    -2.4690     0.8270 C.2   1 <1>  -0.0100 
 27 H       -4.6830    -0.1190     0.2170 H     1 <1>   0.0800 
 28 H       -0.3200    -3.2800     1.0860 H     1 <1>   0.4000 
 29 H       -0.9960    -1.2150     2.1890 H     1 <1>   0.1500 
 30 H       -3.2710     0.1740     2.1900 H     1 <1>   0.1500 
 31 H       -4.5770    -2.4730     1.1630 H     1 <1>   0.0800 
 32 H       -2.4480    -3.5020    -1.9060 H     1 <1>   0.0800 
 33 H       -1.8430    -4.7350    -0.8980 H     1 <1>   0.0800 
 34 H       -3.5470    -4.7360     1.4860 H     1 <1>   0.0800 
 35 H       -2.7940    -3.4570     2.3760 H     1 <1>   0.0800 
 36 H       -1.8250    -4.6060     1.4980 H     1 <1>   0.0800 
 37 H       -3.8260    -5.8630    -0.8170 H     1 <1>   0.0800 
 38 H       -3.9360    -5.1380    -2.3650 H     1 <1>   0.0800 
 39 H       -5.9630    -4.5010    -1.7640 H     1 <1>   0.0800 
 40 H       -7.3420    -2.4230    -1.2120 H     1 <1>   0.0800 
 41 H       -6.6420    -1.1590    -0.2770 H     1 <1>   0.0800 
 42 H       -5.1350    -1.0430    -2.2440 H     1 <1>   0.0800 
 43 H       -5.7270    -2.5040    -2.9590 H     1 <1>   0.0800 
 44 H       -4.0370    -2.3160    -2.6520 H     1 <1>   0.0800 
 45 H       -6.6330    -2.5680     1.7160 H     1 <1>   0.0800 
 46 H       -8.7520    -1.1420     2.7580 H     1 <1>   0.1500 
 47 H       -9.6540    -3.7350    -0.5170 H     1 <1>   0.1500 
 48 H      -11.8670    -2.5700     0.5560 H     1 <1>   0.1500 
@<TRIPOS>BOND
  1   1   2  2   
  2   2   3  1   
  3   2   4  1   
  4   3   5  1   
  5   4   6  1   
  6   4   7  1   
  7   4   8  1   
  8   5   9  1   
  9   5  10  1   
 10   5  27  1   
 11   6  28  1   
 12   7   9  2   
 13   7  29  1   
 14   8  10  1   
 15   8  11  1   
 16   8  12  1   
 17   9  30  1   
 18  10  13  1   
 19  10  31  1   
 20  11  14  1   
 21  11  32  1   
 22  11  33  1   
 23  12  34  1   
 24  12  35  1   
 25  12  36  1   
 26  13  15  1   
 27  13  16  1   
 28  13  17  1   
 29  14  15  1   
 30  14  37  1   
 31  14  38  1   
 32  15  18  1   
 33  15  39  1   
 34  16  19  1   
 35  16  40  1   
 36  16  41  1   
 37  17  42  1   
 38  17  43  1   
 39  17  44  1   
 40  18  20  2   
 41  18  21  1   
 42  19  21  1   
 43  19  22  1   
 44  19  45  1   
 45  22  23  2   
 46  22  24  1   
 47  23  25  1   
 48  23  46  1   
 49  24  26  2   
 50  24  47  1   
 51  25  26  1   
 52  26  48  1   
@<TRIPOS>SUBSTRUCTURE
  1 ****  10 GROUP 4 **** **** 0

# MOE 2024.06 (io_trps.svl 2023.06)
