@<TRIPOS>MOLECULE
NONAME
41 43 1 0 0 
SMALL
USER_CHARGES


@<TRIPOS>ATOM
  1 O       -1.8400    -1.7440    -0.0070 O.3   1 <1>  -0.5600 
  2 C       -1.7190    -0.8900     1.0870 C.3   1 <1>   0.1200 
  3 C       -1.6400    -1.2010    -1.2680 C.3   1 <1>   0.1200 
  4 C       -2.8030     0.2120     1.1440 C.3   1 <1>   0.4230 
  5 C       -2.8440    -0.3480    -1.6990 C.3   1 <1>  -0.0800 
  6 N       -2.4910     1.3640     0.2080 N.4   1 <1>  -0.9590 
  7 C       -4.2410    -0.3630     1.0240 C.3   1 <1>   0.1100 
  8 C       -4.2120    -0.9760    -1.3510 C.3   1 <1>   0.1100 
  9 C       -2.7450     1.1180    -1.2560 C.3   1 <1>   0.3430 
 10 C       -3.2800     2.5620     0.6230 C.3   1 <1>   0.2630 
 11 N       -4.9080    -0.2160    -0.3000 N.3   1 <1>  -0.8100 
 12 C       -6.3460    -0.5830    -0.1950 C.3   1 <1>   0.2900 
 13 C       -6.5830    -1.9540     0.4320 C.2   1 <1>   0.0060 
 14 N       -6.6060    -3.0980    -0.2860 N.pl3 1 <1>   0.0330 
 15 N       -6.7810    -2.1390     1.7000 N.2   1 <1>  -0.5650 
 16 C       -6.8340    -4.0770     0.6080 C.2   1 <1>  -0.3320 
 17 C       -6.9390    -3.4720     1.8110 C.2   1 <1>   0.0770 
 18 C       -6.9370    -5.5460     0.2420 C.3   1 <1>  -0.0600 
 19 H       -1.8180    -1.5100     1.9610 H     1 <1>   0.0800 
 20 H       -0.7300    -0.4680     1.0940 H     1 <1>   0.0800 
 21 H       -0.7180    -0.6450    -1.2790 H     1 <1>   0.0800 
 22 H       -1.5370    -2.0350    -1.9420 H     1 <1>   0.0800 
 23 H       -2.7320     0.5990     2.1470 H     1 <1>   0.0800 
 24 H       -2.7990    -0.3240    -2.7730 H     1 <1>   0.0800 
 25 H       -1.4930     1.5720     0.3160 H     1 <1>   0.4500 
 26 H       -4.8480     0.1300     1.7640 H     1 <1>   0.0800 
 27 H       -4.2140    -1.4040     1.3040 H     1 <1>   0.0800 
 28 H       -4.0960    -2.0060    -1.0550 H     1 <1>   0.0800 
 29 H       -4.8190    -0.9610    -2.2410 H     1 <1>   0.0800 
 30 H       -3.6750     1.5890    -1.5300 H     1 <1>   0.0800 
 31 H       -1.9670     1.5990    -1.8260 H     1 <1>   0.0800 
 32 H       -4.3350     2.3620     0.5090 H     1 <1>   0.0800 
 33 H       -3.0230     3.4120     0.0120 H     1 <1>   0.0800 
 34 H       -3.0840     2.8060     1.6540 H     1 <1>   0.0800 
 35 H       -6.8410     0.1480     0.4220 H     1 <1>   0.0800 
 36 H       -6.8080    -0.5410    -1.1650 H     1 <1>   0.0800 
 37 H       -6.4810    -3.2020    -1.2960 H     1 <1>   0.2700 
 38 H       -7.1250    -3.9330     2.7680 H     1 <1>   0.1500 
 39 H       -7.1230    -6.1340     1.1230 H     1 <1>   0.0800 
 40 H       -6.0200    -5.8830    -0.2070 H     1 <1>   0.0800 
 41 H       -7.7460    -5.7010    -0.4500 H     1 <1>   0.0800 
@<TRIPOS>BOND
  1   1   2  1   
  2   1   3  1   
  3   2   4  1   
  4   2  19  1   
  5   2  20  1   
  6   3   5  1   
  7   3  21  1   
  8   3  22  1   
  9   4   6  1   
 10   4   7  1   
 11   4  23  1   
 12   5   8  1   
 13   5   9  1   
 14   5  24  1   
 15   6   9  1   
 16   6  10  1   
 17   6  25  1   
 18   7  11  1   
 19   7  26  1   
 20   7  27  1   
 21   8  11  1   
 22   8  28  1   
 23   8  29  1   
 24   9  30  1   
 25   9  31  1   
 26  10  32  1   
 27  10  33  1   
 28  10  34  1   
 29  11  12  1   
 30  12  13  1   
 31  12  35  1   
 32  12  36  1   
 33  13  14  1   
 34  13  15  2   
 35  14  16  1   
 36  14  37  1   
 37  15  17  1   
 38  16  17  2   
 39  16  18  1   
 40  17  38  1   
 41  18  39  1   
 42  18  40  1   
 43  18  41  1   
@<TRIPOS>SUBSTRUCTURE
  1 ****  11 GROUP 4 **** **** 0

# MOE 2024.06 (io_trps.svl 2023.06)
