@<TRIPOS>MOLECULE
NONAME
55 58 1 0 0 
SMALL
USER_CHARGES


@<TRIPOS>ATOM
  1 O        0.9400    -0.0040     0.6700 O.3   1 <1>  -0.6800 
  2 C        1.8250    -0.7860    -0.0740 C.3   1 <1>   0.2000 
  3 C        1.4470    -2.2920     0.0510 C.3   1 <1>   0.0000 
  4 C        3.2680    -0.4230     0.3520 C.3   1 <1>   0.2090 
  5 C        0.0260    -2.5240    -0.5320 C.3   1 <1>  -0.1600 
  6 C        2.4370    -3.1690    -0.7610 C.3   1 <1>  -0.1600 
  7 C        1.4520    -2.7920     1.5210 C.3   1 <1>  -0.1600 
  8 N        3.4170     1.0550     0.4580 N.pl3 1 <1>  -0.8690 
  9 C       -0.3720    -4.0090    -0.4610 C.3   1 <1>  -0.0800 
 10 C        2.0500    -4.6580    -0.6900 C.3   1 <1>  -0.0800 
 11 C        1.0580    -4.2800     1.5980 C.3   1 <1>  -0.0800 
 12 C        4.4260     1.9200     0.3440 C.ar  1 <1>   0.7710 
 13 C        0.6370    -4.8440    -1.2680 C.3   1 <1>  -0.1600 
 14 C       -0.3510    -4.4660     1.0090 C.3   1 <1>  -0.1600 
 15 C        2.0610    -5.1140     0.7800 C.3   1 <1>  -0.1600 
 16 N        4.1290     3.1940     0.4580 N.ar  1 <1>  -0.6200 
 17 N        5.6730     1.4760     0.1310 N.ar  1 <1>  -0.1790 
 18 C        5.1070     4.0730     0.3340 C.ar  1 <1>   0.4100 
 19 C        6.7110     2.3400     0.0360 C.ar  1 <1>   0.2110 
 20 N        4.7500     5.3800     0.4050 N.pl3 1 <1>  -0.8380 
 21 C        6.4540     3.6680     0.1420 C.ar  1 <1>  -0.1430 
 22 C        5.0300     6.3520    -0.6870 C.3   1 <1>   0.1290 
 23 C        3.7130     5.8460     1.3720 C.3   1 <1>   0.1290 
 24 C        7.6010     4.6780     0.0950 C.3   1 <1>  -0.0970 
 25 H        0.0200    -0.2840     0.4920 H     1 <1>   0.4000 
 26 H        1.7030    -0.4930    -1.1030 H     1 <1>   0.0800 
 27 H        3.9630    -0.8200    -0.3650 H     1 <1>   0.0800 
 28 H        3.4750    -0.8610     1.3130 H     1 <1>   0.0800 
 29 H       -0.0100    -2.1990    -1.5580 H     1 <1>   0.0800 
 30 H       -0.7040    -1.9550     0.0150 H     1 <1>   0.0800 
 31 H        3.4360    -3.0670    -0.3770 H     1 <1>   0.0800 
 32 H        2.4460    -2.8570    -1.7910 H     1 <1>   0.0800 
 33 H        0.7610    -2.2170     2.1110 H     1 <1>   0.0800 
 34 H        2.4250    -2.6740     1.9600 H     1 <1>   0.0800 
 35 H        2.5000     1.4830     0.6720 H     1 <1>   0.4000 
 36 H       -1.3600    -4.1430    -0.8680 H     1 <1>   0.0800 
 37 H        2.7520    -5.2460    -1.2570 H     1 <1>   0.0800 
 38 H        1.0670    -4.6060     2.6240 H     1 <1>   0.0800 
 39 H        0.6200    -4.5400    -2.3010 H     1 <1>   0.0800 
 40 H        0.3620    -5.8840    -1.2300 H     1 <1>   0.0800 
 41 H       -0.6380    -5.5010     1.0720 H     1 <1>   0.0800 
 42 H       -1.0640    -3.8960     1.5800 H     1 <1>   0.0800 
 43 H        3.0490    -5.0060     1.1920 H     1 <1>   0.0800 
 44 H        1.7980    -6.1570     0.8390 H     1 <1>   0.0800 
 45 H        5.7810     0.4710     0.0780 H     1 <1>   0.4570 
 46 H        7.7040     1.9470    -0.1100 H     1 <1>   0.1500 
 47 H        5.4910     5.8580    -1.5240 H     1 <1>   0.0800 
 48 H        5.6830     7.1280    -0.3270 H     1 <1>   0.0800 
 49 H        4.1100     6.7980    -1.0270 H     1 <1>   0.0800 
 50 H        3.6140     5.1440     2.1820 H     1 <1>   0.0800 
 51 H        2.7620     5.9340     0.8730 H     1 <1>   0.0800 
 52 H        3.9910     6.8030     1.7780 H     1 <1>   0.0800 
 53 H        7.4780     5.4090     0.8750 H     1 <1>   0.0800 
 54 H        7.6180     5.1850    -0.8520 H     1 <1>   0.0800 
 55 H        8.5520     4.1970     0.2380 H     1 <1>   0.0800 
@<TRIPOS>BOND
  1   1   2  1   
  2   1  25  1   
  3   2   3  1   
  4   2   4  1   
  5   2  26  1   
  6   3   5  1   
  7   3   6  1   
  8   3   7  1   
  9   4   8  1   
 10   4  27  1   
 11   4  28  1   
 12   5   9  1   
 13   5  29  1   
 14   5  30  1   
 15   6  10  1   
 16   6  31  1   
 17   6  32  1   
 18   7  11  1   
 19   7  33  1   
 20   7  34  1   
 21   8  12  1   
 22   8  35  1   
 23   9  13  1   
 24   9  14  1   
 25   9  36  1   
 26  10  13  1   
 27  10  15  1   
 28  10  37  1   
 29  11  14  1   
 30  11  15  1   
 31  11  38  1   
 32  12  16  ar  
 33  12  17  ar  
 34  13  39  1   
 35  13  40  1   
 36  14  41  1   
 37  14  42  1   
 38  15  43  1   
 39  15  44  1   
 40  16  18  ar  
 41  17  19  ar  
 42  17  45  1   
 43  18  20  1   
 44  18  21  ar  
 45  19  21  ar  
 46  19  46  1   
 47  20  22  1   
 48  20  23  1   
 49  21  24  1   
 50  22  47  1   
 51  22  48  1   
 52  22  49  1   
 53  23  50  1   
 54  23  51  1   
 55  23  52  1   
 56  24  53  1   
 57  24  54  1   
 58  24  55  1   
@<TRIPOS>SUBSTRUCTURE
  1 ****   4 GROUP 4 **** **** 0

# MOE 2024.06 (io_trps.svl 2023.06)
