@<TRIPOS>MOLECULE
NONAME
37 37 1 0 0 
SMALL
USER_CHARGES


@<TRIPOS>ATOM
  1 O       -0.2780    -4.5640     1.8140 O.2   1 <1>  -0.5700 
  2 C       -0.0920    -3.7470     0.9430 C.2   1 <1>   0.5690 
  3 N       -1.0160    -3.4980    -0.0230 N.am  1 <1>  -0.7300 
  4 C        1.2430    -2.9920     0.9230 C.3   1 <1>   0.1710 
  5 C       -2.3610    -4.1090    -0.0900 C.3   1 <1>   0.1400 
  6 N        2.2820    -3.5650     0.0100 N.3   1 <1>  -0.8100 
  7 C       -3.3980    -3.0140    -0.3320 C.3   1 <1>  -0.1600 
  8 C        2.5500    -4.9850     0.3420 C.3   1 <1>   0.1100 
  9 C        3.5140    -2.7540     0.0390 C.3   1 <1>   0.1100 
 10 C       -4.8080    -3.5990    -0.3560 C.3   1 <1>   0.1200 
 11 C        3.6210    -5.5930    -0.5840 C.3   1 <1>   0.3430 
 12 C        4.5920    -3.3340    -0.9000 C.3   1 <1>   0.3430 
 13 O       -5.6900    -2.5610    -0.6230 O.3   1 <1>  -0.5600 
 14 N        4.8770    -4.7730    -0.5870 N.4   1 <1>  -0.9060 
 15 C       -7.0260    -2.9460    -0.6520 C.3   1 <1>   0.0400 
 16 H       -0.7890    -2.8540    -0.7820 H     1 <1>   0.3700 
 17 H        1.6210    -2.9730     1.9300 H     1 <1>   0.0800 
 18 H        1.0410    -1.9760     0.6330 H     1 <1>   0.0800 
 19 H       -2.5750    -4.6200     0.8350 H     1 <1>   0.0800 
 20 H       -2.3840    -4.8280    -0.8910 H     1 <1>   0.0800 
 21 H       -3.2030    -2.5360    -1.2750 H     1 <1>   0.0800 
 22 H       -3.3400    -2.2870     0.4590 H     1 <1>   0.0800 
 23 H        1.6460    -5.5600     0.2280 H     1 <1>   0.0800 
 24 H        2.8620    -5.0720     1.3700 H     1 <1>   0.0800 
 25 H        3.8990    -2.7020     1.0440 H     1 <1>   0.0800 
 26 H        3.2830    -1.7500    -0.2780 H     1 <1>   0.0800 
 27 H       -5.0580    -4.0300     0.5990 H     1 <1>   0.0800 
 28 H       -4.9030    -4.3390    -1.1330 H     1 <1>   0.0800 
 29 H        3.2150    -5.6390    -1.5820 H     1 <1>   0.0800 
 30 H        3.8350    -6.6010    -0.2670 H     1 <1>   0.0800 
 31 H        5.4940    -2.7500    -0.8130 H     1 <1>   0.0800 
 32 H        4.2370    -3.2470    -1.9150 H     1 <1>   0.0800 
 33 H        5.5450    -5.1570    -1.2670 H     1 <1>   0.4500 
 34 H        5.3090    -4.8320     0.3420 H     1 <1>   0.4500 
 35 H       -7.6200    -2.0750    -0.8660 H     1 <1>   0.0800 
 36 H       -7.3020    -3.3460     0.3080 H     1 <1>   0.0800 
 37 H       -7.1680    -3.6800    -1.4260 H     1 <1>   0.0800 
@<TRIPOS>BOND
  1   1   2  2   
  2   2   3  am  
  3   2   4  1   
  4   3   5  1   
  5   3  16  1   
  6   4   6  1   
  7   4  17  1   
  8   4  18  1   
  9   5   7  1   
 10   5  19  1   
 11   5  20  1   
 12   6   8  1   
 13   6   9  1   
 14   7  10  1   
 15   7  21  1   
 16   7  22  1   
 17   8  11  1   
 18   8  23  1   
 19   8  24  1   
 20   9  12  1   
 21   9  25  1   
 22   9  26  1   
 23  10  13  1   
 24  10  27  1   
 25  10  28  1   
 26  11  14  1   
 27  11  29  1   
 28  11  30  1   
 29  12  14  1   
 30  12  31  1   
 31  12  32  1   
 32  13  15  1   
 33  14  33  1   
 34  14  34  1   
 35  15  35  1   
 36  15  36  1   
 37  15  37  1   
@<TRIPOS>SUBSTRUCTURE
  1 ****   3 GROUP 4 **** **** 0

# MOE 2024.06 (io_trps.svl 2023.06)
