@<TRIPOS>MOLECULE
NONAME
56 58 1 0 0 
SMALL
USER_CHARGES


@<TRIPOS>ATOM
  1 F       -0.8710    -0.5420     0.2390 F     1 <1>  -0.1900 
  2 C       -2.0700    -0.0270     0.1390 C.ar  1 <1>   0.1900 
  3 C       -2.5100     0.9990     0.9830 C.ar  1 <1>   0.0830 
  4 C       -2.8830    -0.5530    -0.8470 C.ar  1 <1>  -0.1500 
  5 O       -1.8050     1.5980     1.9850 O.3   1 <1>  -0.3630 
  6 C       -3.7980     1.4730     0.8000 C.ar  1 <1>  -0.1500 
  7 C       -4.1650    -0.0570    -1.0010 C.ar  1 <1>  -0.1500 
  8 C       -0.4600     1.2840     2.2740 C.3   1 <1>   0.0400 
  9 C       -4.6500     0.9600    -0.1790 C.ar  1 <1>   0.0530 
 10 C       -5.9820     1.4820    -0.3330 C.2   1 <1>   0.0870 
 11 O       -6.1640     2.7750    -0.4210 O.3   1 <1>  -0.0190 
 12 C       -7.2100     0.8990    -0.4080 C.2   1 <1>  -0.0860 
 13 N       -7.4200     3.1030    -0.5630 N.2   1 <1>  -0.4100 
 14 C       -8.0700     1.9940    -0.5610 C.2   1 <1>   0.3720 
 15 C       -7.5980    -0.4760    -0.3210 C.2   1 <1>   0.7160 
 16 N       -9.4660     1.9280    -0.7010 N.pl3 1 <1>  -0.8210 
 17 O       -6.7850    -1.3780    -0.2320 O.2   1 <1>  -0.5700 
 18 N       -8.9130    -0.8270    -0.3160 N.am  1 <1>  -0.7300 
 19 C       -9.9120     2.3390    -2.0630 C.3   1 <1>   0.1290 
 20 C      -10.1820     2.7210     0.3400 C.3   1 <1>   0.1290 
 21 C       -9.4580    -2.2080    -0.3080 C.3   1 <1>   0.1400 
 22 C       -9.0350    -2.9620     0.9820 C.3   1 <1>   0.4230 
 23 N       -8.4810    -4.3270     0.7390 N.4   1 <1>  -0.9590 
 24 C      -10.1890    -3.0720     1.9760 C.3   1 <1>  -0.2400 
 25 C       -7.1690    -4.2940     0.0420 C.3   1 <1>   0.3430 
 26 C       -9.3330    -5.2740    -0.0240 C.3   1 <1>   0.3430 
 27 C       -6.9690    -5.7210    -0.4480 C.3   1 <1>  -0.1600 
 28 C       -8.3650    -6.3510    -0.4970 C.3   1 <1>  -0.1600 
 29 H       -2.5140    -1.3370    -1.4830 H     1 <1>   0.1500 
 30 H       -4.1500     2.2640     1.4390 H     1 <1>   0.1500 
 31 H       -4.8010    -0.4610    -1.7700 H     1 <1>   0.1500 
 32 H       -0.1350     1.9170     3.0800 H     1 <1>   0.0800 
 33 H        0.1390     1.4700     1.4000 H     1 <1>   0.0800 
 34 H       -0.3970     0.2530     2.5730 H     1 <1>   0.0800 
 35 H       -9.5640    -0.0330    -0.4560 H     1 <1>   0.3700 
 36 H       -9.3770     1.7770    -2.8100 H     1 <1>   0.0800 
 37 H       -9.7180     3.3880    -2.2180 H     1 <1>   0.0800 
 38 H      -10.9660     2.1550    -2.1800 H     1 <1>   0.0800 
 39 H       -9.8120     2.4620     1.3180 H     1 <1>   0.0800 
 40 H      -11.2370     2.5150     0.3030 H     1 <1>   0.0800 
 41 H      -10.0220     3.7750     0.1820 H     1 <1>   0.0800 
 42 H       -9.0880    -2.7150    -1.1810 H     1 <1>   0.0800 
 43 H      -10.5310    -2.1590    -0.3780 H     1 <1>   0.0800 
 44 H       -8.2590    -2.3760     1.4480 H     1 <1>   0.0800 
 45 H       -8.3030    -4.7510     1.6570 H     1 <1>   0.4500 
 46 H      -11.0150    -3.6210     1.5630 H     1 <1>   0.0800 
 47 H      -10.5360    -2.0850     2.2270 H     1 <1>   0.0800 
 48 H       -9.8610    -3.5440     2.8850 H     1 <1>   0.0800 
 49 H       -6.3740    -3.9730     0.6970 H     1 <1>   0.0800 
 50 H       -7.2150    -3.6270    -0.8040 H     1 <1>   0.0800 
 51 H       -9.7620    -4.7790    -0.8790 H     1 <1>   0.0800 
 52 H      -10.1210    -5.6850     0.5870 H     1 <1>   0.0800 
 53 H       -6.3380    -6.2570     0.2400 H     1 <1>   0.0800 
 54 H       -6.4950    -5.7200    -1.4140 H     1 <1>   0.0800 
 55 H       -8.6220    -6.6740    -1.4920 H     1 <1>   0.0800 
 56 H       -8.4160    -7.2020     0.1600 H     1 <1>   0.0800 
@<TRIPOS>BOND
  1   1   2  1   
  2   2   3  ar  
  3   2   4  ar  
  4   3   5  1   
  5   3   6  ar  
  6   4   7  ar  
  7   4  29  1   
  8   5   8  1   
  9   6   9  ar  
 10   6  30  1   
 11   7   9  ar  
 12   7  31  1   
 13   8  32  1   
 14   8  33  1   
 15   8  34  1   
 16   9  10  1   
 17  10  11  1   
 18  10  12  2   
 19  11  13  1   
 20  12  14  1   
 21  12  15  1   
 22  13  14  2   
 23  14  16  1   
 24  15  17  2   
 25  15  18  am  
 26  16  19  1   
 27  16  20  1   
 28  18  21  1   
 29  18  35  1   
 30  19  36  1   
 31  19  37  1   
 32  19  38  1   
 33  20  39  1   
 34  20  40  1   
 35  20  41  1   
 36  21  22  1   
 37  21  42  1   
 38  21  43  1   
 39  22  23  1   
 40  22  24  1   
 41  22  44  1   
 42  23  25  1   
 43  23  26  1   
 44  23  45  1   
 45  24  46  1   
 46  24  47  1   
 47  24  48  1   
 48  25  27  1   
 49  25  49  1   
 50  25  50  1   
 51  26  28  1   
 52  26  51  1   
 53  26  52  1   
 54  27  28  1   
 55  27  53  1   
 56  27  54  1   
 57  28  55  1   
 58  28  56  1   
@<TRIPOS>SUBSTRUCTURE
  1 ****  17 GROUP 4 **** **** 0

# MOE 2024.06 (io_trps.svl 2023.06)
