@<TRIPOS>MOLECULE
NONAME
41 43 1 0 0 
SMALL
USER_CHARGES


@<TRIPOS>ATOM
  1 O       -1.5240     0.4050     2.7040 O.2   1 <1>  -0.5700 
  2 C       -1.8680     0.8400     1.6220 C.2   1 <1>   0.5440 
  3 N       -2.6080     0.0210     0.7980 N.am  1 <1>  -0.6600 
  4 C       -1.5610     2.2090     1.2800 C.ar  1 <1>   0.0860 
  5 C       -3.3530     0.4530    -0.4060 C.3   1 <1>   0.1400 
  6 C       -2.9550    -1.3810     1.1450 C.3   1 <1>   0.1400 
  7 C       -0.8510     2.5610     0.1230 C.ar  1 <1>   0.3920 
  8 C       -1.9680     3.2400     2.1150 C.ar  1 <1>  -0.1500 
  9 C       -4.5420    -0.5020    -0.4660 C.3   1 <1>   0.2000 
 10 C       -4.0120    -1.8180     0.1140 C.3   1 <1>  -0.0800 
 11 O       -0.4120     1.5680    -0.6800 O.3   1 <1>  -0.3630 
 12 N       -0.5710     3.8120    -0.2460 N.ar  1 <1>  -0.6200 
 13 C       -1.6740     4.5340     1.7490 C.ar  1 <1>  -0.1500 
 14 O       -5.5230    -0.0280     0.3880 O.3   1 <1>  -0.6800 
 15 C       -3.4100    -2.7070    -0.9930 C.3   1 <1>  -0.0170 
 16 C        0.3900     1.8200    -1.8170 C.3   1 <1>   0.0400 
 17 C       -0.9850     4.7620     0.5720 C.ar  1 <1>   0.1600 
 18 C       -3.0800    -4.1030    -0.4860 C.ar  1 <1>   0.1670 
 19 N       -1.8390    -4.3110    -0.0790 N.ar  1 <1>  -0.6200 
 20 C       -4.0680    -5.0860    -0.4700 C.ar  1 <1>   0.1600 
 21 C       -1.6540    -5.5510     0.3430 C.ar  1 <1>   0.1600 
 22 N       -3.8860    -6.3270    -0.0490 N.ar  1 <1>  -0.6200 
 23 C       -2.6440    -6.5260     0.3580 C.ar  1 <1>   0.1600 
 24 H       -3.6690     1.4800    -0.3460 H     1 <1>   0.0800 
 25 H       -2.7270     0.3180    -1.2710 H     1 <1>   0.0800 
 26 H       -2.0720    -1.9960     1.1190 H     1 <1>   0.0800 
 27 H       -3.3660    -1.4080     2.1400 H     1 <1>   0.0800 
 28 H       -2.4970     3.0200     3.0270 H     1 <1>   0.1500 
 29 H       -4.9670    -0.5920    -1.4510 H     1 <1>   0.0800 
 30 H       -4.8050    -2.3650     0.5940 H     1 <1>   0.0800 
 31 H       -1.9730     5.3610     2.3690 H     1 <1>   0.1500 
 32 H       -5.1130     0.1550     1.2590 H     1 <1>   0.4000 
 33 H       -2.5200    -2.2520    -1.3930 H     1 <1>   0.0800 
 34 H       -4.1150    -2.7990    -1.8000 H     1 <1>   0.0800 
 35 H        0.6300     0.8780    -2.2770 H     1 <1>   0.0800 
 36 H        1.2910     2.3170    -1.5020 H     1 <1>   0.0800 
 37 H       -0.1600     2.4400    -2.5030 H     1 <1>   0.0800 
 38 H       -0.7620     5.7780     0.2910 H     1 <1>   0.1500 
 39 H       -5.0540    -4.8360    -0.8190 H     1 <1>   0.1500 
 40 H       -0.6700    -5.8090     0.6950 H     1 <1>   0.1500 
 41 H       -2.3960    -7.5080     0.7200 H     1 <1>   0.1500 
@<TRIPOS>BOND
  1   1   2  2   
  2   2   3  am  
  3   2   4  1   
  4   3   5  1   
  5   3   6  1   
  6   4   7  ar  
  7   4   8  ar  
  8   5   9  1   
  9   5  24  1   
 10   5  25  1   
 11   6  10  1   
 12   6  26  1   
 13   6  27  1   
 14   7  11  1   
 15   7  12  ar  
 16   8  13  ar  
 17   8  28  1   
 18   9  10  1   
 19   9  14  1   
 20   9  29  1   
 21  10  15  1   
 22  10  30  1   
 23  11  16  1   
 24  12  17  ar  
 25  13  17  ar  
 26  13  31  1   
 27  14  32  1   
 28  15  18  1   
 29  15  33  1   
 30  15  34  1   
 31  16  35  1   
 32  16  36  1   
 33  16  37  1   
 34  17  38  1   
 35  18  19  ar  
 36  18  20  ar  
 37  19  21  ar  
 38  20  22  ar  
 39  20  39  1   
 40  21  23  ar  
 41  21  40  1   
 42  22  23  ar  
 43  23  41  1   
@<TRIPOS>SUBSTRUCTURE
  1 ****   3 GROUP 4 **** **** 0

# MOE 2024.06 (io_trps.svl 2023.06)
