@<TRIPOS>MOLECULE
NONAME
48 50 1 0 0 
SMALL
USER_CHARGES


@<TRIPOS>ATOM
  1 F        1.5160    -2.7430    -0.6750 F     1 <1>  -0.1900 
  2 C        0.5090    -3.0270     0.1060 C.ar  1 <1>   0.1900 
  3 C       -0.5500    -3.7430    -0.4130 C.ar  1 <1>  -0.1500 
  4 C        0.5370    -2.6000     1.4160 C.ar  1 <1>  -0.1500 
  5 C       -1.6320    -4.0440     0.4050 C.ar  1 <1>  -0.1440 
  6 C       -0.5380    -2.9080     2.2300 C.ar  1 <1>  -0.1500 
  7 C       -1.6200    -3.6280     1.7380 C.ar  1 <1>  -0.1430 
  8 C       -2.7940    -4.8160    -0.2000 C.3   1 <1>   0.4870 
  9 C       -2.7620    -3.9320     2.6990 C.3   1 <1>  -0.0970 
 10 N       -3.9550    -3.9120    -0.3950 N.4   1 <1>  -0.9590 
 11 C       -5.1280    -4.6040    -0.9870 C.3   1 <1>   0.3430 
 12 C       -3.6130    -2.6360    -1.0990 C.3   1 <1>   0.3430 
 13 C       -6.4020    -3.7610    -0.7380 C.3   1 <1>   0.0000 
 14 C       -4.8580    -1.9640    -1.7020 C.3   1 <1>  -0.1600 
 15 C       -6.9900    -4.0980     0.6410 C.3   1 <1>   0.2000 
 16 C       -6.1270    -2.2390    -0.8790 C.3   1 <1>  -0.1600 
 17 C       -7.5050    -4.2540    -1.6850 C.3   1 <1>  -0.1600 
 18 O       -5.9700    -4.2140     1.5950 O.3   1 <1>  -0.5600 
 19 C       -7.7460    -5.4200     0.4570 C.3   1 <1>  -0.1600 
 20 C       -8.0360    -5.5410    -1.0460 C.3   1 <1>  -0.1600 
 21 C       -6.4290    -4.2320     2.9150 C.3   1 <1>   0.0400 
 22 H       -0.5090    -4.0510    -1.4430 H     1 <1>   0.1500 
 23 H        1.3800    -2.0440     1.7870 H     1 <1>   0.1500 
 24 H       -0.5230    -2.5800     3.2570 H     1 <1>   0.1500 
 25 H       -3.0660    -5.6290     0.4530 H     1 <1>   0.0800 
 26 H       -2.4920    -5.2320    -1.1470 H     1 <1>   0.0800 
 27 H       -2.4120    -3.9100     3.7170 H     1 <1>   0.0800 
 28 H       -3.1780    -4.9080     2.5240 H     1 <1>   0.0800 
 29 H       -3.5350    -3.1920     2.5960 H     1 <1>   0.0800 
 30 H       -4.2890    -3.6610     0.5530 H     1 <1>   0.4500 
 31 H       -4.9760    -4.7300    -2.0460 H     1 <1>   0.0800 
 32 H       -5.2560    -5.5770    -0.5400 H     1 <1>   0.0800 
 33 H       -3.1500    -1.9640    -0.3930 H     1 <1>   0.0800 
 34 H       -2.9010    -2.8250    -1.8860 H     1 <1>   0.0800 
 35 H       -4.6850    -0.9040    -1.7680 H     1 <1>   0.0800 
 36 H       -4.9980    -2.3220    -2.7080 H     1 <1>   0.0800 
 37 H       -7.6750    -3.3210     0.9420 H     1 <1>   0.0800 
 38 H       -6.9680    -1.7330    -1.3240 H     1 <1>   0.0800 
 39 H       -5.9840    -1.8080     0.0980 H     1 <1>   0.0800 
 40 H       -8.3090    -3.5370    -1.7160 H     1 <1>   0.0800 
 41 H       -7.1570    -4.4150    -2.6910 H     1 <1>   0.0800 
 42 H       -7.1490    -6.2550     0.7820 H     1 <1>   0.0800 
 43 H       -8.6650    -5.4010     1.0170 H     1 <1>   0.0800 
 44 H       -7.5230    -6.3980    -1.4490 H     1 <1>   0.0800 
 45 H       -9.0910    -5.6560    -1.2340 H     1 <1>   0.0800 
 46 H       -5.5820    -4.3200     3.5720 H     1 <1>   0.0800 
 47 H       -7.0810    -5.0750     3.0620 H     1 <1>   0.0800 
 48 H       -6.9520    -3.3140     3.1250 H     1 <1>   0.0800 
@<TRIPOS>BOND
  1   1   2  1   
  2   2   3  ar  
  3   2   4  ar  
  4   3   5  ar  
  5   3  22  1   
  6   4   6  ar  
  7   4  23  1   
  8   5   7  ar  
  9   5   8  1   
 10   6   7  ar  
 11   6  24  1   
 12   7   9  1   
 13   8  10  1   
 14   8  25  1   
 15   8  26  1   
 16   9  27  1   
 17   9  28  1   
 18   9  29  1   
 19  10  11  1   
 20  10  12  1   
 21  10  30  1   
 22  11  13  1   
 23  11  31  1   
 24  11  32  1   
 25  12  14  1   
 26  12  33  1   
 27  12  34  1   
 28  13  15  1   
 29  13  16  1   
 30  13  17  1   
 31  14  16  1   
 32  14  35  1   
 33  14  36  1   
 34  15  18  1   
 35  15  19  1   
 36  15  37  1   
 37  16  38  1   
 38  16  39  1   
 39  17  20  1   
 40  17  40  1   
 41  17  41  1   
 42  18  21  1   
 43  19  20  1   
 44  19  42  1   
 45  19  43  1   
 46  20  44  1   
 47  20  45  1   
 48  21  46  1   
 49  21  47  1   
 50  21  48  1   
@<TRIPOS>SUBSTRUCTURE
  1 ****  10 GROUP 4 **** **** 0

# MOE 2024.06 (io_trps.svl 2023.06)
