@<TRIPOS>MOLECULE
NONAME
52 55 1 0 0 
SMALL
USER_CHARGES


@<TRIPOS>ATOM
  1 O        1.6240    -0.0980    -0.2960 O.3   1 <1>  -0.5600 
  2 C        2.5280    -1.1190    -0.6710 C.3   1 <1>   0.4240 
  3 C        0.2600    -0.3440    -0.4820 C.3   1 <1>   0.1200 
  4 C        1.9630    -2.5320    -0.4230 C.ar  1 <1>  -0.1440 
  5 C        3.7820    -0.8820     0.1900 C.3   1 <1>  -0.1600 
  6 C        2.8810    -0.8900    -2.1490 C.3   1 <1>  -0.1600 
  7 C       -0.1640    -1.5010     0.4170 C.3   1 <1>  -0.0160 
  8 C        0.6880    -2.7120     0.1030 C.ar  1 <1>  -0.1440 
  9 C        2.7190    -3.6610    -0.7260 C.ar  1 <1>  -0.1500 
 10 C        4.6580     0.2810    -0.2880 C.3   1 <1>   0.3430 
 11 C        3.4200     0.5210    -2.4220 C.3   1 <1>   0.3430 
 12 C        0.1880    -3.9840     0.3340 C.ar  1 <1>  -0.1500 
 13 C        2.2200    -4.9300    -0.5000 C.ar  1 <1>  -0.1500 
 14 N        3.8570     1.1830    -1.1590 N.4   1 <1>  -0.9590 
 15 C        0.9560    -5.1040     0.0330 C.ar  1 <1>   0.0830 
 16 C        4.4500     2.5300    -1.3590 C.3   1 <1>   0.5240 
 17 O        0.5440    -6.3810     0.2270 O.3   1 <1>  -0.3630 
 18 C        4.6870     3.1630    -0.0080 C.2   1 <1>  -0.1810 
 19 C       -0.7200    -6.6700     0.7810 C.3   1 <1>   0.0400 
 20 C        5.8450     3.5320     0.5650 C.2   1 <1>  -0.0400 
 21 C        3.7300     3.4890     0.9550 C.2   1 <1>   0.1080 
 22 O        5.5680     4.0090     1.7470 O.3   1 <1>  -0.0190 
 23 C        7.2930     3.4910     0.1180 C.3   1 <1>  -0.0600 
 24 N        4.2930     3.9840     1.9940 N.2   1 <1>  -0.4100 
 25 C        2.2280     3.3070     0.8560 C.3   1 <1>  -0.0590 
 26 H        0.0780    -0.5780    -1.5170 H     1 <1>   0.0800 
 27 H       -0.2820     0.5490    -0.2210 H     1 <1>   0.0800 
 28 H        4.3990    -1.7610     0.2000 H     1 <1>   0.0800 
 29 H        3.4780    -0.7170     1.2080 H     1 <1>   0.0800 
 30 H        2.0230    -1.0810    -2.7680 H     1 <1>   0.0800 
 31 H        3.6310    -1.5990    -2.4460 H     1 <1>   0.0800 
 32 H       -1.2020    -1.7210     0.2440 H     1 <1>   0.0800 
 33 H       -0.0440    -1.2240     1.4490 H     1 <1>   0.0800 
 34 H        3.7070    -3.5750    -1.1400 H     1 <1>   0.1500 
 35 H        5.5000    -0.0990    -0.8420 H     1 <1>   0.0800 
 36 H        5.0310     0.8140     0.5730 H     1 <1>   0.0800 
 37 H        2.6370     1.1090    -2.8750 H     1 <1>   0.0800 
 38 H        4.2410     0.4620    -3.1190 H     1 <1>   0.0800 
 39 H       -0.7970    -4.0920     0.7460 H     1 <1>   0.1500 
 40 H        2.8070    -5.8000    -0.7330 H     1 <1>   0.1500 
 41 H        2.9810     1.3120    -0.6190 H     1 <1>   0.4500 
 42 H        3.7810     3.1520    -1.9310 H     1 <1>   0.0800 
 43 H        5.3830     2.4490    -1.8910 H     1 <1>   0.0800 
 44 H       -0.8190    -7.7390     0.8460 H     1 <1>   0.0800 
 45 H       -1.4830    -6.2710     0.1370 H     1 <1>   0.0800 
 46 H       -0.7770    -6.2380     1.7640 H     1 <1>   0.0800 
 47 H        7.3840     3.0770    -0.8690 H     1 <1>   0.0800 
 48 H        7.8690     2.8940     0.8030 H     1 <1>   0.0800 
 49 H        7.6960     4.4880     0.1140 H     1 <1>   0.0800 
 50 H        1.8830     3.5020    -0.1420 H     1 <1>   0.0800 
 51 H        1.7400     3.9960     1.5230 H     1 <1>   0.0800 
 52 H        1.9580     2.3090     1.1470 H     1 <1>   0.0800 
@<TRIPOS>BOND
  1   1   2  1   
  2   1   3  1   
  3   2   4  1   
  4   2   5  1   
  5   2   6  1   
  6   3   7  1   
  7   3  26  1   
  8   3  27  1   
  9   4   8  ar  
 10   4   9  ar  
 11   5  10  1   
 12   5  28  1   
 13   5  29  1   
 14   6  11  1   
 15   6  30  1   
 16   6  31  1   
 17   7   8  1   
 18   7  32  1   
 19   7  33  1   
 20   8  12  ar  
 21   9  13  ar  
 22   9  34  1   
 23  10  14  1   
 24  10  35  1   
 25  10  36  1   
 26  11  14  1   
 27  11  37  1   
 28  11  38  1   
 29  12  15  ar  
 30  12  39  1   
 31  13  15  ar  
 32  13  40  1   
 33  14  16  1   
 34  14  41  1   
 35  15  17  1   
 36  16  18  1   
 37  16  42  1   
 38  16  43  1   
 39  17  19  1   
 40  18  20  2   
 41  18  21  1   
 42  19  44  1   
 43  19  45  1   
 44  19  46  1   
 45  20  22  1   
 46  20  23  1   
 47  21  24  2   
 48  21  25  1   
 49  22  24  1   
 50  23  47  1   
 51  23  48  1   
 52  23  49  1   
 53  25  50  1   
 54  25  51  1   
 55  25  52  1   
@<TRIPOS>SUBSTRUCTURE
  1 ****   2 GROUP 4 **** **** 0

# MOE 2024.06 (io_trps.svl 2023.06)
