@<TRIPOS>MOLECULE
NONAME
40 43 1 0 0 
SMALL
USER_CHARGES


@<TRIPOS>ATOM
  1 S       -1.5060     1.2120    -0.7410 S.3   1 <1>  -0.0800 
  2 C       -0.5540     2.5920    -0.2370 C.2   1 <1>  -0.1400 
  3 C       -0.0930     0.4900    -1.4960 C.2   1 <1>  -0.1100 
  4 C        0.7270     2.4800    -0.6080 C.2   1 <1>  -0.1810 
  5 C       -1.1520     3.7490     0.5150 C.3   1 <1>   0.0200 
  6 C        0.9920     1.2740    -1.3420 C.2   1 <1>  -0.1500 
  7 C        1.7410     3.5660    -0.2520 C.3   1 <1>   0.4610 
  8 C       -0.1800     4.9290     0.3630 C.3   1 <1>   0.1200 
  9 O        1.1540     4.5330     0.6080 O.3   1 <1>  -0.5600 
 10 C        2.9190     2.9730     0.5340 C.3   1 <1>  -0.1600 
 11 C        2.2740     4.2840    -1.4970 C.3   1 <1>  -0.1600 
 12 C        4.1390     3.8980     0.6190 C.3   1 <1>   0.3430 
 13 C        3.2680     5.4010    -1.1550 C.3   1 <1>   0.3430 
 14 N        3.7540     5.2840     0.2540 N.4   1 <1>  -0.9590 
 15 C        4.7660     6.3070     0.6130 C.3   1 <1>   0.5240 
 16 C        4.1360     7.6710     0.4380 C.2   1 <1>  -0.1810 
 17 C        4.4800     8.6510    -0.4260 C.2   1 <1>  -0.0100 
 18 C        3.0400     8.1720     1.1590 C.2   1 <1>  -0.1500 
 19 O        3.6800     9.6870    -0.2910 O.3   1 <1>  -0.2800 
 20 C        2.8160     9.4060     0.6630 C.2   1 <1>  -0.0100 
 21 H       -0.2300    -0.4590    -1.9830 H     1 <1>   0.1500 
 22 H       -1.2770     3.4920     1.5520 H     1 <1>   0.0800 
 23 H       -2.1110     4.0090     0.1040 H     1 <1>   0.0800 
 24 H        1.9700     1.0400    -1.7220 H     1 <1>   0.1500 
 25 H       -0.4320     5.7060     1.0640 H     1 <1>   0.0800 
 26 H       -0.2410     5.3320    -0.6330 H     1 <1>   0.0800 
 27 H        3.2410     2.0570     0.0730 H     1 <1>   0.0800 
 28 H        2.5830     2.7140     1.5220 H     1 <1>   0.0800 
 29 H        1.4610     4.6810    -2.0760 H     1 <1>   0.0800 
 30 H        2.7690     3.5660    -2.1250 H     1 <1>   0.0800 
 31 H        4.9030     3.5490    -0.0570 H     1 <1>   0.0800 
 32 H        4.5350     3.8690     1.6220 H     1 <1>   0.0800 
 33 H        2.7750     6.3530    -1.2770 H     1 <1>   0.0800 
 34 H        4.0980     5.3670    -1.8420 H     1 <1>   0.0800 
 35 H        2.9090     5.4850     0.8210 H     1 <1>   0.4500 
 36 H        5.6320     6.2150    -0.0220 H     1 <1>   0.0800 
 37 H        5.0740     6.1850     1.6390 H     1 <1>   0.0800 
 38 H        5.2620     8.7090    -1.1650 H     1 <1>   0.1500 
 39 H        2.5010     7.6720     1.9460 H     1 <1>   0.1500 
 40 H        2.0780    10.1460     0.9250 H     1 <1>   0.1500 
@<TRIPOS>BOND
  1   1   2  1   
  2   1   3  1   
  3   2   4  2   
  4   2   5  1   
  5   3   6  2   
  6   3  21  1   
  7   4   6  1   
  8   4   7  1   
  9   5   8  1   
 10   5  22  1   
 11   5  23  1   
 12   6  24  1   
 13   7   9  1   
 14   7  10  1   
 15   7  11  1   
 16   8   9  1   
 17   8  25  1   
 18   8  26  1   
 19  10  12  1   
 20  10  27  1   
 21  10  28  1   
 22  11  13  1   
 23  11  29  1   
 24  11  30  1   
 25  12  14  1   
 26  12  31  1   
 27  12  32  1   
 28  13  14  1   
 29  13  33  1   
 30  13  34  1   
 31  14  15  1   
 32  14  35  1   
 33  15  16  1   
 34  15  36  1   
 35  15  37  1   
 36  16  17  2   
 37  16  18  1   
 38  17  19  1   
 39  17  38  1   
 40  18  20  2   
 41  18  39  1   
 42  19  20  1   
 43  20  40  1   
@<TRIPOS>SUBSTRUCTURE
  1 ****   9 GROUP 4 **** **** 0

# MOE 2024.06 (io_trps.svl 2023.06)
