@<TRIPOS>MOLECULE
NONAME
48 50 1 0 0 
SMALL
USER_CHARGES


@<TRIPOS>ATOM
  1 O       -0.7410    -1.3260     0.9420 O.2   1 <1>  -0.5700 
  2 C        0.4210    -1.5770     0.6920 C.2   1 <1>   0.5440 
  3 N        1.3700    -0.6260     0.9460 N.am  1 <1>  -0.7300 
  4 C        0.7950    -2.8710     0.1510 C.ar  1 <1>   0.0860 
  5 C        1.0950     0.7270     1.4690 C.3   1 <1>   0.1400 
  6 C        0.0440    -4.0090     0.3810 C.ar  1 <1>  -0.1500 
  7 C        1.9230    -3.0690    -0.6380 C.ar  1 <1>  -0.1500 
  8 C        2.0600     1.7060     0.8110 C.3   1 <1>  -0.2400 
  9 C        0.4200    -5.2380    -0.1390 C.ar  1 <1>   0.4100 
 10 C        2.2230    -4.3290    -1.1130 C.ar  1 <1>   0.1600 
 11 N        1.5050    -5.4110    -0.8820 N.ar  1 <1>  -0.6200 
 12 N       -0.3550    -6.3400     0.1270 N.pl3 1 <1>  -0.8690 
 13 C       -0.3440    -7.5320    -0.7300 C.3   1 <1>   0.4330 
 14 C       -1.7870    -7.9980    -0.8990 C.ar  1 <1>  -0.1430 
 15 C        0.5240    -8.5990    -0.0710 C.3   1 <1>  -0.2400 
 16 C       -2.5610    -8.3550     0.1980 C.ar  1 <1>  -0.1500 
 17 C       -2.3470    -8.0670    -2.1670 C.ar  1 <1>  -0.1500 
 18 C       -3.8700    -8.7780     0.0410 C.ar  1 <1>   0.0830 
 19 C       -3.6600    -8.4740    -2.3350 C.ar  1 <1>  -0.1500 
 20 O       -4.5270    -9.1640     1.1680 O.3   1 <1>  -0.3630 
 21 C       -4.4360    -8.8150    -1.2410 C.ar  1 <1>   0.0830 
 22 C       -5.4160   -10.2540     1.0650 C.3   1 <1>   0.1200 
 23 O       -5.7320    -9.1450    -1.4870 O.3   1 <1>  -0.3630 
 24 C       -6.7870    -9.7690     0.5890 C.3   1 <1>  -0.1600 
 25 C       -6.7000    -8.7430    -0.5430 C.3   1 <1>   0.1200 
 26 H        2.3560    -0.8760     0.8890 H     1 <1>   0.3700 
 27 H        1.2270     0.7300     2.5380 H     1 <1>   0.0800 
 28 H        0.0780     1.0070     1.2490 H     1 <1>   0.0800 
 29 H       -0.8470    -3.9420     0.9770 H     1 <1>   0.1500 
 30 H        2.5610    -2.2420    -0.8870 H     1 <1>   0.1500 
 31 H        3.0770     1.4530     1.0480 H     1 <1>   0.0800 
 32 H        1.8630     2.7000     1.1730 H     1 <1>   0.0800 
 33 H        1.9230     1.7010    -0.2560 H     1 <1>   0.0800 
 34 H        3.1040    -4.4570    -1.7200 H     1 <1>   0.1500 
 35 H       -1.3070    -6.1380     0.4320 H     1 <1>   0.4000 
 36 H        0.0670    -7.2890    -1.6960 H     1 <1>   0.0800 
 37 H        0.1710    -8.8200     0.9190 H     1 <1>   0.0800 
 38 H        1.5380    -8.2490    -0.0140 H     1 <1>   0.0800 
 39 H        0.5020    -9.4970    -0.6590 H     1 <1>   0.0800 
 40 H       -2.1490    -8.3160     1.1910 H     1 <1>   0.1500 
 41 H       -1.7660    -7.7980    -3.0330 H     1 <1>   0.1500 
 42 H       -4.0930    -8.5180    -3.3180 H     1 <1>   0.1500 
 43 H       -5.4930   -10.7120     2.0350 H     1 <1>   0.0800 
 44 H       -4.9970   -10.9690     0.3760 H     1 <1>   0.0800 
 45 H       -7.3150    -9.3310     1.4170 H     1 <1>   0.0800 
 46 H       -7.3600   -10.6150     0.2570 H     1 <1>   0.0800 
 47 H       -7.6440    -8.6610    -1.0520 H     1 <1>   0.0800 
 48 H       -6.4230    -7.7720    -0.1670 H     1 <1>   0.0800 
@<TRIPOS>BOND
  1   1   2  2   
  2   2   3  am  
  3   2   4  1   
  4   3   5  1   
  5   3  26  1   
  6   4   6  ar  
  7   4   7  ar  
  8   5   8  1   
  9   5  27  1   
 10   5  28  1   
 11   6   9  ar  
 12   6  29  1   
 13   7  10  ar  
 14   7  30  1   
 15   8  31  1   
 16   8  32  1   
 17   8  33  1   
 18   9  11  ar  
 19   9  12  1   
 20  10  11  ar  
 21  10  34  1   
 22  12  13  1   
 23  12  35  1   
 24  13  14  1   
 25  13  15  1   
 26  13  36  1   
 27  14  16  ar  
 28  14  17  ar  
 29  15  37  1   
 30  15  38  1   
 31  15  39  1   
 32  16  18  ar  
 33  16  40  1   
 34  17  19  ar  
 35  17  41  1   
 36  18  20  1   
 37  18  21  ar  
 38  19  21  ar  
 39  19  42  1   
 40  20  22  1   
 41  21  23  1   
 42  22  24  1   
 43  22  43  1   
 44  22  44  1   
 45  23  25  1   
 46  24  25  1   
 47  24  45  1   
 48  24  46  1   
 49  25  47  1   
 50  25  48  1   
@<TRIPOS>SUBSTRUCTURE
  1 ****  12 GROUP 4 **** **** 0

# MOE 2024.06 (io_trps.svl 2023.06)
