@<TRIPOS>MOLECULE
NONAME
48 51 1 0 0 
SMALL
USER_CHARGES


@<TRIPOS>ATOM
  1 O       -0.1210    -0.4220    -1.3590 O.3   1 <1>  -0.2800 
  2 C       -1.2280     0.1020    -0.8660 C.2   1 <1>   0.4250 
  3 C       -0.4850    -1.2730    -2.2720 C.2   1 <1>  -0.0100 
  4 N       -2.3020    -0.3970    -1.4100 N.2   1 <1>  -0.5650 
  5 C       -1.1590     1.0990     0.1810 C.ar  1 <1>   0.0530 
  6 C       -1.8240    -1.2720    -2.3220 C.2   1 <1>   0.0460 
  7 C       -2.2480     1.9280     0.4600 C.ar  1 <1>  -0.1500 
  8 C       -0.0110     1.2670     0.9570 C.ar  1 <1>  -0.1500 
  9 C       -2.7340    -2.0820    -3.2420 C.3   1 <1>   0.3900 
 10 C       -2.1980     2.8710     1.4700 C.ar  1 <1>  -0.1500 
 11 C        0.0450     2.2080     1.9690 C.ar  1 <1>  -0.1500 
 12 N       -3.3840    -3.2370    -2.5560 N.pl3 1 <1>  -0.8690 
 13 C       -1.0510     3.0110     2.2280 C.ar  1 <1>  -0.1500 
 14 C       -3.9700    -3.3940    -1.3630 C.ar  1 <1>   0.7710 
 15 N       -4.5140    -4.5740    -1.1520 N.ar  1 <1>  -0.6200 
 16 N       -4.0000    -2.4070    -0.4530 N.ar  1 <1>  -0.1790 
 17 C       -5.1250    -4.7800     0.0020 C.ar  1 <1>   0.4100 
 18 C       -4.5860    -2.5810     0.7530 C.ar  1 <1>   0.2110 
 19 N       -5.7210    -5.9870     0.1970 N.pl3 1 <1>  -0.8380 
 20 C       -5.1600    -3.7820     0.9980 C.ar  1 <1>  -0.1500 
 21 C       -6.9650    -6.1880     1.0150 C.3   1 <1>   0.2090 
 22 C       -5.2970    -7.2230    -0.5320 C.3   1 <1>   0.2090 
 23 C       -8.1170    -6.7020     0.1320 C.3   1 <1>   0.2000 
 24 C       -6.4290    -7.6990    -1.4500 C.3   1 <1>  -0.1600 
 25 O       -9.2050    -7.0170     0.9270 O.3   1 <1>  -0.6800 
 26 C       -7.7290    -7.9500    -0.6680 C.3   1 <1>  -0.1600 
 27 H        0.2650    -1.8150    -2.8230 H     1 <1>   0.1500 
 28 H       -3.1450     1.8400    -0.1280 H     1 <1>   0.1500 
 29 H        0.8540     0.6540     0.7690 H     1 <1>   0.1500 
 30 H       -2.1430    -2.4590    -4.0590 H     1 <1>   0.0800 
 31 H       -3.4900    -1.4370    -3.6590 H     1 <1>   0.0800 
 32 H       -3.0490     3.5020     1.6660 H     1 <1>   0.1500 
 33 H        0.9410     2.3200     2.5550 H     1 <1>   0.1500 
 34 H       -3.4560    -4.0730    -3.1450 H     1 <1>   0.4000 
 35 H       -1.0080     3.7460     3.0150 H     1 <1>   0.1500 
 36 H       -3.5140    -1.5440    -0.7160 H     1 <1>   0.4570 
 37 H       -4.5710    -1.7740     1.4680 H     1 <1>   0.1500 
 38 H       -5.6250    -3.9940     1.9410 H     1 <1>   0.1500 
 39 H       -7.2820    -5.2670     1.4680 H     1 <1>   0.0800 
 40 H       -6.7560    -6.9040     1.7910 H     1 <1>   0.0800 
 41 H       -5.0650    -7.9910     0.1860 H     1 <1>   0.0800 
 42 H       -4.4080    -7.0450    -1.1130 H     1 <1>   0.0800 
 43 H       -8.4230    -5.9140    -0.5350 H     1 <1>   0.0800 
 44 H       -6.1260    -8.6040    -1.9450 H     1 <1>   0.0800 
 45 H       -6.5950    -6.9520    -2.2070 H     1 <1>   0.0800 
 46 H       -9.0740    -7.8820     1.3580 H     1 <1>   0.4000 
 47 H       -8.5190    -8.1970    -1.3560 H     1 <1>   0.0800 
 48 H       -7.5760    -8.7800    -0.0010 H     1 <1>   0.0800 
@<TRIPOS>BOND
  1   1   2  1   
  2   1   3  1   
  3   2   4  2   
  4   2   5  1   
  5   3   6  2   
  6   3  27  1   
  7   4   6  1   
  8   5   7  ar  
  9   5   8  ar  
 10   6   9  1   
 11   7  10  ar  
 12   7  28  1   
 13   8  11  ar  
 14   8  29  1   
 15   9  12  1   
 16   9  30  1   
 17   9  31  1   
 18  10  13  ar  
 19  10  32  1   
 20  11  13  ar  
 21  11  33  1   
 22  12  14  1   
 23  12  34  1   
 24  13  35  1   
 25  14  15  ar  
 26  14  16  ar  
 27  15  17  ar  
 28  16  18  ar  
 29  16  36  1   
 30  17  19  1   
 31  17  20  ar  
 32  18  20  ar  
 33  18  37  1   
 34  19  21  1   
 35  19  22  1   
 36  20  38  1   
 37  21  23  1   
 38  21  39  1   
 39  21  40  1   
 40  22  24  1   
 41  22  41  1   
 42  22  42  1   
 43  23  25  1   
 44  23  26  1   
 45  23  43  1   
 46  24  26  1   
 47  24  44  1   
 48  24  45  1   
 49  25  46  1   
 50  26  47  1   
 51  26  48  1   
@<TRIPOS>SUBSTRUCTURE
  1 ****  16 GROUP 4 **** **** 0

# MOE 2024.06 (io_trps.svl 2023.06)
