@<TRIPOS>MOLECULE
NONAME
48 50 1 0 0 
SMALL
USER_CHARGES


@<TRIPOS>ATOM
  1 O        2.1840    -0.9030     1.7440 O.3   1 <1>  -0.6800 
  2 C        2.2210     0.4070     1.2920 C.3   1 <1>   0.2000 
  3 C        2.9140     0.5000    -0.1000 C.3   1 <1>   0.0000 
  4 C        2.8120     1.2850     2.3940 C.3   1 <1>  -0.1600 
  5 C        3.1570     1.9900    -0.4550 C.3   1 <1>   0.2090 
  6 C        1.8860    -0.0630    -1.1150 C.3   1 <1>   0.1200 
  7 C        4.2090    -0.3650    -0.2550 C.3   1 <1>  -0.0170 
  8 C        2.8620     2.7320     1.9230 C.3   1 <1>   0.2090 
  9 N        3.6870     2.8010     0.6910 N.pl3 1 <1>  -0.8380 
 10 O        2.2720     0.2040    -2.4260 O.3   1 <1>  -0.6800 
 11 C        5.5110     0.0370     0.4340 C.ar  1 <1>  -0.1440 
 12 C        4.8830     3.4390     0.6410 C.ar  1 <1>   0.1000 
 13 C        6.4760     0.7500    -0.2630 C.ar  1 <1>  -0.1500 
 14 C        5.7880    -0.3800     1.7260 C.ar  1 <1>  -0.1500 
 15 C        5.3030     4.1230    -0.5070 C.ar  1 <1>  -0.1500 
 16 C        5.7680     3.4240     1.7260 C.ar  1 <1>  -0.1500 
 17 C        7.6980     1.0400     0.3200 C.ar  1 <1>  -0.1500 
 18 C        7.0020    -0.0770     2.3200 C.ar  1 <1>  -0.1500 
 19 C        6.5250     4.7410    -0.5590 C.ar  1 <1>   0.2180 
 20 C        6.9820     4.0480     1.6500 C.ar  1 <1>   0.2110 
 21 C        7.9610     0.6300     1.6160 C.ar  1 <1>  -0.1500 
 22 N        7.3480     4.6970     0.5170 N.ar  1 <1>  -0.1790 
 23 C        6.9950     5.4840    -1.7980 C.3   1 <1>  -0.0970 
 24 H        1.7860    -0.9460     2.6340 H     1 <1>   0.4000 
 25 H        1.1950     0.7150     1.1760 H     1 <1>   0.0800 
 26 H        2.1950     1.2320     3.2720 H     1 <1>   0.0800 
 27 H        3.8020     0.9730     2.6540 H     1 <1>   0.0800 
 28 H        2.2300     2.4360    -0.7710 H     1 <1>   0.0800 
 29 H        3.8340     2.0360    -1.2900 H     1 <1>   0.0800 
 30 H        0.9180     0.3850    -0.9710 H     1 <1>   0.0800 
 31 H        1.7930    -1.1300    -0.9990 H     1 <1>   0.0800 
 32 H        3.9870    -1.3760     0.0400 H     1 <1>   0.0800 
 33 H        4.4410    -0.4310    -1.3020 H     1 <1>   0.0800 
 34 H        3.2750     3.3620     2.6910 H     1 <1>   0.0800 
 35 H        1.8700     3.0880     1.7040 H     1 <1>   0.0800 
 36 H        1.6750    -0.2430    -3.0600 H     1 <1>   0.4000 
 37 H        6.2800     1.0630    -1.2730 H     1 <1>   0.1500 
 38 H        5.0580    -0.9570     2.2660 H     1 <1>   0.1500 
 39 H        4.6340     4.1570    -1.3470 H     1 <1>   0.1500 
 40 H        5.4920     2.8870     2.6140 H     1 <1>   0.1500 
 41 H        8.4470     1.5690    -0.2410 H     1 <1>   0.1500 
 42 H        7.2020    -0.4090     3.3240 H     1 <1>   0.1500 
 43 H        7.6660     4.0250     2.4830 H     1 <1>   0.1500 
 44 H        8.9110     0.8420     2.0730 H     1 <1>   0.1500 
 45 H        8.2600     5.1590     0.4700 H     1 <1>   0.4570 
 46 H        6.2470     5.4370    -2.5710 H     1 <1>   0.0800 
 47 H        7.8980     5.0440    -2.1810 H     1 <1>   0.0800 
 48 H        7.1740     6.5200    -1.5710 H     1 <1>   0.0800 
@<TRIPOS>BOND
  1   1   2  1   
  2   1  24  1   
  3   2   3  1   
  4   2   4  1   
  5   2  25  1   
  6   3   5  1   
  7   3   6  1   
  8   3   7  1   
  9   4   8  1   
 10   4  26  1   
 11   4  27  1   
 12   5   9  1   
 13   5  28  1   
 14   5  29  1   
 15   6  10  1   
 16   6  30  1   
 17   6  31  1   
 18   7  11  1   
 19   7  32  1   
 20   7  33  1   
 21   8   9  1   
 22   8  34  1   
 23   8  35  1   
 24   9  12  1   
 25  10  36  1   
 26  11  13  ar  
 27  11  14  ar  
 28  12  15  ar  
 29  12  16  ar  
 30  13  17  ar  
 31  13  37  1   
 32  14  18  ar  
 33  14  38  1   
 34  15  19  ar  
 35  15  39  1   
 36  16  20  ar  
 37  16  40  1   
 38  17  21  ar  
 39  17  41  1   
 40  18  21  ar  
 41  18  42  1   
 42  19  22  ar  
 43  19  23  1   
 44  20  22  ar  
 45  20  43  1   
 46  21  44  1   
 47  22  45  1   
 48  23  46  1   
 49  23  47  1   
 50  23  48  1   
@<TRIPOS>SUBSTRUCTURE
  1 ****   9 GROUP 4 **** **** 0

# MOE 2024.06 (io_trps.svl 2023.06)
