@<TRIPOS>MOLECULE
NONAME
48 51 1 0 0 
SMALL
USER_CHARGES


@<TRIPOS>ATOM
  1 O        1.9280    -0.6650     2.2950 O.3   1 <1>  -0.0190 
  2 N        1.8200    -1.8910     2.6580 N.2   1 <1>  -0.4100 
  3 C        1.9220    -0.5710     0.9920 C.2   1 <1>   0.4250 
  4 C        1.7550    -2.5210     1.5520 C.2   1 <1>   0.3350 
  5 N        1.8050    -1.7440     0.4640 N.2   1 <1>  -0.5650 
  6 C        2.0280     0.7120     0.3300 C.ar  1 <1>   0.0530 
  7 C        1.6050    -4.0390     1.4460 C.3   1 <1>   0.5240 
  8 C        2.1010     0.8000    -1.0600 C.ar  1 <1>  -0.1500 
  9 C        2.0600     1.9100     1.0470 C.ar  1 <1>  -0.1500 
 10 N        0.1650    -4.4750     1.3340 N.4   1 <1>  -0.9590 
 11 C        2.1970     2.0200    -1.7040 C.ar  1 <1>  -0.1500 
 12 C        2.1560     3.1310     0.4070 C.ar  1 <1>  -0.1500 
 13 C        0.0340    -5.9550     1.4170 C.3   1 <1>   0.3430 
 14 C       -0.4860    -3.9150     0.1120 C.3   1 <1>   0.3430 
 15 C        2.2230     3.1950    -0.9740 C.ar  1 <1>  -0.1430 
 16 C       -1.4430    -6.3320     1.4610 C.3   1 <1>  -0.1600 
 17 C       -1.9740    -4.2540     0.1270 C.3   1 <1>  -0.1600 
 18 C        2.3300     4.5350    -1.6780 C.3   1 <1>  -0.0970 
 19 C       -2.2280    -5.7640     0.2670 C.3   1 <1>   0.1000 
 20 C       -3.7190    -6.0170     0.4610 C.2   1 <1>   0.0060 
 21 N       -4.3720    -5.5910     1.4880 N.2   1 <1>  -0.3380 
 22 N       -4.5180    -6.6890    -0.3800 N.pl3 1 <1>   0.0480 
 23 N       -5.6370    -5.9820     1.3430 N.2   1 <1>  -0.3380 
 24 C       -5.7010    -6.6290     0.2330 C.2   1 <1>   0.0360 
 25 C       -4.2210    -7.3470    -1.6670 C.3   1 <1>   0.0160 
 26 H        2.0450    -4.4760     2.3270 H     1 <1>   0.0800 
 27 H        2.1610    -4.3790     0.5890 H     1 <1>   0.0800 
 28 H        2.0850    -0.1000    -1.6500 H     1 <1>   0.1500 
 29 H        2.0100     1.8950     2.1220 H     1 <1>   0.1500 
 30 H       -0.3280    -4.0670     2.1430 H     1 <1>   0.4500 
 31 H        2.2530     2.0530    -2.7790 H     1 <1>   0.1500 
 32 H        2.1790     4.0370     0.9880 H     1 <1>   0.1500 
 33 H        0.5200    -6.3220     2.3070 H     1 <1>   0.0800 
 34 H        0.4990    -6.4150     0.5590 H     1 <1>   0.0800 
 35 H       -0.0260    -4.3250    -0.7730 H     1 <1>   0.0800 
 36 H       -0.3730    -2.8420     0.0840 H     1 <1>   0.0800 
 37 H       -1.8650    -5.9720     2.3850 H     1 <1>   0.0800 
 38 H       -1.5380    -7.4040     1.4700 H     1 <1>   0.0800 
 39 H       -2.4280    -3.8990    -0.7820 H     1 <1>   0.0800 
 40 H       -2.4420    -3.7260     0.9400 H     1 <1>   0.0800 
 41 H        1.8660     4.4890    -2.6470 H     1 <1>   0.0800 
 42 H        3.3640     4.8000    -1.8010 H     1 <1>   0.0800 
 43 H        1.8400     5.3020    -1.1050 H     1 <1>   0.0800 
 44 H       -1.8920    -6.2550    -0.6290 H     1 <1>   0.0800 
 45 H       -6.5970    -7.0720    -0.1630 H     1 <1>   0.1500 
 46 H       -3.4840    -8.1140    -1.5160 H     1 <1>   0.0800 
 47 H       -3.8530    -6.6180    -2.3660 H     1 <1>   0.0800 
 48 H       -5.1180    -7.7910    -2.0600 H     1 <1>   0.0800 
@<TRIPOS>BOND
  1   1   2  1   
  2   1   3  1   
  3   2   4  2   
  4   3   5  2   
  5   3   6  1   
  6   4   5  1   
  7   4   7  1   
  8   6   8  ar  
  9   6   9  ar  
 10   7  10  1   
 11   7  26  1   
 12   7  27  1   
 13   8  11  ar  
 14   8  28  1   
 15   9  12  ar  
 16   9  29  1   
 17  10  13  1   
 18  10  14  1   
 19  10  30  1   
 20  11  15  ar  
 21  11  31  1   
 22  12  15  ar  
 23  12  32  1   
 24  13  16  1   
 25  13  33  1   
 26  13  34  1   
 27  14  17  1   
 28  14  35  1   
 29  14  36  1   
 30  15  18  1   
 31  16  19  1   
 32  16  37  1   
 33  16  38  1   
 34  17  19  1   
 35  17  39  1   
 36  17  40  1   
 37  18  41  1   
 38  18  42  1   
 39  18  43  1   
 40  19  20  1   
 41  19  44  1   
 42  20  21  2   
 43  20  22  1   
 44  21  23  1   
 45  22  24  1   
 46  22  25  1   
 47  23  24  2   
 48  24  45  1   
 49  25  46  1   
 50  25  47  1   
 51  25  48  1   
@<TRIPOS>SUBSTRUCTURE
  1 ****  14 GROUP 4 **** **** 0

# MOE 2024.06 (io_trps.svl 2023.06)
