@<TRIPOS>MOLECULE
NONAME
48 51 1 0 0 
SMALL
USER_CHARGES


@<TRIPOS>ATOM
  1 CL       1.0410     0.5380    -1.3470 Cl    1 <1>  -0.1770 
  2 C        0.6100     1.9210    -0.3650 C.ar  1 <1>   0.1770 
  3 C        1.5500     2.5770     0.4250 C.ar  1 <1>  -0.1440 
  4 C       -0.7090     2.3330    -0.4110 C.ar  1 <1>  -0.1500 
  5 C        1.1250     3.6700     1.1710 C.ar  1 <1>  -0.1500 
  6 C        3.0160     2.1610     0.5040 C.3   1 <1>   0.3640 
  7 C       -1.1140     3.4210     0.3400 C.ar  1 <1>  -0.1500 
  8 C       -0.1940     4.0880     1.1300 C.ar  1 <1>  -0.1500 
  9 N        3.1160     0.7680     0.9960 N.am  1 <1>  -0.7300 
 10 C        3.7780     2.3750    -0.8280 C.3   1 <1>   0.2610 
 11 C        3.9650    -0.1440     0.4700 C.2   1 <1>   0.5690 
 12 O        5.0030     1.6590    -0.8290 O.3   1 <1>  -0.5600 
 13 C        3.9810     3.8750    -1.0570 C.2   1 <1>   0.5690 
 14 O        4.0240    -1.2600     0.9190 O.2   1 <1>  -0.5700 
 15 C        4.8460     0.2590    -0.7180 C.3   1 <1>   0.1810 
 16 O        3.3380     4.4110    -1.9310 O.2   1 <1>  -0.5700 
 17 N        4.8190     4.5980    -0.2580 N.am  1 <1>  -0.5100 
 18 C        6.1320     4.1800     0.3350 C.3   1 <1>   0.2250 
 19 C        5.3910     5.9440    -0.5880 C.3   1 <1>   0.2250 
 20 C        6.4850     5.6840     0.4820 C.3   1 <1>   0.2100 
 21 N        7.8570     6.0400     0.0600 N.3   1 <1>  -0.7500 
 22 C        8.0110     7.5040    -0.0540 C.3   1 <1>   0.1100 
 23 C        8.8570     5.5150     1.0110 C.3   1 <1>   0.1100 
 24 C        9.4590     7.8840    -0.4120 C.3   1 <1>   0.1200 
 25 C       10.2790     5.9560     0.6210 C.3   1 <1>   0.1200 
 26 O       10.3480     7.3490     0.5260 O.3   1 <1>  -0.5600 
 27 H       -1.4110     1.8050    -1.0310 H     1 <1>   0.1500 
 28 H        1.8180     4.2130     1.7920 H     1 <1>   0.1500 
 29 H        3.4950     2.7790     1.2440 H     1 <1>   0.0800 
 30 H       -2.1400     3.7490     0.3090 H     1 <1>   0.1500 
 31 H       -0.5070     4.9380     1.7120 H     1 <1>   0.1500 
 32 H        2.4960     0.4790     1.7540 H     1 <1>   0.3700 
 33 H        3.1940     2.0050    -1.6500 H     1 <1>   0.0800 
 34 H        4.4090    -0.1090    -1.6280 H     1 <1>   0.0800 
 35 H        5.8230    -0.1730    -0.6010 H     1 <1>   0.0800 
 36 H        5.9990     3.6700     1.2720 H     1 <1>   0.0000 
 37 H        6.7360     3.6550    -0.3840 H     1 <1>   0.0000 
 38 H        5.7570     5.9730    -1.6000 H     1 <1>   0.0000 
 39 H        4.7110     6.7360    -0.3320 H     1 <1>   0.0000 
 40 H        6.2320     6.0840     1.4480 H     1 <1>   0.0000 
 41 H        7.3560     7.8780    -0.8210 H     1 <1>   0.0800 
 42 H        7.7470     7.9780     0.8760 H     1 <1>   0.0800 
 43 H        8.6440     5.8690     2.0050 H     1 <1>   0.0800 
 44 H        8.8180     4.4400     1.0200 H     1 <1>   0.0800 
 45 H        9.5770     8.9520    -0.4050 H     1 <1>   0.0800 
 46 H        9.7180     7.5100    -1.3870 H     1 <1>   0.0800 
 47 H       10.5610     5.5300    -0.3270 H     1 <1>   0.0800 
 48 H       10.9860     5.6430     1.3680 H     1 <1>   0.0800 
@<TRIPOS>BOND
  1   1   2  1   
  2   2   3  ar  
  3   2   4  ar  
  4   3   5  ar  
  5   3   6  1   
  6   4   7  ar  
  7   4  27  1   
  8   5   8  ar  
  9   5  28  1   
 10   6   9  1   
 11   6  10  1   
 12   6  29  1   
 13   7   8  ar  
 14   7  30  1   
 15   8  31  1   
 16   9  11  am  
 17   9  32  1   
 18  10  12  1   
 19  10  13  1   
 20  10  33  1   
 21  11  14  2   
 22  11  15  1   
 23  12  15  1   
 24  13  16  2   
 25  13  17  am  
 26  15  34  1   
 27  15  35  1   
 28  17  18  1   
 29  17  19  1   
 30  18  20  1   
 31  18  36  1   
 32  18  37  1   
 33  19  20  1   
 34  19  38  1   
 35  19  39  1   
 36  20  21  1   
 37  20  40  1   
 38  21  22  1   
 39  21  23  1   
 40  22  24  1   
 41  22  41  1   
 42  22  42  1   
 43  23  25  1   
 44  23  43  1   
 45  23  44  1   
 46  24  26  1   
 47  24  45  1   
 48  24  46  1   
 49  25  26  1   
 50  25  47  1   
 51  25  48  1   
@<TRIPOS>SUBSTRUCTURE
  1 ****  17 GROUP 4 **** **** 0

# MOE 2024.06 (io_trps.svl 2023.06)
