@<TRIPOS>MOLECULE
NONAME
49 52 1 0 0 
SMALL
USER_CHARGES


@<TRIPOS>ATOM
  1 O       -0.7330     0.1470    -0.1480 O.2   1 <1>  -0.5700 
  2 C       -1.7190     0.8200    -0.3790 C.2   1 <1>   0.5440 
  3 N       -2.8830     0.1880    -0.7670 N.am  1 <1>  -0.6600 
  4 C       -1.6490     2.2610    -0.2260 C.ar  1 <1>   0.0860 
  5 C       -4.2460     0.7810    -0.6010 C.3   1 <1>   0.1400 
  6 C       -2.9160    -1.2620    -1.1300 C.3   1 <1>   0.1400 
  7 C       -1.1510     2.8340     0.9430 C.ar  1 <1>  -0.1500 
  8 C       -2.0750     3.1260    -1.2340 C.ar  1 <1>  -0.1500 
  9 C       -5.0980    -0.0630     0.3670 C.3   1 <1>   0.1900 
 10 C       -3.8080    -2.0520    -0.1590 C.3   1 <1>   0.1100 
 11 C       -1.0970     4.2060     1.1070 C.ar  1 <1>  -0.1500 
 12 C       -2.0230     4.4990    -1.0760 C.ar  1 <1>  -0.1500 
 13 N       -5.1700    -1.4760    -0.0830 N.3   1 <1>  -0.8100 
 14 C       -6.5120     0.5360     0.5010 C.3   1 <1>   0.1200 
 15 C       -1.5340     5.0480     0.0980 C.ar  1 <1>  -0.1430 
 16 C       -6.0450    -2.2510     0.8280 C.3   1 <1>   0.3330 
 17 O       -7.2870    -0.2270     1.3800 O.3   1 <1>  -0.5600 
 18 C       -1.4770     6.5550     0.2760 C.3   1 <1>  -0.0970 
 19 C       -6.2460    -3.6770     0.3180 C.ar  1 <1>  -0.1430 
 20 C       -7.4210    -1.5650     0.9790 C.3   1 <1>   0.1200 
 21 C       -6.5700    -3.9200    -1.0100 C.ar  1 <1>  -0.1500 
 22 C       -6.1110    -4.7520     1.1860 C.ar  1 <1>  -0.1500 
 23 C       -6.7570    -5.2140    -1.4640 C.ar  1 <1>  -0.1500 
 24 C       -6.2970    -6.0470     0.7340 C.ar  1 <1>  -0.1500 
 25 C       -6.6210    -6.2790    -0.5910 C.ar  1 <1>  -0.1500 
 26 H       -4.1790     1.7820    -0.2180 H     1 <1>   0.0800 
 27 H       -4.7300     0.8190    -1.5610 H     1 <1>   0.0800 
 28 H       -3.3060    -1.3660    -2.1270 H     1 <1>   0.0800 
 29 H       -1.9250    -1.6800    -1.1220 H     1 <1>   0.0800 
 30 H       -0.8010     2.1860     1.7270 H     1 <1>   0.1500 
 31 H       -2.4460     2.7090    -2.1540 H     1 <1>   0.1500 
 32 H       -4.6310    -0.0210     1.3370 H     1 <1>   0.0800 
 33 H       -3.3500    -2.0530     0.8160 H     1 <1>   0.0800 
 34 H       -3.8600    -3.0710    -0.5030 H     1 <1>   0.0800 
 35 H       -0.7100     4.6160     2.0230 H     1 <1>   0.1500 
 36 H       -2.3610     5.1400    -1.8710 H     1 <1>   0.1500 
 37 H       -7.0040     0.5650    -0.4560 H     1 <1>   0.0800 
 38 H       -6.4600     1.5340     0.8970 H     1 <1>   0.0800 
 39 H       -5.5880    -2.2890     1.8020 H     1 <1>   0.0800 
 40 H       -0.6650     6.8260     0.9270 H     1 <1>   0.0800 
 41 H       -2.3980     6.9060     0.7040 H     1 <1>   0.0800 
 42 H       -1.3260     7.0400    -0.6720 H     1 <1>   0.0800 
 43 H       -8.0050    -2.0760     1.7230 H     1 <1>   0.0800 
 44 H       -7.9550    -1.5920     0.0460 H     1 <1>   0.0800 
 45 H       -6.6710    -3.0940    -1.6930 H     1 <1>   0.1500 
 46 H       -5.8600    -4.5880     2.2190 H     1 <1>   0.1500 
 47 H       -7.0080    -5.3900    -2.4950 H     1 <1>   0.1500 
 48 H       -6.1910    -6.8750     1.4130 H     1 <1>   0.1500 
 49 H       -6.7670    -7.2850    -0.9430 H     1 <1>   0.1500 
@<TRIPOS>BOND
  1   1   2  2   
  2   2   3  am  
  3   2   4  1   
  4   3   5  1   
  5   3   6  1   
  6   4   7  ar  
  7   4   8  ar  
  8   5   9  1   
  9   5  26  1   
 10   5  27  1   
 11   6  10  1   
 12   6  28  1   
 13   6  29  1   
 14   7  11  ar  
 15   7  30  1   
 16   8  12  ar  
 17   8  31  1   
 18   9  13  1   
 19   9  14  1   
 20   9  32  1   
 21  10  13  1   
 22  10  33  1   
 23  10  34  1   
 24  11  15  ar  
 25  11  35  1   
 26  12  15  ar  
 27  12  36  1   
 28  13  16  1   
 29  14  17  1   
 30  14  37  1   
 31  14  38  1   
 32  15  18  1   
 33  16  19  1   
 34  16  20  1   
 35  16  39  1   
 36  17  20  1   
 37  18  40  1   
 38  18  41  1   
 39  18  42  1   
 40  19  21  ar  
 41  19  22  ar  
 42  20  43  1   
 43  20  44  1   
 44  21  23  ar  
 45  21  45  1   
 46  22  24  ar  
 47  22  46  1   
 48  23  25  ar  
 49  23  47  1   
 50  24  25  ar  
 51  24  48  1   
 52  25  49  1   
@<TRIPOS>SUBSTRUCTURE
  1 ****   9 GROUP 4 **** **** 0

# MOE 2024.06 (io_trps.svl 2023.06)
