@<TRIPOS>MOLECULE
NONAME
62 65 1 0 0 
SMALL
USER_CHARGES


@<TRIPOS>ATOM
  1 O       -0.4600     0.4770     0.6680 O.2   1 <1>  -0.5700 
  2 C       -1.1810     0.9230    -0.1990 C.2   1 <1>   0.5690 
  3 N       -2.0500     0.0880    -0.8710 N.am  1 <1>  -0.6600 
  4 C       -1.0370     2.4330    -0.4990 C.3   1 <1>   0.0610 
  5 C       -2.2320    -1.3180    -0.3940 C.3   1 <1>   0.1400 
  6 C       -2.7320     0.3640    -2.1690 C.3   1 <1>   0.0600 
  7 C       -0.5690     3.2000     0.7690 C.3   1 <1>   0.2890 
  8 C       -2.3600     3.2030    -0.7980 C.3   1 <1>  -0.1600 
  9 C       -0.0370     2.6480    -1.6790 C.3   1 <1>  -0.1600 
 10 C       -3.1570    -1.3860     0.8330 C.3   1 <1>  -0.0800 
 11 N       -0.9280     4.5740     0.4040 N.pl3 1 <1>  -0.8380 
 12 C       -1.5180     3.0170     1.9730 C.3   1 <1>  -0.1600 
 13 C       -2.3600     4.3740     0.1970 C.3   1 <1>   0.2890 
 14 C        1.3750     2.0790    -1.4600 C.3   1 <1>  -0.2400 
 15 C       -3.2630    -2.8340     1.3380 C.3   1 <1>  -0.1600 
 16 C       -4.5710    -0.8480     0.5480 C.3   1 <1>  -0.1600 
 17 C       -0.2360     5.7210     0.2610 C.ar  1 <1>   0.7710 
 18 C       -2.7540     3.8400     1.5740 C.3   1 <1>  -0.1600 
 19 C       -4.2760    -2.9470     2.4820 C.3   1 <1>   0.1200 
 20 C       -5.5050    -1.0930     1.7390 C.3   1 <1>   0.1200 
 21 N       -0.8700     6.8160    -0.1300 N.ar  1 <1>  -0.6200 
 22 N        1.0820     5.7070     0.5160 N.ar  1 <1>  -0.1790 
 23 O       -5.5070    -2.4500     2.0570 O.3   1 <1>  -0.5600 
 24 C       -0.1630     7.9120    -0.2620 C.ar  1 <1>   0.4100 
 25 C        1.8390     6.8230     0.3880 C.ar  1 <1>   0.2110 
 26 N       -0.8540     8.9850    -0.6550 N.pl3 1 <1>  -0.9000 
 27 C        1.2270     7.9680    -0.0090 C.ar  1 <1>  -0.1440 
 28 C        2.0020     9.2720    -0.1810 C.3   1 <1>  -0.0970 
 29 H       -2.6360    -1.9270    -1.1840 H     1 <1>   0.0800 
 30 H       -1.2690    -1.7270    -0.1350 H     1 <1>   0.0800 
 31 H       -3.7980     0.3670    -2.0270 H     1 <1>   0.0800 
 32 H       -2.4800    -0.4040    -2.8800 H     1 <1>   0.0800 
 33 H       -2.4350     1.3060    -2.5860 H     1 <1>   0.0800 
 34 H        0.4620     3.0390     1.0260 H     1 <1>   0.0800 
 35 H       -3.2350     2.5960    -0.6500 H     1 <1>   0.0800 
 36 H       -2.3830     3.5890    -1.8020 H     1 <1>   0.0800 
 37 H       -0.4350     2.1810    -2.5610 H     1 <1>   0.0800 
 38 H        0.0500     3.6970    -1.9050 H     1 <1>   0.0800 
 39 H       -2.7170    -0.7970     1.6200 H     1 <1>   0.0800 
 40 H       -1.7680     1.9910     2.1710 H     1 <1>   0.0800 
 41 H       -1.0670     3.4280     2.8590 H     1 <1>   0.0800 
 42 H       -2.9110     5.2440    -0.1220 H     1 <1>   0.0800 
 43 H        1.3370     1.0140    -1.3010 H     1 <1>   0.0800 
 44 H        1.8670     2.5320    -0.6210 H     1 <1>   0.0800 
 45 H        1.9750     2.2550    -2.3360 H     1 <1>   0.0800 
 46 H       -2.3020    -3.1720     1.6830 H     1 <1>   0.0800 
 47 H       -3.5770    -3.4840     0.5410 H     1 <1>   0.0800 
 48 H       -4.9850    -1.3360    -0.3160 H     1 <1>   0.0800 
 49 H       -4.5300     0.2070     0.3490 H     1 <1>   0.0800 
 50 H       -2.9060     4.6600     2.2550 H     1 <1>   0.0800 
 51 H       -3.6500     3.2460     1.5370 H     1 <1>   0.0800 
 52 H       -3.9570    -2.3880     3.3450 H     1 <1>   0.0800 
 53 H       -4.4170    -3.9760     2.7620 H     1 <1>   0.0800 
 54 H       -6.5140    -0.8130     1.4920 H     1 <1>   0.0800 
 55 H       -5.1890    -0.5370     2.6060 H     1 <1>   0.0800 
 56 H        1.4550     4.8130     0.8110 H     1 <1>   0.4570 
 57 H        2.8940     6.7660     0.6040 H     1 <1>   0.1500 
 58 H       -1.8600     8.9080    -0.8260 H     1 <1>   0.4000 
 59 H       -0.4630     9.9170    -0.8030 H     1 <1>   0.4000 
 60 H        3.0450     9.1430     0.0490 H     1 <1>   0.0800 
 61 H        1.6040    10.0280     0.4750 H     1 <1>   0.0800 
 62 H        1.9210     9.6200    -1.1960 H     1 <1>   0.0800 
@<TRIPOS>BOND
  1   1   2  2   
  2   2   3  am  
  3   2   4  1   
  4   3   5  1   
  5   3   6  1   
  6   4   7  1   
  7   4   8  1   
  8   4   9  1   
  9   5  10  1   
 10   5  29  1   
 11   5  30  1   
 12   6  31  1   
 13   6  32  1   
 14   6  33  1   
 15   7  11  1   
 16   7  12  1   
 17   7  34  1   
 18   8  13  1   
 19   8  35  1   
 20   8  36  1   
 21   9  14  1   
 22   9  37  1   
 23   9  38  1   
 24  10  15  1   
 25  10  16  1   
 26  10  39  1   
 27  11  13  1   
 28  11  17  1   
 29  12  18  1   
 30  12  40  1   
 31  12  41  1   
 32  13  18  1   
 33  13  42  1   
 34  14  43  1   
 35  14  44  1   
 36  14  45  1   
 37  15  19  1   
 38  15  46  1   
 39  15  47  1   
 40  16  20  1   
 41  16  48  1   
 42  16  49  1   
 43  17  21  ar  
 44  17  22  ar  
 45  18  50  1   
 46  18  51  1   
 47  19  23  1   
 48  19  52  1   
 49  19  53  1   
 50  20  23  1   
 51  20  54  1   
 52  20  55  1   
 53  21  24  ar  
 54  22  25  ar  
 55  22  56  1   
 56  24  26  1   
 57  24  27  ar  
 58  25  27  ar  
 59  25  57  1   
 60  26  58  1   
 61  26  59  1   
 62  27  28  1   
 63  28  60  1   
 64  28  61  1   
 65  28  62  1   
@<TRIPOS>SUBSTRUCTURE
  1 ****   4 GROUP 4 **** **** 0

# MOE 2024.06 (io_trps.svl 2023.06)
