@<TRIPOS>MOLECULE
NONAME
48 49 1 0 0 
SMALL
USER_CHARGES


@<TRIPOS>ATOM
  1 S        1.5550     0.8930     1.5140 S.o2  1 <1>   1.3330 
  2 O        1.7820     2.1010     2.2740 O.2   1 <1>  -0.6500 
  3 O        1.7820    -0.3950     2.1310 O.2   1 <1>  -0.6500 
  4 N       -0.0450     0.9170     0.9450 N.am  1 <1>  -0.8490 
  5 C        2.5240     0.9970     0.0110 C.3   1 <1>  -0.0550 
  6 C       -0.9770     1.4620     1.9350 C.3   1 <1>   0.1160 
  7 C       -0.5190    -0.3900     0.4790 C.3   1 <1>   0.1160 
  8 C        4.0350     1.1110     0.2730 C.3   1 <1>  -0.0800 
  9 C        4.8360     1.2310    -1.0130 C.3   1 <1>   0.2200 
 10 C        4.6650    -0.1040     0.9420 C.3   1 <1>   0.1200 
 11 N        5.0740     2.6550    -1.3210 N.am  1 <1>  -0.7300 
 12 C        6.1250     0.4580    -0.7230 C.3   1 <1>   0.1200 
 13 O        6.0030    -0.0580     0.5670 O.3   1 <1>  -0.5600 
 14 C        4.3220     3.3970    -2.1730 C.2   1 <1>   0.5690 
 15 O        3.4180     2.9070    -2.8050 O.2   1 <1>  -0.5700 
 16 C        4.6060     4.8830    -2.3250 C.3   1 <1>   0.0440 
 17 C        5.6130     5.4060    -1.3020 C.ar  1 <1>  -0.1440 
 18 C        5.2030     5.7060    -0.0130 C.ar  1 <1>  -0.1500 
 19 C        6.9460     5.5690    -1.6460 C.ar  1 <1>  -0.1500 
 20 C        6.1150     6.1630     0.9220 C.ar  1 <1>  -0.1500 
 21 C        7.8570     6.0250    -0.7090 C.ar  1 <1>  -0.1500 
 22 C        7.4480     6.3240     0.5810 C.ar  1 <1>  -0.1440 
 23 C        8.4460     6.8310     1.6070 C.3   1 <1>   0.2630 
 24 O        8.2920     8.1990     1.6910 O.3   1 <1>  -0.6800 
 25 H        2.3300     0.1380    -0.6000 H     1 <1>   0.0800 
 26 H        2.2090     1.8640    -0.5380 H     1 <1>   0.0800 
 27 H       -1.9770     1.4810     1.5360 H     1 <1>   0.0800 
 28 H       -0.6980     2.4720     2.1870 H     1 <1>   0.0800 
 29 H       -0.9620     0.8660     2.8320 H     1 <1>   0.0800 
 30 H       -1.5030    -0.2950     0.0510 H     1 <1>   0.0800 
 31 H       -0.5590    -1.0910     1.2970 H     1 <1>   0.0800 
 32 H        0.1410    -0.7780    -0.2770 H     1 <1>   0.0800 
 33 H        4.2270     1.9610     0.9060 H     1 <1>   0.0800 
 34 H        4.3260     0.7580    -1.8360 H     1 <1>   0.0800 
 35 H        4.2470    -1.0270     0.5750 H     1 <1>   0.0800 
 36 H        4.5960    -0.0700     2.0170 H     1 <1>   0.0800 
 37 H        5.7650     3.1380    -0.7370 H     1 <1>   0.3700 
 38 H        6.9980     1.0860    -0.7580 H     1 <1>   0.0800 
 39 H        6.2350    -0.3690    -1.4020 H     1 <1>   0.0800 
 40 H        4.9660     5.0560    -3.3210 H     1 <1>   0.0800 
 41 H        3.6790     5.4160    -2.2190 H     1 <1>   0.0800 
 42 H        4.1710     5.5850     0.2730 H     1 <1>   0.1500 
 43 H        7.2840     5.3410    -2.6420 H     1 <1>   0.1500 
 44 H        5.7830     6.3970     1.9200 H     1 <1>   0.1500 
 45 H        8.8890     6.1470    -0.9930 H     1 <1>   0.1500 
 46 H        9.4580     6.6220     1.3060 H     1 <1>   0.0800 
 47 H        8.2660     6.4080     2.5800 H     1 <1>   0.0800 
 48 H        7.8960     8.5120     0.8540 H     1 <1>   0.4000 
@<TRIPOS>BOND
  1   1   2  2   
  2   1   3  2   
  3   1   4  am  
  4   1   5  1   
  5   4   6  1   
  6   4   7  1   
  7   5   8  1   
  8   5  25  1   
  9   5  26  1   
 10   6  27  1   
 11   6  28  1   
 12   6  29  1   
 13   7  30  1   
 14   7  31  1   
 15   7  32  1   
 16   8   9  1   
 17   8  10  1   
 18   8  33  1   
 19   9  11  1   
 20   9  12  1   
 21   9  34  1   
 22  10  13  1   
 23  10  35  1   
 24  10  36  1   
 25  11  14  am  
 26  11  37  1   
 27  12  13  1   
 28  12  38  1   
 29  12  39  1   
 30  14  15  2   
 31  14  16  1   
 32  16  17  1   
 33  16  40  1   
 34  16  41  1   
 35  17  18  ar  
 36  17  19  ar  
 37  18  20  ar  
 38  18  42  1   
 39  19  21  ar  
 40  19  43  1   
 41  20  22  ar  
 42  20  44  1   
 43  21  22  ar  
 44  21  45  1   
 45  22  23  1   
 46  23  24  1   
 47  23  46  1   
 48  23  47  1   
 49  24  48  1   
@<TRIPOS>SUBSTRUCTURE
  1 ****  11 GROUP 4 **** **** 0

# MOE 2024.06 (io_trps.svl 2023.06)
