@<TRIPOS>MOLECULE
NONAME
37 38 1 0 0 
SMALL
USER_CHARGES


@<TRIPOS>ATOM
  1 S        0.3250    -0.4130     1.2450 S.3   1 <1>  -0.0800 
  2 C       -0.2450    -1.7490     0.2420 C.2   1 <1>   0.4620 
  3 C        1.8050    -0.3640     0.3300 C.2   1 <1>  -0.1100 
  4 N        0.6030    -2.0930    -0.6610 N.2   1 <1>  -0.5650 
  5 N       -1.4850    -2.3170     0.4710 N.pl3 1 <1>  -0.8220 
  6 C        1.7460    -1.3170    -0.6100 C.2   1 <1>   0.0770 
  7 C       -1.9410    -3.4660    -0.3760 C.3   1 <1>   0.2090 
  8 C       -2.4140    -1.8880     1.5540 C.3   1 <1>   0.2090 
  9 C       -3.3710    -3.2400    -0.9020 C.3   1 <1>   0.2000 
 10 C       -3.8100    -1.6420     0.9700 C.3   1 <1>  -0.1600 
 11 O       -3.7910    -4.3690    -1.6050 O.3   1 <1>  -0.6800 
 12 C       -4.3880    -2.8690     0.2170 C.3   1 <1>   0.0000 
 13 C       -4.5560    -4.0730     1.1890 C.3   1 <1>   0.1200 
 14 C       -5.7880    -2.5250    -0.3750 C.3   1 <1>  -0.1600 
 15 O       -5.3940    -3.7660     2.2520 O.3   1 <1>  -0.6800 
 16 C       -5.8340    -1.4340    -1.4630 C.3   1 <1>  -0.1600 
 17 C       -7.2750    -1.1800    -1.9140 C.3   1 <1>  -0.2400 
 18 H        2.5460     0.3670     0.5960 H     1 <1>   0.1500 
 19 H        2.5190    -1.5260    -1.3300 H     1 <1>   0.1500 
 20 H       -1.2880    -3.5880    -1.2230 H     1 <1>   0.0800 
 21 H       -1.8940    -4.3640     0.2120 H     1 <1>   0.0800 
 22 H       -2.4450    -2.6500     2.3130 H     1 <1>   0.0800 
 23 H       -2.0760    -0.9820     2.0210 H     1 <1>   0.0800 
 24 H       -3.3120    -2.4380    -1.6160 H     1 <1>   0.0800 
 25 H       -4.4740    -1.3370     1.7580 H     1 <1>   0.0800 
 26 H       -3.7220    -0.8080     0.2990 H     1 <1>   0.0800 
 27 H       -3.9000    -5.1340    -1.0110 H     1 <1>   0.4000 
 28 H       -3.6150    -4.3880     1.6010 H     1 <1>   0.0800 
 29 H       -4.9970    -4.9100     0.6770 H     1 <1>   0.0800 
 30 H       -6.2100    -3.4230    -0.7940 H     1 <1>   0.0800 
 31 H       -6.4400    -2.2240     0.4270 H     1 <1>   0.0800 
 32 H       -5.0890    -2.9650     2.7170 H     1 <1>   0.4000 
 33 H       -5.4250    -0.5110    -1.0940 H     1 <1>   0.0800 
 34 H       -5.2610    -1.7410    -2.3210 H     1 <1>   0.0800 
 35 H       -7.8770    -0.8480    -1.0860 H     1 <1>   0.0800 
 36 H       -7.7060    -2.0800    -2.3170 H     1 <1>   0.0800 
 37 H       -7.2930    -0.4230    -2.6770 H     1 <1>   0.0800 
@<TRIPOS>BOND
  1   1   2  1   
  2   1   3  1   
  3   2   4  2   
  4   2   5  1   
  5   3   6  2   
  6   3  18  1   
  7   4   6  1   
  8   5   7  1   
  9   5   8  1   
 10   6  19  1   
 11   7   9  1   
 12   7  20  1   
 13   7  21  1   
 14   8  10  1   
 15   8  22  1   
 16   8  23  1   
 17   9  11  1   
 18   9  12  1   
 19   9  24  1   
 20  10  12  1   
 21  10  25  1   
 22  10  26  1   
 23  11  27  1   
 24  12  13  1   
 25  12  14  1   
 26  13  15  1   
 27  13  28  1   
 28  13  29  1   
 29  14  16  1   
 30  14  30  1   
 31  14  31  1   
 32  15  32  1   
 33  16  17  1   
 34  16  33  1   
 35  16  34  1   
 36  17  35  1   
 37  17  36  1   
 38  17  37  1   
@<TRIPOS>SUBSTRUCTURE
  1 ****   5 GROUP 4 **** **** 0

# MOE 2024.06 (io_trps.svl 2023.06)
