@<TRIPOS>MOLECULE
NONAME
60 63 1 0 0 
SMALL
USER_CHARGES


@<TRIPOS>ATOM
  1 O       -1.5800     2.1530    -3.4410 O.2   1 <1>  -0.5700 
  2 C       -1.1820     1.8290    -2.3510 C.2   1 <1>   0.5690 
  3 N       -1.9390     1.3750    -1.3320 N.am  1 <1>  -0.6600 
  4 C        0.2600     1.9060    -1.9380 C.3   1 <1>  -0.0990 
  5 C       -1.1520     1.0590    -0.1300 C.3   1 <1>   0.1400 
  6 C       -3.3850     1.0780    -1.4080 C.3   1 <1>   0.2840 
  7 C        0.1860     1.7640    -0.4040 C.3   1 <1>  -0.0190 
  8 C       -4.1740     2.1810    -0.7210 C.ar  1 <1>  -0.1440 
  9 C        0.2190     3.1310     0.2650 C.2   1 <1>   0.5690 
 10 C       -4.6060     2.0530     0.5960 C.ar  1 <1>   0.0830 
 11 C       -4.4870     3.3240    -1.4400 C.ar  1 <1>  -0.1500 
 12 O        1.2280     3.4430     0.8520 O.2   1 <1>  -0.5700 
 13 N       -0.8740     3.9510     0.1610 N.am  1 <1>  -0.4940 
 14 O       -4.2470     0.9300     1.2730 O.3   1 <1>  -0.3630 
 15 C       -5.3790     3.0630     1.1650 C.ar  1 <1>  -0.1500 
 16 C       -5.2500     4.3260    -0.8670 C.ar  1 <1>  -0.1500 
 17 C       -1.1660     5.2040     0.7550 C.2   1 <1>  -0.0880 
 18 C       -4.6740     0.6960     2.5980 C.3   1 <1>   0.0400 
 19 C       -5.7040     4.1910     0.4320 C.ar  1 <1>  -0.1500 
 20 N       -0.3390     6.2670     0.9830 N.pl3 1 <1>   0.3140 
 21 C       -2.3840     5.5770     1.2080 C.2   1 <1>  -0.1500 
 22 N       -1.0060     7.2880     1.5780 N.2   1 <1>  -0.7070 
 23 C        1.1030     6.4110     0.6590 C.3   1 <1>   0.1760 
 24 C       -2.2240     6.8620     1.7030 C.2   1 <1>   0.1390 
 25 C        1.9310     6.3250     1.9500 C.3   1 <1>  -0.1600 
 26 C        1.3940     7.7330    -0.0690 C.3   1 <1>  -0.1600 
 27 C        3.4130     6.4790     1.6430 C.3   1 <1>   0.3430 
 28 C        2.8890     7.8850    -0.3310 C.3   1 <1>   0.3430 
 29 N        3.6420     7.7850     0.9550 N.4   1 <1>  -0.9590 
 30 C        5.1010     8.0240     0.7430 C.3   1 <1>   0.2630 
 31 H        0.7040     2.8340    -2.2520 H     1 <1>   0.0800 
 32 H        0.7880     1.0810    -2.3780 H     1 <1>   0.0800 
 33 H       -1.0190    -0.0080    -0.0640 H     1 <1>   0.0800 
 34 H       -1.6350     1.4180     0.7640 H     1 <1>   0.0800 
 35 H       -3.5840     0.1220    -0.9570 H     1 <1>   0.0800 
 36 H       -3.6830     1.0180    -2.4420 H     1 <1>   0.0800 
 37 H        1.0040     1.1750    -0.0270 H     1 <1>   0.0800 
 38 H       -4.1420     3.4320    -2.4560 H     1 <1>   0.1500 
 39 H       -1.6820     3.5110    -0.3030 H     1 <1>   0.3700 
 40 H       -5.7390     2.9910     2.1740 H     1 <1>   0.1500 
 41 H       -5.4940     5.2070    -1.4360 H     1 <1>   0.1500 
 42 H       -4.2820    -0.2540     2.9130 H     1 <1>   0.0800 
 43 H       -5.7490     0.6710     2.6190 H     1 <1>   0.0800 
 44 H       -4.2920     1.4770     3.2310 H     1 <1>   0.0800 
 45 H       -6.3060     4.9670     0.8730 H     1 <1>   0.1500 
 46 H       -3.2950     5.0120     1.2030 H     1 <1>   0.1500 
 47 H        1.3760     5.6150    -0.0060 H     1 <1>   0.0800 
 48 H       -3.0150     7.4460     2.1430 H     1 <1>   0.1500 
 49 H        1.7710     5.3720     2.4220 H     1 <1>   0.0800 
 50 H        1.6230     7.0890     2.6420 H     1 <1>   0.0800 
 51 H        1.0520     8.5710     0.5140 H     1 <1>   0.0800 
 52 H        0.8670     7.7450    -1.0080 H     1 <1>   0.0800 
 53 H        3.7370     5.6650     1.0140 H     1 <1>   0.0800 
 54 H        3.9740     6.4410     2.5640 H     1 <1>   0.0800 
 55 H        3.0750     8.8410    -0.7950 H     1 <1>   0.0800 
 56 H        3.2170     7.1110    -1.0070 H     1 <1>   0.0800 
 57 H        3.2770     8.5220     1.5790 H     1 <1>   0.4500 
 58 H        5.5160     7.2680     0.0960 H     1 <1>   0.0800 
 59 H        5.6250     7.9970     1.6850 H     1 <1>   0.0800 
 60 H        5.2600     8.9900     0.2910 H     1 <1>   0.0800 
@<TRIPOS>BOND
  1   1   2  2   
  2   2   3  am  
  3   2   4  1   
  4   3   5  1   
  5   3   6  1   
  6   4   7  1   
  7   4  31  1   
  8   4  32  1   
  9   5   7  1   
 10   5  33  1   
 11   5  34  1   
 12   6   8  1   
 13   6  35  1   
 14   6  36  1   
 15   7   9  1   
 16   7  37  1   
 17   8  10  ar  
 18   8  11  ar  
 19   9  12  2   
 20   9  13  am  
 21  10  14  1   
 22  10  15  ar  
 23  11  16  ar  
 24  11  38  1   
 25  13  17  1   
 26  13  39  1   
 27  14  18  1   
 28  15  19  ar  
 29  15  40  1   
 30  16  19  ar  
 31  16  41  1   
 32  17  20  1   
 33  17  21  2   
 34  18  42  1   
 35  18  43  1   
 36  18  44  1   
 37  19  45  1   
 38  20  22  1   
 39  20  23  1   
 40  21  24  1   
 41  21  46  1   
 42  22  24  2   
 43  23  25  1   
 44  23  26  1   
 45  23  47  1   
 46  24  48  1   
 47  25  27  1   
 48  25  49  1   
 49  25  50  1   
 50  26  28  1   
 51  26  51  1   
 52  26  52  1   
 53  27  29  1   
 54  27  53  1   
 55  27  54  1   
 56  28  29  1   
 57  28  55  1   
 58  28  56  1   
 59  29  30  1   
 60  29  57  1   
 61  30  58  1   
 62  30  59  1   
 63  30  60  1   
@<TRIPOS>SUBSTRUCTURE
  1 ****  13 GROUP 4 **** **** 0

# MOE 2024.06 (io_trps.svl 2023.06)
