@<TRIPOS>MOLECULE
NONAME
63 66 1 0 0 
SMALL
USER_CHARGES


@<TRIPOS>ATOM
  1 O       -0.8440     0.7350    -0.0540 O.2   1 <1>  -0.5700 
  2 C       -1.8730     1.3270     0.1700 C.2   1 <1>   0.5690 
  3 N       -3.0810     0.7650    -0.1590 N.am  1 <1>  -0.6600 
  4 C       -1.8070     2.6910     0.8500 C.3   1 <1>  -0.0990 
  5 C       -3.1280    -0.4830    -0.9700 C.3   1 <1>   0.1400 
  6 C       -4.3860     1.1320     0.4570 C.3   1 <1>   0.1400 
  7 C       -0.4330     3.3800     0.7340 C.3   1 <1>  -0.1600 
  8 C       -3.5540    -1.6610    -0.0670 C.3   1 <1>   0.4230 
  9 C       -4.8220    -0.0220     1.3700 C.3   1 <1>  -0.1600 
 10 C       -0.4290     4.7650     1.4000 C.3   1 <1>   0.0200 
 11 N       -3.4610    -3.0230    -0.7430 N.4   1 <1>  -0.9590 
 12 C       -4.9180    -1.3940     0.6390 C.3   1 <1>   0.0000 
 13 C        0.9110     5.4590     1.2410 C.2   1 <1>   0.2980 
 14 C       -4.2420    -4.1030    -0.0560 C.3   1 <1>   0.3430 
 15 C       -3.7540    -3.0360    -2.2150 C.3   1 <1>   0.2630 
 16 C       -5.1710    -2.5070     1.6990 C.3   1 <1>  -0.1600 
 17 C       -6.0700    -1.3700    -0.4070 C.3   1 <1>   0.1200 
 18 O        1.9500     4.9800     1.8750 O.3   1 <1>  -0.0190 
 19 N        1.1290     6.4900     0.5370 N.2   1 <1>  -0.5650 
 20 C       -4.3890    -3.8090     1.4360 C.3   1 <1>  -0.1600 
 21 O       -7.2560    -0.9210     0.1480 O.3   1 <1>  -0.6800 
 22 N        2.9150     5.7770     1.5430 N.2   1 <1>  -0.4100 
 23 C        2.4370     6.6700     0.7490 C.2   1 <1>   0.4620 
 24 C        3.1900     7.7550     0.1400 C.ar  1 <1>   0.0540 
 25 C        4.5530     7.9230     0.3930 C.ar  1 <1>  -0.1500 
 26 C        2.5890     8.6750    -0.7210 C.ar  1 <1>  -0.1500 
 27 C        5.2770     8.9510    -0.1820 C.ar  1 <1>  -0.1500 
 28 C        3.3080     9.7060    -1.2990 C.ar  1 <1>  -0.1500 
 29 C        4.6590     9.8500    -1.0340 C.ar  1 <1>  -0.1440 
 30 C        5.4500    10.9810    -1.6650 C.3   1 <1>  -0.0970 
 31 H       -2.5460     3.3290     0.4000 H     1 <1>   0.0800 
 32 H       -2.0530     2.5600     1.8870 H     1 <1>   0.0800 
 33 H       -3.8200    -0.3360    -1.7790 H     1 <1>   0.0800 
 34 H       -2.1600    -0.6860    -1.3930 H     1 <1>   0.0800 
 35 H       -4.3050     2.0340     1.0380 H     1 <1>   0.0800 
 36 H       -5.1180     1.3050    -0.3150 H     1 <1>   0.0800 
 37 H        0.3190     2.7620     1.1950 H     1 <1>   0.0800 
 38 H       -0.1750     3.4870    -0.3060 H     1 <1>   0.0800 
 39 H       -2.8250    -1.6730     0.7270 H     1 <1>   0.0800 
 40 H       -4.1060    -0.0830     2.1710 H     1 <1>   0.0800 
 41 H       -5.7650     0.2340     1.8230 H     1 <1>   0.0800 
 42 H       -0.6470     4.6730     2.4480 H     1 <1>   0.0800 
 43 H       -1.1870     5.3830     0.9520 H     1 <1>   0.0800 
 44 H       -2.4680    -3.2860    -0.6410 H     1 <1>   0.4500 
 45 H       -5.2270    -4.1720    -0.4890 H     1 <1>   0.0800 
 46 H       -3.7520    -5.0540    -0.1950 H     1 <1>   0.0800 
 47 H       -4.7690    -2.7250    -2.4020 H     1 <1>   0.0800 
 48 H       -3.6220    -4.0300    -2.6120 H     1 <1>   0.0800 
 49 H       -3.0860    -2.3730    -2.7410 H     1 <1>   0.0800 
 50 H       -4.8970    -2.1640     2.6830 H     1 <1>   0.0800 
 51 H       -6.2220    -2.7360     1.7500 H     1 <1>   0.0800 
 52 H       -6.2560    -2.3470    -0.8140 H     1 <1>   0.0800 
 53 H       -5.8480    -0.7020    -1.2190 H     1 <1>   0.0800 
 54 H       -4.9010    -4.6290     1.9100 H     1 <1>   0.0800 
 55 H       -3.4100    -3.7500     1.8810 H     1 <1>   0.0800 
 56 H       -7.5890    -1.5180     0.8470 H     1 <1>   0.4000 
 57 H        5.0550     7.2350     1.0510 H     1 <1>   0.1500 
 58 H        1.5410     8.5820    -0.9420 H     1 <1>   0.1500 
 59 H        6.3260     9.0490     0.0380 H     1 <1>   0.1500 
 60 H        2.8100    10.3960    -1.9560 H     1 <1>   0.1500 
 61 H        6.4760    10.6910    -1.8040 H     1 <1>   0.0800 
 62 H        5.4170    11.8470    -1.0290 H     1 <1>   0.0800 
 63 H        5.0380    11.2380    -2.6250 H     1 <1>   0.0800 
@<TRIPOS>BOND
  1   1   2  2   
  2   2   3  am  
  3   2   4  1   
  4   3   5  1   
  5   3   6  1   
  6   4   7  1   
  7   4  31  1   
  8   4  32  1   
  9   5   8  1   
 10   5  33  1   
 11   5  34  1   
 12   6   9  1   
 13   6  35  1   
 14   6  36  1   
 15   7  10  1   
 16   7  37  1   
 17   7  38  1   
 18   8  11  1   
 19   8  12  1   
 20   8  39  1   
 21   9  12  1   
 22   9  40  1   
 23   9  41  1   
 24  10  13  1   
 25  10  42  1   
 26  10  43  1   
 27  11  14  1   
 28  11  15  1   
 29  11  44  1   
 30  12  16  1   
 31  12  17  1   
 32  13  18  1   
 33  13  19  2   
 34  14  20  1   
 35  14  45  1   
 36  14  46  1   
 37  15  47  1   
 38  15  48  1   
 39  15  49  1   
 40  16  20  1   
 41  16  50  1   
 42  16  51  1   
 43  17  21  1   
 44  17  52  1   
 45  17  53  1   
 46  18  22  1   
 47  19  23  1   
 48  20  54  1   
 49  20  55  1   
 50  21  56  1   
 51  22  23  2   
 52  23  24  1   
 53  24  25  ar  
 54  24  26  ar  
 55  25  27  ar  
 56  25  57  1   
 57  26  28  ar  
 58  26  58  1   
 59  27  29  ar  
 60  27  59  1   
 61  28  29  ar  
 62  28  60  1   
 63  29  30  1   
 64  30  61  1   
 65  30  62  1   
 66  30  63  1   
@<TRIPOS>SUBSTRUCTURE
  1 ****   7 GROUP 4 **** **** 0

# MOE 2024.06 (io_trps.svl 2023.06)
