@<TRIPOS>MOLECULE
NONAME
51 54 1 0 0 
SMALL
USER_CHARGES


@<TRIPOS>ATOM
  1 O        0.9810     4.1040    -2.2120 O.2   1 <1>  -0.5700 
  2 C       -0.0870     4.5350    -1.8430 C.2   1 <1>   0.5690 
  3 N       -0.4840     4.5770    -0.5350 N.am  1 <1>  -0.5090 
  4 C       -1.0700     5.0630    -2.8850 C.3   1 <1>   0.1810 
  5 C       -1.7850     5.2250    -0.2040 C.3   1 <1>   0.3640 
  6 C        0.4140     4.2790     0.6010 C.3   1 <1>   0.0490 
  7 O       -1.6790     6.2760    -2.4960 O.3   1 <1>  -0.5600 
  8 C       -2.9560     4.2360    -0.2560 C.ar  1 <1>  -0.1440 
  9 C       -2.0290     6.4530    -1.1210 C.3   1 <1>   0.2610 
 10 C        1.0670     2.9370     0.6820 C.3   1 <1>  -0.2000 
 11 C       -0.0330     3.2900     1.6320 C.3   1 <1>  -0.2000 
 12 C       -2.8410     2.9380    -0.7470 C.ar  1 <1>   0.1600 
 13 C       -4.1900     4.6420     0.2190 C.ar  1 <1>  -0.1500 
 14 C       -1.2760     7.6310    -0.5040 C.2   1 <1>   0.5690 
 15 N       -3.8290     2.0610    -0.8230 N.ar  1 <1>  -0.6200 
 16 C       -5.2280     3.7380     0.1540 C.ar  1 <1>  -0.1500 
 17 O       -1.7820     8.2010     0.4350 O.2   1 <1>  -0.5700 
 18 N       -0.0470     7.9670    -0.9650 N.am  1 <1>  -0.7300 
 19 C       -4.9980     2.4800    -0.3720 C.ar  1 <1>   0.1600 
 20 C        0.9210     8.8110    -0.2490 C.3   1 <1>   0.2840 
 21 C        1.8400     7.8990     0.5460 C.ar  1 <1>  -0.1440 
 22 C        2.7810     7.1000    -0.0990 C.ar  1 <1>   0.0820 
 23 C        1.7290     7.8510     1.9270 C.ar  1 <1>  -0.1500 
 24 O        2.8370     7.1580    -1.4560 O.3   1 <1>  -0.3620 
 25 C        3.6100     6.2710     0.6540 C.ar  1 <1>  -0.1500 
 26 C        2.5530     7.0230     2.6690 C.ar  1 <1>  -0.1500 
 27 C        3.5480     6.1900    -2.1970 C.3   1 <1>   0.0400 
 28 C        3.4940     6.2350     2.0320 C.ar  1 <1>  -0.1500 
 29 H       -1.8450     4.3380    -3.0520 H     1 <1>   0.0800 
 30 H       -0.5570     5.2380    -3.8130 H     1 <1>   0.0800 
 31 H       -1.7320     5.5800     0.8120 H     1 <1>   0.0800 
 32 H        0.9760     5.1400     0.9240 H     1 <1>   0.1000 
 33 H       -3.0720     6.7110    -1.1030 H     1 <1>   0.0800 
 34 H        0.8790     2.2280    -0.1060 H     1 <1>   0.1000 
 35 H        2.0740     2.8840     1.0550 H     1 <1>   0.1000 
 36 H        0.2260     3.4610     2.6610 H     1 <1>   0.1000 
 37 H       -0.9770     2.7860     1.5210 H     1 <1>   0.1000 
 38 H       -1.8880     2.5830    -1.1000 H     1 <1>   0.1500 
 39 H       -4.3510     5.6250     0.6310 H     1 <1>   0.1500 
 40 H       -6.2090     4.0020     0.5060 H     1 <1>   0.1500 
 41 H        0.3790     7.4040    -1.7070 H     1 <1>   0.3700 
 42 H       -5.8170     1.7810    -0.4220 H     1 <1>   0.1500 
 43 H        1.4910     9.3860    -0.9590 H     1 <1>   0.0800 
 44 H        0.4030     9.4930     0.4040 H     1 <1>   0.0800 
 45 H        0.9940     8.4560     2.4310 H     1 <1>   0.1500 
 46 H        4.3480     5.6500     0.1860 H     1 <1>   0.1500 
 47 H        2.4610     6.9940     3.7410 H     1 <1>   0.1500 
 48 H        3.3180     6.3280    -3.2380 H     1 <1>   0.0800 
 49 H        3.2370     5.2080    -1.8850 H     1 <1>   0.0800 
 50 H        4.6010     6.3290    -2.0320 H     1 <1>   0.0800 
 51 H        4.1370     5.5940     2.6100 H     1 <1>   0.1500 
@<TRIPOS>BOND
  1   1   2  2   
  2   2   3  am  
  3   2   4  1   
  4   3   5  1   
  5   3   6  1   
  6   4   7  1   
  7   4  29  1   
  8   4  30  1   
  9   5   8  1   
 10   5   9  1   
 11   5  31  1   
 12   6  10  1   
 13   6  11  1   
 14   6  32  1   
 15   7   9  1   
 16   8  12  ar  
 17   8  13  ar  
 18   9  14  1   
 19   9  33  1   
 20  10  11  1   
 21  10  34  1   
 22  10  35  1   
 23  11  36  1   
 24  11  37  1   
 25  12  15  ar  
 26  12  38  1   
 27  13  16  ar  
 28  13  39  1   
 29  14  17  2   
 30  14  18  am  
 31  15  19  ar  
 32  16  19  ar  
 33  16  40  1   
 34  18  20  1   
 35  18  41  1   
 36  19  42  1   
 37  20  21  1   
 38  20  43  1   
 39  20  44  1   
 40  21  22  ar  
 41  21  23  ar  
 42  22  24  1   
 43  22  25  ar  
 44  23  26  ar  
 45  23  45  1   
 46  24  27  1   
 47  25  28  ar  
 48  25  46  1   
 49  26  28  ar  
 50  26  47  1   
 51  27  48  1   
 52  27  49  1   
 53  27  50  1   
 54  28  51  1   
@<TRIPOS>SUBSTRUCTURE
  1 ****   3 GROUP 4 **** **** 0

# MOE 2024.06 (io_trps.svl 2023.06)
