@<TRIPOS>MOLECULE
NONAME
44 46 1 0 0 
SMALL
USER_CHARGES


@<TRIPOS>ATOM
  1 CL       0.8960    -1.8250    -2.2940 Cl    1 <1>  -0.1770 
  2 C        0.4400    -3.1260    -1.2270 C.ar  1 <1>   0.1770 
  3 C        0.8880    -4.4060    -1.4860 C.ar  1 <1>  -0.1500 
  4 C       -0.3630    -2.8590    -0.1380 C.ar  1 <1>  -0.1500 
  5 C        0.5320    -5.4510    -0.6470 C.ar  1 <1>  -0.1440 
  6 C       -0.7260    -3.8970     0.7020 C.ar  1 <1>  -0.1500 
  7 C       -0.2890    -5.1940     0.4530 C.ar  1 <1>  -0.1430 
  8 C        1.0660    -6.8390    -0.9790 C.3   1 <1>  -0.0960 
  9 C       -0.7380    -6.2930     1.4040 C.3   1 <1>   0.4870 
 10 N       -1.7610    -7.1350     0.7340 N.4   1 <1>  -0.9590 
 11 C       -2.9100    -6.3850     0.1250 C.3   1 <1>   0.3430 
 12 C       -2.3440    -8.2080     1.5700 C.3   1 <1>   0.3430 
 13 C       -4.1640    -7.2360     0.3950 C.3   1 <1>   0.2000 
 14 C       -3.6170    -8.6010     0.8160 C.3   1 <1>  -0.0800 
 15 O       -4.8850    -6.6920     1.4510 O.3   1 <1>  -0.6800 
 16 C       -3.3500    -9.4740    -0.4400 C.3   1 <1>  -0.0170 
 17 C       -2.0910   -10.3240    -0.3530 C.ar  1 <1>   0.1670 
 18 N       -0.9450    -9.6970    -0.5960 N.ar  1 <1>  -0.6200 
 19 C       -2.1940   -11.6710    -0.0390 C.ar  1 <1>  -0.1500 
 20 C        0.1390   -10.4620    -0.5460 C.ar  1 <1>   0.1600 
 21 C       -1.0550   -12.4430     0.0250 C.ar  1 <1>  -0.1500 
 22 C        0.1390   -11.8110    -0.2420 C.ar  1 <1>  -0.1500 
 23 H        1.5160    -4.5690    -2.3450 H     1 <1>   0.1500 
 24 H       -0.6940    -1.8510     0.0440 H     1 <1>   0.1500 
 25 H       -1.3500    -3.6760     1.5510 H     1 <1>   0.1500 
 26 H        1.9770    -6.7620    -1.5460 H     1 <1>   0.0800 
 27 H        0.3500    -7.3770    -1.5740 H     1 <1>   0.0800 
 28 H        1.2880    -7.4010    -0.0910 H     1 <1>   0.0800 
 29 H       -1.1520    -5.8490     2.2940 H     1 <1>   0.0800 
 30 H        0.1090    -6.8960     1.6890 H     1 <1>   0.0800 
 31 H       -1.2800    -7.6400    -0.0360 H     1 <1>   0.4500 
 32 H       -3.0270    -5.4080     0.5630 H     1 <1>   0.0800 
 33 H       -2.7490    -6.2800    -0.9350 H     1 <1>   0.0800 
 34 H       -1.6650    -9.0380     1.6870 H     1 <1>   0.0800 
 35 H       -2.6020    -7.8220     2.5420 H     1 <1>   0.0800 
 36 H       -4.8210    -7.2770    -0.4590 H     1 <1>   0.0800 
 37 H       -4.2950    -9.1250     1.4670 H     1 <1>   0.0800 
 38 H       -4.4120    -6.7160     2.3040 H     1 <1>   0.4000 
 39 H       -3.2500    -8.8600    -1.3190 H     1 <1>   0.0800 
 40 H       -4.2020   -10.1070    -0.6130 H     1 <1>   0.0800 
 41 H       -3.1520   -12.1220     0.1490 H     1 <1>   0.1500 
 42 H        1.0850    -9.9940    -0.7620 H     1 <1>   0.1500 
 43 H       -1.0960   -13.4930     0.2650 H     1 <1>   0.1500 
 44 H        1.0630   -12.3620    -0.2180 H     1 <1>   0.1500 
@<TRIPOS>BOND
  1   1   2  1   
  2   2   3  ar  
  3   2   4  ar  
  4   3   5  ar  
  5   3  23  1   
  6   4   6  ar  
  7   4  24  1   
  8   5   7  ar  
  9   5   8  1   
 10   6   7  ar  
 11   6  25  1   
 12   7   9  1   
 13   8  26  1   
 14   8  27  1   
 15   8  28  1   
 16   9  10  1   
 17   9  29  1   
 18   9  30  1   
 19  10  11  1   
 20  10  12  1   
 21  10  31  1   
 22  11  13  1   
 23  11  32  1   
 24  11  33  1   
 25  12  14  1   
 26  12  34  1   
 27  12  35  1   
 28  13  14  1   
 29  13  15  1   
 30  13  36  1   
 31  14  16  1   
 32  14  37  1   
 33  15  38  1   
 34  16  17  1   
 35  16  39  1   
 36  16  40  1   
 37  17  18  ar  
 38  17  19  ar  
 39  18  20  ar  
 40  19  21  ar  
 41  19  41  1   
 42  20  22  ar  
 43  20  42  1   
 44  21  22  ar  
 45  21  43  1   
 46  22  44  1   
@<TRIPOS>SUBSTRUCTURE
  1 ****  10 GROUP 4 **** **** 0

# MOE 2024.06 (io_trps.svl 2023.06)
