@<TRIPOS>MOLECULE
NONAME
44 47 1 0 0 
SMALL
USER_CHARGES


@<TRIPOS>ATOM
  1 O       -0.5170    -0.3740    -0.6120 O.2   1 <1>  -0.5700 
  2 C       -0.8710     0.0120     0.4850 C.2   1 <1>   0.7150 
  3 N       -1.5130    -0.8580     1.3050 N.am  1 <1>  -0.7300 
  4 C       -0.6630     1.3550     0.9350 C.2   1 <1>  -0.2370 
  5 C       -1.9220    -2.2350     0.9490 C.3   1 <1>   0.2200 
  6 N       -0.6810     2.4440     0.1010 N.pl3 1 <1>   0.2940 
  7 C       -0.4290     1.8060     2.2110 C.2   1 <1>  -0.1500 
  8 C       -3.3790    -2.2820     0.5010 C.3   1 <1>  -0.0800 
  9 C       -1.9950    -3.0700     2.2190 C.3   1 <1>   0.1200 
 10 C       -0.4510     3.5460     0.8570 C.2   1 <1>  -0.3020 
 11 C       -0.9530     2.4570    -1.3570 C.3   1 <1>  -0.0910 
 12 C       -0.2920     3.1890     2.1590 C.2   1 <1>  -0.1500 
 13 C       -4.1450    -2.3840     1.8250 C.3   1 <1>   0.1200 
 14 C       -3.8440    -1.1300    -0.4110 C.3   1 <1>  -0.0160 
 15 O       -3.2110    -2.7250     2.8090 O.3   1 <1>  -0.5600 
 16 C       -1.7710     3.5510    -1.9800 C.3   1 <1>  -0.2000 
 17 C       -2.3480     2.1790    -1.8350 C.3   1 <1>  -0.2000 
 18 C       -5.2840    -1.3280    -0.8550 C.ar  1 <1>  -0.1430 
 19 C       -6.3360    -0.6750    -0.2440 C.ar  1 <1>  -0.1500 
 20 C       -5.6120    -2.1720    -1.8970 C.ar  1 <1>  -0.1500 
 21 C       -7.6290    -0.8960    -0.6890 C.ar  1 <1>   0.1600 
 22 C       -6.9390    -2.3220    -2.2640 C.ar  1 <1>   0.1600 
 23 N       -7.9560    -1.7050    -1.6830 N.ar  1 <1>  -0.6200 
 24 H       -1.8880    -0.5170     2.1910 H     1 <1>   0.3700 
 25 H       -1.2480    -2.6560     0.2210 H     1 <1>   0.0800 
 26 H       -0.3500     1.2150     3.1080 H     1 <1>   0.1500 
 27 H       -3.5300    -3.2070    -0.0270 H     1 <1>   0.0800 
 28 H       -1.1880    -2.8660     2.9010 H     1 <1>   0.0800 
 29 H       -2.0250    -4.1200     1.9870 H     1 <1>   0.0800 
 30 H       -0.4120     4.5310     0.4290 H     1 <1>   0.1500 
 31 H       -0.1370     2.0340    -1.9160 H     1 <1>   0.1000 
 32 H       -0.0980     3.8330     3.0000 H     1 <1>   0.1500 
 33 H       -4.9080    -3.1430     1.7870 H     1 <1>   0.0800 
 34 H       -4.5840    -1.4420     2.1070 H     1 <1>   0.0800 
 35 H       -3.2080    -1.0820    -1.2780 H     1 <1>   0.0800 
 36 H       -3.7620    -0.1880     0.1020 H     1 <1>   0.0800 
 37 H       -2.1670     4.3380    -1.3610 H     1 <1>   0.1000 
 38 H       -1.5180     3.8910    -2.9690 H     1 <1>   0.1000 
 39 H       -2.4780     1.5800    -2.7200 H     1 <1>   0.1000 
 40 H       -3.1300     2.0250    -1.1120 H     1 <1>   0.1000 
 41 H       -6.1650     0.0030     0.5710 H     1 <1>   0.1500 
 42 H       -4.8490    -2.7120    -2.4260 H     1 <1>   0.1500 
 43 H       -8.4370    -0.3790    -0.2010 H     1 <1>   0.1500 
 44 H       -7.1760    -2.9840    -3.0790 H     1 <1>   0.1500 
@<TRIPOS>BOND
  1   1   2  2   
  2   2   3  am  
  3   2   4  1   
  4   3   5  1   
  5   3  24  1   
  6   4   6  1   
  7   4   7  2   
  8   5   8  1   
  9   5   9  1   
 10   5  25  1   
 11   6  10  1   
 12   6  11  1   
 13   7  12  1   
 14   7  26  1   
 15   8  13  1   
 16   8  14  1   
 17   8  27  1   
 18   9  15  1   
 19   9  28  1   
 20   9  29  1   
 21  10  12  2   
 22  10  30  1   
 23  11  16  1   
 24  11  17  1   
 25  11  31  1   
 26  12  32  1   
 27  13  15  1   
 28  13  33  1   
 29  13  34  1   
 30  14  18  1   
 31  14  35  1   
 32  14  36  1   
 33  16  17  1   
 34  16  37  1   
 35  16  38  1   
 36  17  39  1   
 37  17  40  1   
 38  18  19  ar  
 39  18  20  ar  
 40  19  21  ar  
 41  19  41  1   
 42  20  22  ar  
 43  20  42  1   
 44  21  23  ar  
 45  21  43  1   
 46  22  23  ar  
 47  22  44  1   
@<TRIPOS>SUBSTRUCTURE
  1 ****  14 GROUP 4 **** **** 0

# MOE 2024.06 (io_trps.svl 2023.06)
