@<TRIPOS>MOLECULE
NONAME
36 37 1 0 0 
SMALL
USER_CHARGES


@<TRIPOS>ATOM
  1 S        0.7350     1.4510     0.3150 S.3   1 <1>  -0.4600 
  2 C        1.6140     1.2650    -1.2770 C.3   1 <1>   0.1310 
  3 C       -0.1150    -0.1340     0.5070 C.3   1 <1>   0.0700 
  4 C        2.3810     2.5360    -1.6350 C.2   1 <1>   0.5690 
  5 C       -0.8770    -0.0890     1.8280 C.3   1 <1>  -0.2400 
  6 O        1.9300     3.2130    -2.5320 O.2   1 <1>  -0.5700 
  7 N        3.5220     2.8970    -0.9650 N.am  1 <1>  -0.5090 
  8 C        4.0910     2.1260     0.1690 C.3   1 <1>   0.0490 
  9 C        4.1380     4.2410    -1.1910 C.3   1 <1>   0.3200 
 10 C        5.5710     1.9080     0.2450 C.3   1 <1>  -0.2000 
 11 C        4.6690     0.7680    -0.0920 C.3   1 <1>  -0.2000 
 12 C        4.0690     5.1110     0.0570 C.2   1 <1>   0.0060 
 13 N        5.1220     5.5380     0.6820 N.2   1 <1>  -0.5650 
 14 N        2.9020     5.5190     0.6190 N.pl3 1 <1>   0.0480 
 15 C        4.6230     6.2540     1.7050 C.2   1 <1>   0.0770 
 16 C        3.2730     6.2530     1.6820 C.2   1 <1>  -0.3020 
 17 C        1.5150     5.2440     0.2010 C.3   1 <1>   0.0160 
 18 H        0.8680     1.0670    -2.0240 H     1 <1>   0.0800 
 19 H        2.2710     0.4220    -1.1920 H     1 <1>   0.0800 
 20 H        0.6330    -0.9080     0.5070 H     1 <1>   0.0800 
 21 H       -0.7800    -0.2520    -0.3310 H     1 <1>   0.0800 
 22 H       -0.1930     0.0630     2.6450 H     1 <1>   0.0800 
 23 H       -1.4000    -1.0150     1.9830 H     1 <1>   0.0800 
 24 H       -1.5920     0.7140     1.8160 H     1 <1>   0.0800 
 25 H        3.5710     2.3110     1.0960 H     1 <1>   0.1000 
 26 H        3.6520     4.7550    -2.0000 H     1 <1>   0.0800 
 27 H        5.1680     4.1120    -1.4700 H     1 <1>   0.0800 
 28 H        6.0350     1.9340     1.2150 H     1 <1>   0.1000 
 29 H        6.2110     2.3010    -0.5250 H     1 <1>   0.1000 
 30 H        4.7040     0.3860    -1.0970 H     1 <1>   0.1000 
 31 H        4.5350    -0.0040     0.6450 H     1 <1>   0.1000 
 32 H        5.2710     6.7390     2.4150 H     1 <1>   0.1500 
 33 H        2.5770     6.7240     2.3510 H     1 <1>   0.1500 
 34 H        1.4460     5.2640    -0.8710 H     1 <1>   0.0800 
 35 H        0.8600     5.9900     0.6120 H     1 <1>   0.0800 
 36 H        1.2230     4.2750     0.5630 H     1 <1>   0.0800 
@<TRIPOS>BOND
  1   1   2  1   
  2   1   3  1   
  3   2   4  1   
  4   2  18  1   
  5   2  19  1   
  6   3   5  1   
  7   3  20  1   
  8   3  21  1   
  9   4   6  2   
 10   4   7  am  
 11   5  22  1   
 12   5  23  1   
 13   5  24  1   
 14   7   8  1   
 15   7   9  1   
 16   8  10  1   
 17   8  11  1   
 18   8  25  1   
 19   9  12  1   
 20   9  26  1   
 21   9  27  1   
 22  10  11  1   
 23  10  28  1   
 24  10  29  1   
 25  11  30  1   
 26  11  31  1   
 27  12  13  2   
 28  12  14  1   
 29  13  15  1   
 30  14  16  1   
 31  14  17  1   
 32  15  16  2   
 33  15  32  1   
 34  16  33  1   
 35  17  34  1   
 36  17  35  1   
 37  17  36  1   
@<TRIPOS>SUBSTRUCTURE
  1 ****   7 GROUP 4 **** **** 0

# MOE 2024.06 (io_trps.svl 2023.06)
