@<TRIPOS>MOLECULE
NONAME
28 28 1 0 0 
SMALL
USER_CHARGES


@<TRIPOS>ATOM
  1 BR       0.3960     0.2250    -0.0010 Br    1 <1>  -0.1110 
  2 C        0.2320    -1.6980     0.0370 C.ar  1 <1>   0.1110 
  3 C        1.3780    -2.4840     0.0430 C.ar  1 <1>   0.0830 
  4 C       -1.0380    -2.2390     0.0560 C.ar  1 <1>  -0.1500 
  5 O        2.5860    -1.8600     0.0220 O.3   1 <1>  -0.3630 
  6 C        1.2200    -3.8680     0.0710 C.ar  1 <1>  -0.1500 
  7 C       -1.1730    -3.6160     0.0830 C.ar  1 <1>  -0.1500 
  8 C        3.7910    -2.5780     0.0210 C.3   1 <1>   0.1200 
  9 C       -0.0490    -4.4310     0.0920 C.ar  1 <1>  -0.1440 
 10 C        4.9150    -1.5420    -0.0110 C.3   1 <1>  -0.1600 
 11 C       -0.2100    -5.9410     0.1200 C.3   1 <1>  -0.0970 
 12 C        6.2850    -2.2090    -0.0160 C.3   1 <1>   0.3430 
 13 N        7.3290    -1.1580    -0.0480 N.4   1 <1>  -0.8530 
 14 H       -1.9000    -1.5970     0.0490 H     1 <1>   0.1500 
 15 H        2.0700    -4.5220     0.0760 H     1 <1>   0.1500 
 16 H       -2.1580    -4.0510     0.0960 H     1 <1>   0.1500 
 17 H        3.8070    -3.2060    -0.8540 H     1 <1>   0.0800 
 18 H        3.8280    -3.1750     0.9170 H     1 <1>   0.0800 
 19 H        4.8170    -0.9140     0.8580 H     1 <1>   0.0800 
 20 H        4.7960    -0.9440    -0.8980 H     1 <1>   0.0800 
 21 H        0.5890    -6.3950     0.6770 H     1 <1>   0.0800 
 22 H       -0.1990    -6.3270    -0.8830 H     1 <1>   0.0800 
 23 H       -1.1410    -6.2130     0.5850 H     1 <1>   0.0800 
 24 H        6.3760    -2.8470    -0.8820 H     1 <1>   0.0800 
 25 H        6.3980    -2.8160     0.8700 H     1 <1>   0.0800 
 26 H        7.2300    -0.5730    -0.8860 H     1 <1>   0.4500 
 27 H        8.2720    -1.5640    -0.0520 H     1 <1>   0.4500 
 28 H        7.2500    -0.5430     0.7710 H     1 <1>   0.4500 
@<TRIPOS>BOND
  1   1   2  1   
  2   2   3  ar  
  3   2   4  ar  
  4   3   5  1   
  5   3   6  ar  
  6   4   7  ar  
  7   4  14  1   
  8   5   8  1   
  9   6   9  ar  
 10   6  15  1   
 11   7   9  ar  
 12   7  16  1   
 13   8  10  1   
 14   8  17  1   
 15   8  18  1   
 16   9  11  1   
 17  10  12  1   
 18  10  19  1   
 19  10  20  1   
 20  11  21  1   
 21  11  22  1   
 22  11  23  1   
 23  12  13  1   
 24  12  24  1   
 25  12  25  1   
 26  13  26  1   
 27  13  27  1   
 28  13  28  1   
@<TRIPOS>SUBSTRUCTURE
  1 ****   3 GROUP 4 **** **** 0

# MOE 2024.06 (io_trps.svl 2023.06)
