@<TRIPOS>MOLECULE
NONAME
54 57 1 0 0 
SMALL
USER_CHARGES


@<TRIPOS>ATOM
  1 S       -0.5510    -2.1930    -2.5060 S.o2  1 <1>   1.0900 
  2 O        0.1760    -3.2540    -3.1620 O.2   1 <1>  -0.6500 
  3 O        0.0630    -0.9260    -2.1870 O.2   1 <1>  -0.6500 
  4 C       -1.3260    -2.8910    -1.0770 C.3   1 <1>  -0.0550 
  5 C       -2.0840    -1.9470    -3.3910 C.3   1 <1>  -0.0550 
  6 C       -2.5070    -3.6730    -1.6430 C.3   1 <1>   0.1760 
  7 C       -3.1830    -2.7780    -2.7030 C.3   1 <1>  -0.1600 
  8 N       -3.4500    -4.0740    -0.5700 N.pl3 1 <1>   0.3140 
  9 N       -3.9580    -3.1650     0.2820 N.2   1 <1>  -0.7070 
 10 C       -3.9070    -5.3210    -0.2950 C.2   1 <1>  -0.3320 
 11 C       -4.7190    -3.8430     1.0840 C.2   1 <1>   0.1080 
 12 C       -4.7240    -5.2080     0.7760 C.2   1 <1>   0.0630 
 13 C       -3.5310    -6.5730    -1.0800 C.3   1 <1>  -0.0600 
 14 C       -5.4960    -3.1570     2.1850 C.3   1 <1>  -0.0590 
 15 N       -5.4110    -6.2980     1.3660 N.am  1 <1>  -0.4930 
 16 C       -5.8140    -6.5590     2.6410 C.2   1 <1>   0.5690 
 17 O       -5.6710    -5.7900     3.5620 O.2   1 <1>  -0.5700 
 18 C       -6.4620    -7.9020     2.9340 C.3   1 <1>   0.0820 
 19 C       -7.0330    -8.5710     1.6910 C.2   1 <1>   0.0460 
 20 N       -6.2180    -9.0260     0.7210 N.2   1 <1>  -0.5650 
 21 C       -8.3080    -8.8050     1.3450 C.2   1 <1>  -0.0400 
 22 C       -7.0300    -9.5140    -0.1680 C.2   1 <1>   0.4250 
 23 O       -8.2970    -9.3930     0.1850 O.3   1 <1>  -0.2800 
 24 C       -9.6420    -8.5220     2.0060 C.3   1 <1>  -0.0600 
 25 C       -6.6770   -10.1240    -1.4330 C.ar  1 <1>   0.0530 
 26 C       -7.6430   -10.4570    -2.3850 C.ar  1 <1>  -0.1500 
 27 C       -5.3450   -10.3960    -1.7530 C.ar  1 <1>  -0.1500 
 28 C       -7.2970   -11.0290    -3.5960 C.ar  1 <1>  -0.1500 
 29 C       -4.9920   -10.9670    -2.9620 C.ar  1 <1>  -0.1500 
 30 C       -5.9690   -11.2840    -3.8880 C.ar  1 <1>  -0.1500 
 31 H       -1.6800    -2.1040    -0.4370 H     1 <1>   0.0800 
 32 H       -0.6540    -3.5270    -0.5340 H     1 <1>   0.0800 
 33 H       -1.9670    -2.2500    -4.4150 H     1 <1>   0.0800 
 34 H       -2.3570    -0.9090    -3.3740 H     1 <1>   0.0800 
 35 H       -2.1280    -4.5560    -2.1240 H     1 <1>   0.0800 
 36 H       -3.7230    -3.3740    -3.4180 H     1 <1>   0.0800 
 37 H       -3.8720    -2.1030    -2.2220 H     1 <1>   0.0800 
 38 H       -3.8350    -6.4740    -2.1070 H     1 <1>   0.0800 
 39 H       -4.0130    -7.4420    -0.6690 H     1 <1>   0.0800 
 40 H       -2.4680    -6.7320    -1.0400 H     1 <1>   0.0800 
 41 H       -5.5970    -2.1100     1.9670 H     1 <1>   0.0800 
 42 H       -4.9730    -3.2690     3.1170 H     1 <1>   0.0800 
 43 H       -6.4740    -3.5900     2.2720 H     1 <1>   0.0800 
 44 H       -5.5480    -7.0920     0.7310 H     1 <1>   0.3700 
 45 H       -7.2400    -7.7510     3.6570 H     1 <1>   0.0800 
 46 H       -5.7240    -8.5460     3.3730 H     1 <1>   0.0800 
 47 H       -9.5060    -8.0230     2.9470 H     1 <1>   0.0800 
 48 H      -10.1660    -9.4460     2.1740 H     1 <1>   0.0800 
 49 H      -10.2380    -7.8980     1.3650 H     1 <1>   0.0800 
 50 H       -8.6810   -10.2650    -2.1750 H     1 <1>   0.1500 
 51 H       -4.5760   -10.1590    -1.0390 H     1 <1>   0.1500 
 52 H       -8.0610   -11.2760    -4.3140 H     1 <1>   0.1500 
 53 H       -3.9580   -11.1660    -3.1840 H     1 <1>   0.1500 
 54 H       -5.6990   -11.7290    -4.8300 H     1 <1>   0.1500 
@<TRIPOS>BOND
  1   1   2  2   
  2   1   3  2   
  3   1   4  1   
  4   1   5  1   
  5   4   6  1   
  6   4  31  1   
  7   4  32  1   
  8   5   7  1   
  9   5  33  1   
 10   5  34  1   
 11   6   7  1   
 12   6   8  1   
 13   6  35  1   
 14   7  36  1   
 15   7  37  1   
 16   8   9  1   
 17   8  10  1   
 18   9  11  2   
 19  10  12  2   
 20  10  13  1   
 21  11  12  1   
 22  11  14  1   
 23  12  15  1   
 24  13  38  1   
 25  13  39  1   
 26  13  40  1   
 27  14  41  1   
 28  14  42  1   
 29  14  43  1   
 30  15  16  am  
 31  15  44  1   
 32  16  17  2   
 33  16  18  1   
 34  18  19  1   
 35  18  45  1   
 36  18  46  1   
 37  19  20  1   
 38  19  21  2   
 39  20  22  2   
 40  21  23  1   
 41  21  24  1   
 42  22  23  1   
 43  22  25  1   
 44  24  47  1   
 45  24  48  1   
 46  24  49  1   
 47  25  26  ar  
 48  25  27  ar  
 49  26  28  ar  
 50  26  50  1   
 51  27  29  ar  
 52  27  51  1   
 53  28  30  ar  
 54  28  52  1   
 55  29  30  ar  
 56  29  53  1   
 57  30  54  1   
@<TRIPOS>SUBSTRUCTURE
  1 ****  13 GROUP 4 **** **** 0

# MOE 2024.06 (io_trps.svl 2023.06)
