@<TRIPOS>MOLECULE
NONAME
64 67 1 0 0 
SMALL
USER_CHARGES


@<TRIPOS>ATOM
  1 O        0.7910     0.0120    -2.8810 O.3   1 <1>  -0.5600 
  2 C        1.9900    -0.6580    -2.5750 C.3   1 <1>   0.2000 
  3 C        0.9070     1.3940    -3.0390 C.3   1 <1>   0.1200 
  4 C        2.6580    -0.0710    -1.3000 C.3   1 <1>   0.5660 
  5 C        1.6810    -2.1520    -2.3810 C.3   1 <1>   0.1200 
  6 C        1.4090     2.0330    -1.7340 C.3   1 <1>   0.3430 
  7 N        2.7010     1.4250    -1.2720 N.4   1 <1>  -0.9590 
  8 C        4.0910    -0.5680    -1.1530 C.ar  1 <1>  -0.1430 
  9 O        1.0710    -2.3610    -1.1460 O.3   1 <1>  -0.6800 
 10 C        3.0630     1.9330     0.0810 C.3   1 <1>   0.4870 
 11 C        4.4460    -1.2700    -0.0100 C.ar  1 <1>  -0.1500 
 12 C        5.0540    -0.3250    -2.1270 C.ar  1 <1>  -0.1500 
 13 C        3.4870     3.3800    -0.0570 C.ar  1 <1>  -0.1430 
 14 C        5.7440    -1.7110     0.1760 C.ar  1 <1>   0.0830 
 15 C        6.3570    -0.7540    -1.9410 C.ar  1 <1>  -0.1500 
 16 C        2.5630     4.3670     0.1900 C.ar  1 <1>   0.0830 
 17 C        4.8100     3.6960    -0.4520 C.ar  1 <1>   0.0000 
 18 O        5.9990    -2.4100     1.3080 O.3   1 <1>  -0.3630 
 19 C        6.7180    -1.4260    -0.7870 C.ar  1 <1>   0.0830 
 20 O        1.3170     3.9990     0.5860 O.3   1 <1>  -0.3630 
 21 C        2.9110     5.7150     0.0060 C.ar  1 <1>  -0.1500 
 22 C        5.1390     5.0550    -0.6630 C.ar  1 <1>   0.0000 
 23 C        5.8340     2.7370    -0.6470 C.ar  1 <1>  -0.1500 
 24 C        6.3970    -3.7550     1.1490 C.3   1 <1>   0.0400 
 25 O        8.0210    -1.7710    -0.6530 O.3   1 <1>  -0.3630 
 26 C        0.5290     4.8020     1.4450 C.3   1 <1>   0.1200 
 27 C        4.1670     6.0430    -0.4160 C.ar  1 <1>  -0.1500 
 28 C        6.4320     5.3910    -1.1110 C.ar  1 <1>  -0.1500 
 29 C        7.0820     3.0910    -1.0760 C.ar  1 <1>  -0.1500 
 30 C        8.7340    -1.1800     0.4130 C.3   1 <1>   0.0400 
 31 C        1.1790     4.8730     2.8280 C.3   1 <1>  -0.2400 
 32 C        7.3840     4.4340    -1.3190 C.ar  1 <1>  -0.1500 
 33 H        2.6380    -0.5510    -3.4260 H     1 <1>   0.0800 
 34 H        1.5730     1.6020    -3.8590 H     1 <1>   0.0800 
 35 H       -0.0690     1.7770    -3.2840 H     1 <1>   0.0800 
 36 H        2.0850    -0.4150    -0.4550 H     1 <1>   0.0800 
 37 H        2.5880    -2.7320    -2.4010 H     1 <1>   0.0800 
 38 H        1.0220    -2.4980    -3.1590 H     1 <1>   0.0800 
 39 H        0.6520     1.8970    -0.9780 H     1 <1>   0.0800 
 40 H        1.5340     3.0930    -1.8800 H     1 <1>   0.0800 
 41 H        3.4540     1.7250    -1.8980 H     1 <1>   0.4500 
 42 H        0.6520    -3.2480    -1.1130 H     1 <1>   0.4000 
 43 H        2.2180     1.8550     0.7460 H     1 <1>   0.0800 
 44 H        3.8730     1.3600     0.5010 H     1 <1>   0.0800 
 45 H        3.7200    -1.4960     0.7540 H     1 <1>   0.1500 
 46 H        4.8180     0.2010    -3.0360 H     1 <1>   0.1500 
 47 H        7.1090    -0.5650    -2.6880 H     1 <1>   0.1500 
 48 H        2.1950     6.4960     0.1830 H     1 <1>   0.1500 
 49 H        5.6510     1.7010    -0.4440 H     1 <1>   0.1500 
 50 H        6.4610    -4.2050     2.1230 H     1 <1>   0.0800 
 51 H        7.3580    -3.7920     0.6680 H     1 <1>   0.0800 
 52 H        5.6620    -4.2690     0.5540 H     1 <1>   0.0800 
 53 H        0.3970     5.7770     1.0120 H     1 <1>   0.0800 
 54 H       -0.4380     4.3350     1.5220 H     1 <1>   0.0800 
 55 H        4.4360     7.0740    -0.5660 H     1 <1>   0.1500 
 56 H        6.6640     6.4270    -1.2850 H     1 <1>   0.1500 
 57 H        7.8490     2.3510    -1.2260 H     1 <1>   0.1500 
 58 H        9.7680    -1.4570     0.3180 H     1 <1>   0.0800 
 59 H        8.3460    -1.5400     1.3480 H     1 <1>   0.0800 
 60 H        8.6310    -0.1120     0.3510 H     1 <1>   0.0800 
 61 H        2.1360     5.3620     2.7790 H     1 <1>   0.0800 
 62 H        1.3000     3.8850     3.2350 H     1 <1>   0.0800 
 63 H        0.5500     5.4370     3.4930 H     1 <1>   0.0800 
 64 H        8.3710     4.6980    -1.6610 H     1 <1>   0.1500 
@<TRIPOS>BOND
  1   1   2  1   
  2   1   3  1   
  3   2   4  1   
  4   2   5  1   
  5   2  33  1   
  6   3   6  1   
  7   3  34  1   
  8   3  35  1   
  9   4   7  1   
 10   4   8  1   
 11   4  36  1   
 12   5   9  1   
 13   5  37  1   
 14   5  38  1   
 15   6   7  1   
 16   6  39  1   
 17   6  40  1   
 18   7  10  1   
 19   7  41  1   
 20   8  11  ar  
 21   8  12  ar  
 22   9  42  1   
 23  10  13  1   
 24  10  43  1   
 25  10  44  1   
 26  11  14  ar  
 27  11  45  1   
 28  12  15  ar  
 29  12  46  1   
 30  13  16  ar  
 31  13  17  ar  
 32  14  18  1   
 33  14  19  ar  
 34  15  19  ar  
 35  15  47  1   
 36  16  20  1   
 37  16  21  ar  
 38  17  22  ar  
 39  17  23  ar  
 40  18  24  1   
 41  19  25  1   
 42  20  26  1   
 43  21  27  ar  
 44  21  48  1   
 45  22  27  ar  
 46  22  28  ar  
 47  23  29  ar  
 48  23  49  1   
 49  24  50  1   
 50  24  51  1   
 51  24  52  1   
 52  25  30  1   
 53  26  31  1   
 54  26  53  1   
 55  26  54  1   
 56  27  55  1   
 57  28  32  ar  
 58  28  56  1   
 59  29  32  ar  
 60  29  57  1   
 61  30  58  1   
 62  30  59  1   
 63  30  60  1   
 64  31  61  1   
 65  31  62  1   
 66  31  63  1   
 67  32  64  1   
@<TRIPOS>SUBSTRUCTURE
  1 ****  10 GROUP 4 **** **** 0

# MOE 2024.06 (io_trps.svl 2023.06)
