@<TRIPOS>MOLECULE
NONAME
50 52 1 0 0 
SMALL
USER_CHARGES


@<TRIPOS>ATOM
  1 O       -3.8660     2.4190     1.1480 O.2   1 <1>  -0.5700 
  2 C       -2.7850     2.6510     0.6550 C.2   1 <1>   0.6900 
  3 N       -2.4770     2.4940    -0.6630 N.am  1 <1>  -0.4200 
  4 N       -1.7280     3.0970     1.3610 N.am  1 <1>  -0.7300 
  5 C       -1.1690     2.8170    -0.8640 C.2   1 <1>   0.5690 
  6 C       -3.3110     1.7570    -1.6430 C.3   1 <1>   0.2010 
  7 C       -0.5460     3.1930     0.4950 C.3   1 <1>   0.3610 
  8 O       -0.5960     2.8320    -1.9280 O.2   1 <1>  -0.5700 
  9 C       -3.1910     0.2410    -1.4740 C.2   1 <1>   0.5690 
 10 C        0.4970     2.1790     0.9720 C.3   1 <1>  -0.2400 
 11 C       -0.0140     4.6260     0.5450 C.3   1 <1>  -0.2400 
 12 O       -2.1300    -0.2730    -1.7440 O.2   1 <1>  -0.5700 
 13 N       -4.2500    -0.5200    -1.0530 N.am  1 <1>  -0.6600 
 14 C       -5.5160    -0.0390    -0.4410 C.3   1 <1>   0.1400 
 15 C       -4.1180    -1.9800    -0.8280 C.3   1 <1>   0.1400 
 16 C       -5.9790    -1.1730     0.4830 C.3   1 <1>   0.2000 
 17 C       -5.4520    -2.4240    -0.2220 C.3   1 <1>  -0.0800 
 18 O       -5.3620    -1.0830     1.7380 O.3   1 <1>  -0.5600 
 19 C       -5.3250    -3.6710     0.6700 C.3   1 <1>   0.0200 
 20 C       -5.8810    -0.1220     2.6040 C.3   1 <1>   0.0400 
 21 C       -4.8410    -4.8620    -0.1330 C.2   1 <1>  -0.0400 
 22 O       -5.5810    -5.3530    -1.0910 O.3   1 <1>  -0.0190 
 23 C       -3.7120    -5.5840    -0.0720 C.2   1 <1>  -0.1500 
 24 N       -5.0060    -6.3620    -1.6780 N.2   1 <1>  -0.4100 
 25 C       -3.8780    -6.5250    -1.0850 C.2   1 <1>   0.1080 
 26 C       -2.8730    -7.5950    -1.4460 C.3   1 <1>  -0.0590 
 27 H       -1.6750     3.0180     2.3740 H     1 <1>   0.3700 
 28 H       -4.3320     2.0680    -1.5420 H     1 <1>   0.0800 
 29 H       -2.9830     2.0070    -2.6360 H     1 <1>   0.0800 
 30 H        1.3430     2.1950     0.3090 H     1 <1>   0.0800 
 31 H        0.0840     1.1850     0.9610 H     1 <1>   0.0800 
 32 H        0.8340     2.4160     1.9650 H     1 <1>   0.0800 
 33 H        0.8150     4.7280    -0.1320 H     1 <1>   0.0800 
 34 H        0.3190     4.8730     1.5370 H     1 <1>   0.0800 
 35 H       -0.7800     5.3190     0.2440 H     1 <1>   0.0800 
 36 H       -5.3880     0.8830     0.0890 H     1 <1>   0.0800 
 37 H       -6.2410     0.1010    -1.2240 H     1 <1>   0.0800 
 38 H       -3.9090    -2.4930    -1.7520 H     1 <1>   0.0800 
 39 H       -3.3110    -2.1500    -0.1350 H     1 <1>   0.0800 
 40 H       -7.0470    -1.1970     0.6160 H     1 <1>   0.0800 
 41 H       -6.1180    -2.6510    -1.0370 H     1 <1>   0.0800 
 42 H       -6.2800    -3.9050     1.1060 H     1 <1>   0.0800 
 43 H       -4.6310    -3.4850     1.4710 H     1 <1>   0.0800 
 44 H       -5.3690    -0.2130     3.5450 H     1 <1>   0.0800 
 45 H       -6.9330    -0.2960     2.7460 H     1 <1>   0.0800 
 46 H       -5.7080     0.8620     2.2040 H     1 <1>   0.0800 
 47 H       -2.8660    -5.4850     0.5810 H     1 <1>   0.1500 
 48 H       -2.6950    -8.2290    -0.5970 H     1 <1>   0.0800 
 49 H       -1.9490    -7.1390    -1.7500 H     1 <1>   0.0800 
 50 H       -3.2490    -8.1940    -2.2550 H     1 <1>   0.0800 
@<TRIPOS>BOND
  1   1   2  2   
  2   2   3  am  
  3   2   4  am  
  4   3   5  am  
  5   3   6  1   
  6   4   7  1   
  7   4  27  1   
  8   5   7  1   
  9   5   8  2   
 10   6   9  1   
 11   6  28  1   
 12   6  29  1   
 13   7  10  1   
 14   7  11  1   
 15   9  12  2   
 16   9  13  am  
 17  10  30  1   
 18  10  31  1   
 19  10  32  1   
 20  11  33  1   
 21  11  34  1   
 22  11  35  1   
 23  13  14  1   
 24  13  15  1   
 25  14  16  1   
 26  14  36  1   
 27  14  37  1   
 28  15  17  1   
 29  15  38  1   
 30  15  39  1   
 31  16  17  1   
 32  16  18  1   
 33  16  40  1   
 34  17  19  1   
 35  17  41  1   
 36  18  20  1   
 37  19  21  1   
 38  19  42  1   
 39  19  43  1   
 40  20  44  1   
 41  20  45  1   
 42  20  46  1   
 43  21  22  1   
 44  21  23  2   
 45  22  24  1   
 46  23  25  1   
 47  23  47  1   
 48  24  25  2   
 49  25  26  1   
 50  26  48  1   
 51  26  49  1   
 52  26  50  1   
@<TRIPOS>SUBSTRUCTURE
  1 ****  13 GROUP 4 **** **** 0

# MOE 2024.06 (io_trps.svl 2023.06)
