@<TRIPOS>MOLECULE
NONAME
41 42 1 0 0 
SMALL
USER_CHARGES


@<TRIPOS>ATOM
  1 CL      -2.8080    -0.6540     1.5490 Cl    1 <1>  -0.1770 
  2 C       -2.6200     0.4570     0.2130 C.ar  1 <1>   0.1770 
  3 C       -2.6630    -0.0150    -1.0970 C.ar  1 <1>   0.0860 
  4 C       -2.4280     1.7910     0.5070 C.ar  1 <1>  -0.1500 
  5 C       -2.9050    -1.4030    -1.3990 C.2   1 <1>   0.5440 
  6 C       -2.4670     0.9200    -2.1130 C.ar  1 <1>  -0.1500 
  7 C       -2.2590     2.7190    -0.5150 C.ar  1 <1>   0.1170 
  8 O       -1.9880    -2.0830    -1.8160 O.2   1 <1>  -0.5700 
  9 N       -4.1560    -1.9700    -1.2590 N.am  1 <1>  -0.6600 
 10 C       -2.2700     2.2580    -1.8280 C.ar  1 <1>  -0.1500 
 11 N       -2.0660     4.0830    -0.2730 N.am  1 <1>  -0.5470 
 12 C       -4.3520    -3.4510    -1.3050 C.3   1 <1>   0.1400 
 13 C       -5.4050    -1.1900    -1.0470 C.3   1 <1>   0.1400 
 14 C       -2.4620     4.8520     0.7850 C.2   1 <1>   0.5690 
 15 C       -5.0490    -3.9290    -0.0220 C.3   1 <1>   0.2000 
 16 C       -6.0960    -1.6440     0.2440 C.3   1 <1>  -0.1600 
 17 O       -3.1170     4.4390     1.7060 O.2   1 <1>  -0.5700 
 18 C       -2.0620     6.3060     0.7740 C.3   1 <1>  -0.1790 
 19 O       -5.3260    -5.2850    -0.1320 O.3   1 <1>  -0.6800 
 20 C       -6.3590    -3.1670     0.2600 C.3   1 <1>  -0.0800 
 21 C       -6.9700    -3.6330     1.5920 C.3   1 <1>   0.1200 
 22 O       -8.1510    -2.9490     1.8340 O.3   1 <1>  -0.6800 
 23 H       -2.4050     2.1010     1.5350 H     1 <1>   0.1500 
 24 H       -2.4720     0.5790    -3.1340 H     1 <1>   0.1500 
 25 H       -2.1280     2.9540    -2.6360 H     1 <1>   0.1500 
 26 H       -1.5940     4.5920    -1.0180 H     1 <1>   0.3700 
 27 H       -4.9520    -3.6910    -2.1640 H     1 <1>   0.0800 
 28 H       -3.4050    -3.9540    -1.3940 H     1 <1>   0.0800 
 29 H       -5.2000    -0.1350    -0.9930 H     1 <1>   0.0800 
 30 H       -6.0620    -1.3540    -1.8850 H     1 <1>   0.0800 
 31 H       -4.3660    -3.8100     0.8030 H     1 <1>   0.0800 
 32 H       -5.4840    -1.3690     1.0840 H     1 <1>   0.0800 
 33 H       -7.0260    -1.1110     0.3290 H     1 <1>   0.0800 
 34 H       -0.9940     6.3920     0.7060 H     1 <1>   0.0800 
 35 H       -2.3890     6.7770     1.6840 H     1 <1>   0.0800 
 36 H       -2.5210     6.8050    -0.0580 H     1 <1>   0.0800 
 37 H       -5.9690    -5.4470    -0.8490 H     1 <1>   0.4000 
 38 H       -7.0530    -3.3950    -0.5300 H     1 <1>   0.0800 
 39 H       -6.2980    -3.4530     2.4140 H     1 <1>   0.0800 
 40 H       -7.2050    -4.6840     1.5570 H     1 <1>   0.0800 
 41 H       -7.9680    -2.0080     2.0160 H     1 <1>   0.4000 
@<TRIPOS>BOND
  1   1   2  1   
  2   2   3  ar  
  3   2   4  ar  
  4   3   5  1   
  5   3   6  ar  
  6   4   7  ar  
  7   4  23  1   
  8   5   8  2   
  9   5   9  am  
 10   6  10  ar  
 11   6  24  1   
 12   7  10  ar  
 13   7  11  1   
 14   9  12  1   
 15   9  13  1   
 16  10  25  1   
 17  11  14  am  
 18  11  26  1   
 19  12  15  1   
 20  12  27  1   
 21  12  28  1   
 22  13  16  1   
 23  13  29  1   
 24  13  30  1   
 25  14  17  2   
 26  14  18  1   
 27  15  19  1   
 28  15  20  1   
 29  15  31  1   
 30  16  20  1   
 31  16  32  1   
 32  16  33  1   
 33  18  34  1   
 34  18  35  1   
 35  18  36  1   
 36  19  37  1   
 37  20  21  1   
 38  20  38  1   
 39  21  22  1   
 40  21  39  1   
 41  21  40  1   
 42  22  41  1   
@<TRIPOS>SUBSTRUCTURE
  1 ****   2 GROUP 4 **** **** 0

# MOE 2024.06 (io_trps.svl 2023.06)
