@<TRIPOS>MOLECULE
NONAME
36 36 1 0 0 
SMALL
USER_CHARGES


@<TRIPOS>ATOM
  1 S       -0.4610     1.1070     0.4270 S.o2  1 <1>   1.3330 
  2 O       -0.8770     0.5410    -0.8300 O.2   1 <1>  -0.6500 
  3 O       -1.0470     2.3220     0.9370 O.2   1 <1>  -0.6500 
  4 N        1.1820     1.3660     0.2330 N.am  1 <1>  -0.9140 
  5 C       -0.5130    -0.1400     1.6940 C.3   1 <1>  -0.1350 
  6 C        1.4760     2.6710    -0.3390 C.3   1 <1>   0.1960 
  7 C        2.9870     2.8240    -0.4680 C.3   1 <1>  -0.0990 
  8 C        3.3100     4.1880    -1.0270 C.2   1 <1>   0.5690 
  9 O        3.2150     4.3450    -2.2190 O.2   1 <1>  -0.5700 
 10 N        3.6810     5.1730    -0.1620 N.am  1 <1>  -0.4930 
 11 C        4.0200     6.5190    -0.4490 C.2   1 <1>   0.0630 
 12 C        4.0690     7.1800    -1.6770 C.2   1 <1>   0.1390 
 13 C        4.3750     7.4570     0.4530 C.2   1 <1>  -0.3020 
 14 N        4.4240     8.4250    -1.5540 N.2   1 <1>  -0.7070 
 15 N        4.6150     8.6000    -0.2290 N.pl3 1 <1>   0.3140 
 16 C        5.0340     9.9010     0.3700 C.3   1 <1>   0.1760 
 17 C        3.9730    10.9810     0.1130 C.3   1 <1>  -0.2400 
 18 C        6.4000    10.3360    -0.1780 C.3   1 <1>  -0.2400 
 19 H        1.4390     0.6790    -0.4760 H     1 <1>   0.4200 
 20 H       -1.5290    -0.4120     1.8990 H     1 <1>   0.0800 
 21 H       -0.0680     0.2330     2.5960 H     1 <1>   0.0800 
 22 H        0.0210    -1.0150     1.3790 H     1 <1>   0.0800 
 23 H        1.0920     3.4470     0.3040 H     1 <1>   0.0800 
 24 H        1.0070     2.7670    -1.3070 H     1 <1>   0.0800 
 25 H        3.3730     2.0810    -1.1420 H     1 <1>   0.0800 
 26 H        3.4530     2.7010     0.4920 H     1 <1>   0.0800 
 27 H        3.7200     4.9310     0.8260 H     1 <1>   0.3700 
 28 H        3.8400     6.7190    -2.6230 H     1 <1>   0.1500 
 29 H        4.4690     7.3820     1.5190 H     1 <1>   0.1500 
 30 H        5.1220     9.7550     1.4310 H     1 <1>   0.0800 
 31 H        3.8660    11.1540    -0.9440 H     1 <1>   0.0800 
 32 H        4.2600    11.9030     0.5850 H     1 <1>   0.0800 
 33 H        3.0250    10.6720     0.5150 H     1 <1>   0.0800 
 34 H        6.3420    10.4970    -1.2400 H     1 <1>   0.0800 
 35 H        7.1370     9.5780     0.0210 H     1 <1>   0.0800 
 36 H        6.7150    11.2510     0.2910 H     1 <1>   0.0800 
@<TRIPOS>BOND
  1   1   2  2   
  2   1   3  2   
  3   1   4  am  
  4   1   5  1   
  5   4   6  1   
  6   4  19  1   
  7   5  20  1   
  8   5  21  1   
  9   5  22  1   
 10   6   7  1   
 11   6  23  1   
 12   6  24  1   
 13   7   8  1   
 14   7  25  1   
 15   7  26  1   
 16   8   9  2   
 17   8  10  am  
 18  10  11  1   
 19  10  27  1   
 20  11  12  1   
 21  11  13  2   
 22  12  14  2   
 23  12  28  1   
 24  13  15  1   
 25  13  29  1   
 26  14  15  1   
 27  15  16  1   
 28  16  17  1   
 29  16  18  1   
 30  16  30  1   
 31  17  31  1   
 32  17  32  1   
 33  17  33  1   
 34  18  34  1   
 35  18  35  1   
 36  18  36  1   
@<TRIPOS>SUBSTRUCTURE
  1 ****  10 GROUP 4 **** **** 0

# MOE 2024.06 (io_trps.svl 2023.06)
