@<TRIPOS>MOLECULE
NONAME
52 56 1 0 0 
SMALL
USER_CHARGES


@<TRIPOS>ATOM
  1 S        2.9480    -2.6310     2.8040 S.3   1 <1>  -0.0800 
  2 C        2.0570    -1.4560     1.8680 C.2   1 <1>  -0.1400 
  3 C        2.2900    -3.9310     1.8380 C.2   1 <1>  -0.1100 
  4 C        1.3180    -2.0460     0.9170 C.2   1 <1>  -0.1810 
  5 C        2.1780     0.0190     2.1820 C.3   1 <1>   0.0200 
  6 C        1.4420    -3.4870     0.8740 C.2   1 <1>  -0.0860 
  7 C        0.4410    -1.2200    -0.0160 C.3   1 <1>   0.0210 
  8 C        1.5710     0.8320     1.0240 C.3   1 <1>  -0.1600 
  9 C        0.7460    -4.3420    -0.0690 C.2   1 <1>   0.7160 
 10 C        0.2520     0.2150     0.5180 C.3   1 <1>  -0.1600 
 11 O        0.3820    -3.9540    -1.1620 O.2   1 <1>  -0.5700 
 12 N        0.4620    -5.6250     0.2850 N.am  1 <1>  -0.7300 
 13 C       -0.2830    -6.6030    -0.5390 C.3   1 <1>   0.2200 
 14 C       -1.7380    -6.7030    -0.0960 C.3   1 <1>  -0.0800 
 15 C        0.2090    -8.0030    -0.2020 C.3   1 <1>   0.1200 
 16 C       -1.6880    -7.7230     1.0480 C.3   1 <1>   0.1200 
 17 C       -2.4250    -5.3740     0.2790 C.3   1 <1>  -0.0170 
 18 O       -0.4270    -8.3270     0.9960 O.3   1 <1>  -0.5600 
 19 C       -3.9050    -5.5870     0.5790 C.ar  1 <1>  -0.1430 
 20 C       -4.8690    -5.7520    -0.4440 C.ar  1 <1>   0.0000 
 21 C       -4.3430    -5.6290     1.8700 C.ar  1 <1>  -0.1500 
 22 C       -6.2120    -5.9720    -0.0520 C.ar  1 <1>   0.3100 
 23 C       -4.5810    -5.7080    -1.8290 C.ar  1 <1>  -0.1500 
 24 C       -5.6970    -5.8440     2.1490 C.ar  1 <1>   0.1600 
 25 N       -6.6080    -6.0150     1.2450 N.ar  1 <1>  -0.6200 
 26 C       -7.1880    -6.1540    -1.0450 C.ar  1 <1>  -0.1500 
 27 C       -5.5570    -5.8870    -2.7710 C.ar  1 <1>  -0.1500 
 28 C       -6.8770    -6.1160    -2.3770 C.ar  1 <1>  -0.1500 
 29 H        2.6140    -4.9260     2.0860 H     1 <1>   0.1500 
 30 H        1.6490     0.2240     3.0960 H     1 <1>   0.0800 
 31 H        3.2110     0.2860     2.3150 H     1 <1>   0.0800 
 32 H        0.9060    -1.1900    -0.9860 H     1 <1>   0.0800 
 33 H       -0.5240    -1.6830    -0.1230 H     1 <1>   0.0800 
 34 H        1.4060     1.8450     1.3450 H     1 <1>   0.0800 
 35 H        2.2750     0.8540     0.2100 H     1 <1>   0.0800 
 36 H       -0.1640     0.8310    -0.2610 H     1 <1>   0.0800 
 37 H       -0.4540     0.1910     1.3300 H     1 <1>   0.0800 
 38 H        0.6680    -5.9420     1.2330 H     1 <1>   0.3700 
 39 H       -0.1810    -6.3760    -1.5870 H     1 <1>   0.0800 
 40 H       -2.2910    -7.1570    -0.8990 H     1 <1>   0.0800 
 41 H        1.2760    -8.0540    -0.0750 H     1 <1>   0.0800 
 42 H       -0.1090    -8.7110    -0.9480 H     1 <1>   0.0800 
 43 H       -2.4440    -8.4820     0.9360 H     1 <1>   0.0800 
 44 H       -1.7840    -7.2530     2.0110 H     1 <1>   0.0800 
 45 H       -2.3120    -4.6600    -0.5180 H     1 <1>   0.0800 
 46 H       -1.9480    -4.9480     1.1440 H     1 <1>   0.0800 
 47 H       -3.6700    -5.5030     2.6990 H     1 <1>   0.1500 
 48 H       -3.5750    -5.5270    -2.1550 H     1 <1>   0.1500 
 49 H       -6.0000    -5.8700     3.1820 H     1 <1>   0.1500 
 50 H       -8.1970    -6.3250    -0.7180 H     1 <1>   0.1500 
 51 H       -5.3250    -5.8530    -3.8220 H     1 <1>   0.1500 
 52 H       -7.6370    -6.2570    -3.1270 H     1 <1>   0.1500 
@<TRIPOS>BOND
  1   1   2  1   
  2   1   3  1   
  3   2   4  2   
  4   2   5  1   
  5   3   6  2   
  6   3  29  1   
  7   4   6  1   
  8   4   7  1   
  9   5   8  1   
 10   5  30  1   
 11   5  31  1   
 12   6   9  1   
 13   7  10  1   
 14   7  32  1   
 15   7  33  1   
 16   8  10  1   
 17   8  34  1   
 18   8  35  1   
 19   9  11  2   
 20   9  12  am  
 21  10  36  1   
 22  10  37  1   
 23  12  13  1   
 24  12  38  1   
 25  13  14  1   
 26  13  15  1   
 27  13  39  1   
 28  14  16  1   
 29  14  17  1   
 30  14  40  1   
 31  15  18  1   
 32  15  41  1   
 33  15  42  1   
 34  16  18  1   
 35  16  43  1   
 36  16  44  1   
 37  17  19  1   
 38  17  45  1   
 39  17  46  1   
 40  19  20  ar  
 41  19  21  ar  
 42  20  22  ar  
 43  20  23  ar  
 44  21  24  ar  
 45  21  47  1   
 46  22  25  ar  
 47  22  26  ar  
 48  23  27  ar  
 49  23  48  1   
 50  24  25  ar  
 51  24  49  1   
 52  26  28  ar  
 53  26  50  1   
 54  27  28  ar  
 55  27  51  1   
 56  28  52  1   
@<TRIPOS>SUBSTRUCTURE
  1 ****  17 GROUP 4 **** **** 0

# MOE 2024.06 (io_trps.svl 2023.06)
