@<TRIPOS>MOLECULE
NONAME
46 49 1 0 0 
SMALL
USER_CHARGES


@<TRIPOS>ATOM
  1 F       -0.9630    -0.2690     0.3160 F     1 <1>  -0.1900 
  2 C       -1.2900    -1.5010     0.6140 C.ar  1 <1>   0.1900 
  3 C       -0.7680    -2.5290    -0.1290 C.ar  1 <1>  -0.1500 
  4 C       -2.1650    -1.7020     1.6870 C.ar  1 <1>  -0.1500 
  5 C       -1.1350    -3.8370     0.2110 C.ar  1 <1>   0.0000 
  6 C       -2.5280    -2.9860     2.0230 C.ar  1 <1>  -0.1500 
  7 C       -2.0070    -4.0500     1.2760 C.ar  1 <1>  -0.1520 
  8 C       -0.8130    -5.1090    -0.3010 C.2   1 <1>  -0.1810 
  9 N       -2.2000    -5.3990     1.3980 N.pl3 1 <1>   0.0330 
 10 C       -1.4810    -6.0530     0.4280 C.2   1 <1>  -0.2370 
 11 C        0.1290    -5.3330    -1.4690 C.3   1 <1>  -0.0590 
 12 C       -1.5050    -7.4890     0.3190 C.2   1 <1>   0.7150 
 13 O       -0.4710    -8.1220     0.2320 O.2   1 <1>  -0.5700 
 14 N       -2.7030    -8.1610     0.3150 N.am  1 <1>  -0.6600 
 15 C       -3.9630    -7.5640    -0.2000 C.3   1 <1>   0.1400 
 16 C       -2.7640    -9.6420     0.2410 C.3   1 <1>   0.1400 
 17 C       -4.7140    -8.7300    -0.8390 C.3   1 <1>   0.2000 
 18 C       -4.2150    -9.9750    -0.1120 C.3   1 <1>  -0.0800 
 19 O       -6.0850    -8.6030    -0.6870 O.3   1 <1>  -0.6800 
 20 C       -4.3670   -11.2600    -0.9390 C.3   1 <1>   0.0200 
 21 C       -3.7800   -12.4480    -0.2030 C.2   1 <1>  -0.0400 
 22 O       -4.2710   -12.8080     0.9530 O.3   1 <1>  -0.0190 
 23 C       -2.7710   -13.2810    -0.5000 C.2   1 <1>  -0.1500 
 24 N       -3.6410   -13.8330     1.4480 N.2   1 <1>  -0.4100 
 25 C       -2.7330   -14.1420     0.5930 C.2   1 <1>   0.1080 
 26 C       -1.7580   -15.2850     0.7640 C.3   1 <1>  -0.0590 
 27 H       -0.0970    -2.3480    -0.9460 H     1 <1>   0.1500 
 28 H       -2.5360    -0.8500     2.2270 H     1 <1>   0.1500 
 29 H       -3.1970    -3.1770     2.8430 H     1 <1>   0.1500 
 30 H       -2.7550    -5.8580     2.1270 H     1 <1>   0.2700 
 31 H       -0.2360    -4.8180    -2.3390 H     1 <1>   0.0800 
 32 H        0.2130    -6.3800    -1.6960 H     1 <1>   0.0800 
 33 H        1.1060    -4.9570    -1.2240 H     1 <1>   0.0800 
 34 H       -4.5230    -7.1560     0.6220 H     1 <1>   0.0800 
 35 H       -3.7570    -6.7980    -0.9280 H     1 <1>   0.0800 
 36 H       -2.0930    -9.9850    -0.5300 H     1 <1>   0.0800 
 37 H       -2.4750   -10.0830     1.1810 H     1 <1>   0.0800 
 38 H       -4.4910    -8.7710    -1.8920 H     1 <1>   0.0800 
 39 H       -4.7480   -10.0850     0.8170 H     1 <1>   0.0800 
 40 H       -6.3380    -8.6760     0.2530 H     1 <1>   0.4000 
 41 H       -3.8700   -11.1500    -1.8870 H     1 <1>   0.0800 
 42 H       -5.4100   -11.4460    -1.1290 H     1 <1>   0.0800 
 43 H       -2.1250   -13.3080    -1.3580 H     1 <1>   0.1500 
 44 H       -1.8620   -15.9780    -0.0510 H     1 <1>   0.0800 
 45 H       -1.9550   -15.8010     1.6860 H     1 <1>   0.0800 
 46 H       -0.7530   -14.9080     0.7840 H     1 <1>   0.0800 
@<TRIPOS>BOND
  1   1   2  1   
  2   2   3  ar  
  3   2   4  ar  
  4   3   5  ar  
  5   3  27  1   
  6   4   6  ar  
  7   4  28  1   
  8   5   7  ar  
  9   5   8  1   
 10   6   7  ar  
 11   6  29  1   
 12   7   9  1   
 13   8  10  2   
 14   8  11  1   
 15   9  10  1   
 16   9  30  1   
 17  10  12  1   
 18  11  31  1   
 19  11  32  1   
 20  11  33  1   
 21  12  13  2   
 22  12  14  am  
 23  14  15  1   
 24  14  16  1   
 25  15  17  1   
 26  15  34  1   
 27  15  35  1   
 28  16  18  1   
 29  16  36  1   
 30  16  37  1   
 31  17  18  1   
 32  17  19  1   
 33  17  38  1   
 34  18  20  1   
 35  18  39  1   
 36  19  40  1   
 37  20  21  1   
 38  20  41  1   
 39  20  42  1   
 40  21  22  1   
 41  21  23  2   
 42  22  24  1   
 43  23  25  1   
 44  23  43  1   
 45  24  25  2   
 46  25  26  1   
 47  26  44  1   
 48  26  45  1   
 49  26  46  1   
@<TRIPOS>SUBSTRUCTURE
  1 ****  14 GROUP 4 **** **** 0

# MOE 2024.06 (io_trps.svl 2023.06)
