@<TRIPOS>MOLECULE
NONAME
49 52 1 0 0 
SMALL
USER_CHARGES


@<TRIPOS>ATOM
  1 O        0.3140    -2.7900    -2.5870 O.2   1 <1>  -0.5700 
  2 C        1.1650    -3.4100    -2.0040 C.2   1 <1>   0.5690 
  3 N        1.2190    -4.7570    -2.0550 N.am  1 <1>  -0.7300 
  4 C        2.2130    -2.7000    -1.1740 C.3   1 <1>  -0.0990 
  5 C        2.2330    -5.5520    -1.3330 C.3   1 <1>   0.1400 
  6 C        3.6030    -3.3230    -1.4090 C.3   1 <1>  -0.0800 
  7 C        3.6120    -4.8680    -1.4450 C.3   1 <1>  -0.0800 
  8 C        4.6350    -2.9100    -0.3520 C.3   1 <1>  -0.1600 
  9 C        4.5800    -5.2960    -0.3370 C.3   1 <1>  -0.1600 
 10 C        5.5510    -4.1240    -0.1740 C.3   1 <1>   0.2200 
 11 N        6.2740    -4.1380     1.1420 N.am  1 <1>  -0.6600 
 12 C        6.8330    -3.0190     1.7320 C.2   1 <1>   0.7160 
 13 C        6.5520    -5.4790     1.7450 C.3   1 <1>   0.0600 
 14 O        7.0370    -3.0360     2.9320 O.2   1 <1>  -0.5700 
 15 C        7.2000    -1.8410     0.9930 C.2   1 <1>  -0.0860 
 16 C        7.9700    -1.7650    -0.1650 C.2   1 <1>   0.2350 
 17 C        6.9020    -0.5460     1.2140 C.2   1 <1>  -0.0400 
 18 N        8.0370    -0.5340    -0.5490 N.2   1 <1>  -0.4100 
 19 C        8.6030    -2.8700    -0.8540 C.ar  1 <1>   0.0540 
 20 O        7.3940     0.2400     0.2910 O.3   1 <1>  -0.0190 
 21 C        6.1000     0.0830     2.3370 C.3   1 <1>  -0.0600 
 22 C        9.2940    -3.8680    -0.1670 C.ar  1 <1>  -0.1500 
 23 C        8.5320    -2.9720    -2.2420 C.ar  1 <1>  -0.1500 
 24 C        9.8660    -4.9350    -0.8350 C.ar  1 <1>  -0.1500 
 25 C        9.1020    -4.0360    -2.9160 C.ar  1 <1>  -0.1500 
 26 C        9.7680    -5.0230    -2.2120 C.ar  1 <1>  -0.1500 
 27 H        0.4880    -5.2410    -2.5820 H     1 <1>   0.3700 
 28 H        2.2260    -1.6560    -1.4270 H     1 <1>   0.0800 
 29 H        1.9260    -2.7940    -0.1430 H     1 <1>   0.0800 
 30 H        1.9320    -5.6220    -0.3010 H     1 <1>   0.0800 
 31 H        2.2800    -6.5460    -1.7440 H     1 <1>   0.0800 
 32 H        3.9500    -2.9830    -2.3710 H     1 <1>   0.0800 
 33 H        4.0410    -5.1630    -2.3880 H     1 <1>   0.0800 
 34 H        4.1440    -2.6980     0.5830 H     1 <1>   0.0800 
 35 H        5.1680    -2.0390    -0.6860 H     1 <1>   0.0800 
 36 H        5.0890    -6.2060    -0.6000 H     1 <1>   0.0800 
 37 H        4.0320    -5.4300     0.5790 H     1 <1>   0.0800 
 38 H        6.2660    -4.1580    -0.9790 H     1 <1>   0.0800 
 39 H        6.8980    -6.1600     0.9880 H     1 <1>   0.0800 
 40 H        5.6590    -5.8680     2.2020 H     1 <1>   0.0800 
 41 H        7.3150    -5.4080     2.5020 H     1 <1>   0.0800 
 42 H        5.7430    -0.6680     3.0190 H     1 <1>   0.0800 
 43 H        5.2580     0.6140     1.9320 H     1 <1>   0.0800 
 44 H        6.7190     0.7740     2.8800 H     1 <1>   0.0800 
 45 H        9.3870    -3.8070     0.9030 H     1 <1>   0.1500 
 46 H        8.0210    -2.2020    -2.7950 H     1 <1>   0.1500 
 47 H       10.3920    -5.6960    -0.2840 H     1 <1>   0.1500 
 48 H        9.0330    -4.0940    -3.9890 H     1 <1>   0.1500 
 49 H       10.2140    -5.8520    -2.7340 H     1 <1>   0.1500 
@<TRIPOS>BOND
  1   1   2  2   
  2   2   3  am  
  3   2   4  1   
  4   3   5  1   
  5   3  27  1   
  6   4   6  1   
  7   4  28  1   
  8   4  29  1   
  9   5   7  1   
 10   5  30  1   
 11   5  31  1   
 12   6   7  1   
 13   6   8  1   
 14   6  32  1   
 15   7   9  1   
 16   7  33  1   
 17   8  10  1   
 18   8  34  1   
 19   8  35  1   
 20   9  10  1   
 21   9  36  1   
 22   9  37  1   
 23  10  11  1   
 24  10  38  1   
 25  11  12  am  
 26  11  13  1   
 27  12  14  2   
 28  12  15  1   
 29  13  39  1   
 30  13  40  1   
 31  13  41  1   
 32  15  16  1   
 33  15  17  2   
 34  16  18  2   
 35  16  19  1   
 36  17  20  1   
 37  17  21  1   
 38  18  20  1   
 39  19  22  ar  
 40  19  23  ar  
 41  21  42  1   
 42  21  43  1   
 43  21  44  1   
 44  22  24  ar  
 45  22  45  1   
 46  23  25  ar  
 47  23  46  1   
 48  24  26  ar  
 49  24  47  1   
 50  25  26  ar  
 51  25  48  1   
 52  26  49  1   
@<TRIPOS>SUBSTRUCTURE
  1 ****  10 GROUP 4 **** **** 0

# MOE 2024.06 (io_trps.svl 2023.06)
