@<TRIPOS>MOLECULE
NONAME
48 50 1 0 0 
SMALL
USER_CHARGES


@<TRIPOS>ATOM
  1 CL       1.8890    -0.3910    -0.9110 Cl    1 <1>  -0.1770 
  2 C        1.1100    -1.8430    -0.3460 C.ar  1 <1>   0.1770 
  3 C        1.1220    -2.9730    -1.1380 C.ar  1 <1>  -0.1500 
  4 C        0.4910    -1.8450     0.8920 C.ar  1 <1>  -0.1500 
  5 C        0.4920    -4.1070    -0.6630 C.ar  1 <1>   0.1900 
  6 C       -0.1340    -2.9960     1.3430 C.ar  1 <1>  -0.1500 
  7 F        0.5300    -5.1680    -1.4210 F     1 <1>  -0.1900 
  8 C       -0.1630    -4.1610     0.5700 C.ar  1 <1>   0.0860 
  9 C       -0.8350    -5.3480     1.0560 C.2   1 <1>   0.5440 
 10 O       -0.5910    -5.7310     2.1840 O.2   1 <1>  -0.5700 
 11 N       -1.7590    -6.0590     0.3140 N.am  1 <1>  -0.6600 
 12 C       -2.6150    -5.4680    -0.7630 C.3   1 <1>   0.2200 
 13 C       -1.7610    -7.5490     0.4450 C.3   1 <1>   0.0600 
 14 C       -3.1110    -4.0610    -0.4190 C.3   1 <1>  -0.1600 
 15 C       -3.9210    -6.2390    -0.9590 C.3   1 <1>  -0.1600 
 16 C       -4.3940    -3.8520    -1.2360 C.3   1 <1>  -0.0800 
 17 C       -4.8950    -5.2520    -1.6130 C.3   1 <1>  -0.0800 
 18 C       -5.5230    -3.1820    -0.4400 C.3   1 <1>  -0.1600 
 19 C       -6.3250    -5.3640    -1.0690 C.3   1 <1>  -0.1600 
 20 C       -6.3700    -4.3480     0.0670 C.3   1 <1>   0.4230 
 21 N       -7.7620    -3.9850     0.4750 N.4   1 <1>  -0.9590 
 22 C       -8.5820    -3.2990    -0.5770 C.3   1 <1>   0.2630 
 23 C       -7.7440    -3.1690     1.7280 C.3   1 <1>   0.2630 
 24 H        1.6130    -2.9700    -2.0940 H     1 <1>   0.1500 
 25 H        0.5050    -0.9530     1.4940 H     1 <1>   0.1500 
 26 H       -0.6070    -3.0070     2.3110 H     1 <1>   0.1500 
 27 H       -2.0710    -5.4490    -1.6930 H     1 <1>   0.0800 
 28 H       -1.7380    -8.0080    -0.5280 H     1 <1>   0.0800 
 29 H       -2.6380    -7.8710     0.9780 H     1 <1>   0.0800 
 30 H       -0.8940    -7.8800     0.9920 H     1 <1>   0.0800 
 31 H       -3.3230    -4.0150     0.6350 H     1 <1>   0.0800 
 32 H       -2.3860    -3.3100    -0.6740 H     1 <1>   0.0800 
 33 H       -3.7770    -7.1070    -1.5780 H     1 <1>   0.0800 
 34 H       -4.2980    -6.5410     0.0030 H     1 <1>   0.0800 
 35 H       -4.1660    -3.2870    -2.1260 H     1 <1>   0.0800 
 36 H       -4.8760    -5.3820    -2.6840 H     1 <1>   0.0800 
 37 H       -6.0800    -2.5640    -1.1190 H     1 <1>   0.0800 
 38 H       -5.1430    -2.5760     0.3630 H     1 <1>   0.0800 
 39 H       -6.5500    -6.3600    -0.7310 H     1 <1>   0.0800 
 40 H       -7.0020    -5.0930    -1.8580 H     1 <1>   0.0800 
 41 H       -5.8550    -4.7850     0.9090 H     1 <1>   0.0800 
 42 H       -8.2310    -4.8770     0.6950 H     1 <1>   0.4500 
 43 H       -8.1490    -2.3460    -0.8320 H     1 <1>   0.0800 
 44 H       -9.5840    -3.1310    -0.2170 H     1 <1>   0.0800 
 45 H       -8.6400    -3.9010    -1.4680 H     1 <1>   0.0800 
 46 H       -7.2630    -2.2200     1.5500 H     1 <1>   0.0800 
 47 H       -7.2060    -3.6870     2.5060 H     1 <1>   0.0800 
 48 H       -8.7490    -2.9850     2.0710 H     1 <1>   0.0800 
@<TRIPOS>BOND
  1   1   2  1   
  2   2   3  ar  
  3   2   4  ar  
  4   3   5  ar  
  5   3  24  1   
  6   4   6  ar  
  7   4  25  1   
  8   5   7  1   
  9   5   8  ar  
 10   6   8  ar  
 11   6  26  1   
 12   8   9  1   
 13   9  10  2   
 14   9  11  am  
 15  11  12  1   
 16  11  13  1   
 17  12  14  1   
 18  12  15  1   
 19  12  27  1   
 20  13  28  1   
 21  13  29  1   
 22  13  30  1   
 23  14  16  1   
 24  14  31  1   
 25  14  32  1   
 26  15  17  1   
 27  15  33  1   
 28  15  34  1   
 29  16  17  1   
 30  16  18  1   
 31  16  35  1   
 32  17  19  1   
 33  17  36  1   
 34  18  20  1   
 35  18  37  1   
 36  18  38  1   
 37  19  20  1   
 38  19  39  1   
 39  19  40  1   
 40  20  21  1   
 41  20  41  1   
 42  21  22  1   
 43  21  23  1   
 44  21  42  1   
 45  22  43  1   
 46  22  44  1   
 47  22  45  1   
 48  23  46  1   
 49  23  47  1   
 50  23  48  1   
@<TRIPOS>SUBSTRUCTURE
  1 ****  14 GROUP 4 **** **** 0

# MOE 2024.06 (io_trps.svl 2023.06)
