@<TRIPOS>MOLECULE
NONAME
48 51 1 0 0 
SMALL
USER_CHARGES


@<TRIPOS>ATOM
  1 S        1.3750    -1.2030     2.5590 S.o2  1 <1>   1.4470 
  2 O        2.3040    -2.3100     2.5450 O.2   1 <1>  -0.6500 
  3 O        1.1350    -0.4720     3.7790 O.2   1 <1>  -0.6500 
  4 N       -0.1220    -1.8300     2.1450 N.am  1 <1>  -0.9140 
  5 C        1.7090    -0.0650     1.1880 C.ar  1 <1>  -0.0090 
  6 C       -0.0760    -2.9540     1.2190 C.3   1 <1>   0.2760 
  7 C        0.8060     0.9410     0.8620 C.ar  1 <1>  -0.1500 
  8 C        2.8630    -0.1760     0.4180 C.ar  1 <1>  -0.1500 
  9 C       -1.4220    -3.1060     0.5240 C.3   1 <1>  -0.0800 
 10 C       -0.0250    -4.2680     1.9960 C.3   1 <1>   0.1200 
 11 C        1.0340     1.8080    -0.1940 C.ar  1 <1>  -0.1430 
 12 C        3.1050     0.6840    -0.6380 C.ar  1 <1>  -0.1500 
 13 C       -2.2420    -3.9150     1.5360 C.3   1 <1>   0.1200 
 14 C       -2.0890    -1.7940     0.0700 C.3   1 <1>  -0.0170 
 15 O       -1.3310    -4.4680     2.4430 O.3   1 <1>  -0.5600 
 16 C        2.1960     1.6840    -0.9500 C.ar  1 <1>   0.1170 
 17 C        0.0130     2.8850    -0.5530 C.3   1 <1>  -0.0170 
 18 C       -3.3710    -2.0740    -0.6950 C.ar  1 <1>  -0.1430 
 19 N        2.4290     2.5720    -2.0000 N.am  1 <1>  -0.5470 
 20 C        0.6920     4.1160    -1.1760 C.3   1 <1>  -0.0990 
 21 C       -4.6120    -1.9970    -0.0950 C.ar  1 <1>  -0.1500 
 22 C       -3.3590    -2.4220    -2.0310 C.ar  1 <1>  -0.1500 
 23 C        1.7380     3.7200    -2.2010 C.2   1 <1>   0.5690 
 24 C       -5.7480    -2.2700    -0.8380 C.ar  1 <1>   0.1600 
 25 C       -4.5540    -2.6740    -2.6820 C.ar  1 <1>   0.1600 
 26 O        1.9550     4.4230    -3.1550 O.2   1 <1>  -0.5700 
 27 N       -5.7480    -2.6080    -2.1160 N.ar  1 <1>  -0.6200 
 28 H       -0.4990    -2.2060     3.0180 H     1 <1>   0.4200 
 29 H        0.7320    -2.8520     0.5120 H     1 <1>   0.0800 
 30 H       -0.0930     1.0360     1.4490 H     1 <1>   0.1500 
 31 H        3.5820    -0.9450     0.6500 H     1 <1>   0.1500 
 32 H       -1.2780    -3.7280    -0.3420 H     1 <1>   0.0800 
 33 H        0.6470    -4.2450     2.8360 H     1 <1>   0.0800 
 34 H        0.2330    -5.0860     1.3470 H     1 <1>   0.0800 
 35 H        4.0050     0.5830    -1.2170 H     1 <1>   0.1500 
 36 H       -2.7920    -4.7100     1.0610 H     1 <1>   0.0800 
 37 H       -2.9150    -3.2890     2.0940 H     1 <1>   0.0800 
 38 H       -1.4110    -1.2460    -0.5620 H     1 <1>   0.0800 
 39 H       -2.3130    -1.1700     0.9180 H     1 <1>   0.0800 
 40 H       -0.6790     2.4700    -1.2650 H     1 <1>   0.0800 
 41 H       -0.5430     3.1840     0.3180 H     1 <1>   0.0800 
 42 H        3.1680     2.3840    -2.6760 H     1 <1>   0.3700 
 43 H        1.1860     4.6800    -0.4060 H     1 <1>   0.0800 
 44 H       -0.0420     4.7490    -1.6400 H     1 <1>   0.0800 
 45 H       -4.7080    -1.7290     0.9410 H     1 <1>   0.1500 
 46 H       -2.4340    -2.4990    -2.5710 H     1 <1>   0.1500 
 47 H       -6.7090    -2.2060    -0.3550 H     1 <1>   0.1500 
 48 H       -4.5280    -2.9450    -3.7240 H     1 <1>   0.1500 
@<TRIPOS>BOND
  1   1   2  2   
  2   1   3  2   
  3   1   4  am  
  4   1   5  1   
  5   4   6  1   
  6   4  28  1   
  7   5   7  ar  
  8   5   8  ar  
  9   6   9  1   
 10   6  10  1   
 11   6  29  1   
 12   7  11  ar  
 13   7  30  1   
 14   8  12  ar  
 15   8  31  1   
 16   9  13  1   
 17   9  14  1   
 18   9  32  1   
 19  10  15  1   
 20  10  33  1   
 21  10  34  1   
 22  11  16  ar  
 23  11  17  1   
 24  12  16  ar  
 25  12  35  1   
 26  13  15  1   
 27  13  36  1   
 28  13  37  1   
 29  14  18  1   
 30  14  38  1   
 31  14  39  1   
 32  16  19  1   
 33  17  20  1   
 34  17  40  1   
 35  17  41  1   
 36  18  21  ar  
 37  18  22  ar  
 38  19  23  am  
 39  19  42  1   
 40  20  23  1   
 41  20  43  1   
 42  20  44  1   
 43  21  24  ar  
 44  21  45  1   
 45  22  25  ar  
 46  22  46  1   
 47  23  26  2   
 48  24  27  ar  
 49  24  47  1   
 50  25  27  ar  
 51  25  48  1   
@<TRIPOS>SUBSTRUCTURE
  1 ****  14 GROUP 4 **** **** 0

# MOE 2024.06 (io_trps.svl 2023.06)
