@<TRIPOS>MOLECULE
NONAME
44 45 1 0 0 
SMALL
USER_CHARGES


@<TRIPOS>ATOM
  1 S        1.1140     0.8800    -0.9840 S.o2  1 <1>   1.3330 
  2 O        1.3300    -0.5480    -1.0440 O.2   1 <1>  -0.6500 
  3 O        1.3200     1.6690    -2.1780 O.2   1 <1>  -0.6500 
  4 N        2.1050     1.4870     0.2500 N.am  1 <1>  -0.8490 
  5 C       -0.5660     1.1610    -0.3950 C.3   1 <1>  -0.0550 
  6 C        2.3240     0.5500     1.3550 C.3   1 <1>   0.1160 
  7 C        3.3920     1.9840    -0.2440 C.3   1 <1>   0.1160 
  8 C       -1.0520     2.6060    -0.1160 C.3   1 <1>  -0.0800 
  9 C       -0.8520     3.5860    -1.2810 C.3   1 <1>   0.2000 
 10 C       -0.3890     3.2790     1.0950 C.3   1 <1>   0.1400 
 11 O       -1.9410     4.4440    -1.2910 O.3   1 <1>  -0.6800 
 12 C        0.3860     4.4070    -0.9190 C.3   1 <1>   0.1400 
 13 N        0.4290     4.3930     0.5620 N.am  1 <1>  -0.6600 
 14 C        1.2600     5.1300     1.3610 C.2   1 <1>   0.5690 
 15 O        1.2810     4.9650     2.5590 O.2   1 <1>  -0.5700 
 16 C        2.1610     6.2080     0.7730 C.3   1 <1>   0.0440 
 17 C        3.4430     5.6440     0.1720 C.ar  1 <1>  -0.1440 
 18 C        3.6480     5.6360    -1.2000 C.ar  1 <1>  -0.1500 
 19 C        4.4280     5.1410     1.0080 C.ar  1 <1>  -0.1500 
 20 C        4.8220     5.1270    -1.7280 C.ar  1 <1>  -0.1500 
 21 C        5.6050     4.6380     0.4820 C.ar  1 <1>  -0.1500 
 22 C        5.8020     4.6280    -0.8870 C.ar  1 <1>  -0.1500 
 23 H       -1.2290     0.7420    -1.1280 H     1 <1>   0.0800 
 24 H       -0.7070     0.5870     0.5000 H     1 <1>   0.0800 
 25 H        2.8650     1.0380     2.1480 H     1 <1>   0.0800 
 26 H        2.8880    -0.3040     1.0170 H     1 <1>   0.0800 
 27 H        1.3820     0.2100     1.7460 H     1 <1>   0.0800 
 28 H        3.9750     2.3770     0.5700 H     1 <1>   0.0800 
 29 H        3.2380     2.7770    -0.9550 H     1 <1>   0.0800 
 30 H        3.9420     1.1910    -0.7240 H     1 <1>   0.0800 
 31 H       -2.1050     2.5160     0.0930 H     1 <1>   0.0800 
 32 H       -0.7860     3.1190    -2.2490 H     1 <1>   0.0800 
 33 H        0.2300     2.6010     1.6570 H     1 <1>   0.0800 
 34 H       -1.1360     3.6860     1.7550 H     1 <1>   0.0800 
 35 H       -1.9380     4.9670    -0.4640 H     1 <1>   0.4000 
 36 H        0.3200     5.4050    -1.3130 H     1 <1>   0.0800 
 37 H        1.2750     3.9370    -1.2970 H     1 <1>   0.0800 
 38 H        1.6140     6.7690     0.0400 H     1 <1>   0.0800 
 39 H        2.4220     6.8930     1.5590 H     1 <1>   0.0800 
 40 H        2.9000     6.0260    -1.8670 H     1 <1>   0.1500 
 41 H        4.2770     5.1410     2.0750 H     1 <1>   0.1500 
 42 H        4.9750     5.1210    -2.7930 H     1 <1>   0.1500 
 43 H        6.3660     4.2540     1.1390 H     1 <1>   0.1500 
 44 H        6.7160     4.2370    -1.2980 H     1 <1>   0.1500 
@<TRIPOS>BOND
  1   1   2  2   
  2   1   3  2   
  3   1   4  am  
  4   1   5  1   
  5   4   6  1   
  6   4   7  1   
  7   5   8  1   
  8   5  23  1   
  9   5  24  1   
 10   6  25  1   
 11   6  26  1   
 12   6  27  1   
 13   7  28  1   
 14   7  29  1   
 15   7  30  1   
 16   8   9  1   
 17   8  10  1   
 18   8  31  1   
 19   9  11  1   
 20   9  12  1   
 21   9  32  1   
 22  10  13  1   
 23  10  33  1   
 24  10  34  1   
 25  11  35  1   
 26  12  13  1   
 27  12  36  1   
 28  12  37  1   
 29  13  14  am  
 30  14  15  2   
 31  14  16  1   
 32  16  17  1   
 33  16  38  1   
 34  16  39  1   
 35  17  18  ar  
 36  17  19  ar  
 37  18  20  ar  
 38  18  40  1   
 39  19  21  ar  
 40  19  41  1   
 41  20  22  ar  
 42  20  42  1   
 43  21  22  ar  
 44  21  43  1   
 45  22  44  1   
@<TRIPOS>SUBSTRUCTURE
  1 ****  13 GROUP 4 **** **** 0

# MOE 2024.06 (io_trps.svl 2023.06)
