@<TRIPOS>MOLECULE
NONAME
38 39 1 0 0 
SMALL
USER_CHARGES


@<TRIPOS>ATOM
  1 O       -0.6050    -1.5000    -0.5720 O.2   1 <1>  -0.5700 
  2 C        0.4780    -1.7170    -0.0750 C.2   1 <1>   0.6900 
  3 N        0.6080    -2.3120     1.1230 N.am  1 <1>  -0.7300 
  4 N        1.5810    -1.3640    -0.7320 N.am  1 <1>  -0.8000 
  5 C       -0.5380    -2.8000     1.9510 C.3   1 <1>   0.2010 
  6 C       -0.6970    -4.3230     1.9170 C.2   1 <1>   0.5690 
  7 O       -0.2020    -4.9630     2.8170 O.2   1 <1>  -0.5700 
  8 N       -1.3720    -4.9440     0.9000 N.am  1 <1>  -0.6600 
  9 C       -1.9260    -4.2940    -0.3180 C.3   1 <1>   0.1400 
 10 C       -1.4950    -6.4180     0.7970 C.3   1 <1>   0.1400 
 11 C       -2.7800    -5.3790    -0.9690 C.3   1 <1>   0.2000 
 12 C       -2.0450    -6.6770    -0.6120 C.3   1 <1>  -0.0800 
 13 O       -4.0270    -5.3730    -0.3610 O.3   1 <1>  -0.6800 
 14 C       -2.8960    -7.9550    -0.7250 C.3   1 <1>   0.0200 
 15 C       -2.0970    -9.2280    -0.5010 C.2   1 <1>  -0.0400 
 16 O       -2.7370   -10.3650    -0.4350 O.3   1 <1>  -0.0190 
 17 C       -0.7880    -9.4890    -0.3440 C.2   1 <1>  -0.1500 
 18 N       -1.9320   -11.3690    -0.2400 N.2   1 <1>  -0.4100 
 19 C       -0.7500   -10.8710    -0.1810 C.2   1 <1>   0.1080 
 20 C        0.5060   -11.6840     0.0390 C.3   1 <1>  -0.0590 
 21 H        1.5210    -2.6800     1.3870 H     1 <1>   0.3700 
 22 H        1.4620    -0.8180    -1.5850 H     1 <1>   0.3700 
 23 H        2.4790    -1.2800    -0.2640 H     1 <1>   0.3700 
 24 H       -0.3760    -2.5010     2.9710 H     1 <1>   0.0800 
 25 H       -1.4520    -2.3400     1.6220 H     1 <1>   0.0800 
 26 H       -2.5040    -3.4140    -0.0900 H     1 <1>   0.0800 
 27 H       -1.1140    -4.0290    -0.9730 H     1 <1>   0.0800 
 28 H       -0.5380    -6.8890     0.9470 H     1 <1>   0.0800 
 29 H       -2.1810    -6.7650     1.5510 H     1 <1>   0.0800 
 30 H       -2.9120    -5.2360    -2.0280 H     1 <1>   0.0800 
 31 H       -1.2060    -6.7650    -1.2800 H     1 <1>   0.0800 
 32 H       -3.9040    -5.3160     0.6070 H     1 <1>   0.4000 
 33 H       -3.3400    -8.0020    -1.7040 H     1 <1>   0.0800 
 34 H       -3.6970    -7.9290    -0.0080 H     1 <1>   0.0800 
 35 H        0.0600    -8.8310    -0.3400 H     1 <1>   0.1500 
 36 H        1.1740   -11.5550    -0.7930 H     1 <1>   0.0800 
 37 H        0.2570   -12.7260     0.1270 H     1 <1>   0.0800 
 38 H        0.9940   -11.3660     0.9410 H     1 <1>   0.0800 
@<TRIPOS>BOND
  1   1   2  2   
  2   2   3  am  
  3   2   4  am  
  4   3   5  1   
  5   3  21  1   
  6   4  22  1   
  7   4  23  1   
  8   5   6  1   
  9   5  24  1   
 10   5  25  1   
 11   6   7  2   
 12   6   8  am  
 13   8   9  1   
 14   8  10  1   
 15   9  11  1   
 16   9  26  1   
 17   9  27  1   
 18  10  12  1   
 19  10  28  1   
 20  10  29  1   
 21  11  12  1   
 22  11  13  1   
 23  11  30  1   
 24  12  14  1   
 25  12  31  1   
 26  13  32  1   
 27  14  15  1   
 28  14  33  1   
 29  14  34  1   
 30  15  16  1   
 31  15  17  2   
 32  16  18  1   
 33  17  19  1   
 34  17  35  1   
 35  18  19  2   
 36  19  20  1   
 37  20  36  1   
 38  20  37  1   
 39  20  38  1   
@<TRIPOS>SUBSTRUCTURE
  1 ****  10 GROUP 4 **** **** 0

# MOE 2024.06 (io_trps.svl 2023.06)
