@<TRIPOS>MOLECULE
NONAME
49 51 1 0 0 
SMALL
USER_CHARGES


@<TRIPOS>ATOM
  1 O       -1.1130     0.7770     1.9230 O.2   1 <1>  -0.5700 
  2 C       -1.3800     1.2600     0.8470 C.2   1 <1>   0.5690 
  3 N       -2.4330     0.7580     0.1150 N.am  1 <1>  -0.6600 
  4 C       -0.4590     2.3970     0.3790 C.3   1 <1>  -0.0190 
  5 C       -2.9960    -0.5830     0.4770 C.3   1 <1>   0.1400 
  6 C       -3.1430     1.4110    -1.0240 C.3   1 <1>   0.1400 
  7 C       -1.1120     3.7880     0.3040 C.3   1 <1>  -0.1600 
  8 C        0.3040     2.0770    -0.9210 C.3   1 <1>  -0.1600 
  9 C       -4.2340    -0.4740     1.3770 C.3   1 <1>   0.1400 
 10 C       -4.3690     2.2280    -0.5750 C.3   1 <1>  -0.1600 
 11 C       -0.0950     4.8310    -0.1680 C.3   1 <1>   0.1200 
 12 C        1.2060     3.2500    -1.3220 C.3   1 <1>   0.1200 
 13 N       -5.3190     0.3330     0.7350 N.am  1 <1>  -0.6600 
 14 C       -5.0440     1.7940     0.7300 C.3   1 <1>   0.1400 
 15 O        0.4460     4.4170    -1.3850 O.3   1 <1>  -0.5600 
 16 C       -6.4820    -0.1610     0.2060 C.2   1 <1>   0.5690 
 17 O       -7.3000     0.5600    -0.3160 O.2   1 <1>  -0.5700 
 18 C       -6.7760    -1.6500     0.2550 C.3   1 <1>  -0.0990 
 19 C       -8.1120    -2.0050    -0.4140 C.3   1 <1>   0.0960 
 20 N       -8.3470    -3.4580    -0.3420 N.pl3 1 <1>   0.0480 
 21 C       -8.8780    -4.1670     0.6550 C.2   1 <1>   0.0360 
 22 C       -8.0570    -4.3960    -1.2440 C.2   1 <1>   0.0370 
 23 N       -8.9050    -5.4260     0.3860 N.2   1 <1>  -0.3380 
 24 N       -8.3780    -5.5730    -0.8320 N.2   1 <1>  -0.3380 
 25 H        0.2980     2.4790     1.1410 H     1 <1>   0.0800 
 26 H       -2.2470    -1.1590     0.9930 H     1 <1>   0.0800 
 27 H       -3.2480    -1.1250    -0.4160 H     1 <1>   0.0800 
 28 H       -3.4750     0.6450    -1.7030 H     1 <1>   0.0800 
 29 H       -2.4780     2.0450    -1.5790 H     1 <1>   0.0800 
 30 H       -1.4930     4.0650     1.2700 H     1 <1>   0.0800 
 31 H       -1.9260     3.7990    -0.3900 H     1 <1>   0.0800 
 32 H       -0.3700     1.8760    -1.7310 H     1 <1>   0.0800 
 33 H        0.9070     1.1980    -0.7770 H     1 <1>   0.0800 
 34 H       -3.9450    -0.0150     2.3070 H     1 <1>   0.0800 
 35 H       -4.5800    -1.4640     1.6100 H     1 <1>   0.0800 
 36 H       -5.1000     2.2010    -1.3630 H     1 <1>   0.0800 
 37 H       -4.0860     3.2570    -0.4680 H     1 <1>   0.0800 
 38 H        0.7050     4.9540     0.5430 H     1 <1>   0.0800 
 39 H       -0.5730     5.7820    -0.3270 H     1 <1>   0.0800 
 40 H        1.6340     3.0820    -2.2950 H     1 <1>   0.0800 
 41 H        2.0010     3.3950    -0.6100 H     1 <1>   0.0800 
 42 H       -5.9670     2.3360     0.8520 H     1 <1>   0.0800 
 43 H       -4.4100     2.0450     1.5640 H     1 <1>   0.0800 
 44 H       -6.8070    -1.9530     1.2850 H     1 <1>   0.0800 
 45 H       -5.9800    -2.1690    -0.2460 H     1 <1>   0.0800 
 46 H       -8.1020    -1.7020    -1.4460 H     1 <1>   0.0800 
 47 H       -8.9210    -1.4950     0.0810 H     1 <1>   0.0800 
 48 H       -9.2360    -3.7280     1.5680 H     1 <1>   0.1500 
 49 H       -7.6080    -4.1820    -2.1970 H     1 <1>   0.1500 
@<TRIPOS>BOND
  1   1   2  2   
  2   2   3  am  
  3   2   4  1   
  4   3   5  1   
  5   3   6  1   
  6   4   7  1   
  7   4   8  1   
  8   4  25  1   
  9   5   9  1   
 10   5  26  1   
 11   5  27  1   
 12   6  10  1   
 13   6  28  1   
 14   6  29  1   
 15   7  11  1   
 16   7  30  1   
 17   7  31  1   
 18   8  12  1   
 19   8  32  1   
 20   8  33  1   
 21   9  13  1   
 22   9  34  1   
 23   9  35  1   
 24  10  14  1   
 25  10  36  1   
 26  10  37  1   
 27  11  15  1   
 28  11  38  1   
 29  11  39  1   
 30  12  15  1   
 31  12  40  1   
 32  12  41  1   
 33  13  14  1   
 34  13  16  am  
 35  14  42  1   
 36  14  43  1   
 37  16  17  2   
 38  16  18  1   
 39  18  19  1   
 40  18  44  1   
 41  18  45  1   
 42  19  20  1   
 43  19  46  1   
 44  19  47  1   
 45  20  21  1   
 46  20  22  1   
 47  21  23  2   
 48  21  48  1   
 49  22  24  2   
 50  22  49  1   
 51  23  24  1   
@<TRIPOS>SUBSTRUCTURE
  1 ****  13 GROUP 4 **** **** 0

# MOE 2024.06 (io_trps.svl 2023.06)
