@<TRIPOS>MOLECULE
NONAME
50 51 1 0 0 
SMALL
USER_CHARGES


@<TRIPOS>ATOM
  1 S        0.9000    -0.1890    -1.2530 S.3   1 <1>  -0.0800 
  2 C        1.5760     1.0770    -0.2200 C.2   1 <1>  -0.0450 
  3 C        0.9610    -1.3760     0.0310 C.2   1 <1>  -0.1100 
  4 C        1.7800     2.3950    -0.7670 C.2   1 <1>   0.7150 
  5 C        1.8060     0.5490     1.0120 C.2   1 <1>  -0.1500 
  6 C        1.4610    -0.8280     1.1530 C.2   1 <1>  -0.1500 
  7 O        1.5030     2.6600    -1.9210 O.2   1 <1>  -0.5700 
  8 N        2.2990     3.3650     0.0400 N.am  1 <1>  -0.7300 
  9 C        2.6650     4.7810    -0.2140 C.3   1 <1>   0.3610 
 10 C        3.2840     5.3660     1.1050 C.2   1 <1>   0.5690 
 11 C        3.7030     4.7950    -1.3480 C.3   1 <1>  -0.2400 
 12 C        1.3790     5.5210    -0.6190 C.3   1 <1>  -0.2400 
 13 O        3.4660     4.6050     2.0300 O.2   1 <1>  -0.5700 
 14 N        3.6400     6.6630     1.2990 N.am  1 <1>  -0.7300 
 15 C        3.5970     7.8700     0.4610 C.3   1 <1>   0.4000 
 16 C        4.9280     8.5920     0.6590 C.2   1 <1>   0.0060 
 17 C        2.3840     8.7120     0.8960 C.3   1 <1>  -0.1600 
 18 N        5.3330     9.0940     1.7750 N.2   1 <1>  -0.5650 
 19 N        5.8430     8.7660    -0.3060 N.pl3 1 <1>   0.3140 
 20 C        1.8930     9.7330    -0.1510 C.3   1 <1>  -0.0800 
 21 C        6.5280     9.5860     1.4320 C.2   1 <1>   0.3660 
 22 N        6.8760     9.4160     0.2000 N.2   1 <1>  -0.7070 
 23 C        5.8310     8.3460    -1.7160 C.3   1 <1>   0.0160 
 24 C        2.8870    10.8800    -0.3780 C.3   1 <1>  -0.2400 
 25 C        0.5520    10.3220     0.3050 C.3   1 <1>  -0.2400 
 26 H        0.6120    -2.3690    -0.1920 H     1 <1>   0.1500 
 27 H        2.2170     1.0900     1.8460 H     1 <1>   0.1500 
 28 H        1.6040    -1.3430     2.0870 H     1 <1>   0.1500 
 29 H        2.5570     3.1030     0.9960 H     1 <1>   0.3700 
 30 H        4.5530     4.1980    -1.0720 H     1 <1>   0.0800 
 31 H        4.0430     5.7880    -1.5520 H     1 <1>   0.0800 
 32 H        3.2840     4.4030    -2.2580 H     1 <1>   0.0800 
 33 H        0.6780     5.5100     0.1960 H     1 <1>   0.0800 
 34 H        0.9220     5.0600    -1.4750 H     1 <1>   0.0800 
 35 H        1.5780     6.5400    -0.8810 H     1 <1>   0.0800 
 36 H        4.0730     6.8650     2.2060 H     1 <1>   0.3700 
 37 H        3.4780     7.5950    -0.5680 H     1 <1>   0.0800 
 38 H        2.6130     9.2210     1.8170 H     1 <1>   0.0800 
 39 H        1.5700     8.0400     1.1010 H     1 <1>   0.0800 
 40 H        1.7270     9.2290    -1.0890 H     1 <1>   0.0800 
 41 H        7.1460    10.0900     2.1570 H     1 <1>   0.1500 
 42 H        4.8930     8.6090    -2.1660 H     1 <1>   0.0800 
 43 H        5.9870     7.2850    -1.7690 H     1 <1>   0.0800 
 44 H        6.6270     8.8470    -2.2370 H     1 <1>   0.0800 
 45 H        3.1570    11.3370     0.5590 H     1 <1>   0.0800 
 46 H        2.4520    11.6340    -1.0100 H     1 <1>   0.0800 
 47 H        3.7810    10.5340    -0.8590 H     1 <1>   0.0800 
 48 H        0.6660    10.8430     1.2400 H     1 <1>   0.0800 
 49 H       -0.1800     9.5440     0.4330 H     1 <1>   0.0800 
 50 H        0.1770    11.0150    -0.4280 H     1 <1>   0.0800 
@<TRIPOS>BOND
  1   1   2  1   
  2   1   3  1   
  3   2   4  1   
  4   2   5  2   
  5   3   6  2   
  6   3  26  1   
  7   4   7  2   
  8   4   8  am  
  9   5   6  1   
 10   5  27  1   
 11   6  28  1   
 12   8   9  1   
 13   8  29  1   
 14   9  10  1   
 15   9  11  1   
 16   9  12  1   
 17  10  13  2   
 18  10  14  am  
 19  11  30  1   
 20  11  31  1   
 21  11  32  1   
 22  12  33  1   
 23  12  34  1   
 24  12  35  1   
 25  14  15  1   
 26  14  36  1   
 27  15  16  1   
 28  15  17  1   
 29  15  37  1   
 30  16  18  2   
 31  16  19  1   
 32  17  20  1   
 33  17  38  1   
 34  17  39  1   
 35  18  21  1   
 36  19  22  1   
 37  19  23  1   
 38  20  24  1   
 39  20  25  1   
 40  20  40  1   
 41  21  22  2   
 42  21  41  1   
 43  23  42  1   
 44  23  43  1   
 45  23  44  1   
 46  24  45  1   
 47  24  46  1   
 48  24  47  1   
 49  25  48  1   
 50  25  49  1   
 51  25  50  1   
@<TRIPOS>SUBSTRUCTURE
  1 ****   9 GROUP 4 **** **** 0

# MOE 2024.06 (io_trps.svl 2023.06)
