@<TRIPOS>MOLECULE
NONAME
63 67 1 0 0 
SMALL
USER_CHARGES


@<TRIPOS>ATOM
  1 O        0.9760    -1.7070     1.3930 O.co2 1 <1>  -0.9000 
  2 C        0.1980    -2.5840     1.8140 C.2   1 <1>   0.9060 
  3 O        0.1540    -2.8740     3.0150 O.co2 1 <1>  -0.9000 
  4 C       -0.6010    -3.4280     0.8020 C.3   1 <1>   0.0940 
  5 O       -2.0170    -3.2940     0.8970 O.3   1 <1>  -0.5600 
  6 C       -0.2020    -3.1020    -0.6470 C.3   1 <1>   0.2000 
  7 C       -2.7490    -4.1920     0.1170 C.3   1 <1>   0.4800 
  8 O        1.1750    -3.1830    -0.8230 O.3   1 <1>  -0.6800 
  9 C       -0.9030    -4.0820    -1.5880 C.3   1 <1>   0.2000 
 10 O       -4.0840    -3.8990     0.3760 O.3   1 <1>  -0.5600 
 11 C       -2.4190    -4.0060    -1.3860 C.3   1 <1>   0.2000 
 12 O       -0.5560    -3.8190    -2.9120 O.3   1 <1>  -0.6800 
 13 C       -4.9290    -5.0060     0.3830 C.3   1 <1>   0.2000 
 14 O       -3.0180    -4.9650    -2.2130 O.3   1 <1>  -0.6800 
 15 C       -6.4110    -4.6020     0.2520 C.3   1 <1>   0.0000 
 16 C       -4.8420    -5.7590     1.7250 C.3   1 <1>  -0.1600 
 17 C       -7.0780    -5.8690     0.8050 C.3   1 <1>  -0.0800 
 18 C       -6.9040    -4.3960    -1.1910 C.3   1 <1>  -0.1600 
 19 C       -6.7020    -3.3230     1.0900 C.3   1 <1>  -0.2400 
 20 C       -6.2810    -6.1910     2.0720 C.3   1 <1>  -0.1600 
 21 C       -8.6110    -5.7540     0.8610 C.3   1 <1>  -0.0800 
 22 C       -8.4480    -4.3410    -1.2710 C.3   1 <1>  -0.1600 
 23 C       -9.1470    -5.5410    -0.5780 C.3   1 <1>   0.0630 
 24 C       -9.2740    -6.9950     1.4670 C.3   1 <1>  -0.1600 
 25 C      -10.6850    -5.4790    -0.5890 C.ar  1 <1>  -0.1430 
 26 C      -10.7740    -6.7420     1.6440 C.3   1 <1>  -0.0170 
 27 C      -11.4250    -6.0590     0.4460 C.ar  1 <1>  -0.1430 
 28 C      -11.3690    -4.8810    -1.6440 C.ar  1 <1>  -0.1500 
 29 C      -12.8110    -6.0160     0.4160 C.ar  1 <1>  -0.1500 
 30 C      -12.7510    -4.8410    -1.6690 C.ar  1 <1>  -0.1500 
 31 C      -13.4690    -5.4080    -0.6370 C.ar  1 <1>   0.0830 
 32 O      -14.8100    -5.3660    -0.6660 O.3   1 <1>  -0.5330 
 33 H       -0.3640    -4.4520     1.0200 H     1 <1>   0.0800 
 34 H       -0.4940    -2.0890    -0.8640 H     1 <1>   0.0800 
 35 H       -2.5150    -5.1880     0.4520 H     1 <1>   0.0800 
 36 H        1.5560    -2.5790    -0.1220 H     1 <1>   0.4000 
 37 H       -0.5670    -5.0770    -1.3530 H     1 <1>   0.0800 
 38 H       -2.7730    -3.0370    -1.6900 H     1 <1>   0.0800 
 39 H        0.4000    -3.5860    -2.9030 H     1 <1>   0.4000 
 40 H       -4.6700    -5.6630    -0.4290 H     1 <1>   0.0800 
 41 H       -2.6050    -4.8710    -3.0990 H     1 <1>   0.4000 
 42 H       -4.2030    -6.6170     1.6230 H     1 <1>   0.0800 
 43 H       -4.4570    -5.1130     2.4960 H     1 <1>   0.0800 
 44 H       -6.8610    -6.6740     0.1200 H     1 <1>   0.0800 
 45 H       -6.4810    -3.4900    -1.5900 H     1 <1>   0.0800 
 46 H       -6.5530    -5.2070    -1.8050 H     1 <1>   0.0800 
 47 H       -7.7440    -3.0780     1.1270 H     1 <1>   0.0800 
 48 H       -6.1900    -2.4830     0.6540 H     1 <1>   0.0800 
 49 H       -6.3450    -3.4230     2.0980 H     1 <1>   0.0800 
 50 H       -6.6510    -5.6140     2.9020 H     1 <1>   0.0800 
 51 H       -6.3330    -7.2370     2.3180 H     1 <1>   0.0800 
 52 H       -8.8840    -4.9110     1.4690 H     1 <1>   0.0800 
 53 H       -8.7090    -4.3220    -2.3130 H     1 <1>   0.0800 
 54 H       -8.8060    -3.4270    -0.8330 H     1 <1>   0.0800 
 55 H       -8.8850    -6.4150    -1.1490 H     1 <1>   0.0800 
 56 H       -9.1240    -7.8410     0.8200 H     1 <1>   0.0800 
 57 H       -8.8460    -7.2240     2.4260 H     1 <1>   0.0800 
 58 H      -10.9180    -6.1090     2.5030 H     1 <1>   0.0800 
 59 H      -11.2660    -7.6780     1.8410 H     1 <1>   0.0800 
 60 H      -10.8460    -4.4390    -2.4690 H     1 <1>   0.1500 
 61 H      -13.3770    -6.4570     1.2150 H     1 <1>   0.1500 
 62 H      -13.2740    -4.3750    -2.4840 H     1 <1>   0.1500 
 63 H      -15.2170    -5.7920     0.1080 H     1 <1>   0.4500 
@<TRIPOS>BOND
  1   1   2  ar  
  2   2   3  ar  
  3   2   4  1   
  4   4   5  1   
  5   4   6  1   
  6   4  33  1   
  7   5   7  1   
  8   6   8  1   
  9   6   9  1   
 10   6  34  1   
 11   7  10  1   
 12   7  11  1   
 13   7  35  1   
 14   8  36  1   
 15   9  11  1   
 16   9  12  1   
 17   9  37  1   
 18  10  13  1   
 19  11  14  1   
 20  11  38  1   
 21  12  39  1   
 22  13  15  1   
 23  13  16  1   
 24  13  40  1   
 25  14  41  1   
 26  15  17  1   
 27  15  18  1   
 28  15  19  1   
 29  16  20  1   
 30  16  42  1   
 31  16  43  1   
 32  17  20  1   
 33  17  21  1   
 34  17  44  1   
 35  18  22  1   
 36  18  45  1   
 37  18  46  1   
 38  19  47  1   
 39  19  48  1   
 40  19  49  1   
 41  20  50  1   
 42  20  51  1   
 43  21  23  1   
 44  21  24  1   
 45  21  52  1   
 46  22  23  1   
 47  22  53  1   
 48  22  54  1   
 49  23  25  1   
 50  23  55  1   
 51  24  26  1   
 52  24  56  1   
 53  24  57  1   
 54  25  27  ar  
 55  25  28  ar  
 56  26  27  1   
 57  26  58  1   
 58  26  59  1   
 59  27  29  ar  
 60  28  30  ar  
 61  28  60  1   
 62  29  31  ar  
 63  29  61  1   
 64  30  31  ar  
 65  30  62  1   
 66  31  32  1   
 67  32  63  1   
@<TRIPOS>SUBSTRUCTURE
  1 ****  15 GROUP 4 **** **** 0

# MOE 2024.06 (io_trps.svl 2023.06)
