@<TRIPOS>MOLECULE
NONAME
43 45 1 0 0 
SMALL
USER_CHARGES


@<TRIPOS>ATOM
  1 F        1.4670    -0.4410     1.6730 F     1 <1>  -0.3400 
  2 C        1.1420    -0.7760     0.4270 C.3   1 <1>   0.7810 
  3 F       -0.0690    -0.2530     0.2460 F     1 <1>  -0.3400 
  4 C        1.0910    -2.3020     0.2720 C.2   1 <1>   0.1080 
  5 N        1.6310    -2.9600    -0.7220 N.2   1 <1>  -0.7070 
  6 C        0.4630    -3.1580     1.1620 C.2   1 <1>  -0.1500 
  7 N        1.3530    -4.2490    -0.4760 N.pl3 1 <1>   0.3140 
  8 C        0.6210    -4.4080     0.6520 C.2   1 <1>  -0.2370 
  9 C        1.8640    -5.3130    -1.3530 C.3   1 <1>   0.0160 
 10 C        0.1510    -5.6710     1.1340 C.2   1 <1>   0.7150 
 11 O        0.5100    -6.0510     2.2310 O.2   1 <1>  -0.5700 
 12 N       -0.6640    -6.4940     0.3780 N.am  1 <1>  -0.6600 
 13 C       -1.6860    -6.0310    -0.6210 C.3   1 <1>   0.2200 
 14 C       -0.5550    -7.9720     0.5720 C.3   1 <1>   0.0600 
 15 C       -2.9930    -6.8220    -0.5040 C.3   1 <1>  -0.1600 
 16 C       -2.1610    -4.5860    -0.4470 C.3   1 <1>  -0.1600 
 17 C       -4.0620    -5.9620    -1.1880 C.3   1 <1>  -0.0800 
 18 C       -3.5290    -4.5130    -1.1340 C.3   1 <1>  -0.0800 
 19 C       -5.4700    -6.1760    -0.5980 C.3   1 <1>   0.1400 
 20 C       -4.4840    -3.5010    -0.4690 C.3   1 <1>  -0.0990 
 21 N       -6.3340    -5.0300    -0.9480 N.am  1 <1>  -0.7300 
 22 C       -5.9130    -3.7490    -0.9010 C.2   1 <1>   0.5690 
 23 O       -6.6440    -2.8350    -1.1800 O.2   1 <1>  -0.5700 
 24 H        1.8270    -0.2970    -0.2470 H     1 <1>   0.0800 
 25 H       -0.0490    -2.8750     2.0660 H     1 <1>   0.1500 
 26 H        2.2810    -6.0990    -0.7530 H     1 <1>   0.0800 
 27 H        2.6270    -4.9070    -1.9910 H     1 <1>   0.0800 
 28 H        1.0600    -5.6950    -1.9520 H     1 <1>   0.0800 
 29 H       -1.2920    -6.1550    -1.6160 H     1 <1>   0.0800 
 30 H       -0.6130    -8.4770    -0.3760 H     1 <1>   0.0800 
 31 H       -1.3480    -8.3150     1.2130 H     1 <1>   0.0800 
 32 H        0.3850    -8.2230     1.0340 H     1 <1>   0.0800 
 33 H       -2.9220    -7.7890    -0.9680 H     1 <1>   0.0800 
 34 H       -3.2370    -6.9350     0.5390 H     1 <1>   0.0800 
 35 H       -2.2690    -4.3710     0.6020 H     1 <1>   0.0800 
 36 H       -1.4850    -3.8810    -0.8970 H     1 <1>   0.0800 
 37 H       -4.1020    -6.2490    -2.2260 H     1 <1>   0.0800 
 38 H       -3.3790    -4.1930    -2.1520 H     1 <1>   0.0800 
 39 H       -5.4200    -6.2450     0.4760 H     1 <1>   0.0800 
 40 H       -5.8970    -7.0870    -0.9810 H     1 <1>   0.0800 
 41 H       -4.1980    -2.4970    -0.7260 H     1 <1>   0.0800 
 42 H       -4.4510    -3.5960     0.6010 H     1 <1>   0.0800 
 43 H       -7.3100    -5.1990    -1.1990 H     1 <1>   0.3700 
@<TRIPOS>BOND
  1   1   2  1   
  2   2   3  1   
  3   2   4  1   
  4   2  24  1   
  5   4   5  2   
  6   4   6  1   
  7   5   7  1   
  8   6   8  2   
  9   6  25  1   
 10   7   8  1   
 11   7   9  1   
 12   8  10  1   
 13   9  26  1   
 14   9  27  1   
 15   9  28  1   
 16  10  11  2   
 17  10  12  am  
 18  12  13  1   
 19  12  14  1   
 20  13  15  1   
 21  13  16  1   
 22  13  29  1   
 23  14  30  1   
 24  14  31  1   
 25  14  32  1   
 26  15  17  1   
 27  15  33  1   
 28  15  34  1   
 29  16  18  1   
 30  16  35  1   
 31  16  36  1   
 32  17  18  1   
 33  17  19  1   
 34  17  37  1   
 35  18  20  1   
 36  18  38  1   
 37  19  21  1   
 38  19  39  1   
 39  19  40  1   
 40  20  22  1   
 41  20  41  1   
 42  20  42  1   
 43  21  22  am  
 44  21  43  1   
 45  22  23  2   
@<TRIPOS>SUBSTRUCTURE
  1 ****  16 GROUP 4 **** **** 0

# MOE 2024.06 (io_trps.svl 2023.06)
