@<TRIPOS>MOLECULE
NONAME
47 49 1 0 0 
SMALL
USER_CHARGES


@<TRIPOS>ATOM
  1 O       -0.5740     2.8160    -1.6700 O.co2 1 <1>  -0.9000 
  2 C       -0.7210     1.6550    -1.2440 C.2   1 <1>   0.9060 
  3 O        0.2340     0.8680    -1.3540 O.co2 1 <1>  -0.9000 
  4 C       -2.0140     1.2560    -0.4030 C.3   1 <1>   0.2630 
  5 N       -2.0350     1.8040     1.0220 N.pl3 1 <1>  -0.8690 
  6 C       -2.1770    -0.2770    -0.2610 C.3   1 <1>  -0.1600 
  7 C       -3.2520     1.8450    -1.1150 C.3   1 <1>  -0.1600 
  8 C       -0.9400     2.4500     1.4280 C.ar  1 <1>   0.4100 
  9 C       -3.0160    -0.8480    -1.4070 C.3   1 <1>   0.1200 
 10 C       -4.5000     0.9860    -0.8940 C.3   1 <1>   0.1200 
 11 N       -1.0170     3.7560     1.3880 N.ar  1 <1>  -0.6200 
 12 C        0.2780     1.7570     1.5140 C.ar  1 <1>  -0.1500 
 13 O       -4.3130    -0.3090    -1.4000 O.3   1 <1>  -0.5600 
 14 C        0.0420     4.3210     0.8170 C.ar  1 <1>   0.7710 
 15 C        1.3810     2.3940     1.0580 C.ar  1 <1>   0.2180 
 16 N        1.2090     3.6710     0.6440 N.ar  1 <1>  -0.1790 
 17 N       -0.0410     5.5930     0.3700 N.pl3 1 <1>  -0.8380 
 18 C        2.7420     1.7400     0.9230 C.3   1 <1>  -0.0970 
 19 C        0.2440     5.8790    -1.0680 C.3   1 <1>   0.2090 
 20 C       -1.0210     6.5470     0.9580 C.3   1 <1>   0.2090 
 21 C        0.8360     7.2860    -1.1970 C.3   1 <1>  -0.1600 
 22 C       -0.4620     7.9700     0.8610 C.3   1 <1>  -0.1600 
 23 C       -0.0950     8.3420    -0.5840 C.3   1 <1>  -0.1600 
 24 H       -2.9050     2.3080     1.1930 H     1 <1>   0.4000 
 25 H       -2.6690    -0.5250     0.6630 H     1 <1>   0.0800 
 26 H       -1.2170    -0.7590    -0.2500 H     1 <1>   0.0800 
 27 H       -3.0730     1.8850    -2.1760 H     1 <1>   0.0800 
 28 H       -3.4170     2.8580    -0.7950 H     1 <1>   0.0800 
 29 H       -3.1050    -1.9160    -1.3200 H     1 <1>   0.0800 
 30 H       -2.5620    -0.6150    -2.3550 H     1 <1>   0.0800 
 31 H       -5.3510     1.4120    -1.3950 H     1 <1>   0.0800 
 32 H       -4.7190     0.9020     0.1560 H     1 <1>   0.0800 
 33 H        0.2710     0.7310     1.8300 H     1 <1>   0.1500 
 34 H        1.8980     4.1740     0.1060 H     1 <1>   0.4570 
 35 H        2.7110     0.7370     1.3110 H     1 <1>   0.0800 
 36 H        3.4880     2.2970     1.4600 H     1 <1>   0.0800 
 37 H        3.0110     1.6840    -0.1170 H     1 <1>   0.0800 
 38 H       -0.6780     5.8180    -1.6240 H     1 <1>   0.0800 
 39 H        0.9130     5.1500    -1.4920 H     1 <1>   0.0800 
 40 H       -1.2070     6.3010     1.9910 H     1 <1>   0.0800 
 41 H       -1.9530     6.4760     0.4210 H     1 <1>   0.0800 
 42 H        0.9950     7.5070    -2.2380 H     1 <1>   0.0800 
 43 H        1.7920     7.3130    -0.7050 H     1 <1>   0.0800 
 44 H        0.4100     8.0430     1.4870 H     1 <1>   0.0800 
 45 H       -1.1930     8.6640     1.2370 H     1 <1>   0.0800 
 46 H       -0.9950     8.4040    -1.1730 H     1 <1>   0.0800 
 47 H        0.3810     9.3070    -0.6040 H     1 <1>   0.0800 
@<TRIPOS>BOND
  1   1   2  ar  
  2   2   3  ar  
  3   2   4  1   
  4   4   5  1   
  5   4   6  1   
  6   4   7  1   
  7   5   8  1   
  8   5  24  1   
  9   6   9  1   
 10   6  25  1   
 11   6  26  1   
 12   7  10  1   
 13   7  27  1   
 14   7  28  1   
 15   8  11  ar  
 16   8  12  ar  
 17   9  13  1   
 18   9  29  1   
 19   9  30  1   
 20  10  13  1   
 21  10  31  1   
 22  10  32  1   
 23  11  14  ar  
 24  12  15  ar  
 25  12  33  1   
 26  14  16  ar  
 27  14  17  1   
 28  15  16  ar  
 29  15  18  1   
 30  16  34  1   
 31  17  19  1   
 32  17  20  1   
 33  18  35  1   
 34  18  36  1   
 35  18  37  1   
 36  19  21  1   
 37  19  38  1   
 38  19  39  1   
 39  20  22  1   
 40  20  40  1   
 41  20  41  1   
 42  21  23  1   
 43  21  42  1   
 44  21  43  1   
 45  22  23  1   
 46  22  44  1   
 47  22  45  1   
 48  23  46  1   
 49  23  47  1   
@<TRIPOS>SUBSTRUCTURE
  1 ****  11 GROUP 4 **** **** 0

# MOE 2024.06 (io_trps.svl 2023.06)
