@<TRIPOS>MOLECULE
NONAME
52 55 1 0 0 
SMALL
USER_CHARGES


@<TRIPOS>ATOM
  1 O       -0.3580     0.9620    -1.7860 O.2   1 <1>  -0.5700 
  2 C       -1.1910     1.3240    -0.9780 C.2   1 <1>   0.5440 
  3 N       -2.0410     0.3960    -0.4200 N.am  1 <1>  -0.6600 
  4 C       -1.2520     2.7160    -0.6150 C.ar  1 <1>   0.0860 
  5 C       -1.8070    -1.0840    -0.6350 C.3   1 <1>   0.1400 
  6 C       -3.2200     0.7540     0.4350 C.3   1 <1>   0.1400 
  7 C       -0.8260     3.1740     0.6340 C.ar  1 <1>   0.0000 
  8 C       -1.7290     3.6970    -1.4650 C.ar  1 <1>  -0.1500 
  9 C       -2.8180    -1.9730     0.2200 C.3   1 <1>  -0.1060 
 10 C       -4.4620    -0.0040    -0.0380 C.3   1 <1>  -0.1600 
 11 C       -0.9370     4.5110     0.9180 C.ar  1 <1>   0.3970 
 12 C       -0.2560     2.6560     1.8120 C.2   1 <1>   0.1080 
 13 C       -1.7890     5.0340    -1.0640 C.ar  1 <1>   0.1660 
 14 C       -3.7970    -2.7750     1.1010 C.2   1 <1>   0.9060 
 15 C       -4.0460    -1.3520    -0.6250 C.3   1 <1>   0.2000 
 16 C       -1.6040    -2.6450     1.0270 C.3   1 <1>  -0.0170 
 17 O       -0.4830     4.7010     2.1450 O.3   1 <1>  -0.0190 
 18 N       -1.4100     5.4680     0.1170 N.ar  1 <1>  -0.5670 
 19 N       -0.0700     3.5750     2.6820 N.2   1 <1>  -0.4100 
 20 C        0.1090     1.2030     2.0410 C.3   1 <1>  -0.0590 
 21 C       -2.3190     6.0820    -2.0210 C.3   1 <1>  -0.0970 
 22 O       -4.2360    -3.8750     0.7290 O.co2 1 <1>  -0.9000 
 23 O       -4.1320    -2.2860     2.1880 O.co2 1 <1>  -0.9000 
 24 O       -5.1970    -2.1080    -0.8610 O.3   1 <1>  -0.6800 
 25 C       -0.6960    -3.5350     0.1680 C.ar  1 <1>  -0.1440 
 26 C       -1.2390    -4.5520    -0.6020 C.ar  1 <1>  -0.1500 
 27 C        0.6780    -3.3390     0.1540 C.ar  1 <1>  -0.1500 
 28 C       -0.4250    -5.3530    -1.3840 C.ar  1 <1>  -0.1500 
 29 C        1.4940    -4.1380    -0.6280 C.ar  1 <1>  -0.1500 
 30 C        0.9430    -5.1460    -1.3990 C.ar  1 <1>  -0.1500 
 31 H       -1.8670    -1.3190    -1.6850 H     1 <1>   0.0800 
 32 H       -0.7570    -1.2110    -0.4400 H     1 <1>   0.0800 
 33 H       -3.0080     0.4630     1.4510 H     1 <1>   0.0800 
 34 H       -3.4160     1.8110     0.4240 H     1 <1>   0.0800 
 35 H       -2.0560     3.4150    -2.4490 H     1 <1>   0.1500 
 36 H       -4.9790     0.5670    -0.7860 H     1 <1>   0.0800 
 37 H       -5.1200    -0.1520     0.8010 H     1 <1>   0.0800 
 38 H       -3.7660    -1.1370    -1.6420 H     1 <1>   0.0800 
 39 H       -1.0260    -1.8700     1.5030 H     1 <1>   0.0800 
 40 H       -1.8410    -3.2800     1.8720 H     1 <1>   0.0800 
 41 H        0.6240     0.8080     1.1840 H     1 <1>   0.0800 
 42 H       -0.7780     0.6230     2.2170 H     1 <1>   0.0800 
 43 H        0.7510     1.1170     2.8990 H     1 <1>   0.0800 
 44 H       -2.6010     5.6460    -2.9610 H     1 <1>   0.0800 
 45 H       -1.5620     6.8240    -2.1960 H     1 <1>   0.0800 
 46 H       -3.1780     6.5620    -1.5890 H     1 <1>   0.0800 
 47 H       -5.1210    -2.9450    -0.3100 H     1 <1>   0.4000 
 48 H       -2.3030    -4.7240    -0.5920 H     1 <1>   0.1500 
 49 H        1.1170    -2.5600     0.7500 H     1 <1>   0.1500 
 50 H       -0.8640    -6.1350    -1.9770 H     1 <1>   0.1500 
 51 H        2.5570    -3.9760    -0.6350 H     1 <1>   0.1500 
 52 H        1.5740    -5.7680    -2.0080 H     1 <1>   0.1500 
@<TRIPOS>BOND
  1   1   2  2   
  2   2   3  am  
  3   2   4  1   
  4   3   5  1   
  5   3   6  1   
  6   4   7  ar  
  7   4   8  ar  
  8   5   9  1   
  9   5  31  1   
 10   5  32  1   
 11   6  10  1   
 12   6  33  1   
 13   6  34  1   
 14   7  11  ar  
 15   7  12  1   
 16   8  13  ar  
 17   8  35  1   
 18   9  14  1   
 19   9  15  1   
 20   9  16  1   
 21  10  15  1   
 22  10  36  1   
 23  10  37  1   
 24  11  17  1   
 25  11  18  ar  
 26  12  19  2   
 27  12  20  1   
 28  13  18  ar  
 29  13  21  1   
 30  14  22  ar  
 31  14  23  ar  
 32  15  24  1   
 33  15  38  1   
 34  16  25  1   
 35  16  39  1   
 36  16  40  1   
 37  17  19  1   
 38  20  41  1   
 39  20  42  1   
 40  20  43  1   
 41  21  44  1   
 42  21  45  1   
 43  21  46  1   
 44  24  47  1   
 45  25  26  ar  
 46  25  27  ar  
 47  26  28  ar  
 48  26  48  1   
 49  27  29  ar  
 50  27  49  1   
 51  28  30  ar  
 52  28  50  1   
 53  29  30  ar  
 54  29  51  1   
 55  30  52  1   
@<TRIPOS>SUBSTRUCTURE
  1 ****   3 GROUP 4 **** **** 0

# MOE 2024.06 (io_trps.svl 2023.06)
