@<TRIPOS>MOLECULE
NONAME
46 48 1 0 0 
SMALL
USER_CHARGES


@<TRIPOS>ATOM
  1 CL      -1.5910    -0.7900     1.4470 Cl    1 <1>  -0.1770 
  2 C       -2.2910     0.4160     0.3930 C.ar  1 <1>   0.1770 
  3 C       -3.1500     0.0510    -0.6510 C.ar  1 <1>   0.0860 
  4 C       -1.9470     1.7320     0.6420 C.ar  1 <1>  -0.1500 
  5 C       -3.5350    -1.3200    -0.9220 C.2   1 <1>   0.5440 
  6 C       -3.6390     1.0810    -1.4640 C.ar  1 <1>  -0.1500 
  7 C       -2.4680     2.7080    -0.1810 C.ar  1 <1>   0.1900 
  8 O       -3.6000    -1.7170    -2.0680 O.2   1 <1>  -0.5700 
  9 N       -3.9290    -2.2000     0.0600 N.am  1 <1>  -0.6600 
 10 C       -3.3080     2.4060    -1.2350 C.ar  1 <1>  -0.1500 
 11 F       -2.1560     3.9530     0.0410 F     1 <1>  -0.1900 
 12 C       -4.8600    -1.8070     1.1550 C.3   1 <1>   0.1400 
 13 C       -3.8590    -3.6710    -0.1730 C.3   1 <1>   0.1400 
 14 C       -6.2780    -2.3780     0.9030 C.3   1 <1>   0.4230 
 15 C       -5.2630    -4.2220    -0.4690 C.3   1 <1>   0.3430 
 16 N       -6.2570    -3.8740     0.6220 N.4   1 <1>  -0.9590 
 17 C       -6.9730    -1.6160    -0.2500 C.3   1 <1>   0.1200 
 18 C       -7.6570    -4.3380     0.3190 C.3   1 <1>   0.4230 
 19 O       -8.2590    -2.1240    -0.4590 O.3   1 <1>  -0.5600 
 20 C       -8.3080    -3.4830    -0.7950 C.3   1 <1>   0.1200 
 21 C       -7.6740    -5.8440     0.0050 C.3   1 <1>  -0.1600 
 22 C       -9.0890    -6.4390     0.0670 C.3   1 <1>  -0.1600 
 23 C       -9.0550    -7.9510    -0.1680 C.3   1 <1>  -0.2400 
 24 H       -1.2870     1.9920     1.4500 H     1 <1>   0.1500 
 25 H       -4.2840     0.8340    -2.2920 H     1 <1>   0.1500 
 26 H       -3.6880     3.1940    -1.8620 H     1 <1>   0.1500 
 27 H       -4.4800    -2.1790     2.0910 H     1 <1>   0.0800 
 28 H       -4.9140    -0.7340     1.2340 H     1 <1>   0.0800 
 29 H       -3.2080    -3.8840    -1.0060 H     1 <1>   0.0800 
 30 H       -3.4420    -4.1540     0.6930 H     1 <1>   0.0800 
 31 H       -6.8620    -2.1980     1.7900 H     1 <1>   0.0800 
 32 H       -5.1980    -5.2910    -0.5840 H     1 <1>   0.0800 
 33 H       -5.5910    -3.8090    -1.4090 H     1 <1>   0.0800 
 34 H       -5.9530    -4.3460     1.4810 H     1 <1>   0.4500 
 35 H       -6.4160    -1.6900    -1.1690 H     1 <1>   0.0800 
 36 H       -7.0760    -0.5740     0.0010 H     1 <1>   0.0800 
 37 H       -8.2540    -4.1940     1.2050 H     1 <1>   0.0800 
 38 H       -9.3460    -3.7420    -0.9090 H     1 <1>   0.0800 
 39 H       -7.8170    -3.6250    -1.7420 H     1 <1>   0.0800 
 40 H       -7.2710    -6.0250    -0.9760 H     1 <1>   0.0800 
 41 H       -7.0670    -6.3610     0.7280 H     1 <1>   0.0800 
 42 H       -9.5300    -6.2480     1.0320 H     1 <1>   0.0800 
 43 H       -9.7220    -5.9930    -0.6810 H     1 <1>   0.0800 
 44 H       -8.4620    -8.4430     0.5830 H     1 <1>   0.0800 
 45 H       -8.6460    -8.1790    -1.1370 H     1 <1>   0.0800 
 46 H      -10.0530    -8.3520    -0.1230 H     1 <1>   0.0800 
@<TRIPOS>BOND
  1   1   2  1   
  2   2   3  ar  
  3   2   4  ar  
  4   3   5  1   
  5   3   6  ar  
  6   4   7  ar  
  7   4  24  1   
  8   5   8  2   
  9   5   9  am  
 10   6  10  ar  
 11   6  25  1   
 12   7  10  ar  
 13   7  11  1   
 14   9  12  1   
 15   9  13  1   
 16  10  26  1   
 17  12  14  1   
 18  12  27  1   
 19  12  28  1   
 20  13  15  1   
 21  13  29  1   
 22  13  30  1   
 23  14  16  1   
 24  14  17  1   
 25  14  31  1   
 26  15  16  1   
 27  15  32  1   
 28  15  33  1   
 29  16  18  1   
 30  16  34  1   
 31  17  19  1   
 32  17  35  1   
 33  17  36  1   
 34  18  20  1   
 35  18  21  1   
 36  18  37  1   
 37  19  20  1   
 38  20  38  1   
 39  20  39  1   
 40  21  22  1   
 41  21  40  1   
 42  21  41  1   
 43  22  23  1   
 44  22  42  1   
 45  22  43  1   
 46  23  44  1   
 47  23  45  1   
 48  23  46  1   
@<TRIPOS>SUBSTRUCTURE
  1 ****   9 GROUP 4 **** **** 0

# MOE 2024.06 (io_trps.svl 2023.06)
