@<TRIPOS>MOLECULE
NONAME
47 49 1 0 0 
SMALL
USER_CHARGES


@<TRIPOS>ATOM
  1 S        0.4840     0.5170    -1.6360 S.o2  1 <1>   1.3330 
  2 O        0.7810    -0.7640    -2.2380 O.2   1 <1>  -0.6500 
  3 O       -0.2980     1.4880    -2.3680 O.2   1 <1>  -0.6500 
  4 N       -0.3270     0.2250    -0.1710 N.am  1 <1>  -0.8490 
  5 C        2.0340     1.2640    -1.1270 C.3   1 <1>  -0.0550 
  6 C       -1.0250     1.4050     0.3510 C.3   1 <1>   0.1160 
  7 C       -1.2640    -0.8980    -0.2730 C.3   1 <1>   0.1160 
  8 C        2.9840     0.3030    -0.3800 C.3   1 <1>  -0.0800 
  9 C        4.3750     0.8560    -0.1140 C.3   1 <1>   0.2200 
 10 C        2.5180    -0.1280     1.0180 C.3   1 <1>   0.1200 
 11 N        4.3050     2.2600     0.3600 N.am  1 <1>  -0.7300 
 12 C        4.8040    -0.0250     1.0490 C.3   1 <1>   0.1200 
 13 O        3.6570    -0.1570     1.8310 O.3   1 <1>  -0.5600 
 14 C        4.5550     3.3670    -0.3960 C.2   1 <1>   0.5440 
 15 O        4.7650     3.2100    -1.5820 O.2   1 <1>  -0.5700 
 16 C        4.5570     4.6890     0.2100 C.ar  1 <1>   0.0860 
 17 C        5.4140     5.7080    -0.2080 C.ar  1 <1>  -0.1440 
 18 C        3.6860     4.9970     1.2620 C.ar  1 <1>  -0.1500 
 19 C        5.4220     6.9540     0.3870 C.ar  1 <1>   0.0860 
 20 C        6.4470     5.6540    -1.3250 C.3   1 <1>  -0.0170 
 21 C        3.6810     6.2440     1.8660 C.ar  1 <1>  -0.1500 
 22 C        6.3990     7.8050    -0.2170 C.2   1 <1>   0.4230 
 23 C        4.5500     7.2280     1.4320 C.ar  1 <1>  -0.1500 
 24 C        7.1120     7.0450    -1.3130 C.3   1 <1>  -0.0990 
 25 O        6.6640     8.9440     0.0600 O.2   1 <1>  -0.5700 
 26 H        2.5410     1.6110    -2.0060 H     1 <1>   0.0800 
 27 H        1.8310     2.1220    -0.5180 H     1 <1>   0.0800 
 28 H       -1.4410     1.1900     1.3200 H     1 <1>   0.0800 
 29 H       -1.8220     1.6970    -0.3150 H     1 <1>   0.0800 
 30 H       -0.3410     2.2290     0.4500 H     1 <1>   0.0800 
 31 H       -1.7540    -1.0640     0.6710 H     1 <1>   0.0800 
 32 H       -0.7350    -1.7980    -0.5380 H     1 <1>   0.0800 
 33 H       -2.0060    -0.6990    -1.0290 H     1 <1>   0.0800 
 34 H        3.0960    -0.5890    -0.9730 H     1 <1>   0.0800 
 35 H        5.0320     0.7690    -0.9640 H     1 <1>   0.0800 
 36 H        2.0700    -1.1070     1.0050 H     1 <1>   0.0800 
 37 H        1.8310     0.5790     1.4480 H     1 <1>   0.0800 
 38 H        4.1430     2.3410     1.3670 H     1 <1>   0.3700 
 39 H        5.5980     0.4050     1.6330 H     1 <1>   0.0800 
 40 H        5.0870    -1.0050     0.7060 H     1 <1>   0.0800 
 41 H        2.9950     4.2520     1.6120 H     1 <1>   0.1500 
 42 H        7.1680     4.8770    -1.1390 H     1 <1>   0.0800 
 43 H        5.9650     5.4740    -2.2720 H     1 <1>   0.0800 
 44 H        3.0000     6.4520     2.6740 H     1 <1>   0.1500 
 45 H        4.5630     8.2030     1.8880 H     1 <1>   0.1500 
 46 H        6.9800     7.5500    -2.2530 H     1 <1>   0.0800 
 47 H        8.1600     6.9740    -1.0830 H     1 <1>   0.0800 
@<TRIPOS>BOND
  1   1   2  2   
  2   1   3  2   
  3   1   4  am  
  4   1   5  1   
  5   4   6  1   
  6   4   7  1   
  7   5   8  1   
  8   5  26  1   
  9   5  27  1   
 10   6  28  1   
 11   6  29  1   
 12   6  30  1   
 13   7  31  1   
 14   7  32  1   
 15   7  33  1   
 16   8   9  1   
 17   8  10  1   
 18   8  34  1   
 19   9  11  1   
 20   9  12  1   
 21   9  35  1   
 22  10  13  1   
 23  10  36  1   
 24  10  37  1   
 25  11  14  am  
 26  11  38  1   
 27  12  13  1   
 28  12  39  1   
 29  12  40  1   
 30  14  15  2   
 31  14  16  1   
 32  16  17  ar  
 33  16  18  ar  
 34  17  19  ar  
 35  17  20  1   
 36  18  21  ar  
 37  18  41  1   
 38  19  22  1   
 39  19  23  ar  
 40  20  24  1   
 41  20  42  1   
 42  20  43  1   
 43  21  23  ar  
 44  21  44  1   
 45  22  24  1   
 46  22  25  2   
 47  23  45  1   
 48  24  46  1   
 49  24  47  1   
@<TRIPOS>SUBSTRUCTURE
  1 ****  14 GROUP 4 **** **** 0

# MOE 2024.06 (io_trps.svl 2023.06)
