@<TRIPOS>MOLECULE
NONAME
54 57 1 0 0 
SMALL
USER_CHARGES


@<TRIPOS>ATOM
  1 O        1.2890     2.6720     1.4230 O.2   1 <1>  -0.5700 
  2 C        0.6640     2.7890     0.3940 C.2   1 <1>   0.5770 
  3 N        1.3170     2.6170    -0.7980 N.am  1 <1>  -0.6600 
  4 C       -0.8000     3.2240     0.4260 C.3   1 <1>   0.0530 
  5 C        2.5630     1.7820    -0.8680 C.3   1 <1>   0.1400 
  6 C        1.1120     3.5270    -1.9530 C.3   1 <1>   0.1400 
  7 C       -1.0110     4.7400     0.6750 C.3   1 <1>   0.0000 
  8 C       -1.5770     2.9790     1.7500 C.3   1 <1>   0.0000 
  9 C        3.7840     2.4870    -0.2390 C.3   1 <1>   0.3430 
 10 C        1.8930     4.8320    -1.7280 C.3   1 <1>  -0.1600 
 11 C       -2.2610     4.3490     1.5050 C.3   1 <1>   0.0000 
 12 N        3.5580     3.9590    -0.0860 N.4   1 <1>  -0.9590 
 13 C        3.3820     4.6680    -1.3940 C.3   1 <1>   0.3430 
 14 C        4.5000     4.5880     0.9060 C.3   1 <1>   0.4230 
 15 C        4.1310     6.0400     1.2390 C.3   1 <1>   0.2090 
 16 C        5.9220     4.7100     0.3570 C.3   1 <1>  -0.1600 
 17 N        4.8610     6.8740     0.2500 N.pl3 1 <1>  -0.8380 
 18 C        6.0520     6.1220    -0.2220 C.3   1 <1>   0.2090 
 19 C        5.0560     8.2080     0.5980 C.ar  1 <1>   0.1000 
 20 C        4.3880     9.1990    -0.1080 C.ar  1 <1>  -0.1500 
 21 C        5.9000     8.5840     1.6400 C.ar  1 <1>  -0.1500 
 22 C        4.5530    10.5330     0.2140 C.ar  1 <1>  -0.1500 
 23 C        6.0680     9.9180     1.9650 C.ar  1 <1>  -0.1500 
 24 C        5.3940    10.8950     1.2520 C.ar  1 <1>  -0.1500 
 25 H       -1.3630     2.8750    -0.4240 H     1 <1>   0.0000 
 26 H        2.7790     1.5340    -1.8920 H     1 <1>   0.0800 
 27 H        2.3950     0.8530    -0.3480 H     1 <1>   0.0800 
 28 H        0.0650     3.7460    -2.0740 H     1 <1>   0.0800 
 29 H        1.4450     3.0450    -2.8580 H     1 <1>   0.0800 
 30 H       -1.2370     5.3010    -0.2150 H     1 <1>   0.0000 
 31 H       -0.2350     5.1820     1.2780 H     1 <1>   0.0000 
 32 H       -0.9610     2.9890     2.6330 H     1 <1>   0.0000 
 33 H       -2.2540     2.1450     1.7100 H     1 <1>   0.0000 
 34 H        4.6640     2.2940    -0.8280 H     1 <1>   0.0800 
 35 H        3.9400     2.0560     0.7370 H     1 <1>   0.0800 
 36 H        1.4200     5.4110    -0.9550 H     1 <1>   0.0800 
 37 H        1.8210     5.4150    -2.6290 H     1 <1>   0.0800 
 38 H       -3.1510     4.2690     0.9040 H     1 <1>   0.0000 
 39 H       -2.3930     4.9370     2.3970 H     1 <1>   0.0000 
 40 H        2.6240     3.9780     0.3630 H     1 <1>   0.4500 
 41 H        3.8160     5.6510    -1.3480 H     1 <1>   0.0800 
 42 H        3.8820     4.1260    -2.1800 H     1 <1>   0.0800 
 43 H        4.4920     4.0030     1.8120 H     1 <1>   0.0800 
 44 H        4.4720     6.2830     2.2310 H     1 <1>   0.0800 
 45 H        3.0710     6.2110     1.1810 H     1 <1>   0.0800 
 46 H        6.1740     3.9580    -0.3670 H     1 <1>   0.0800 
 47 H        6.6140     4.6290     1.1760 H     1 <1>   0.0800 
 48 H        6.0460     6.0970    -1.2980 H     1 <1>   0.0800 
 49 H        6.9650     6.5950     0.1040 H     1 <1>   0.0800 
 50 H        3.7370     8.9150    -0.9130 H     1 <1>   0.1500 
 51 H        6.4260     7.8340     2.1970 H     1 <1>   0.1500 
 52 H        4.0300    11.2910    -0.3420 H     1 <1>   0.1500 
 53 H        6.7230    10.2000     2.7710 H     1 <1>   0.1500 
 54 H        5.5240    11.9330     1.5040 H     1 <1>   0.1500 
@<TRIPOS>BOND
  1   1   2  2   
  2   2   3  am  
  3   2   4  1   
  4   3   5  1   
  5   3   6  1   
  6   4   7  1   
  7   4   8  1   
  8   4  25  1   
  9   5   9  1   
 10   5  26  1   
 11   5  27  1   
 12   6  10  1   
 13   6  28  1   
 14   6  29  1   
 15   7  11  1   
 16   7  30  1   
 17   7  31  1   
 18   8  11  1   
 19   8  32  1   
 20   8  33  1   
 21   9  12  1   
 22   9  34  1   
 23   9  35  1   
 24  10  13  1   
 25  10  36  1   
 26  10  37  1   
 27  11  38  1   
 28  11  39  1   
 29  12  13  1   
 30  12  14  1   
 31  12  40  1   
 32  13  41  1   
 33  13  42  1   
 34  14  15  1   
 35  14  16  1   
 36  14  43  1   
 37  15  17  1   
 38  15  44  1   
 39  15  45  1   
 40  16  18  1   
 41  16  46  1   
 42  16  47  1   
 43  17  18  1   
 44  17  19  1   
 45  18  48  1   
 46  18  49  1   
 47  19  20  ar  
 48  19  21  ar  
 49  20  22  ar  
 50  20  50  1   
 51  21  23  ar  
 52  21  51  1   
 53  22  24  ar  
 54  22  52  1   
 55  23  24  ar  
 56  23  53  1   
 57  24  54  1   
@<TRIPOS>SUBSTRUCTURE
  1 ****  15 GROUP 4 **** **** 0

# MOE 2024.06 (io_trps.svl 2023.06)
