@<TRIPOS>MOLECULE
NONAME
45 46 1 0 0 
SMALL
USER_CHARGES


@<TRIPOS>ATOM
  1 F       -0.0660    -1.3570    -1.6120 F     1 <1>  -0.1900 
  2 C       -0.7410    -2.3210    -1.0390 C.ar  1 <1>   0.1900 
  3 C       -0.1570    -3.5560    -0.7320 C.ar  1 <1>   0.0820 
  4 C       -2.0650    -2.0550    -0.7470 C.ar  1 <1>  -0.1500 
  5 O        1.1310    -3.9360    -0.9720 O.3   1 <1>  -0.3630 
  6 C       -0.9550    -4.5080    -0.1180 C.ar  1 <1>  -0.1500 
  7 C       -2.8300    -3.0280    -0.1320 C.ar  1 <1>  -0.1500 
  8 C        2.0480    -3.1370    -1.6850 C.3   1 <1>   0.0400 
  9 C       -2.2970    -4.2760     0.1940 C.ar  1 <1>   0.0530 
 10 C       -3.0830    -5.2940     0.8510 C.2   1 <1>   0.0870 
 11 O       -2.4940    -6.0830     1.7210 O.3   1 <1>  -0.0190 
 12 C       -4.3900    -5.6720     0.7990 C.2   1 <1>  -0.2330 
 13 N       -3.3100    -6.9470     2.2620 N.2   1 <1>  -0.4100 
 14 C       -4.4560    -6.7070     1.7310 C.2   1 <1>   0.3720 
 15 C       -5.4930    -5.2330    -0.0060 C.2   1 <1>   1.0330 
 16 N       -5.6120    -7.4060     2.0420 N.pl3 1 <1>  -0.8520 
 17 O       -5.3190    -4.4720    -0.9700 O.co2 1 <1>  -0.9000 
 18 O       -6.6530    -5.6250     0.2280 O.co2 1 <1>  -0.9000 
 19 C       -5.6130    -8.8220     1.6260 C.3   1 <1>   0.2090 
 20 C       -6.3010    -8.9320     0.2630 C.3   1 <1>  -0.1600 
 21 C       -6.2190   -10.3290    -0.3740 C.3   1 <1>   0.2800 
 22 O       -6.6730   -11.2350     0.5930 O.3   1 <1>  -0.5600 
 23 C       -7.1380   -10.3670    -1.6020 C.3   1 <1>  -0.2400 
 24 C       -4.7720   -10.6650    -0.7670 C.3   1 <1>  -0.2400 
 25 C       -6.7430   -12.5980     0.2920 C.3   1 <1>   0.0400 
 26 H       -2.4950    -1.1020    -0.9980 H     1 <1>   0.1500 
 27 H       -0.5220    -5.4610     0.1220 H     1 <1>   0.1500 
 28 H       -3.8630    -2.8240     0.0940 H     1 <1>   0.1500 
 29 H        2.9640    -3.6890    -1.7870 H     1 <1>   0.0800 
 30 H        2.2280    -2.2320    -1.1320 H     1 <1>   0.0800 
 31 H        1.6420    -2.9210    -2.6570 H     1 <1>   0.0800 
 32 H       -6.3780    -6.9120     1.5350 H     1 <1>   0.4000 
 33 H       -6.1460    -9.4050     2.3570 H     1 <1>   0.0800 
 34 H       -4.6020    -9.1860     1.5770 H     1 <1>   0.0800 
 35 H       -5.8590    -8.2200    -0.4110 H     1 <1>   0.0800 
 36 H       -7.3340    -8.6590     0.3830 H     1 <1>   0.0800 
 37 H       -8.1620   -10.2410    -1.3010 H     1 <1>   0.0800 
 38 H       -7.0320   -11.2870    -2.1450 H     1 <1>   0.0800 
 39 H       -6.8830    -9.5630    -2.2690 H     1 <1>   0.0800 
 40 H       -4.1610   -10.8000     0.1060 H     1 <1>   0.0800 
 41 H       -4.3580    -9.8620    -1.3490 H     1 <1>   0.0800 
 42 H       -4.7300   -11.5540    -1.3670 H     1 <1>   0.0800 
 43 H       -7.0980   -13.1080     1.1690 H     1 <1>   0.0800 
 44 H       -5.7660   -12.9680     0.0400 H     1 <1>   0.0800 
 45 H       -7.4360   -12.7590    -0.5130 H     1 <1>   0.0800 
@<TRIPOS>BOND
  1   1   2  1   
  2   2   3  ar  
  3   2   4  ar  
  4   3   5  1   
  5   3   6  ar  
  6   4   7  ar  
  7   4  26  1   
  8   5   8  1   
  9   6   9  ar  
 10   6  27  1   
 11   7   9  ar  
 12   7  28  1   
 13   8  29  1   
 14   8  30  1   
 15   8  31  1   
 16   9  10  1   
 17  10  11  1   
 18  10  12  2   
 19  11  13  1   
 20  12  14  1   
 21  12  15  1   
 22  13  14  2   
 23  14  16  1   
 24  15  17  ar  
 25  15  18  ar  
 26  16  19  1   
 27  16  32  1   
 28  19  20  1   
 29  19  33  1   
 30  19  34  1   
 31  20  21  1   
 32  20  35  1   
 33  20  36  1   
 34  21  22  1   
 35  21  23  1   
 36  21  24  1   
 37  22  25  1   
 38  23  37  1   
 39  23  38  1   
 40  23  39  1   
 41  24  40  1   
 42  24  41  1   
 43  24  42  1   
 44  25  43  1   
 45  25  44  1   
 46  25  45  1   
@<TRIPOS>SUBSTRUCTURE
  1 ****  12 GROUP 4 **** **** 0

# MOE 2024.06 (io_trps.svl 2023.06)
