@<TRIPOS>MOLECULE
NONAME
41 42 1 0 0 
SMALL
USER_CHARGES


@<TRIPOS>ATOM
  1 O       -1.1650    -0.1250    -1.3930 O.2   1 <1>  -0.5700 
  2 C       -1.8980     0.4730    -0.6240 C.2   1 <1>   0.6160 
  3 N       -3.0280    -0.1590    -0.1500 N.am  1 <1>  -0.6600 
  4 C       -1.5590     1.8250    -0.2430 C.2   1 <1>   0.0140 
  5 C       -3.5810    -1.3910    -0.7970 C.3   1 <1>   0.1400 
  6 C       -3.7070     0.1840     1.1320 C.3   1 <1>   0.1400 
  7 C       -2.4810     2.8420    -0.1990 C.2   1 <1>  -0.0410 
  8 C       -0.2070     2.1540     0.0900 C.2   1 <1>  -0.1500 
  9 C       -5.0880    -1.2150    -1.0470 C.3   1 <1>   0.2000 
 10 C       -5.2070     0.3860     0.8720 C.3   1 <1>  -0.1600 
 11 N       -2.1340     4.1160     0.1730 N.am  1 <1>  -0.5390 
 12 C        0.1280     3.4230     0.4540 C.2   1 <1>  -0.1360 
 13 O       -5.5860    -2.3710    -1.6210 O.3   1 <1>  -0.6800 
 14 C       -5.8650    -0.8860     0.2590 C.3   1 <1>  -0.1060 
 15 C       -0.8520     4.4500     0.5090 C.2   1 <1>   0.6160 
 16 C       -5.7510    -2.0740     1.2450 C.2   1 <1>   0.9060 
 17 C       -7.3790    -0.6340    -0.0010 C.3   1 <1>  -0.1600 
 18 O       -0.6140     5.5980     0.8390 O.2   1 <1>  -0.5700 
 19 O       -5.7770    -3.2340     0.8050 O.co2 1 <1>  -0.9000 
 20 O       -5.6420    -1.8540     2.4570 O.co2 1 <1>  -0.9000 
 21 C       -7.7330     0.4620    -1.0230 C.3   1 <1>  -0.1600 
 22 C       -9.2520     0.5970    -1.1660 C.3   1 <1>  -0.2400 
 23 H       -3.0900    -1.5740    -1.7360 H     1 <1>   0.0800 
 24 H       -3.4110    -2.2350    -0.1490 H     1 <1>   0.0800 
 25 H       -3.5590    -0.6220     1.8330 H     1 <1>   0.0800 
 26 H       -3.2880     1.0690     1.5730 H     1 <1>   0.0800 
 27 H       -3.5110     2.6610    -0.4630 H     1 <1>   0.1500 
 28 H        0.5250     1.3660     0.0380 H     1 <1>   0.1500 
 29 H       -5.2120    -0.4300    -1.7690 H     1 <1>   0.0800 
 30 H       -5.6890     0.6230     1.8040 H     1 <1>   0.0800 
 31 H       -5.3250     1.2290     0.2200 H     1 <1>   0.0800 
 32 H       -2.7980     4.8900     0.2160 H     1 <1>   0.3700 
 33 H        1.1310     3.7050     0.7100 H     1 <1>   0.1500 
 34 H       -5.7310    -3.0010    -0.8500 H     1 <1>   0.4000 
 35 H       -7.8160    -1.5610    -0.3340 H     1 <1>   0.0800 
 36 H       -7.8430    -0.3990     0.9420 H     1 <1>   0.0800 
 37 H       -7.3320     1.4090    -0.7150 H     1 <1>   0.0800 
 38 H       -7.3200     0.2120    -1.9850 H     1 <1>   0.0800 
 39 H       -9.6940     0.8630    -0.2220 H     1 <1>   0.0800 
 40 H       -9.6780    -0.3330    -1.4990 H     1 <1>   0.0800 
 41 H       -9.4880     1.3600    -1.8860 H     1 <1>   0.0800 
@<TRIPOS>BOND
  1   1   2  2   
  2   2   3  am  
  3   2   4  1   
  4   3   5  1   
  5   3   6  1   
  6   4   7  2   
  7   4   8  1   
  8   5   9  1   
  9   5  23  1   
 10   5  24  1   
 11   6  10  1   
 12   6  25  1   
 13   6  26  1   
 14   7  11  1   
 15   7  27  1   
 16   8  12  2   
 17   8  28  1   
 18   9  13  1   
 19   9  14  1   
 20   9  29  1   
 21  10  14  1   
 22  10  30  1   
 23  10  31  1   
 24  11  15  am  
 25  11  32  1   
 26  12  15  1   
 27  12  33  1   
 28  13  34  1   
 29  14  16  1   
 30  14  17  1   
 31  15  18  2   
 32  16  19  ar  
 33  16  20  ar  
 34  17  21  1   
 35  17  35  1   
 36  17  36  1   
 37  21  22  1   
 38  21  37  1   
 39  21  38  1   
 40  22  39  1   
 41  22  40  1   
 42  22  41  1   
@<TRIPOS>SUBSTRUCTURE
  1 ****   3 GROUP 4 **** **** 0

# MOE 2024.06 (io_trps.svl 2023.06)
