@<TRIPOS>MOLECULE
NONAME
53 56 1 0 0 
SMALL
USER_CHARGES


@<TRIPOS>ATOM
  1 O        3.0690    -1.4590     0.7300 O.2   1 <1>  -0.5700 
  2 C        1.9700    -1.3490     1.2160 C.2   1 <1>   0.5690 
  3 N        1.2450    -0.2150     1.0440 N.am  1 <1>  -0.7300 
  4 C        1.3800    -2.4940     2.0130 C.3   1 <1>  -0.0990 
  5 C        1.6620     0.8810     0.1230 C.3   1 <1>   0.2200 
  6 C        0.2840    -3.2240     1.2190 C.3   1 <1>  -0.1600 
  7 C        3.0440     1.4550     0.5050 C.3   1 <1>   0.4230 
  8 C        0.7200     2.0910     0.1980 C.3   1 <1>   0.1200 
  9 C       -0.2630    -4.4440     1.9740 C.3   1 <1>   0.0200 
 10 N        3.9210     1.6710    -0.7020 N.4   1 <1>  -0.9590 
 11 C        2.6420     2.7740     1.1670 C.3   1 <1>   0.1200 
 12 O        1.5310     3.1960     0.4510 O.3   1 <1>  -0.5600 
 13 C       -1.3520    -5.1250     1.1680 C.2   1 <1>   0.2980 
 14 C        4.2780     0.3990    -1.3880 C.3   1 <1>   0.3430 
 15 C        5.2200     2.3200    -0.4010 C.3   1 <1>   0.3430 
 16 O       -2.5280    -4.5590     1.0940 O.3   1 <1>  -0.0190 
 17 N       -1.2290    -6.2140     0.5330 N.2   1 <1>  -0.5650 
 18 C        5.4840     0.7530    -2.2450 C.3   1 <1>  -0.1600 
 19 C        6.0910     2.0060    -1.6090 C.3   1 <1>  -0.1600 
 20 N       -3.2150    -5.3570     0.3430 N.2   1 <1>  -0.4100 
 21 C       -2.4520    -6.3380     0.0090 C.2   1 <1>   0.4620 
 22 C       -2.8320    -7.4570    -0.8310 C.ar  1 <1>   0.0540 
 23 C       -4.1120    -7.6020    -1.3500 C.ar  1 <1>  -0.1500 
 24 C       -1.9510    -8.4720    -1.1830 C.ar  1 <1>  -0.1500 
 25 C       -4.4300    -8.6850    -2.1470 C.ar  1 <1>   0.1600 
 26 C       -2.3650    -9.5160    -1.9870 C.ar  1 <1>   0.1600 
 27 N       -3.5860    -9.6480    -2.4790 N.ar  1 <1>  -0.6200 
 28 H        0.2890    -0.1750     1.4080 H     1 <1>   0.3700 
 29 H        2.1710    -3.1820     2.2530 H     1 <1>   0.0800 
 30 H        0.9820    -2.1130     2.9360 H     1 <1>   0.0800 
 31 H        1.6620     0.4910    -0.8800 H     1 <1>   0.0800 
 32 H       -0.5250    -2.5450     1.0080 H     1 <1>   0.0800 
 33 H        0.6900    -3.5550     0.2770 H     1 <1>   0.0800 
 34 H        3.5480     0.8130     1.2090 H     1 <1>   0.0800 
 35 H        0.0130     2.0050     1.0060 H     1 <1>   0.0800 
 36 H        0.2020     2.2590    -0.7310 H     1 <1>   0.0800 
 37 H       -0.6670    -4.1490     2.9260 H     1 <1>   0.0800 
 38 H        0.5300    -5.1490     2.1480 H     1 <1>   0.0800 
 39 H        3.4150     2.2790    -1.3610 H     1 <1>   0.4500 
 40 H        3.4010     3.5340     1.1370 H     1 <1>   0.0800 
 41 H        2.3360     2.6090     2.1860 H     1 <1>   0.0800 
 42 H        4.5640    -0.3420    -0.6570 H     1 <1>   0.0800 
 43 H        3.4640     0.0140    -1.9810 H     1 <1>   0.0800 
 44 H        5.1130     3.3830    -0.2530 H     1 <1>   0.0800 
 45 H        5.6540     1.8740     0.4800 H     1 <1>   0.0800 
 46 H        6.1820    -0.0660    -2.2620 H     1 <1>   0.0800 
 47 H        5.1700     0.9560    -3.2540 H     1 <1>   0.0800 
 48 H        6.0660     2.8300    -2.3010 H     1 <1>   0.0800 
 49 H        7.1120     1.8460    -1.3050 H     1 <1>   0.0800 
 50 H       -4.8650    -6.8660    -1.1330 H     1 <1>   0.1500 
 51 H       -0.9360    -8.4470    -0.8290 H     1 <1>   0.1500 
 52 H       -5.4320    -8.7660    -2.5340 H     1 <1>   0.1500 
 53 H       -1.6560   -10.2860    -2.2410 H     1 <1>   0.1500 
@<TRIPOS>BOND
  1   1   2  2   
  2   2   3  am  
  3   2   4  1   
  4   3   5  1   
  5   3  28  1   
  6   4   6  1   
  7   4  29  1   
  8   4  30  1   
  9   5   7  1   
 10   5   8  1   
 11   5  31  1   
 12   6   9  1   
 13   6  32  1   
 14   6  33  1   
 15   7  10  1   
 16   7  11  1   
 17   7  34  1   
 18   8  12  1   
 19   8  35  1   
 20   8  36  1   
 21   9  13  1   
 22   9  37  1   
 23   9  38  1   
 24  10  14  1   
 25  10  15  1   
 26  10  39  1   
 27  11  12  1   
 28  11  40  1   
 29  11  41  1   
 30  13  16  1   
 31  13  17  2   
 32  14  18  1   
 33  14  42  1   
 34  14  43  1   
 35  15  19  1   
 36  15  44  1   
 37  15  45  1   
 38  16  20  1   
 39  17  21  1   
 40  18  19  1   
 41  18  46  1   
 42  18  47  1   
 43  19  48  1   
 44  19  49  1   
 45  20  21  2   
 46  21  22  1   
 47  22  23  ar  
 48  22  24  ar  
 49  23  25  ar  
 50  23  50  1   
 51  24  26  ar  
 52  24  51  1   
 53  25  27  ar  
 54  25  52  1   
 55  26  27  ar  
 56  26  53  1   
@<TRIPOS>SUBSTRUCTURE
  1 ****   6 GROUP 4 **** **** 0

# MOE 2024.06 (io_trps.svl 2023.06)
