@<TRIPOS>MOLECULE
NONAME
49 53 1 0 0 
SMALL
USER_CHARGES


@<TRIPOS>ATOM
  1 O       -0.6770     0.0350    -0.0400 O.2   1 <1>  -0.5700 
  2 C       -1.7250     0.6560    -0.1400 C.2   1 <1>   0.7160 
  3 N       -2.8590    -0.0880    -0.4230 N.am  1 <1>  -0.6600 
  4 C       -1.7310     2.1110     0.0350 C.2   1 <1>   0.2030 
  5 C       -4.2130     0.4570    -0.6840 C.3   1 <1>   0.1400 
  6 C       -2.8520    -1.5630    -0.5290 C.3   1 <1>   0.1400 
  7 N       -2.7720     2.9410     0.0080 N.2   1 <1>  -0.7070 
  8 C       -0.5690     2.8620     0.2690 C.2   1 <1>  -0.1810 
  9 C       -5.0610    -0.7560    -1.0730 C.3   1 <1>   0.2000 
 10 C       -4.3260    -1.9700    -0.5090 C.3   1 <1>  -0.0800 
 11 N       -2.2710     4.1740     0.2200 N.pl3 1 <1>   0.3000 
 12 C       -0.9400     4.1280     0.3780 C.2   1 <1>  -0.3320 
 13 C        0.9150     2.6850     0.4340 C.3   1 <1>   0.0210 
 14 O       -6.3350    -0.6860    -0.5320 O.3   1 <1>  -0.6800 
 15 C       -4.6160    -3.2620    -1.2900 C.3   1 <1>  -0.0170 
 16 C        0.1880     5.0860     0.6360 C.3   1 <1>   0.0200 
 17 C        1.4160     4.1420     0.6150 C.3   1 <1>  -0.1600 
 18 C       -3.8740    -4.4490    -0.6850 C.ar  1 <1>  -0.1440 
 19 C       -4.3180    -5.0990     0.4900 C.ar  1 <1>   0.0000 
 20 C       -2.7330    -4.9140    -1.2710 C.ar  1 <1>  -0.1500 
 21 C       -3.5360    -6.1730     0.9830 C.ar  1 <1>   0.3100 
 22 C       -5.4890    -4.7510     1.2040 C.ar  1 <1>  -0.1500 
 23 C       -2.0380    -5.9890    -0.7050 C.ar  1 <1>   0.1600 
 24 N       -2.4020    -6.6040     0.3750 N.ar  1 <1>  -0.6200 
 25 C       -3.9440    -6.8290     2.1550 C.ar  1 <1>  -0.1500 
 26 C       -5.8600    -5.4140     2.3430 C.ar  1 <1>  -0.1500 
 27 C       -5.0790    -6.4650     2.8280 C.ar  1 <1>  -0.1500 
 28 H       -4.5860     0.9230     0.2110 H     1 <1>   0.0800 
 29 H       -4.1800     1.1730    -1.4860 H     1 <1>   0.0800 
 30 H       -2.3840    -1.8410    -1.4580 H     1 <1>   0.0800 
 31 H       -2.3100    -2.0070     0.2900 H     1 <1>   0.0800 
 32 H       -5.1480    -0.8110    -2.1440 H     1 <1>   0.0800 
 33 H       -4.5970    -2.1000     0.5240 H     1 <1>   0.0800 
 34 H       -2.8560     5.0180     0.2520 H     1 <1>   0.2700 
 35 H        1.1210     2.0850     1.3030 H     1 <1>   0.0800 
 36 H        1.3400     2.2230    -0.4390 H     1 <1>   0.0800 
 37 H       -6.2830    -0.5440     0.4330 H     1 <1>   0.4000 
 38 H       -4.3150    -3.1320    -2.3150 H     1 <1>   0.0800 
 39 H       -5.6740    -3.4570    -1.3010 H     1 <1>   0.0800 
 40 H        0.2520     5.8290    -0.1390 H     1 <1>   0.0800 
 41 H        0.0750     5.5560     1.5970 H     1 <1>   0.0800 
 42 H        2.0590     4.4040    -0.2060 H     1 <1>   0.0800 
 43 H        1.9730     4.2320     1.5310 H     1 <1>   0.0800 
 44 H       -2.3370    -4.4730    -2.1670 H     1 <1>   0.1500 
 45 H       -6.1070    -3.9490     0.8470 H     1 <1>   0.1500 
 46 H       -1.1410    -6.3240    -1.1980 H     1 <1>   0.1500 
 47 H       -3.3290    -7.6360     2.5080 H     1 <1>   0.1500 
 48 H       -6.7530    -5.1380     2.8770 H     1 <1>   0.1500 
 49 H       -5.3790    -6.9780     3.7250 H     1 <1>   0.1500 
@<TRIPOS>BOND
  1   1   2  2   
  2   2   3  am  
  3   2   4  1   
  4   3   5  1   
  5   3   6  1   
  6   4   7  2   
  7   4   8  1   
  8   5   9  1   
  9   5  28  1   
 10   5  29  1   
 11   6  10  1   
 12   6  30  1   
 13   6  31  1   
 14   7  11  1   
 15   8  12  2   
 16   8  13  1   
 17   9  10  1   
 18   9  14  1   
 19   9  32  1   
 20  10  15  1   
 21  10  33  1   
 22  11  12  1   
 23  11  34  1   
 24  12  16  1   
 25  13  17  1   
 26  13  35  1   
 27  13  36  1   
 28  14  37  1   
 29  15  18  1   
 30  15  38  1   
 31  15  39  1   
 32  16  17  1   
 33  16  40  1   
 34  16  41  1   
 35  17  42  1   
 36  17  43  1   
 37  18  19  ar  
 38  18  20  ar  
 39  19  21  ar  
 40  19  22  ar  
 41  20  23  ar  
 42  20  44  1   
 43  21  24  ar  
 44  21  25  ar  
 45  22  26  ar  
 46  22  45  1   
 47  23  24  ar  
 48  23  46  1   
 49  25  27  ar  
 50  25  47  1   
 51  26  27  ar  
 52  26  48  1   
 53  27  49  1   
@<TRIPOS>SUBSTRUCTURE
  1 ****   6 GROUP 4 **** **** 0

# MOE 2024.06 (io_trps.svl 2023.06)
