@<TRIPOS>MOLECULE
NONAME
50 52 1 0 0 
SMALL
USER_CHARGES


@<TRIPOS>ATOM
  1 O       -1.4490    -4.2730     0.5790 O.co2 1 <1>  -0.9000 
  2 C       -0.3580    -4.8640     0.5700 C.2   1 <1>   1.0330 
  3 O       -0.3240    -5.9730     1.1410 O.co2 1 <1>  -0.9000 
  4 C        0.7280    -4.4300    -0.2490 C.2   1 <1>  -0.2330 
  5 C        1.4700    -5.3180    -1.0220 C.2   1 <1>   0.3720 
  6 C        1.2770    -3.2230    -0.5490 C.2   1 <1>   0.0870 
  7 N        2.3440    -4.7160    -1.7410 N.2   1 <1>  -0.4100 
  8 N        1.2720    -6.6910    -1.0100 N.pl3 1 <1>  -0.8520 
  9 O        2.2210    -3.4500    -1.4360 O.3   1 <1>  -0.0190 
 10 C        1.0470    -1.8700    -0.1020 C.ar  1 <1>   0.0530 
 11 C        0.5500    -7.2250    -2.1820 C.3   1 <1>   0.2090 
 12 C        2.1240    -1.0020     0.0840 C.ar  1 <1>  -0.1500 
 13 C       -0.2280    -1.3660     0.1530 C.ar  1 <1>  -0.1500 
 14 C       -0.9640    -7.1860    -1.9450 C.3   1 <1>  -0.1600 
 15 C        1.9400     0.3020     0.5090 C.ar  1 <1>  -0.1500 
 16 C       -0.4200    -0.0660     0.5810 C.ar  1 <1>  -0.1500 
 17 C       -1.3680    -8.0490    -0.7450 C.3   1 <1>   0.3430 
 18 C        0.6650     0.7730     0.7600 C.ar  1 <1>  -0.1500 
 19 N       -2.8180    -7.9120    -0.4280 N.4   1 <1>  -0.9590 
 20 C       -3.0960    -6.5660     0.1740 C.3   1 <1>   0.3430 
 21 C       -3.2210    -8.9770     0.5270 C.3   1 <1>   0.3430 
 22 C       -4.5930    -6.4110     0.4390 C.3   1 <1>  -0.1600 
 23 C       -4.7260    -8.8980     0.7900 C.3   1 <1>  -0.1600 
 24 C       -5.1220    -7.5250     1.3520 C.3   1 <1>  -0.0800 
 25 C       -6.6420    -7.4200     1.5130 C.3   1 <1>  -0.2400 
 26 H        0.7700    -6.8760    -0.1210 H     1 <1>   0.4000 
 27 H        0.8780    -8.2340    -2.3620 H     1 <1>   0.0800 
 28 H        0.7990    -6.6370    -3.0510 H     1 <1>   0.0800 
 29 H        3.1200    -1.3610    -0.1060 H     1 <1>   0.1500 
 30 H       -1.0840    -1.9990     0.0110 H     1 <1>   0.1500 
 31 H       -1.4550    -7.5530    -2.8270 H     1 <1>   0.0800 
 32 H       -1.2500    -6.1610    -1.8020 H     1 <1>   0.0800 
 33 H        2.7900     0.9480     0.6460 H     1 <1>   0.1500 
 34 H       -1.4170     0.2900     0.7730 H     1 <1>   0.1500 
 35 H       -0.7870    -7.7810     0.1210 H     1 <1>   0.0800 
 36 H       -1.1440    -9.0770    -0.9730 H     1 <1>   0.0800 
 37 H        0.5160     1.7850     1.0930 H     1 <1>   0.1500 
 38 H       -3.3720    -7.9900    -1.2850 H     1 <1>   0.4500 
 39 H       -2.7720    -5.7800    -0.4870 H     1 <1>   0.0800 
 40 H       -2.5500    -6.4530     1.0990 H     1 <1>   0.0800 
 41 H       -2.6860    -8.8460     1.4540 H     1 <1>   0.0800 
 42 H       -2.9760    -9.9460     0.1240 H     1 <1>   0.0800 
 43 H       -5.1190    -6.4030    -0.4990 H     1 <1>   0.0800 
 44 H       -4.7500    -5.4550     0.9080 H     1 <1>   0.0800 
 45 H       -4.9940    -9.6630     1.4980 H     1 <1>   0.0800 
 46 H       -5.2580    -9.0980    -0.1230 H     1 <1>   0.0800 
 47 H       -4.6690    -7.4080     2.3240 H     1 <1>   0.0800 
 48 H       -7.1390    -7.5270     0.5650 H     1 <1>   0.0800 
 49 H       -6.9060    -6.4630     1.9300 H     1 <1>   0.0800 
 50 H       -7.0030    -8.1850     2.1780 H     1 <1>   0.0800 
@<TRIPOS>BOND
  1   1   2  ar  
  2   2   3  ar  
  3   2   4  1   
  4   4   5  1   
  5   4   6  2   
  6   5   7  2   
  7   5   8  1   
  8   6   9  1   
  9   6  10  1   
 10   7   9  1   
 11   8  11  1   
 12   8  26  1   
 13  10  12  ar  
 14  10  13  ar  
 15  11  14  1   
 16  11  27  1   
 17  11  28  1   
 18  12  15  ar  
 19  12  29  1   
 20  13  16  ar  
 21  13  30  1   
 22  14  17  1   
 23  14  31  1   
 24  14  32  1   
 25  15  18  ar  
 26  15  33  1   
 27  16  18  ar  
 28  16  34  1   
 29  17  19  1   
 30  17  35  1   
 31  17  36  1   
 32  18  37  1   
 33  19  20  1   
 34  19  21  1   
 35  19  38  1   
 36  20  22  1   
 37  20  39  1   
 38  20  40  1   
 39  21  23  1   
 40  21  41  1   
 41  21  42  1   
 42  22  24  1   
 43  22  43  1   
 44  22  44  1   
 45  23  24  1   
 46  23  45  1   
 47  23  46  1   
 48  24  25  1   
 49  24  47  1   
 50  25  48  1   
 51  25  49  1   
 52  25  50  1   
@<TRIPOS>SUBSTRUCTURE
  1 ****   2 GROUP 4 **** **** 0

# MOE 2024.06 (io_trps.svl 2023.06)
