@<TRIPOS>MOLECULE
NONAME
58 61 1 0 0 
SMALL
USER_CHARGES


@<TRIPOS>ATOM
  1 S       -0.4100    -0.0800     0.5820 S.o2  1 <1>   1.2040 
  2 O       -0.2690    -0.4480     1.9730 O.2   1 <1>  -0.6500 
  3 O       -1.4870    -0.6240    -0.2130 O.2   1 <1>  -0.6500 
  4 C       -0.4180     1.7280     0.4450 C.ar  1 <1>  -0.0090 
  5 C        1.1160    -0.5130    -0.2310 C.3   1 <1>  -0.1350 
  6 C        0.1200     2.5280     1.4460 C.ar  1 <1>  -0.1500 
  7 C       -0.9500     2.3640    -0.6700 C.ar  1 <1>  -0.1500 
  8 C        0.1160     3.9090     1.3470 C.ar  1 <1>  -0.1500 
  9 C       -0.9580     3.7440    -0.7800 C.ar  1 <1>  -0.1500 
 10 C       -0.4260     4.5290     0.2320 C.ar  1 <1>  -0.1430 
 11 C       -0.4610     6.0440     0.1250 C.3   1 <1>   0.4860 
 12 N        0.9230     6.5690    -0.0170 N.4   1 <1>  -0.9590 
 13 C        1.0630     8.0460     0.1750 C.3   1 <1>   0.4230 
 14 C        1.6430     6.0730    -1.2150 C.3   1 <1>   0.3430 
 15 C        2.5330     8.5130    -0.0170 C.3   1 <1>  -0.0800 
 16 C        0.0590     8.8200    -0.7030 C.3   1 <1>  -0.1600 
 17 C        3.1520     6.2940    -1.0490 C.3   1 <1>  -0.1600 
 18 C        3.5280     7.3260     0.0360 C.3   1 <1>   0.4240 
 19 C        2.7200     9.3760    -1.2900 C.3   1 <1>  -0.1600 
 20 C        0.3900    10.3180    -0.7240 C.3   1 <1>  -0.1600 
 21 O        3.3590     6.6880     1.2520 O.3   1 <1>  -0.6800 
 22 C        5.0020     7.7690     0.0360 C.ar  1 <1>  -0.1430 
 23 C        1.7900    10.6000    -1.2950 C.3   1 <1>  -0.1600 
 24 C        5.9300     7.3340    -0.9090 C.ar  1 <1>  -0.1500 
 25 C        5.4470     8.6380     1.0300 C.ar  1 <1>  -0.1500 
 26 C        7.2450     7.7630    -0.8660 C.ar  1 <1>  -0.1500 
 27 C        6.7610     9.0670     1.0740 C.ar  1 <1>  -0.1500 
 28 C        7.6630     8.6300     0.1240 C.ar  1 <1>  -0.1500 
 29 H        1.9500    -0.0610     0.2690 H     1 <1>   0.0800 
 30 H        1.1020    -0.1890    -1.2530 H     1 <1>   0.0800 
 31 H        1.2470    -1.5780    -0.2150 H     1 <1>   0.0800 
 32 H        0.5360     2.0610     2.3250 H     1 <1>   0.1500 
 33 H       -1.3800     1.7660    -1.4590 H     1 <1>   0.1500 
 34 H        0.5320     4.4870     2.1570 H     1 <1>   0.1500 
 35 H       -1.3950     4.1920    -1.6580 H     1 <1>   0.1500 
 36 H       -0.9170     6.4480     1.0140 H     1 <1>   0.0800 
 37 H       -1.0560     6.3370    -0.7240 H     1 <1>   0.0800 
 38 H        1.4710     6.1740     0.7700 H     1 <1>   0.4500 
 39 H        0.8130     8.2630     1.2010 H     1 <1>   0.0800 
 40 H        1.4550     5.0210    -1.3590 H     1 <1>   0.0800 
 41 H        1.2930     6.6010    -2.0870 H     1 <1>   0.0800 
 42 H        2.7500     9.1660     0.8080 H     1 <1>   0.0800 
 43 H        0.0760     8.4550    -1.7150 H     1 <1>   0.0800 
 44 H       -0.9360     8.7040    -0.3140 H     1 <1>   0.0800 
 45 H        3.5110     6.6270    -2.0040 H     1 <1>   0.0800 
 46 H        3.6380     5.3570    -0.8420 H     1 <1>   0.0800 
 47 H        3.7390     9.7200    -1.3640 H     1 <1>   0.0800 
 48 H        2.5180     8.7910    -2.1690 H     1 <1>   0.0800 
 49 H       -0.3450    10.8500    -1.3060 H     1 <1>   0.0800 
 50 H        0.3370    10.7030     0.2810 H     1 <1>   0.0800 
 51 H        4.2570     6.5700     1.6360 H     1 <1>   0.4000 
 52 H        2.2420    11.3940    -0.7240 H     1 <1>   0.0800 
 53 H        1.7000    10.9560    -2.3080 H     1 <1>   0.0800 
 54 H        5.6680     6.6550    -1.6980 H     1 <1>   0.1500 
 55 H        4.7760     8.9950     1.7920 H     1 <1>   0.1500 
 56 H        7.9490     7.4200    -1.6050 H     1 <1>   0.1500 
 57 H        7.0850     9.7410     1.8490 H     1 <1>   0.1500 
 58 H        8.6860     8.9630     0.1550 H     1 <1>   0.1500 
@<TRIPOS>BOND
  1   1   2  2   
  2   1   3  2   
  3   1   4  1   
  4   1   5  1   
  5   4   6  ar  
  6   4   7  ar  
  7   5  29  1   
  8   5  30  1   
  9   5  31  1   
 10   6   8  ar  
 11   6  32  1   
 12   7   9  ar  
 13   7  33  1   
 14   8  10  ar  
 15   8  34  1   
 16   9  10  ar  
 17   9  35  1   
 18  10  11  1   
 19  11  12  1   
 20  11  36  1   
 21  11  37  1   
 22  12  13  1   
 23  12  14  1   
 24  12  38  1   
 25  13  15  1   
 26  13  16  1   
 27  13  39  1   
 28  14  17  1   
 29  14  40  1   
 30  14  41  1   
 31  15  18  1   
 32  15  19  1   
 33  15  42  1   
 34  16  20  1   
 35  16  43  1   
 36  16  44  1   
 37  17  18  1   
 38  17  45  1   
 39  17  46  1   
 40  18  21  1   
 41  18  22  1   
 42  19  23  1   
 43  19  47  1   
 44  19  48  1   
 45  20  23  1   
 46  20  49  1   
 47  20  50  1   
 48  21  51  1   
 49  22  24  ar  
 50  22  25  ar  
 51  23  52  1   
 52  23  53  1   
 53  24  26  ar  
 54  24  54  1   
 55  25  27  ar  
 56  25  55  1   
 57  26  28  ar  
 58  26  56  1   
 59  27  28  ar  
 60  27  57  1   
 61  28  58  1   
@<TRIPOS>SUBSTRUCTURE
  1 ****  14 GROUP 4 **** **** 0

# MOE 2024.06 (io_trps.svl 2023.06)
