@<TRIPOS>MOLECULE
NONAME
41 42 1 0 0 
SMALL
USER_CHARGES


@<TRIPOS>ATOM
  1 O        3.2200    -1.4890    -2.1390 O.2   1 <1>  -0.5700 
  2 C        2.6300    -1.4550    -1.0830 C.2   1 <1>   0.5690 
  3 N        2.4600    -0.2960    -0.3810 N.am  1 <1>  -0.4940 
  4 C        2.0770    -2.7680    -0.4700 C.3   1 <1>   0.2810 
  5 C        2.8120     1.0210    -0.6830 C.2   1 <1>   0.2040 
  6 N        0.6770    -2.6960     0.0870 N.am  1 <1>  -0.6600 
  7 C        2.0230    -3.9380    -1.4690 C.3   1 <1>  -0.1600 
  8 O        3.3650     1.3650    -1.8220 O.3   1 <1>  -0.0190 
  9 C        2.6710     2.1390     0.0570 C.2   1 <1>  -0.1810 
 10 C        0.3610    -2.0150     1.2320 C.2   1 <1>   0.5690 
 11 C       -0.1850    -3.7060    -0.5700 C.3   1 <1>   0.1400 
 12 C        0.7910    -4.7500    -1.0870 C.3   1 <1>  -0.1600 
 13 N        3.5980     2.6520    -1.8810 N.2   1 <1>  -0.4100 
 14 C        3.1910     3.1390    -0.7630 C.2   1 <1>   0.1080 
 15 C        2.0890     2.2990     1.4520 C.3   1 <1>  -0.0590 
 16 O        1.1930    -1.3680     1.8240 O.2   1 <1>  -0.5700 
 17 C       -1.0540    -2.0160     1.7950 C.3   1 <1>  -0.0990 
 18 C        3.2820     4.6150    -0.4180 C.3   1 <1>   0.0210 
 19 C       -2.0350    -1.1910     0.9450 C.3   1 <1>  -0.2400 
 20 C        4.5680     4.9280     0.3550 C.3   1 <1>  -0.2400 
 21 H        1.9960    -0.4290     0.5260 H     1 <1>   0.3700 
 22 H        2.7330    -3.0440     0.3370 H     1 <1>   0.0800 
 23 H        1.8900    -3.5630    -2.4690 H     1 <1>   0.0800 
 24 H        2.9270    -4.5210    -1.4430 H     1 <1>   0.0800 
 25 H       -0.8930    -4.1490     0.1090 H     1 <1>   0.0800 
 26 H       -0.7070    -3.2440    -1.3910 H     1 <1>   0.0800 
 27 H        1.0310    -5.4370    -0.2940 H     1 <1>   0.0800 
 28 H        0.3880    -5.2990    -1.9210 H     1 <1>   0.0800 
 29 H        2.8250     2.7240     2.1100 H     1 <1>   0.0800 
 30 H        1.7860     1.3480     1.8490 H     1 <1>   0.0800 
 31 H        1.2320     2.9470     1.4200 H     1 <1>   0.0800 
 32 H       -1.4060    -3.0240     1.8980 H     1 <1>   0.0800 
 33 H       -1.0210    -1.5950     2.7840 H     1 <1>   0.0800 
 34 H        3.2680     5.1850    -1.3310 H     1 <1>   0.0800 
 35 H        2.4250     4.9020     0.1630 H     1 <1>   0.0800 
 36 H       -2.1170    -1.5980    -0.0470 H     1 <1>   0.0800 
 37 H       -1.6920    -0.1740     0.8700 H     1 <1>   0.0800 
 38 H       -3.0100    -1.1930     1.4000 H     1 <1>   0.0800 
 39 H        5.4240     4.6540    -0.2360 H     1 <1>   0.0800 
 40 H        4.5960     4.3730     1.2760 H     1 <1>   0.0800 
 41 H        4.6220     5.9780     0.5780 H     1 <1>   0.0800 
@<TRIPOS>BOND
  1   1   2  2   
  2   2   3  am  
  3   2   4  1   
  4   3   5  1   
  5   3  21  1   
  6   4   6  1   
  7   4   7  1   
  8   4  22  1   
  9   5   8  1   
 10   5   9  2   
 11   6  10  am  
 12   6  11  1   
 13   7  12  1   
 14   7  23  1   
 15   7  24  1   
 16   8  13  1   
 17   9  14  1   
 18   9  15  1   
 19  10  16  2   
 20  10  17  1   
 21  11  12  1   
 22  11  25  1   
 23  11  26  1   
 24  12  27  1   
 25  12  28  1   
 26  13  14  2   
 27  14  18  1   
 28  15  29  1   
 29  15  30  1   
 30  15  31  1   
 31  17  19  1   
 32  17  32  1   
 33  17  33  1   
 34  18  20  1   
 35  18  34  1   
 36  18  35  1   
 37  19  36  1   
 38  19  37  1   
 39  19  38  1   
 40  20  39  1   
 41  20  40  1   
 42  20  41  1   
@<TRIPOS>SUBSTRUCTURE
  1 ****   3 GROUP 4 **** **** 0

# MOE 2024.06 (io_trps.svl 2023.06)
