@<TRIPOS>MOLECULE
NONAME
57 60 1 0 0 
SMALL
USER_CHARGES


@<TRIPOS>ATOM
  1 O       -1.8960     0.8610     2.1220 O.2   1 <1>  -0.5700 
  2 C       -2.1590     1.2680     1.0060 C.2   1 <1>   0.5440 
  3 N       -2.8660     0.4310     0.1590 N.am  1 <1>  -0.6600 
  4 C       -1.7230     2.6000     0.6290 C.ar  1 <1>   0.0860 
  5 C       -3.7900     0.8540    -0.9440 C.3   1 <1>   0.2200 
  6 C       -2.6470    -1.0430     0.2860 C.3   1 <1>   0.0600 
  7 C       -0.8420     2.8470    -0.4360 C.ar  1 <1>  -0.1440 
  8 C       -2.2100     3.6950     1.3460 C.ar  1 <1>  -0.1500 
  9 C       -4.3250     2.2810    -0.8250 C.3   1 <1>  -0.1600 
 10 C       -5.0740     0.0220    -0.9360 C.3   1 <1>  -0.1600 
 11 C       -0.5010     4.1460    -0.7790 C.ar  1 <1>  -0.1500 
 12 C       -0.2250     1.7000    -1.2270 C.3   1 <1>  -0.0970 
 13 C       -1.8800     4.9880     0.9960 C.ar  1 <1>   0.0820 
 14 C       -5.6350     2.3090    -1.6200 C.3   1 <1>  -0.0800 
 15 C       -6.1360     0.8610    -1.6610 C.3   1 <1>  -0.0800 
 16 C       -1.0120     5.2180    -0.0700 C.ar  1 <1>   0.0820 
 17 O       -2.4220     6.0170     1.6980 O.3   1 <1>  -0.3630 
 18 C       -6.7310     3.1280    -0.9310 C.3   1 <1>  -0.1600 
 19 C       -7.4990     0.8580    -0.9550 C.3   1 <1>  -0.1600 
 20 O       -0.6480     6.4730    -0.4180 O.3   1 <1>  -0.3620 
 21 C       -2.2920     7.3150     1.1450 C.3   1 <1>   0.1200 
 22 C       -7.4920     2.1130    -0.0830 C.3   1 <1>   0.4230 
 23 C       -0.9000     7.4990     0.5230 C.3   1 <1>   0.1200 
 24 N       -8.8700     2.5780     0.2410 N.4   1 <1>  -0.9590 
 25 C       -8.8530     3.8580     1.0180 C.3   1 <1>   0.2630 
 26 C       -9.6440     1.5420     0.9950 C.3   1 <1>   0.2630 
 27 H       -3.2960     0.7360    -1.8940 H     1 <1>   0.0800 
 28 H       -2.5730    -1.4940    -0.6880 H     1 <1>   0.0800 
 29 H       -3.4620    -1.4870     0.8300 H     1 <1>   0.0800 
 30 H       -1.7340    -1.2410     0.8210 H     1 <1>   0.0800 
 31 H       -2.8590     3.5260     2.1850 H     1 <1>   0.1500 
 32 H       -4.5200     2.4960     0.2100 H     1 <1>   0.0800 
 33 H       -3.6310     2.9990    -1.2250 H     1 <1>   0.0800 
 34 H       -4.9310    -0.9230    -1.4290 H     1 <1>   0.0800 
 35 H       -5.3680    -0.1480     0.0850 H     1 <1>   0.0800 
 36 H        0.1710     4.3460    -1.5940 H     1 <1>   0.1500 
 37 H        0.6330     2.0360    -1.7830 H     1 <1>   0.0800 
 38 H       -0.9420     1.2980    -1.9180 H     1 <1>   0.0800 
 39 H        0.0960     0.9170    -0.5630 H     1 <1>   0.0800 
 40 H       -5.4470     2.6710    -2.6180 H     1 <1>   0.0800 
 41 H       -6.2300     0.5270    -2.6810 H     1 <1>   0.0800 
 42 H       -7.3770     3.5360    -1.6880 H     1 <1>   0.0800 
 43 H       -6.3160     3.9270    -0.3430 H     1 <1>   0.0800 
 44 H       -7.6470    -0.0380    -0.3800 H     1 <1>   0.0800 
 45 H       -8.2680     0.9350    -1.7030 H     1 <1>   0.0800 
 46 H       -3.0530     7.4370     0.3960 H     1 <1>   0.0800 
 47 H       -2.4550     8.0270     1.9330 H     1 <1>   0.0800 
 48 H       -6.9330     1.9150     0.8180 H     1 <1>   0.0800 
 49 H       -0.1410     7.4490     1.2830 H     1 <1>   0.0800 
 50 H       -0.8290     8.4420     0.0130 H     1 <1>   0.0800 
 51 H       -9.3450     2.7500    -0.6570 H     1 <1>   0.4500 
 52 H       -8.3230     3.7250     1.9480 H     1 <1>   0.0800 
 53 H       -9.8590     4.1770     1.2370 H     1 <1>   0.0800 
 54 H       -8.3650     4.6360     0.4530 H     1 <1>   0.0800 
 55 H       -9.1510     1.3110     1.9260 H     1 <1>   0.0800 
 56 H       -9.7260     0.6360     0.4160 H     1 <1>   0.0800 
 57 H      -10.6380     1.8990     1.2100 H     1 <1>   0.0800 
@<TRIPOS>BOND
  1   1   2  2   
  2   2   3  am  
  3   2   4  1   
  4   3   5  1   
  5   3   6  1   
  6   4   7  ar  
  7   4   8  ar  
  8   5   9  1   
  9   5  10  1   
 10   5  27  1   
 11   6  28  1   
 12   6  29  1   
 13   6  30  1   
 14   7  11  ar  
 15   7  12  1   
 16   8  13  ar  
 17   8  31  1   
 18   9  14  1   
 19   9  32  1   
 20   9  33  1   
 21  10  15  1   
 22  10  34  1   
 23  10  35  1   
 24  11  16  ar  
 25  11  36  1   
 26  12  37  1   
 27  12  38  1   
 28  12  39  1   
 29  13  16  ar  
 30  13  17  1   
 31  14  15  1   
 32  14  18  1   
 33  14  40  1   
 34  15  19  1   
 35  15  41  1   
 36  16  20  1   
 37  17  21  1   
 38  18  22  1   
 39  18  42  1   
 40  18  43  1   
 41  19  22  1   
 42  19  44  1   
 43  19  45  1   
 44  20  23  1   
 45  21  23  1   
 46  21  46  1   
 47  21  47  1   
 48  22  24  1   
 49  22  48  1   
 50  23  49  1   
 51  23  50  1   
 52  24  25  1   
 53  24  26  1   
 54  24  51  1   
 55  25  52  1   
 56  25  53  1   
 57  25  54  1   
 58  26  55  1   
 59  26  56  1   
 60  26  57  1   
@<TRIPOS>SUBSTRUCTURE
  1 ****   9 GROUP 4 **** **** 0

# MOE 2024.06 (io_trps.svl 2023.06)
