@<TRIPOS>MOLECULE
NONAME
50 54 1 0 0 
SMALL
USER_CHARGES


@<TRIPOS>ATOM
  1 S       -0.8330     0.0060    -0.3630 S.3   1 <1>  -0.2820 
  2 C       -1.7600    -0.9940     0.7180 C.2   1 <1>   0.6510 
  3 C       -0.8000     1.2860     0.8540 C.2   1 <1>   0.5910 
  4 N       -2.1670    -2.1850     0.4070 N.2   1 <1>  -0.6210 
  5 N       -1.9680    -0.3000     1.8780 N.am  1 <1>  -0.0580 
  6 N       -1.4130     0.9890     1.9240 N.2   1 <1>  -0.5120 
  7 C       -0.0690     2.5830     0.5220 C.3   1 <1>  -0.1000 
  8 C       -2.8950    -2.8300     1.3740 C.2   1 <1>   0.0330 
  9 C       -2.7070    -0.9340     2.8650 C.2   1 <1>   0.6160 
 10 C       -0.0670     3.1810    -0.8540 C.3   1 <1>  -0.2000 
 11 C        1.1990     2.6150    -0.2790 C.3   1 <1>  -0.2000 
 12 C       -3.1680    -2.2430     2.5700 C.2   1 <1>  -0.1360 
 13 C       -3.3950    -4.2330     1.0230 C.3   1 <1>   0.4810 
 14 O       -2.9670    -0.4050     3.9330 O.2   1 <1>  -0.5700 
 15 N       -3.6820    -4.2910    -0.4450 N.4   1 <1>  -0.9590 
 16 C       -5.0630    -3.9530    -0.8980 C.3   1 <1>   0.4230 
 17 C       -3.2040    -5.5730    -1.0420 C.3   1 <1>   0.2630 
 18 C       -6.1540    -4.8650    -0.3410 C.3   1 <1>  -0.1600 
 19 C       -5.5230    -2.5500    -0.5180 C.3   1 <1>  -0.1600 
 20 C       -7.4550    -4.0850    -0.5870 C.3   1 <1>  -0.0800 
 21 C       -7.0460    -2.5940    -0.6920 C.3   1 <1>  -0.0800 
 22 C       -8.5620    -4.4050     0.4400 C.3   1 <1>   0.1400 
 23 C       -7.7920    -1.6530     0.2770 C.3   1 <1>  -0.0990 
 24 N       -9.5680    -3.3270     0.4290 N.am  1 <1>  -0.7300 
 25 C       -9.2580    -2.0170     0.3490 C.2   1 <1>   0.5690 
 26 O      -10.1050    -1.1640     0.3420 O.2   1 <1>  -0.5700 
 27 H       -0.1340     3.2730     1.3450 H     1 <1>   0.1000 
 28 H       -0.5340     2.6560    -1.6700 H     1 <1>   0.1000 
 29 H       -0.1570     4.2490    -0.9520 H     1 <1>   0.1000 
 30 H        1.9800     3.2940     0.0190 H     1 <1>   0.1000 
 31 H        1.5900     1.7050    -0.7020 H     1 <1>   0.1000 
 32 H       -3.7370    -2.7190     3.3480 H     1 <1>   0.1500 
 33 H       -4.2660    -4.4840     1.6030 H     1 <1>   0.0800 
 34 H       -2.6120    -4.9330     1.2620 H     1 <1>   0.0800 
 35 H       -3.0700    -3.5310    -0.8010 H     1 <1>   0.4500 
 36 H       -5.1000    -4.0180    -1.9750 H     1 <1>   0.0800 
 37 H       -3.7780    -6.4030    -0.6620 H     1 <1>   0.0800 
 38 H       -2.1640    -5.7330    -0.8050 H     1 <1>   0.0800 
 39 H       -3.3070    -5.5460    -2.1150 H     1 <1>   0.0800 
 40 H       -6.1760    -5.8150    -0.8440 H     1 <1>   0.0800 
 41 H       -6.0240    -5.0150     0.7140 H     1 <1>   0.0800 
 42 H       -5.3040    -2.3370     0.5100 H     1 <1>   0.0800 
 43 H       -5.0790    -1.7990    -1.1470 H     1 <1>   0.0800 
 44 H       -7.8350    -4.3770    -1.5530 H     1 <1>   0.0800 
 45 H       -7.2840    -2.2710    -1.6940 H     1 <1>   0.0800 
 46 H       -8.1530    -4.4730     1.4330 H     1 <1>   0.0800 
 47 H       -9.0330    -5.3440     0.1990 H     1 <1>   0.0800 
 48 H       -7.6940    -0.6320    -0.0450 H     1 <1>   0.0800 
 49 H       -7.3960    -1.7310     1.2720 H     1 <1>   0.0800 
 50 H      -10.5590    -3.5690     0.5130 H     1 <1>   0.3700 
@<TRIPOS>BOND
  1   1   2  1   
  2   1   3  1   
  3   2   4  2   
  4   2   5  1   
  5   3   6  2   
  6   3   7  1   
  7   4   8  1   
  8   5   6  1   
  9   5   9  am  
 10   7  10  1   
 11   7  11  1   
 12   7  27  1   
 13   8  12  2   
 14   8  13  1   
 15   9  12  1   
 16   9  14  2   
 17  10  11  1   
 18  10  28  1   
 19  10  29  1   
 20  11  30  1   
 21  11  31  1   
 22  12  32  1   
 23  13  15  1   
 24  13  33  1   
 25  13  34  1   
 26  15  16  1   
 27  15  17  1   
 28  15  35  1   
 29  16  18  1   
 30  16  19  1   
 31  16  36  1   
 32  17  37  1   
 33  17  38  1   
 34  17  39  1   
 35  18  20  1   
 36  18  40  1   
 37  18  41  1   
 38  19  21  1   
 39  19  42  1   
 40  19  43  1   
 41  20  21  1   
 42  20  22  1   
 43  20  44  1   
 44  21  23  1   
 45  21  45  1   
 46  22  24  1   
 47  22  46  1   
 48  22  47  1   
 49  23  25  1   
 50  23  48  1   
 51  23  49  1   
 52  24  25  am  
 53  24  50  1   
 54  25  26  2   
@<TRIPOS>SUBSTRUCTURE
  1 ****   8 GROUP 4 **** **** 0

# MOE 2024.06 (io_trps.svl 2023.06)
