@<TRIPOS>MOLECULE
NONAME
53 55 1 0 0 
SMALL
USER_CHARGES


@<TRIPOS>ATOM
  1 O        1.5930    -2.2600    -0.4890 O.3   1 <1>  -0.3630 
  2 C        0.6520    -2.9800     0.1780 C.ar  1 <1>   0.0830 
  3 C        1.4700    -0.8820    -0.7730 C.3   1 <1>   0.1200 
  4 C        0.9050    -4.3340     0.3700 C.ar  1 <1>  -0.1440 
  5 C       -0.5360    -2.4330     0.6590 C.ar  1 <1>  -0.1500 
  6 C        0.5980    -0.6950    -2.0150 C.3   1 <1>  -0.2400 
  7 C       -0.0230    -5.1220     1.0290 C.ar  1 <1>  -0.1500 
  8 C        2.1760    -4.9730    -0.1590 C.3   1 <1>   0.2630 
  9 C       -1.4650    -3.2310     1.3030 C.ar  1 <1>  -0.1500 
 10 C       -1.2180    -4.5840     1.4810 C.ar  1 <1>  -0.1440 
 11 O        1.9200    -5.3600    -1.4630 O.3   1 <1>  -0.6800 
 12 C       -2.2430    -5.4930     2.1270 C.3   1 <1>   0.4860 
 13 N       -2.7940    -6.3470     1.0520 N.4   1 <1>  -0.9590 
 14 C       -3.6470    -5.6530     0.0460 C.3   1 <1>   0.3430 
 15 C       -3.4850    -7.5930     1.4400 C.3   1 <1>   0.3430 
 16 C       -4.5530    -6.7400    -0.5500 C.3   1 <1>   0.2000 
 17 C       -4.1850    -8.0510     0.1600 C.3   1 <1>  -0.0800 
 18 O       -5.8820    -6.4370    -0.2730 O.3   1 <1>  -0.6800 
 19 C       -3.2970    -8.9740    -0.7100 C.3   1 <1>   0.0210 
 20 C       -1.8410    -8.5510    -0.8770 C.2   1 <1>   0.1080 
 21 N       -1.4640    -7.3640    -1.2460 N.2   1 <1>  -0.7070 
 22 C       -0.7590    -9.3960    -0.6640 C.2   1 <1>  -0.1500 
 23 N       -0.1120    -7.4350    -1.3190 N.pl3 1 <1>   0.3000 
 24 C        0.3300    -8.6530    -0.9490 C.2   1 <1>  -0.3320 
 25 C        1.7990    -9.0330    -0.9140 C.3   1 <1>  -0.0600 
 26 H        1.0790    -0.3700     0.0890 H     1 <1>   0.0800 
 27 H        2.4610    -0.5090    -0.9650 H     1 <1>   0.0800 
 28 H       -0.7570    -1.3900     0.5350 H     1 <1>   0.1500 
 29 H       -0.3940    -1.0750    -1.8520 H     1 <1>   0.0800 
 30 H        1.0400    -1.2030    -2.8540 H     1 <1>   0.0800 
 31 H        0.5260     0.3510    -2.2510 H     1 <1>   0.0800 
 32 H        0.1880    -6.1680     1.1750 H     1 <1>   0.1500 
 33 H        2.4420    -5.8480     0.4090 H     1 <1>   0.0800 
 34 H        3.0050    -4.2850    -0.1570 H     1 <1>   0.0800 
 35 H       -2.3790    -2.7850     1.6560 H     1 <1>   0.1500 
 36 H        1.7710    -4.5420    -1.9850 H     1 <1>   0.4000 
 37 H       -3.0240    -4.9160     2.5930 H     1 <1>   0.0800 
 38 H       -1.7580    -6.0990     2.8740 H     1 <1>   0.0800 
 39 H       -1.9870    -6.6550     0.4640 H     1 <1>   0.4500 
 40 H       -4.2440    -4.8830     0.5040 H     1 <1>   0.0800 
 41 H       -3.0250    -5.2220    -0.7230 H     1 <1>   0.0800 
 42 H       -2.7910    -8.3360     1.8000 H     1 <1>   0.0800 
 43 H       -4.2180    -7.3830     2.2010 H     1 <1>   0.0800 
 44 H       -4.4440    -6.7950    -1.6200 H     1 <1>   0.0800 
 45 H       -5.0740    -8.6080     0.4040 H     1 <1>   0.0800 
 46 H       -6.1020    -6.4990     0.6760 H     1 <1>   0.4000 
 47 H       -3.7330    -9.0700    -1.6900 H     1 <1>   0.0800 
 48 H       -3.3030    -9.9580    -0.2750 H     1 <1>   0.0800 
 49 H       -0.7980   -10.4260    -0.3520 H     1 <1>   0.1500 
 50 H        0.4930    -6.6430    -1.6030 H     1 <1>   0.2700 
 51 H        1.9130   -10.0580    -0.6060 H     1 <1>   0.0800 
 52 H        2.3330    -8.4050    -0.2240 H     1 <1>   0.0800 
 53 H        2.2340    -8.9200    -1.8920 H     1 <1>   0.0800 
@<TRIPOS>BOND
  1   1   2  1   
  2   1   3  1   
  3   2   4  ar  
  4   2   5  ar  
  5   3   6  1   
  6   3  26  1   
  7   3  27  1   
  8   4   7  ar  
  9   4   8  1   
 10   5   9  ar  
 11   5  28  1   
 12   6  29  1   
 13   6  30  1   
 14   6  31  1   
 15   7  10  ar  
 16   7  32  1   
 17   8  11  1   
 18   8  33  1   
 19   8  34  1   
 20   9  10  ar  
 21   9  35  1   
 22  10  12  1   
 23  11  36  1   
 24  12  13  1   
 25  12  37  1   
 26  12  38  1   
 27  13  14  1   
 28  13  15  1   
 29  13  39  1   
 30  14  16  1   
 31  14  40  1   
 32  14  41  1   
 33  15  17  1   
 34  15  42  1   
 35  15  43  1   
 36  16  17  1   
 37  16  18  1   
 38  16  44  1   
 39  17  19  1   
 40  17  45  1   
 41  18  46  1   
 42  19  20  1   
 43  19  47  1   
 44  19  48  1   
 45  20  21  2   
 46  20  22  1   
 47  21  23  1   
 48  22  24  2   
 49  22  49  1   
 50  23  24  1   
 51  23  50  1   
 52  24  25  1   
 53  25  51  1   
 54  25  52  1   
 55  25  53  1   
@<TRIPOS>SUBSTRUCTURE
  1 ****   7 GROUP 4 **** **** 0

# MOE 2024.06 (io_trps.svl 2023.06)
