@<TRIPOS>MOLECULE
NONAME
40 42 1 0 0 
SMALL
USER_CHARGES


@<TRIPOS>ATOM
  1 S       -0.2160    -0.0700    -0.4200 S.3   1 <1>  -0.3320 
  2 C       -0.1920    -1.8520    -0.3530 C.ar  1 <1>   0.7220 
  3 C       -1.1750     0.4580     1.0700 C.3   1 <1>  -0.0100 
  4 N       -0.8340    -2.4090     0.6640 N.ar  1 <1>  -0.6200 
  5 N        0.4690    -2.4400    -1.3360 N.ar  1 <1>  -0.6200 
  6 C       -0.7960    -3.7230     0.6780 C.ar  1 <1>   0.1600 
  7 C        0.4790    -3.7550    -1.2810 C.ar  1 <1>   0.1600 
  8 C       -0.1610    -4.4790    -0.2920 C.ar  1 <1>   0.0860 
  9 C       -0.1500    -5.9190    -0.2790 C.2   1 <1>   0.5440 
 10 O        0.8920    -6.5040    -0.4930 O.2   1 <1>  -0.5700 
 11 N       -1.2900    -6.6550    -0.0470 N.am  1 <1>  -0.6600 
 12 C       -2.6800    -6.1650    -0.2440 C.3   1 <1>   0.1400 
 13 C       -1.2670    -8.1420    -0.0210 C.3   1 <1>   0.1400 
 14 C       -3.5080    -7.4220    -0.5090 C.3   1 <1>   0.2000 
 15 C       -2.7290    -8.5680     0.1300 C.3   1 <1>  -0.0800 
 16 O       -4.7700    -7.3310     0.0550 O.3   1 <1>  -0.6800 
 17 C       -3.0620    -9.9320    -0.5010 C.3   1 <1>  -0.0170 
 18 C       -2.3450   -11.0740     0.2020 C.ar  1 <1>   0.1670 
 19 N       -1.0810   -11.2740    -0.1330 N.ar  1 <1>  -0.6200 
 20 C       -3.0220   -11.8470     1.1440 C.ar  1 <1>   0.1600 
 21 C       -0.5440   -12.2850     0.5300 C.ar  1 <1>   0.1600 
 22 N       -2.4860   -12.8560     1.8110 N.ar  1 <1>  -0.6200 
 23 C       -1.2230   -13.0490     1.4710 C.ar  1 <1>   0.1600 
 24 H       -1.2100     1.5330     1.0730 H     1 <1>   0.0800 
 25 H       -0.6640     0.0860     1.9400 H     1 <1>   0.0800 
 26 H       -2.1620     0.0390     0.9930 H     1 <1>   0.0800 
 27 H       -1.2850    -4.2300     1.4930 H     1 <1>   0.1500 
 28 H        1.0140    -4.2890    -2.0500 H     1 <1>   0.1500 
 29 H       -3.0150    -5.6750     0.6520 H     1 <1>   0.0800 
 30 H       -2.7330    -5.4920    -1.0830 H     1 <1>   0.0800 
 31 H       -0.8540    -8.5060    -0.9480 H     1 <1>   0.0800 
 32 H       -0.6620    -8.5030     0.7950 H     1 <1>   0.0800 
 33 H       -3.6190    -7.5680    -1.5710 H     1 <1>   0.0800 
 34 H       -2.9430    -8.6020     1.1840 H     1 <1>   0.0800 
 35 H       -4.7100    -7.2340     1.0250 H     1 <1>   0.4000 
 36 H       -2.7850    -9.9340    -1.5410 H     1 <1>   0.0800 
 37 H       -4.1240   -10.0930    -0.4520 H     1 <1>   0.0800 
 38 H       -4.0510   -11.6210     1.3580 H     1 <1>   0.1500 
 39 H        0.4850   -12.5200     0.3200 H     1 <1>   0.1500 
 40 H       -0.7000   -13.8510     1.9600 H     1 <1>   0.1500 
@<TRIPOS>BOND
  1   1   2  1   
  2   1   3  1   
  3   2   4  ar  
  4   2   5  ar  
  5   3  24  1   
  6   3  25  1   
  7   3  26  1   
  8   4   6  ar  
  9   5   7  ar  
 10   6   8  ar  
 11   6  27  1   
 12   7   8  ar  
 13   7  28  1   
 14   8   9  1   
 15   9  10  2   
 16   9  11  am  
 17  11  12  1   
 18  11  13  1   
 19  12  14  1   
 20  12  29  1   
 21  12  30  1   
 22  13  15  1   
 23  13  31  1   
 24  13  32  1   
 25  14  15  1   
 26  14  16  1   
 27  14  33  1   
 28  15  17  1   
 29  15  34  1   
 30  16  35  1   
 31  17  18  1   
 32  17  36  1   
 33  17  37  1   
 34  18  19  ar  
 35  18  20  ar  
 36  19  21  ar  
 37  20  22  ar  
 38  20  38  1   
 39  21  23  ar  
 40  21  39  1   
 41  22  23  ar  
 42  23  40  1   
@<TRIPOS>SUBSTRUCTURE
  1 ****  11 GROUP 4 **** **** 0

# MOE 2024.06 (io_trps.svl 2023.06)
