@<TRIPOS>MOLECULE
NONAME
50 52 1 0 0 
SMALL
USER_CHARGES


@<TRIPOS>ATOM
  1 F       -0.9380     0.3800    -0.5310 F     1 <1>  -0.1900 
  2 C       -2.0970    -0.2230    -0.5150 C.ar  1 <1>   0.1900 
  3 C       -2.1450    -1.5830    -0.7540 C.ar  1 <1>  -0.1500 
  4 C       -3.2320     0.5240    -0.2610 C.ar  1 <1>  -0.1500 
  5 C       -3.3780    -2.2130    -0.7350 C.ar  1 <1>  -0.1500 
  6 C       -4.4620    -0.1150    -0.2440 C.ar  1 <1>  -0.1500 
  7 C       -4.5360    -1.4890    -0.4810 C.ar  1 <1>   0.0830 
  8 O       -5.6980    -2.1910    -0.4810 O.3   1 <1>  -0.3630 
  9 C       -6.9300    -1.5720    -0.2020 C.3   1 <1>   0.1200 
 10 C       -8.0130    -2.6500    -0.2970 C.3   1 <1>   0.3430 
 11 N       -9.3820    -2.1140    -0.0170 N.4   1 <1>  -0.9590 
 12 C       -9.5880    -1.6640     1.3930 C.3   1 <1>   0.3430 
 13 C      -10.4530    -3.0470    -0.4460 C.3   1 <1>   0.3430 
 14 C      -11.0390    -1.2140     1.6260 C.3   1 <1>  -0.1600 
 15 C      -11.7970    -2.3090    -0.4790 C.3   1 <1>  -0.1600 
 16 C      -11.8200    -0.9870     0.3200 C.3   1 <1>   0.2800 
 17 O      -11.1120    -0.0470    -0.4620 O.3   1 <1>  -0.5600 
 18 C      -13.2720    -0.5090     0.5770 C.3   1 <1>  -0.1600 
 19 C      -11.3400     1.3110    -0.1940 C.3   1 <1>   0.1200 
 20 C      -13.7560     0.5060    -0.4620 C.3   1 <1>   0.2800 
 21 C      -12.7940     1.6980    -0.5070 C.3   1 <1>  -0.1600 
 22 O      -13.7130    -0.0950    -1.6920 O.3   1 <1>  -0.6800 
 23 C      -15.2030     0.9320    -0.2350 C.3   1 <1>  -0.2400 
 24 H       -1.2400    -2.1290    -0.9480 H     1 <1>   0.1500 
 25 H       -3.1470     1.5810    -0.0820 H     1 <1>   0.1500 
 26 H       -3.4450    -3.2710    -0.9170 H     1 <1>   0.1500 
 27 H       -5.3360     0.4750    -0.0470 H     1 <1>   0.1500 
 28 H       -7.0920    -0.8020    -0.9360 H     1 <1>   0.0800 
 29 H       -6.8740    -1.1590     0.7890 H     1 <1>   0.0800 
 30 H       -7.7850    -3.4410     0.3990 H     1 <1>   0.0800 
 31 H       -7.9890    -3.0590    -1.2940 H     1 <1>   0.0800 
 32 H       -9.5570    -1.2630    -0.5890 H     1 <1>   0.4500 
 33 H       -8.9320    -0.8330     1.5980 H     1 <1>   0.0800 
 34 H       -9.3440    -2.4600     2.0780 H     1 <1>   0.0800 
 35 H      -10.5080    -3.8730     0.2460 H     1 <1>   0.0800 
 36 H      -10.2390    -3.4410    -1.4270 H     1 <1>   0.0800 
 37 H      -11.0430    -0.3270     2.2330 H     1 <1>   0.0800 
 38 H      -11.5400    -1.9740     2.2000 H     1 <1>   0.0800 
 39 H      -12.5360    -2.9840    -0.0860 H     1 <1>   0.0800 
 40 H      -12.0730    -2.1240    -1.5010 H     1 <1>   0.0800 
 41 H      -13.3240    -0.0380     1.5410 H     1 <1>   0.0800 
 42 H      -13.9530    -1.3410     0.6170 H     1 <1>   0.0800 
 43 H      -10.6640     1.8910    -0.8000 H     1 <1>   0.0800 
 44 H      -11.1150     1.4990     0.8420 H     1 <1>   0.0800 
 45 H      -12.8540     2.1850    -1.4650 H     1 <1>   0.0800 
 46 H      -13.0950     2.4270     0.2240 H     1 <1>   0.0800 
 47 H      -12.7760    -0.1490    -1.9600 H     1 <1>   0.4000 
 48 H      -15.3100     1.4040     0.7250 H     1 <1>   0.0800 
 49 H      -15.8540     0.0770    -0.2670 H     1 <1>   0.0800 
 50 H      -15.5070     1.6320    -0.9930 H     1 <1>   0.0800 
@<TRIPOS>BOND
  1   1   2  1   
  2   2   3  ar  
  3   2   4  ar  
  4   3   5  ar  
  5   3  24  1   
  6   4   6  ar  
  7   4  25  1   
  8   5   7  ar  
  9   5  26  1   
 10   6   7  ar  
 11   6  27  1   
 12   7   8  1   
 13   8   9  1   
 14   9  10  1   
 15   9  28  1   
 16   9  29  1   
 17  10  11  1   
 18  10  30  1   
 19  10  31  1   
 20  11  12  1   
 21  11  13  1   
 22  11  32  1   
 23  12  14  1   
 24  12  33  1   
 25  12  34  1   
 26  13  15  1   
 27  13  35  1   
 28  13  36  1   
 29  14  16  1   
 30  14  37  1   
 31  14  38  1   
 32  15  16  1   
 33  15  39  1   
 34  15  40  1   
 35  16  17  1   
 36  16  18  1   
 37  17  19  1   
 38  18  20  1   
 39  18  41  1   
 40  18  42  1   
 41  19  21  1   
 42  19  43  1   
 43  19  44  1   
 44  20  21  1   
 45  20  22  1   
 46  20  23  1   
 47  21  45  1   
 48  21  46  1   
 49  22  47  1   
 50  23  48  1   
 51  23  49  1   
 52  23  50  1   
@<TRIPOS>SUBSTRUCTURE
  1 ****  11 GROUP 4 **** **** 0

# MOE 2024.06 (io_trps.svl 2023.06)
