@<TRIPOS>MOLECULE
NONAME
57 60 1 0 0 
SMALL
USER_CHARGES


@<TRIPOS>ATOM
  1 N        0.0460     0.4700     0.2870 N.ar  1 <1>  -0.6200 
  2 C       -1.0680    -0.2230     0.0990 C.ar  1 <1>   0.7710 
  3 C       -0.0360     1.7860     0.3370 C.ar  1 <1>   0.4100 
  4 N       -2.2640     0.3740    -0.0260 N.ar  1 <1>  -0.1790 
  5 N       -1.0040    -1.5760     0.0340 N.pl3 1 <1>  -0.8380 
  6 N        1.1150     2.4870     0.5050 N.pl3 1 <1>  -0.8380 
  7 C       -1.2760     2.4450     0.2260 C.ar  1 <1>  -0.1500 
  8 C       -2.4030     1.7180     0.0400 C.ar  1 <1>   0.2180 
  9 C       -2.0990    -2.5480    -0.2300 C.3   1 <1>   0.2090 
 10 C        0.2890    -2.2990     0.1940 C.3   1 <1>   0.2090 
 11 C        2.3510     1.9030     1.1330 C.3   1 <1>   0.2090 
 12 C        1.3920     3.8580    -0.0490 C.3   1 <1>   0.2090 
 13 C       -3.7930     2.3290    -0.0890 C.3   1 <1>  -0.0170 
 14 C       -1.3960    -3.8680    -0.5130 C.3   1 <1>  -0.1600 
 15 C       -0.0820    -3.7740     0.2530 C.3   1 <1>  -0.1600 
 16 C        3.5260     1.8550     0.1380 C.3   1 <1>   0.2090 
 17 C        2.5780     3.8490    -1.0380 C.3   1 <1>   0.2090 
 18 C       -4.7210     1.9040     1.0570 C.3   1 <1>  -0.2400 
 19 N        3.7970     3.1950    -0.4680 N.pl3 1 <1>  -0.8380 
 20 C        4.7820     3.9760     0.0980 C.ar  1 <1>   0.4100 
 21 N        4.3720     4.9550     0.8800 N.ar  1 <1>  -0.6200 
 22 C        6.1370     3.7390    -0.1240 C.ar  1 <1>  -0.1430 
 23 C        5.3250     5.6700     1.4400 C.ar  1 <1>   0.4700 
 24 C        7.0300     4.5540     0.5380 C.ar  1 <1>   0.1670 
 25 C        6.5950     2.6300    -1.0750 C.3   1 <1>  -0.0970 
 26 N        6.6310     5.5310     1.3250 N.ar  1 <1>  -0.6200 
 27 C        8.5360     4.4010     0.4190 C.3   1 <1>  -0.0970 
 28 H       -3.0520    -0.2460    -0.1470 H     1 <1>   0.4570 
 29 H       -1.3030     3.5140     0.3100 H     1 <1>   0.1500 
 30 H       -2.7020    -2.2550    -1.0740 H     1 <1>   0.0800 
 31 H       -2.7120    -2.6480     0.6510 H     1 <1>   0.0800 
 32 H        0.8030    -1.9910     1.0900 H     1 <1>   0.0800 
 33 H        0.9150    -2.1050    -0.6620 H     1 <1>   0.0800 
 34 H        2.1620     0.9130     1.5070 H     1 <1>   0.0800 
 35 H        2.6390     2.5150     1.9700 H     1 <1>   0.0800 
 36 H        1.6260     4.5260     0.7620 H     1 <1>   0.0800 
 37 H        0.5320     4.2470    -0.5620 H     1 <1>   0.0800 
 38 H       -4.2290     2.0470    -1.0330 H     1 <1>   0.0800 
 39 H       -3.7120     3.4030    -0.0850 H     1 <1>   0.0800 
 40 H       -1.1980    -3.9450    -1.5680 H     1 <1>   0.0800 
 41 H       -1.9870    -4.7140    -0.2070 H     1 <1>   0.0800 
 42 H       -0.2320    -4.0580     1.2800 H     1 <1>   0.0800 
 43 H        0.6860    -4.3960    -0.1720 H     1 <1>   0.0800 
 44 H        3.2970     1.1530    -0.6440 H     1 <1>   0.0800 
 45 H        4.4050     1.5070     0.6510 H     1 <1>   0.0800 
 46 H        2.8130     4.8610    -1.3190 H     1 <1>   0.0800 
 47 H        2.2870     3.3220    -1.9290 H     1 <1>   0.0800 
 48 H       -4.8990     0.8440     1.0520 H     1 <1>   0.0800 
 49 H       -5.6710     2.4020     0.9610 H     1 <1>   0.0800 
 50 H       -4.2950     2.1810     2.0080 H     1 <1>   0.0800 
 51 H        4.9950     6.4710     2.0790 H     1 <1>   0.1500 
 52 H        5.8500     2.4380    -1.8260 H     1 <1>   0.0800 
 53 H        6.7690     1.7250    -0.5230 H     1 <1>   0.0800 
 54 H        7.4960     2.9090    -1.5890 H     1 <1>   0.0800 
 55 H        8.8160     3.3680     0.3380 H     1 <1>   0.0800 
 56 H        9.0180     4.8080     1.2910 H     1 <1>   0.0800 
 57 H        8.8850     4.9370    -0.4450 H     1 <1>   0.0800 
@<TRIPOS>BOND
  1   1   2  ar  
  2   1   3  ar  
  3   2   4  ar  
  4   2   5  1   
  5   3   6  1   
  6   3   7  ar  
  7   4   8  ar  
  8   4  28  1   
  9   5   9  1   
 10   5  10  1   
 11   6  11  1   
 12   6  12  1   
 13   7   8  ar  
 14   7  29  1   
 15   8  13  1   
 16   9  14  1   
 17   9  30  1   
 18   9  31  1   
 19  10  15  1   
 20  10  32  1   
 21  10  33  1   
 22  11  16  1   
 23  11  34  1   
 24  11  35  1   
 25  12  17  1   
 26  12  36  1   
 27  12  37  1   
 28  13  18  1   
 29  13  38  1   
 30  13  39  1   
 31  14  15  1   
 32  14  40  1   
 33  14  41  1   
 34  15  42  1   
 35  15  43  1   
 36  16  19  1   
 37  16  44  1   
 38  16  45  1   
 39  17  19  1   
 40  17  46  1   
 41  17  47  1   
 42  18  48  1   
 43  18  49  1   
 44  18  50  1   
 45  19  20  1   
 46  20  21  ar  
 47  20  22  ar  
 48  21  23  ar  
 49  22  24  ar  
 50  22  25  1   
 51  23  26  ar  
 52  23  51  1   
 53  24  26  ar  
 54  24  27  1   
 55  25  52  1   
 56  25  53  1   
 57  25  54  1   
 58  27  55  1   
 59  27  56  1   
 60  27  57  1   
@<TRIPOS>SUBSTRUCTURE
  1 ****   6 GROUP 4 **** **** 0

# MOE 2024.06 (io_trps.svl 2023.06)
