@<TRIPOS>MOLECULE
NONAME
44 46 1 0 0 
SMALL
USER_CHARGES


@<TRIPOS>ATOM
  1 O       -0.3160     0.0930     0.4850 O.2   1 <1>  -0.5700 
  2 C       -1.3630     0.7040     0.3930 C.2   1 <1>   0.5440 
  3 N       -2.5350    -0.0050     0.2570 N.am  1 <1>  -0.6600 
  4 C       -1.3500     2.1530     0.4090 C.ar  1 <1>   0.0860 
  5 C       -3.8000     0.5490    -0.2870 C.3   1 <1>   0.1400 
  6 C       -2.5580    -1.4900     0.2160 C.3   1 <1>   0.1400 
  7 C       -2.1950     2.9100     1.2060 C.ar  1 <1>  -0.1500 
  8 C       -0.4760     2.8840    -0.3790 C.ar  1 <1>  -0.1500 
  9 C       -4.5690    -0.6630    -0.8120 C.3   1 <1>   0.2000 
 10 C       -4.0190    -1.8620    -0.0430 C.3   1 <1>  -0.0800 
 11 C       -2.1480     4.2910     1.1620 C.ar  1 <1>   0.1660 
 12 C       -0.5010     4.2660    -0.3570 C.ar  1 <1>   0.1660 
 13 O       -5.9320    -0.5380    -0.5870 O.3   1 <1>  -0.6800 
 14 C       -4.2060    -3.1890    -0.7990 C.3   1 <1>  -0.0160 
 15 N       -1.3250     4.9780     0.3910 N.ar  1 <1>  -0.6200 
 16 C       -3.0740     5.1160     2.0300 C.3   1 <1>  -0.0970 
 17 C        0.4520     5.0600    -1.2230 C.3   1 <1>  -0.0970 
 18 C       -3.6990    -4.3710     0.0100 C.ar  1 <1>   0.1670 
 19 N       -2.3980    -4.6100    -0.0520 N.ar  1 <1>  -0.6200 
 20 C       -4.5910    -5.1250     0.7580 C.ar  1 <1>  -0.1500 
 21 C       -1.9680    -5.6380     0.6620 C.ar  1 <1>   0.1600 
 22 C       -4.1290    -6.1940     1.4960 C.ar  1 <1>  -0.1500 
 23 C       -2.7760    -6.4490     1.4400 C.ar  1 <1>  -0.1500 
 24 H       -4.3450     1.0310     0.5040 H     1 <1>   0.0800 
 25 H       -3.5990     1.2460    -1.0820 H     1 <1>   0.0800 
 26 H       -1.9240    -1.8300    -0.5860 H     1 <1>   0.0800 
 27 H       -2.2000    -1.9050     1.1440 H     1 <1>   0.0800 
 28 H       -2.8810     2.4110     1.8640 H     1 <1>   0.1500 
 29 H        0.2210     2.3590    -1.0060 H     1 <1>   0.1500 
 30 H       -4.4060    -0.7680    -1.8720 H     1 <1>   0.0800 
 31 H       -4.5030    -1.9270     0.9150 H     1 <1>   0.0800 
 32 H       -6.1160    -0.5000     0.3710 H     1 <1>   0.4000 
 33 H       -3.6810    -3.1560    -1.7380 H     1 <1>   0.0800 
 34 H       -5.2500    -3.3270    -1.0180 H     1 <1>   0.0800 
 35 H       -3.7070     4.4910     2.6310 H     1 <1>   0.0800 
 36 H       -3.6880     5.7400     1.4070 H     1 <1>   0.0800 
 37 H       -2.4900     5.7440     2.6780 H     1 <1>   0.0800 
 38 H        1.0890     4.4130    -1.7960 H     1 <1>   0.0800 
 39 H        1.0630     5.6880    -0.6000 H     1 <1>   0.0800 
 40 H       -0.1090     5.6830    -1.8960 H     1 <1>   0.0800 
 41 H       -5.6370    -4.8800     0.7660 H     1 <1>   0.1500 
 42 H       -0.9120    -5.8450     0.6240 H     1 <1>   0.1500 
 43 H       -4.7930    -6.8000     2.0880 H     1 <1>   0.1500 
 44 H       -2.3490    -7.2660     1.9910 H     1 <1>   0.1500 
@<TRIPOS>BOND
  1   1   2  2   
  2   2   3  am  
  3   2   4  1   
  4   3   5  1   
  5   3   6  1   
  6   4   7  ar  
  7   4   8  ar  
  8   5   9  1   
  9   5  24  1   
 10   5  25  1   
 11   6  10  1   
 12   6  26  1   
 13   6  27  1   
 14   7  11  ar  
 15   7  28  1   
 16   8  12  ar  
 17   8  29  1   
 18   9  10  1   
 19   9  13  1   
 20   9  30  1   
 21  10  14  1   
 22  10  31  1   
 23  11  15  ar  
 24  11  16  1   
 25  12  15  ar  
 26  12  17  1   
 27  13  32  1   
 28  14  18  1   
 29  14  33  1   
 30  14  34  1   
 31  16  35  1   
 32  16  36  1   
 33  16  37  1   
 34  17  38  1   
 35  17  39  1   
 36  17  40  1   
 37  18  19  ar  
 38  18  20  ar  
 39  19  21  ar  
 40  20  22  ar  
 41  20  41  1   
 42  21  23  ar  
 43  21  42  1   
 44  22  23  ar  
 45  22  43  1   
 46  23  44  1   
@<TRIPOS>SUBSTRUCTURE
  1 ****   3 GROUP 4 **** **** 0

# MOE 2024.06 (io_trps.svl 2023.06)
