@<TRIPOS>MOLECULE
NONAME
50 52 1 0 0 
SMALL
USER_CHARGES


@<TRIPOS>ATOM
  1 O        0.0790    -0.1100    -0.9660 O.2   1 <1>  -0.5700 
  2 C       -0.8900     0.6060    -0.8980 C.2   1 <1>   0.5690 
  3 N       -2.1530     0.0970    -0.7610 N.am  1 <1>  -0.6600 
  4 C       -0.6640     2.1030    -0.9510 C.3   1 <1>  -0.0990 
  5 C       -3.4110     0.8670    -0.6060 C.3   1 <1>   0.1400 
  6 C       -2.4190    -1.3580    -0.6780 C.3   1 <1>   0.1400 
  7 C       -0.4150     2.6640     0.4500 C.3   1 <1>   0.0210 
  8 C       -4.4990    -0.1820    -0.3630 C.3   1 <1>   0.2000 
  9 C       -3.7700    -1.4670     0.0300 C.3   1 <1>  -0.0800 
 10 C       -0.2730     4.1740     0.3860 C.2   1 <1>  -0.1810 
 11 O       -5.3530     0.2030     0.6580 O.3   1 <1>  -0.6800 
 12 C       -4.5720    -2.7320    -0.3260 C.3   1 <1>  -0.0170 
 13 C       -1.2910     5.1140     0.5280 C.2   1 <1>   0.1080 
 14 C        0.8420     4.9060     0.1740 C.2   1 <1>  -0.3320 
 15 C       -3.8520    -4.0010     0.1040 C.ar  1 <1>   0.1670 
 16 N       -0.8560     6.3270     0.4170 N.2   1 <1>  -0.7070 
 17 C       -2.7500     4.8130     0.7820 C.3   1 <1>  -0.0590 
 18 N        0.4630     6.2030     0.2000 N.pl3 1 <1>   0.3140 
 19 C        2.2720     4.4430    -0.0620 C.3   1 <1>  -0.0600 
 20 N       -2.9060    -4.4460    -0.7070 N.ar  1 <1>  -0.6200 
 21 C       -4.2000    -4.6300     1.2980 C.ar  1 <1>   0.1600 
 22 C        1.3140     7.3850     0.0210 C.3   1 <1>   0.0160 
 23 C       -2.3330    -5.5460    -0.2470 C.ar  1 <1>   0.1600 
 24 N       -3.6290    -5.7300     1.7600 N.ar  1 <1>  -0.6200 
 25 C       -2.6830    -6.1670     0.9460 C.ar  1 <1>   0.1600 
 26 H        0.1960     2.2980    -1.5660 H     1 <1>   0.0800 
 27 H       -1.5020     2.5940    -1.4070 H     1 <1>   0.0800 
 28 H       -3.3260     1.5360     0.2310 H     1 <1>   0.0800 
 29 H       -3.6200     1.4200    -1.5060 H     1 <1>   0.0800 
 30 H       -2.4710    -1.7630    -1.6740 H     1 <1>   0.0800 
 31 H       -1.6420    -1.8670    -0.1310 H     1 <1>   0.0800 
 32 H        0.4820     2.2320     0.8560 H     1 <1>   0.0800 
 33 H       -1.2250     2.4040     1.1070 H     1 <1>   0.0800 
 34 H       -5.0800    -0.3170    -1.2600 H     1 <1>   0.0800 
 35 H       -3.5710    -1.4590     1.0880 H     1 <1>   0.0800 
 36 H       -4.8620     0.2960     1.4970 H     1 <1>   0.4000 
 37 H       -4.7430    -2.7720    -1.3880 H     1 <1>   0.0800 
 38 H       -5.5340    -2.6860     0.1530 H     1 <1>   0.0800 
 39 H       -3.1350     4.1860     0.0020 H     1 <1>   0.0800 
 40 H       -3.3120     5.7290     0.8000 H     1 <1>   0.0800 
 41 H       -2.8590     4.3210     1.7310 H     1 <1>   0.0800 
 42 H        2.3280     3.3700    -0.0800 H     1 <1>   0.0800 
 43 H        2.9120     4.8040     0.7240 H     1 <1>   0.0800 
 44 H        2.6300     4.8150    -1.0050 H     1 <1>   0.0800 
 45 H       -4.9840    -4.2050     1.8990 H     1 <1>   0.1500 
 46 H        2.0800     7.3830     0.7720 H     1 <1>   0.0800 
 47 H        0.7120     8.2690     0.1210 H     1 <1>   0.0800 
 48 H        1.7530     7.3560    -0.9580 H     1 <1>   0.0800 
 49 H       -1.5490    -5.9770    -0.8430 H     1 <1>   0.1500 
 50 H       -2.1580    -7.0590     1.2360 H     1 <1>   0.1500 
@<TRIPOS>BOND
  1   1   2  2   
  2   2   3  am  
  3   2   4  1   
  4   3   5  1   
  5   3   6  1   
  6   4   7  1   
  7   4  26  1   
  8   4  27  1   
  9   5   8  1   
 10   5  28  1   
 11   5  29  1   
 12   6   9  1   
 13   6  30  1   
 14   6  31  1   
 15   7  10  1   
 16   7  32  1   
 17   7  33  1   
 18   8   9  1   
 19   8  11  1   
 20   8  34  1   
 21   9  12  1   
 22   9  35  1   
 23  10  13  1   
 24  10  14  2   
 25  11  36  1   
 26  12  15  1   
 27  12  37  1   
 28  12  38  1   
 29  13  16  2   
 30  13  17  1   
 31  14  18  1   
 32  14  19  1   
 33  15  20  ar  
 34  15  21  ar  
 35  16  18  1   
 36  17  39  1   
 37  17  40  1   
 38  17  41  1   
 39  18  22  1   
 40  19  42  1   
 41  19  43  1   
 42  19  44  1   
 43  20  23  ar  
 44  21  24  ar  
 45  21  45  1   
 46  22  46  1   
 47  22  47  1   
 48  22  48  1   
 49  23  25  ar  
 50  23  49  1   
 51  24  25  ar  
 52  25  50  1   
@<TRIPOS>SUBSTRUCTURE
  1 ****   3 GROUP 4 **** **** 0

# MOE 2024.06 (io_trps.svl 2023.06)
