@<TRIPOS>MOLECULE
NONAME
49 52 1 0 0 
SMALL
USER_CHARGES


@<TRIPOS>ATOM
  1 O       -1.3470    -1.0600    -0.1330 O.co2 1 <1>  -0.9000 
  2 C       -0.5120    -1.6480     0.5750 C.2   1 <1>   1.0330 
  3 O       -0.5570    -1.4960     1.8090 O.co2 1 <1>  -0.9000 
  4 C        0.4730    -2.4930    -0.0080 C.2   1 <1>  -0.2330 
  5 C        0.2840    -3.8300    -0.3510 C.2   1 <1>   0.3720 
  6 C        1.7580    -2.2430    -0.3670 C.2   1 <1>   0.0870 
  7 N        1.3470    -4.3290    -0.8760 N.2   1 <1>  -0.4100 
  8 N       -0.8790    -4.5830    -0.1720 N.pl3 1 <1>  -0.8210 
  9 O        2.2250    -3.3600    -0.8780 O.3   1 <1>  -0.0190 
 10 C        2.6010    -1.0730    -0.2870 C.ar  1 <1>   0.0530 
 11 C       -2.0020    -4.1520    -1.0370 C.3   1 <1>   0.2090 
 12 C       -1.3150    -4.6930     1.2410 C.3   1 <1>   0.2090 
 13 C        3.7270    -0.9440    -1.1040 C.ar  1 <1>  -0.1500 
 14 C        2.3390    -0.0290     0.6020 C.ar  1 <1>  -0.1500 
 15 C       -3.0510    -5.2660    -1.0520 C.3   1 <1>  -0.1600 
 16 C       -2.3100    -5.8500     1.3360 C.3   1 <1>  -0.1600 
 17 C        4.5470     0.1680    -1.0400 C.ar  1 <1>  -0.1500 
 18 C        3.1540     1.0870     0.6700 C.ar  1 <1>  -0.1500 
 19 C       -3.5040    -5.6380     0.3770 C.3   1 <1>  -0.0190 
 20 C        4.2620     1.1880    -0.1520 C.ar  1 <1>  -0.1500 
 21 C       -4.5410    -6.7710     0.3890 C.2   1 <1>   0.5690 
 22 O       -5.6800    -6.4550     0.6470 O.2   1 <1>  -0.5700 
 23 N       -4.2400    -8.0840     0.1140 N.am  1 <1>  -0.6600 
 24 C       -2.9260    -8.6900    -0.2080 C.3   1 <1>   0.1400 
 25 C       -5.3070    -9.1090     0.0480 C.3   1 <1>   0.1400 
 26 C       -3.2660   -10.0240    -0.8590 C.3   1 <1>  -0.1600 
 27 C       -4.5890   -10.4280    -0.2160 C.3   1 <1>  -0.1600 
 28 H       -1.6410    -3.9620    -2.0340 H     1 <1>   0.0800 
 29 H       -2.4370    -3.2430    -0.6550 H     1 <1>   0.0800 
 30 H       -1.7820    -3.7760     1.5620 H     1 <1>   0.0800 
 31 H       -0.4610    -4.8780     1.8710 H     1 <1>   0.0800 
 32 H        3.9580    -1.7280    -1.8010 H     1 <1>   0.1500 
 33 H        1.4870    -0.0880     1.2560 H     1 <1>   0.1500 
 34 H       -2.6280    -6.1110    -1.5580 H     1 <1>   0.0800 
 35 H       -3.9010    -4.9380    -1.6220 H     1 <1>   0.0800 
 36 H       -2.6680    -5.9270     2.3460 H     1 <1>   0.0800 
 37 H       -1.7740    -6.7470     1.1030 H     1 <1>   0.0800 
 38 H        5.4070     0.2390    -1.6830 H     1 <1>   0.1500 
 39 H        2.9190     1.8730     1.3650 H     1 <1>   0.1500 
 40 H       -4.0190    -4.7690     0.7510 H     1 <1>   0.0800 
 41 H        4.8950     2.0560    -0.0990 H     1 <1>   0.1500 
 42 H       -2.3880    -8.8630     0.7080 H     1 <1>   0.0800 
 43 H       -2.3390    -8.0740    -0.8630 H     1 <1>   0.0800 
 44 H       -5.9710    -8.8680    -0.7650 H     1 <1>   0.0800 
 45 H       -5.8650    -9.1370     0.9690 H     1 <1>   0.0800 
 46 H       -2.4920   -10.7540    -0.7040 H     1 <1>   0.0800 
 47 H       -3.4020    -9.8720    -1.9160 H     1 <1>   0.0800 
 48 H       -5.1700   -11.0790    -0.8450 H     1 <1>   0.0800 
 49 H       -4.4050   -10.9190     0.7230 H     1 <1>   0.0800 
@<TRIPOS>BOND
  1   1   2  ar  
  2   2   3  ar  
  3   2   4  1   
  4   4   5  1   
  5   4   6  2   
  6   5   7  2   
  7   5   8  1   
  8   6   9  1   
  9   6  10  1   
 10   7   9  1   
 11   8  11  1   
 12   8  12  1   
 13  10  13  ar  
 14  10  14  ar  
 15  11  15  1   
 16  11  28  1   
 17  11  29  1   
 18  12  16  1   
 19  12  30  1   
 20  12  31  1   
 21  13  17  ar  
 22  13  32  1   
 23  14  18  ar  
 24  14  33  1   
 25  15  19  1   
 26  15  34  1   
 27  15  35  1   
 28  16  19  1   
 29  16  36  1   
 30  16  37  1   
 31  17  20  ar  
 32  17  38  1   
 33  18  20  ar  
 34  18  39  1   
 35  19  21  1   
 36  19  40  1   
 37  20  41  1   
 38  21  22  2   
 39  21  23  am  
 40  23  24  1   
 41  23  25  1   
 42  24  26  1   
 43  24  42  1   
 44  24  43  1   
 45  25  27  1   
 46  25  44  1   
 47  25  45  1   
 48  26  27  1   
 49  26  46  1   
 50  26  47  1   
 51  27  48  1   
 52  27  49  1   
@<TRIPOS>SUBSTRUCTURE
  1 ****   8 GROUP 4 **** **** 0

# MOE 2024.06 (io_trps.svl 2023.06)
