@<TRIPOS>MOLECULE
NONAME
56 57 1 0 0 
SMALL
USER_CHARGES


@<TRIPOS>ATOM
  1 O        1.0850     1.5870     2.3910 O.co2 1 <1>  -0.9000 
  2 C        1.3160     0.6060     1.6740 C.2   1 <1>   0.9060 
  3 O        1.1610    -0.5430     2.1060 O.co2 1 <1>  -0.9000 
  4 C        1.8410     0.7830     0.2390 C.3   1 <1>  -0.1060 
  5 C        3.0670    -0.1590     0.1190 C.3   1 <1>   0.2000 
  6 C        2.2970     2.2490    -0.0410 C.3   1 <1>  -0.1600 
  7 C        0.7240     0.3450    -0.7500 C.3   1 <1>  -0.0160 
  8 O        3.5620    -0.1430    -1.1830 O.3   1 <1>  -0.6800 
  9 C        4.2170     0.3130     1.0280 C.3   1 <1>   0.1400 
 10 C        3.4910     2.6750     0.8270 C.3   1 <1>   0.1400 
 11 C       -0.4050     1.3580    -0.9390 C.ar  1 <1>  -0.1440 
 12 N        4.6180     1.7110     0.6490 N.am  1 <1>  -0.6600 
 13 C       -1.3220     1.5930     0.0730 C.ar  1 <1>  -0.1500 
 14 C       -0.5280     2.0510    -2.1350 C.ar  1 <1>  -0.1500 
 15 C        5.9010     2.0170     0.2630 C.2   1 <1>   0.5690 
 16 C       -2.3450     2.5090    -0.1040 C.ar  1 <1>  -0.1500 
 17 C       -1.5510     2.9660    -2.3160 C.ar  1 <1>  -0.1500 
 18 O        6.7650     1.1690     0.2540 O.2   1 <1>  -0.5700 
 19 C        6.2820     3.4440    -0.1750 C.3   1 <1>  -0.0190 
 20 C       -2.4610     3.1960    -1.2990 C.ar  1 <1>  -0.1500 
 21 C        7.4620     3.4220    -1.1810 C.3   1 <1>  -0.1600 
 22 C        6.5700     4.3210     1.0700 C.3   1 <1>  -0.1600 
 23 C        7.8120     4.7840    -1.7980 C.3   1 <1>  -0.1600 
 24 C        6.0270     5.7560     0.9540 C.3   1 <1>  -0.1600 
 25 C        8.8520     4.6300    -2.9110 C.3   1 <1>  -0.2400 
 26 C        6.3620     6.5680     2.2070 C.3   1 <1>  -0.2400 
 27 H        2.7910    -1.1730     0.3550 H     1 <1>   0.0800 
 28 H        1.4810     2.9200     0.1660 H     1 <1>   0.0800 
 29 H        2.5530     2.3660    -1.0780 H     1 <1>   0.0800 
 30 H        1.1520     0.1470    -1.7150 H     1 <1>   0.0800 
 31 H        0.3000    -0.5840    -0.4100 H     1 <1>   0.0800 
 32 H        4.1370     0.6470    -1.2410 H     1 <1>   0.4000 
 33 H        5.0430    -0.3690     0.9360 H     1 <1>   0.0800 
 34 H        3.9000     0.3000     2.0570 H     1 <1>   0.0800 
 35 H        3.2020     2.6810     1.8650 H     1 <1>   0.0800 
 36 H        3.7740     3.6770     0.5740 H     1 <1>   0.0800 
 37 H       -1.2370     1.0680     1.0110 H     1 <1>   0.1500 
 38 H        0.1770     1.8800    -2.9280 H     1 <1>   0.1500 
 39 H       -3.0430     2.6830     0.6950 H     1 <1>   0.1500 
 40 H       -1.6380     3.4980    -3.2460 H     1 <1>   0.1500 
 41 H        5.4400     3.8440    -0.7070 H     1 <1>   0.0800 
 42 H       -3.2560     3.9070    -1.4350 H     1 <1>   0.1500 
 43 H        8.3360     3.0220    -0.6950 H     1 <1>   0.0800 
 44 H        7.2050     2.7420    -1.9750 H     1 <1>   0.0800 
 45 H        6.1070     3.8670     1.9300 H     1 <1>   0.0800 
 46 H        7.6290     4.3370     1.2620 H     1 <1>   0.0800 
 47 H        6.9250     5.2400    -2.2040 H     1 <1>   0.0800 
 48 H        8.2160     5.4330    -1.0420 H     1 <1>   0.0800 
 49 H        6.4420     6.2540     0.0970 H     1 <1>   0.0800 
 50 H        4.9580     5.7280     0.8320 H     1 <1>   0.0800 
 51 H        8.4700     4.0060    -3.7000 H     1 <1>   0.0800 
 52 H        9.7520     4.1860    -2.5240 H     1 <1>   0.0800 
 53 H        9.0950     5.5930    -3.3240 H     1 <1>   0.0800 
 54 H        7.4280     6.6290     2.3420 H     1 <1>   0.0800 
 55 H        5.9270     6.1100     3.0790 H     1 <1>   0.0800 
 56 H        5.9710     7.5660     2.1150 H     1 <1>   0.0800 
@<TRIPOS>BOND
  1   1   2  ar  
  2   2   3  ar  
  3   2   4  1   
  4   4   5  1   
  5   4   6  1   
  6   4   7  1   
  7   5   8  1   
  8   5   9  1   
  9   5  27  1   
 10   6  10  1   
 11   6  28  1   
 12   6  29  1   
 13   7  11  1   
 14   7  30  1   
 15   7  31  1   
 16   8  32  1   
 17   9  12  1   
 18   9  33  1   
 19   9  34  1   
 20  10  12  1   
 21  10  35  1   
 22  10  36  1   
 23  11  13  ar  
 24  11  14  ar  
 25  12  15  am  
 26  13  16  ar  
 27  13  37  1   
 28  14  17  ar  
 29  14  38  1   
 30  15  18  2   
 31  15  19  1   
 32  16  20  ar  
 33  16  39  1   
 34  17  20  ar  
 35  17  40  1   
 36  19  21  1   
 37  19  22  1   
 38  19  41  1   
 39  20  42  1   
 40  21  23  1   
 41  21  43  1   
 42  21  44  1   
 43  22  24  1   
 44  22  45  1   
 45  22  46  1   
 46  23  25  1   
 47  23  47  1   
 48  23  48  1   
 49  24  26  1   
 50  24  49  1   
 51  24  50  1   
 52  25  51  1   
 53  25  52  1   
 54  25  53  1   
 55  26  54  1   
 56  26  55  1   
 57  26  56  1   
@<TRIPOS>SUBSTRUCTURE
  1 ****   6 GROUP 4 **** **** 0

# MOE 2024.06 (io_trps.svl 2023.06)
