@<TRIPOS>MOLECULE
NONAME
59 60 1 0 0 
SMALL
USER_CHARGES


@<TRIPOS>ATOM
  1 O       -0.4830     0.4270    -1.4550 O.2   1 <1>  -0.5700 
  2 C       -1.5430     1.0120    -1.5660 C.2   1 <1>   0.5440 
  3 N       -2.7140     0.3270    -1.3210 N.am  1 <1>  -0.6600 
  4 C       -1.5430     2.4170    -1.9300 C.ar  1 <1>   0.0860 
  5 C       -3.9950     0.9890    -0.9290 C.3   1 <1>   0.1400 
  6 C       -2.7440    -1.1540    -1.1170 C.3   1 <1>   0.1400 
  7 C       -0.7480     3.3290    -1.2420 C.ar  1 <1>  -0.1500 
  8 C       -2.3350     2.9010    -2.9710 C.ar  1 <1>  -0.1500 
  9 C       -4.4350     0.5310     0.4790 C.3   1 <1>   0.2000 
 10 C       -3.2570    -1.5040     0.2950 C.3   1 <1>   0.2000 
 11 C       -0.7460     4.6830    -1.5450 C.ar  1 <1>   0.1170 
 12 C       -2.3450     4.2450    -3.2930 C.ar  1 <1>  -0.1500 
 13 O       -4.4820    -0.8680     0.5300 O.3   1 <1>  -0.5600 
 14 C       -5.8120     1.0750     0.9250 C.3   1 <1>  -0.0800 
 15 C       -3.4950    -3.0060     0.4980 C.3   1 <1>  -0.1600 
 16 N        0.0790     5.5370    -0.8000 N.am  1 <1>  -0.5470 
 17 C       -1.5560     5.1300    -2.5830 C.ar  1 <1>  -0.1500 
 18 C       -6.9760     0.6300     0.0220 C.3   1 <1>  -0.2400 
 19 C       -5.8120     2.6070     1.0480 C.3   1 <1>  -0.2400 
 20 C       -2.2030    -3.8360     0.4190 C.3   1 <1>  -0.1600 
 21 C        0.0690     6.8900    -0.6050 C.2   1 <1>   0.5690 
 22 C       -2.4800    -5.3130     0.7230 C.3   1 <1>  -0.1600 
 23 O       -0.7430     7.6390    -1.0920 O.2   1 <1>  -0.5700 
 24 C        1.1530     7.4730     0.2980 C.3   1 <1>   0.1810 
 25 C       -1.1960    -6.1430     0.6430 C.3   1 <1>  -0.2400 
 26 O        1.9540     6.4600     0.8650 O.3   1 <1>  -0.5600 
 27 C        2.9620     6.9400     1.6970 C.3   1 <1>   0.0400 
 28 H       -3.8830     2.0570    -0.9270 H     1 <1>   0.0800 
 29 H       -4.7520     0.7330    -1.6480 H     1 <1>   0.0800 
 30 H       -3.3940    -1.5960    -1.8500 H     1 <1>   0.0800 
 31 H       -1.7630    -1.5710    -1.2560 H     1 <1>   0.0800 
 32 H       -0.1210     2.9620    -0.4500 H     1 <1>   0.1500 
 33 H       -2.9440     2.2110    -3.5290 H     1 <1>   0.1500 
 34 H       -3.6980     0.8550     1.1930 H     1 <1>   0.0800 
 35 H       -2.5530    -1.1540     1.0310 H     1 <1>   0.0800 
 36 H       -2.9630     4.6050    -4.0980 H     1 <1>   0.1500 
 37 H       -5.9920     0.6770     1.9100 H     1 <1>   0.0800 
 38 H       -3.9370    -3.1460     1.4690 H     1 <1>   0.0800 
 39 H       -4.1930    -3.3560    -0.2420 H     1 <1>   0.0800 
 40 H        0.8220     5.0870    -0.2560 H     1 <1>   0.3700 
 41 H       -1.5700     6.1730    -2.8450 H     1 <1>   0.1500 
 42 H       -6.8950     1.0570    -0.9610 H     1 <1>   0.0800 
 43 H       -7.9130     0.9380     0.4490 H     1 <1>   0.0800 
 44 H       -6.9880    -0.4420    -0.0680 H     1 <1>   0.0800 
 45 H       -5.7060     3.0770     0.0870 H     1 <1>   0.0800 
 46 H       -5.0080     2.9320     1.6840 H     1 <1>   0.0800 
 47 H       -6.7380     2.9410     1.4840 H     1 <1>   0.0800 
 48 H       -1.7720    -3.7570    -0.5640 H     1 <1>   0.0800 
 49 H       -1.4890    -3.4550     1.1300 H     1 <1>   0.0800 
 50 H       -2.9010    -5.4080     1.7090 H     1 <1>   0.0800 
 51 H       -3.1960    -5.7000     0.0160 H     1 <1>   0.0800 
 52 H        0.6870     8.0290     1.0910 H     1 <1>   0.0800 
 53 H        1.7800     8.1260    -0.2820 H     1 <1>   0.0800 
 54 H       -0.4730    -5.7870     1.3570 H     1 <1>   0.0800 
 55 H       -0.7680    -6.0820    -0.3430 H     1 <1>   0.0800 
 56 H       -1.4100    -7.1740     0.8590 H     1 <1>   0.0800 
 57 H        3.5120     6.0980     2.0790 H     1 <1>   0.0800 
 58 H        2.5210     7.4840     2.5150 H     1 <1>   0.0800 
 59 H        3.6200     7.5750     1.1300 H     1 <1>   0.0800 
@<TRIPOS>BOND
  1   1   2  2   
  2   2   3  am  
  3   2   4  1   
  4   3   5  1   
  5   3   6  1   
  6   4   7  ar  
  7   4   8  ar  
  8   5   9  1   
  9   5  28  1   
 10   5  29  1   
 11   6  10  1   
 12   6  30  1   
 13   6  31  1   
 14   7  11  ar  
 15   7  32  1   
 16   8  12  ar  
 17   8  33  1   
 18   9  13  1   
 19   9  14  1   
 20   9  34  1   
 21  10  13  1   
 22  10  15  1   
 23  10  35  1   
 24  11  16  1   
 25  11  17  ar  
 26  12  17  ar  
 27  12  36  1   
 28  14  18  1   
 29  14  19  1   
 30  14  37  1   
 31  15  20  1   
 32  15  38  1   
 33  15  39  1   
 34  16  21  am  
 35  16  40  1   
 36  17  41  1   
 37  18  42  1   
 38  18  43  1   
 39  18  44  1   
 40  19  45  1   
 41  19  46  1   
 42  19  47  1   
 43  20  22  1   
 44  20  48  1   
 45  20  49  1   
 46  21  23  2   
 47  21  24  1   
 48  22  25  1   
 49  22  50  1   
 50  22  51  1   
 51  24  26  1   
 52  24  52  1   
 53  24  53  1   
 54  25  54  1   
 55  25  55  1   
 56  25  56  1   
 57  26  27  1   
 58  27  57  1   
 59  27  58  1   
 60  27  59  1   
@<TRIPOS>SUBSTRUCTURE
  1 ****   2 GROUP 4 **** **** 0

# MOE 2024.06 (io_trps.svl 2023.06)
