@<TRIPOS>MOLECULE
NONAME
57 60 1 0 0 
SMALL
USER_CHARGES


@<TRIPOS>ATOM
  1 CL      -0.2730    -4.9990    -1.7870 Cl    1 <1>  -0.1770 
  2 C        0.7870    -3.6560    -1.4320 C.ar  1 <1>   0.1770 
  3 C        0.7220    -3.0170    -0.1950 C.ar  1 <1>   0.0860 
  4 C        1.6800    -3.2630    -2.4120 C.ar  1 <1>  -0.1500 
  5 C       -0.2010    -3.4380     0.8310 C.2   1 <1>   0.5440 
  6 C        1.5910    -1.9470     0.0190 C.ar  1 <1>  -0.1500 
  7 C        2.5370    -2.2030    -2.1720 C.ar  1 <1>  -0.1500 
  8 O       -1.2320    -2.8120     0.9830 O.2   1 <1>  -0.5700 
  9 N        0.0680    -4.5120     1.6550 N.am  1 <1>  -0.6600 
 10 C        2.4890    -1.5450    -0.9540 C.ar  1 <1>  -0.1500 
 11 C       -0.9410    -5.0380     2.6140 C.3   1 <1>   0.1400 
 12 C        1.3420    -5.2800     1.6400 C.3   1 <1>   0.1400 
 13 C       -1.2960    -6.4750     2.2250 C.3   1 <1>  -0.1600 
 14 C        1.0510    -6.7230     1.2240 C.3   1 <1>  -0.1600 
 15 C       -0.0390    -7.3630     2.1110 C.3   1 <1>  -0.0190 
 16 C       -0.3690    -8.8160     1.7480 C.2   1 <1>   0.5690 
 17 O       -0.2810    -9.6240     2.6420 O.2   1 <1>  -0.5700 
 18 N       -0.7530    -9.2190     0.4920 N.am  1 <1>  -0.6600 
 19 C       -1.0400    -8.4030    -0.7210 C.3   1 <1>   0.1400 
 20 C       -1.0570   -10.6470     0.2010 C.3   1 <1>   0.1400 
 21 C       -2.0500    -9.2380    -1.5020 C.3   1 <1>   0.2000 
 22 C       -1.5910   -10.6730    -1.2370 C.3   1 <1>  -0.0800 
 23 O       -3.3000    -9.0390    -0.9330 O.3   1 <1>  -0.6800 
 24 C       -2.6450   -11.7660    -1.4880 C.3   1 <1>   0.0210 
 25 C       -2.0750   -13.1400    -1.1950 C.2   1 <1>   0.1080 
 26 N       -1.1030   -13.6590    -1.8790 N.2   1 <1>  -0.7070 
 27 C       -2.5090   -13.9810    -0.1760 C.2   1 <1>  -0.1500 
 28 N       -0.8890   -14.8600    -1.3080 N.pl3 1 <1>   0.3000 
 29 C       -1.7280   -15.0770    -0.2730 C.2   1 <1>  -0.3320 
 30 C       -1.7300   -16.3370     0.5730 C.3   1 <1>  -0.0600 
 31 H        1.7000    -3.7800    -3.3550 H     1 <1>   0.1500 
 32 H        1.5510    -1.4290     0.9620 H     1 <1>   0.1500 
 33 H        3.2350    -1.8880    -2.9300 H     1 <1>   0.1500 
 34 H        3.1500    -0.7150    -0.7670 H     1 <1>   0.1500 
 35 H       -0.5280    -5.0140     3.6080 H     1 <1>   0.0800 
 36 H       -1.8310    -4.4330     2.6100 H     1 <1>   0.0800 
 37 H        2.0540    -4.8410     0.9650 H     1 <1>   0.0800 
 38 H        1.7700    -5.2640     2.6280 H     1 <1>   0.0800 
 39 H       -1.9550    -6.8870     2.9690 H     1 <1>   0.0800 
 40 H       -1.8370    -6.4440     1.3000 H     1 <1>   0.0800 
 41 H        0.7550    -6.7180     0.1950 H     1 <1>   0.0800 
 42 H        1.9540    -7.3030     1.2970 H     1 <1>   0.0800 
 43 H        0.3810    -7.4030     3.1020 H     1 <1>   0.0800 
 44 H       -1.4300    -7.4290    -0.4990 H     1 <1>   0.0800 
 45 H       -0.1370    -8.3040    -1.2970 H     1 <1>   0.0800 
 46 H       -0.1710   -11.2520     0.2980 H     1 <1>   0.0800 
 47 H       -1.8000   -10.9980     0.8960 H     1 <1>   0.0800 
 48 H       -2.0990    -8.9860    -2.5470 H     1 <1>   0.0800 
 49 H       -0.7520   -10.8720    -1.8820 H     1 <1>   0.0800 
 50 H       -3.2090    -9.1200     0.0380 H     1 <1>   0.4000 
 51 H       -2.9570   -11.7340    -2.5160 H     1 <1>   0.0800 
 52 H       -3.5120   -11.6070    -0.8720 H     1 <1>   0.0800 
 53 H       -3.2980   -13.7750     0.5250 H     1 <1>   0.1500 
 54 H       -0.1660   -15.5040    -1.6470 H     1 <1>   0.2700 
 55 H       -2.4880   -16.2690     1.3330 H     1 <1>   0.0800 
 56 H       -0.7760   -16.4650     1.0520 H     1 <1>   0.0800 
 57 H       -1.9360   -17.1960    -0.0400 H     1 <1>   0.0800 
@<TRIPOS>BOND
  1   1   2  1   
  2   2   3  ar  
  3   2   4  ar  
  4   3   5  1   
  5   3   6  ar  
  6   4   7  ar  
  7   4  31  1   
  8   5   8  2   
  9   5   9  am  
 10   6  10  ar  
 11   6  32  1   
 12   7  10  ar  
 13   7  33  1   
 14   9  11  1   
 15   9  12  1   
 16  10  34  1   
 17  11  13  1   
 18  11  35  1   
 19  11  36  1   
 20  12  14  1   
 21  12  37  1   
 22  12  38  1   
 23  13  15  1   
 24  13  39  1   
 25  13  40  1   
 26  14  15  1   
 27  14  41  1   
 28  14  42  1   
 29  15  16  1   
 30  15  43  1   
 31  16  17  2   
 32  16  18  am  
 33  18  19  1   
 34  18  20  1   
 35  19  21  1   
 36  19  44  1   
 37  19  45  1   
 38  20  22  1   
 39  20  46  1   
 40  20  47  1   
 41  21  22  1   
 42  21  23  1   
 43  21  48  1   
 44  22  24  1   
 45  22  49  1   
 46  23  50  1   
 47  24  25  1   
 48  24  51  1   
 49  24  52  1   
 50  25  26  2   
 51  25  27  1   
 52  26  28  1   
 53  27  29  2   
 54  27  53  1   
 55  28  29  1   
 56  28  54  1   
 57  29  30  1   
 58  30  55  1   
 59  30  56  1   
 60  30  57  1   
@<TRIPOS>SUBSTRUCTURE
  1 ****  19 GROUP 4 **** **** 0

# MOE 2024.06 (io_trps.svl 2023.06)
