@<TRIPOS>MOLECULE
NONAME
19 19 1 0 0 
SMALL
USER_CHARGES


@<TRIPOS>ATOM
  1 S       -0.2030    -0.2530     0.2500 S.3   1 <1>  -0.0800 
  2 C        1.4180     0.3740     0.4700 C.2   1 <1>   0.4620 
  3 C        0.4850    -1.7610    -0.2900 C.2   1 <1>  -0.1100 
  4 N        2.3470    -0.4530     0.1730 N.2   1 <1>  -0.5650 
  5 N        1.5770     1.6380     0.9230 N.pl3 1 <1>  -0.8840 
  6 C        1.8280    -1.6720    -0.2600 C.2   1 <1>   0.0460 
  7 C        2.7970    -2.8030    -0.6650 C.3   1 <1>   0.8610 
  8 F        2.0660    -3.8060    -1.1590 F     1 <1>  -0.3400 
  9 F        3.5040    -2.3950    -1.7200 F     1 <1>  -0.3400 
 10 C        3.7210    -3.3150     0.4620 C.3   1 <1>   0.6800 
 11 F        4.5290    -2.3400     0.9100 F     1 <1>  -0.3400 
 12 F        2.9870    -3.6300     1.5440 F     1 <1>  -0.3400 
 13 C        4.5660    -4.5350     0.0170 C.3   1 <1>   1.0200 
 14 F        5.3210    -4.3110    -1.0560 F     1 <1>  -0.3400 
 15 F        3.8430    -5.6150    -0.2730 F     1 <1>  -0.3400 
 16 F        5.4170    -4.9380     0.9600 F     1 <1>  -0.3400 
 17 H       -0.1960    -2.5450    -0.5720 H     1 <1>   0.1500 
 18 H        2.5160     2.0170     1.0470 H     1 <1>   0.4000 
 19 H        0.7880     2.2500     1.1330 H     1 <1>   0.4000 
@<TRIPOS>BOND
  1   1   2  1   
  2   1   3  1   
  3   2   4  2   
  4   2   5  1   
  5   3   6  2   
  6   3  17  1   
  7   4   6  1   
  8   5  18  1   
  9   5  19  1   
 10   6   7  1   
 11   7   8  1   
 12   7   9  1   
 13   7  10  1   
 14  10  11  1   
 15  10  12  1   
 16  10  13  1   
 17  13  14  1   
 18  13  15  1   
 19  13  16  1   
@<TRIPOS>SUBSTRUCTURE
  1 ****   7 GROUP 4 **** **** 0

# MOE 2024.06 (io_trps.svl 2023.06)
