@<TRIPOS>MOLECULE
NONAME
50 53 1 0 0 
SMALL
USER_CHARGES


@<TRIPOS>ATOM
  1 O       -2.2060     0.5080     2.8380 O.2   1 <1>  -0.5700 
  2 C       -2.3960     1.0700     1.7840 C.2   1 <1>   0.5690 
  3 N       -3.2750     0.5640     0.8650 N.am  1 <1>  -0.6600 
  4 C       -1.6190     2.3480     1.5240 C.3   1 <1>   0.0440 
  5 C       -3.6350     1.1650    -0.4480 C.3   1 <1>   0.1400 
  6 C       -3.7620    -0.8350     0.9380 C.3   1 <1>   0.1400 
  7 C       -0.7980     2.3050     0.2400 C.ar  1 <1>   0.1660 
  8 C       -4.6240     0.1760    -1.0660 C.3   1 <1>   0.2000 
  9 C       -4.2080    -1.1790    -0.4900 C.3   1 <1>  -0.0800 
 10 N       -1.0610     3.2940    -0.6050 N.ar  1 <1>  -0.6200 
 11 C        0.1410     1.2990    -0.0110 C.ar  1 <1>  -0.1440 
 12 O       -5.8950     0.4710    -0.5980 O.3   1 <1>  -0.6800 
 13 C       -3.0590    -1.7920    -1.3200 C.3   1 <1>  -0.0170 
 14 C       -0.3760     3.2970    -1.7350 C.ar  1 <1>   0.1600 
 15 C        0.8340     1.3210    -1.2050 C.ar  1 <1>  -0.1500 
 16 C        0.4420     0.1640     0.9620 C.3   1 <1>  -0.0970 
 17 C       -2.6010    -3.1320    -0.7690 C.ar  1 <1>   0.1670 
 18 C        0.5650     2.3480    -2.0810 C.ar  1 <1>  -0.1500 
 19 N       -1.4980    -3.1550    -0.0870 N.ar  1 <1>  -0.6200 
 20 C       -3.3840    -4.2710    -1.0190 C.ar  1 <1>  -0.1500 
 21 C       -1.0910    -4.3460     0.4210 C.ar  1 <1>   0.3100 
 22 C       -2.9970    -5.4800    -0.5280 C.ar  1 <1>  -0.1500 
 23 C       -1.8120    -5.5450     0.2230 C.ar  1 <1>   0.0000 
 24 C        0.0910    -4.3940     1.1750 C.ar  1 <1>  -0.1500 
 25 C       -1.3200    -6.7400     0.7830 C.ar  1 <1>  -0.1500 
 26 C        0.5530    -5.5670     1.7130 C.ar  1 <1>  -0.1500 
 27 C       -0.1620    -6.7520     1.5130 C.ar  1 <1>  -0.1500 
 28 H       -2.3210     3.1590     1.4870 H     1 <1>   0.0800 
 29 H       -0.9580     2.5340     2.3480 H     1 <1>   0.0800 
 30 H       -4.0570     2.1490    -0.3400 H     1 <1>   0.0800 
 31 H       -2.7590     1.2160    -1.0700 H     1 <1>   0.0800 
 32 H       -2.9900    -1.4910     1.3050 H     1 <1>   0.0800 
 33 H       -4.5990    -0.8770     1.6140 H     1 <1>   0.0800 
 34 H       -4.6430     0.2090    -2.1420 H     1 <1>   0.0800 
 35 H       -5.0350    -1.8670    -0.4800 H     1 <1>   0.0800 
 36 H       -5.8480     0.6020     0.3700 H     1 <1>   0.4000 
 37 H       -2.2160    -1.1220    -1.3380 H     1 <1>   0.0800 
 38 H       -3.3820    -1.9300    -2.3360 H     1 <1>   0.0800 
 39 H       -0.5770     4.1000    -2.4230 H     1 <1>   0.1500 
 40 H        1.5610     0.5660    -1.4490 H     1 <1>   0.1500 
 41 H        1.3930    -0.2870     0.7430 H     1 <1>   0.0800 
 42 H       -0.3150    -0.5980     0.8860 H     1 <1>   0.0800 
 43 H        0.4740     0.5220     1.9750 H     1 <1>   0.0800 
 44 H        1.0810     2.4140    -3.0210 H     1 <1>   0.1500 
 45 H       -4.2850    -4.1730    -1.5980 H     1 <1>   0.1500 
 46 H       -3.5700    -6.3740    -0.6980 H     1 <1>   0.1500 
 47 H        0.6240    -3.4730     1.3190 H     1 <1>   0.1500 
 48 H       -1.8740    -7.6480     0.6270 H     1 <1>   0.1500 
 49 H        1.4610    -5.5900     2.2900 H     1 <1>   0.1500 
 50 H        0.2120    -7.6670     1.9410 H     1 <1>   0.1500 
@<TRIPOS>BOND
  1   1   2  2   
  2   2   3  am  
  3   2   4  1   
  4   3   5  1   
  5   3   6  1   
  6   4   7  1   
  7   4  28  1   
  8   4  29  1   
  9   5   8  1   
 10   5  30  1   
 11   5  31  1   
 12   6   9  1   
 13   6  32  1   
 14   6  33  1   
 15   7  10  ar  
 16   7  11  ar  
 17   8   9  1   
 18   8  12  1   
 19   8  34  1   
 20   9  13  1   
 21   9  35  1   
 22  10  14  ar  
 23  11  15  ar  
 24  11  16  1   
 25  12  36  1   
 26  13  17  1   
 27  13  37  1   
 28  13  38  1   
 29  14  18  ar  
 30  14  39  1   
 31  15  18  ar  
 32  15  40  1   
 33  16  41  1   
 34  16  42  1   
 35  16  43  1   
 36  17  19  ar  
 37  17  20  ar  
 38  18  44  1   
 39  19  21  ar  
 40  20  22  ar  
 41  20  45  1   
 42  21  23  ar  
 43  21  24  ar  
 44  22  23  ar  
 45  22  46  1   
 46  23  25  ar  
 47  24  26  ar  
 48  24  47  1   
 49  25  27  ar  
 50  25  48  1   
 51  26  27  ar  
 52  26  49  1   
 53  27  50  1   
@<TRIPOS>SUBSTRUCTURE
  1 ****  19 GROUP 4 **** **** 0

# MOE 2024.06 (io_trps.svl 2023.06)
