@<TRIPOS>MOLECULE
NONAME
39 40 1 0 0 
SMALL
USER_CHARGES


@<TRIPOS>ATOM
  1 N       -0.7230    -0.0760     1.1930 N.ar  1 <1>  -0.6200 
  2 C       -1.7670     0.3320     0.4930 C.ar  1 <1>   0.4100 
  3 C       -0.8310    -1.2810     1.7160 C.ar  1 <1>   0.4700 
  4 N       -1.7220     1.5940    -0.0670 N.pl3 1 <1>  -0.8380 
  5 C       -2.8720    -0.4690     0.3380 C.ar  1 <1>  -0.1500 
  6 N       -1.8390    -2.1280     1.6370 N.ar  1 <1>  -0.6200 
  7 C       -0.4270     2.1260    -0.5650 C.3   1 <1>   0.2090 
  8 C       -2.6900     2.6130     0.4230 C.3   1 <1>   0.1290 
  9 C       -2.8710    -1.7060     0.9320 C.ar  1 <1>   0.4100 
 10 C       -0.6400     2.7970    -1.9180 C.3   1 <1>  -0.2400 
 11 N       -3.9470    -2.5470     0.8090 N.pl3 1 <1>  -0.8690 
 12 C       -4.1440    -3.6980     1.6990 C.3   1 <1>   0.3890 
 13 C       -5.3820    -4.4200     1.2220 C.2   1 <1>  -0.3320 
 14 N       -5.4710    -5.1070     0.0630 N.pl3 1 <1>   0.0480 
 15 C       -6.5870    -4.5260     1.8250 C.2   1 <1>   0.0770 
 16 C       -6.7370    -5.5820     0.0470 C.2   1 <1>   0.0360 
 17 C       -4.4340    -5.3140    -0.9730 C.3   1 <1>   0.0960 
 18 N       -7.4390    -5.2570     1.0830 N.2   1 <1>  -0.5650 
 19 C       -3.6110    -6.5690    -0.6680 C.3   1 <1>  -0.2400 
 20 H        0.0180    -1.6170     2.2860 H     1 <1>   0.1500 
 21 H       -3.7040    -0.1310    -0.2410 H     1 <1>   0.1500 
 22 H        0.2780     1.3200    -0.6840 H     1 <1>   0.0800 
 23 H       -0.0210     2.8250     0.1470 H     1 <1>   0.0800 
 24 H       -3.4300     2.1550     1.0560 H     1 <1>   0.0800 
 25 H       -3.1850     3.0740    -0.4130 H     1 <1>   0.0800 
 26 H       -2.1730     3.3670     0.9910 H     1 <1>   0.0800 
 27 H       -1.0770     2.0960    -2.6070 H     1 <1>   0.0800 
 28 H        0.3060     3.1200    -2.3120 H     1 <1>   0.0800 
 29 H       -1.2800     3.6540    -1.8220 H     1 <1>   0.0800 
 30 H       -4.8330    -2.1410     0.5060 H     1 <1>   0.4000 
 31 H       -4.2740    -3.3530     2.7110 H     1 <1>   0.0800 
 32 H       -3.2860    -4.3490     1.6620 H     1 <1>   0.0800 
 33 H       -6.8940    -4.1090     2.7690 H     1 <1>   0.1500 
 34 H       -7.1090    -6.1800    -0.7660 H     1 <1>   0.1500 
 35 H       -3.7930    -4.4510    -1.0080 H     1 <1>   0.0800 
 36 H       -4.9170    -5.4130    -1.9280 H     1 <1>   0.0800 
 37 H       -3.1120    -6.4670     0.2800 H     1 <1>   0.0800 
 38 H       -2.8660    -6.7080    -1.4300 H     1 <1>   0.0800 
 39 H       -4.2450    -7.4380    -0.6450 H     1 <1>   0.0800 
@<TRIPOS>BOND
  1   1   2  ar  
  2   1   3  ar  
  3   2   4  1   
  4   2   5  ar  
  5   3   6  ar  
  6   3  20  1   
  7   4   7  1   
  8   4   8  1   
  9   5   9  ar  
 10   5  21  1   
 11   6   9  ar  
 12   7  10  1   
 13   7  22  1   
 14   7  23  1   
 15   8  24  1   
 16   8  25  1   
 17   8  26  1   
 18   9  11  1   
 19  10  27  1   
 20  10  28  1   
 21  10  29  1   
 22  11  12  1   
 23  11  30  1   
 24  12  13  1   
 25  12  31  1   
 26  12  32  1   
 27  13  14  1   
 28  13  15  2   
 29  14  16  1   
 30  14  17  1   
 31  15  18  1   
 32  15  33  1   
 33  16  18  2   
 34  16  34  1   
 35  17  19  1   
 36  17  35  1   
 37  17  36  1   
 38  19  37  1   
 39  19  38  1   
 40  19  39  1   
@<TRIPOS>SUBSTRUCTURE
  1 ****   9 GROUP 4 **** **** 0

# MOE 2024.06 (io_trps.svl 2023.06)
