@<TRIPOS>MOLECULE
NONAME
37 38 1 0 0 
SMALL
USER_CHARGES


@<TRIPOS>ATOM
  1 S       -0.2570     0.1980    -0.4000 S.3   1 <1>  -0.0800 
  2 C        0.5130     0.9900     0.9270 C.2   1 <1>   0.4340 
  3 C       -0.0510    -1.2670     0.5010 C.2   1 <1>   0.1980 
  4 S        0.7540     2.7610     0.8460 S.3   1 <1>  -0.2860 
  5 N        0.8510     0.2160     1.8770 N.2   1 <1>  -0.3380 
  6 N        0.5220    -1.0920     1.6240 N.2   1 <1>  -0.3380 
  7 C       -0.5520    -2.5560    -0.1120 C.3   1 <1>  -0.0600 
  8 C        0.0420     3.2940    -0.7900 C.3   1 <1>   0.1310 
  9 C        0.1960     4.7920    -1.0090 C.2   1 <1>   0.5690 
 10 O       -0.0520     5.2160    -2.1110 O.2   1 <1>  -0.5700 
 11 N        0.6030     5.5790     0.0340 N.am  1 <1>  -0.4940 
 12 C        0.9040     6.9600     0.1300 C.2   1 <1>  -0.0880 
 13 N        0.3590     7.9980    -0.5690 N.pl3 1 <1>   0.3140 
 14 C        1.8010     7.5100     0.9840 C.2   1 <1>  -0.1810 
 15 N        0.8820     9.1800    -0.1790 N.2   1 <1>  -0.7070 
 16 C       -0.7210     7.9830    -1.5640 C.3   1 <1>   0.0160 
 17 C        1.7420     8.8800     0.7420 C.2   1 <1>   0.1080 
 18 C        2.6970     6.8140     1.9940 C.3   1 <1>  -0.0590 
 19 C        2.5650     9.9450     1.4450 C.3   1 <1>   0.0210 
 20 C        3.8820    10.2030     0.7050 C.3   1 <1>  -0.2400 
 21 H       -1.6100    -2.4910    -0.2860 H     1 <1>   0.0800 
 22 H       -0.3570    -3.3760     0.5550 H     1 <1>   0.0800 
 23 H       -0.0480    -2.7380    -1.0440 H     1 <1>   0.0800 
 24 H       -0.9980     3.0270    -0.7940 H     1 <1>   0.0800 
 25 H        0.5670     2.7590    -1.5590 H     1 <1>   0.0800 
 26 H        0.8430     5.0530     0.8770 H     1 <1>   0.3700 
 27 H       -1.4590     7.2590    -1.2780 H     1 <1>   0.0800 
 28 H       -0.3080     7.7310    -2.5220 H     1 <1>   0.0800 
 29 H       -1.1690     8.9580    -1.6110 H     1 <1>   0.0800 
 30 H        2.6390     5.7470     1.8890 H     1 <1>   0.0800 
 31 H        2.3990     7.0810     2.9920 H     1 <1>   0.0800 
 32 H        3.7180     7.1140     1.8430 H     1 <1>   0.0800 
 33 H        2.7650     9.6400     2.4550 H     1 <1>   0.0800 
 34 H        1.9910    10.8540     1.4810 H     1 <1>   0.0800 
 35 H        4.4700     9.3030     0.6650 H     1 <1>   0.0800 
 36 H        4.4460    10.9690     1.2050 H     1 <1>   0.0800 
 37 H        3.6740    10.5220    -0.3010 H     1 <1>   0.0800 
@<TRIPOS>BOND
  1   1   2  1   
  2   1   3  1   
  3   2   4  1   
  4   2   5  2   
  5   3   6  2   
  6   3   7  1   
  7   4   8  1   
  8   5   6  1   
  9   7  21  1   
 10   7  22  1   
 11   7  23  1   
 12   8   9  1   
 13   8  24  1   
 14   8  25  1   
 15   9  10  2   
 16   9  11  am  
 17  11  12  1   
 18  11  26  1   
 19  12  13  1   
 20  12  14  2   
 21  13  15  1   
 22  13  16  1   
 23  14  17  1   
 24  14  18  1   
 25  15  17  2   
 26  16  27  1   
 27  16  28  1   
 28  16  29  1   
 29  17  19  1   
 30  18  30  1   
 31  18  31  1   
 32  18  32  1   
 33  19  20  1   
 34  19  33  1   
 35  19  34  1   
 36  20  35  1   
 37  20  36  1   
 38  20  37  1   
@<TRIPOS>SUBSTRUCTURE
  1 ****  11 GROUP 4 **** **** 0

# MOE 2024.06 (io_trps.svl 2023.06)
