@<TRIPOS>MOLECULE
NONAME
54 57 1 0 0 
SMALL
USER_CHARGES


@<TRIPOS>ATOM
  1 O        1.3900    -0.9250    -3.2580 O.2   1 <1>  -0.5700 
  2 C        2.0550    -0.3620    -2.4050 C.2   1 <1>   0.6900 
  3 N        2.4900    -0.9090    -1.2310 N.am  1 <1>  -0.4770 
  4 N        2.4580     0.9270    -2.4800 N.am  1 <1>  -0.5470 
  5 C        3.1920     0.0820    -0.5470 C.ar  1 <1>   0.1170 
  6 C        2.2660    -2.3050    -0.8050 C.3   1 <1>   0.1400 
  7 C        3.1700     1.2260    -1.3300 C.ar  1 <1>   0.1170 
  8 C        3.8390     0.0820     0.6810 C.ar  1 <1>  -0.1500 
  9 C        0.8490    -2.4530    -0.2470 C.3   1 <1>  -0.0990 
 10 C        3.7910     2.3920    -0.9100 C.ar  1 <1>  -0.1500 
 11 C        4.4610     1.2450     1.1050 C.ar  1 <1>  -0.1500 
 12 C        0.5470    -3.8670     0.2160 C.2   1 <1>   0.5690 
 13 C        4.4370     2.3930     0.3140 C.ar  1 <1>  -0.1500 
 14 O        1.4240    -4.6980     0.1550 O.2   1 <1>  -0.5700 
 15 N       -0.7020    -4.1940     0.6770 N.am  1 <1>  -0.6600 
 16 C       -1.0210    -5.5860     1.1160 C.3   1 <1>   0.1400 
 17 C       -1.9120    -3.3230     0.6010 C.3   1 <1>   0.1400 
 18 C       -1.9650    -6.2300     0.0740 C.3   1 <1>   0.4230 
 19 C       -2.8900    -3.9400    -0.4100 C.3   1 <1>  -0.1600 
 20 N       -2.2820    -7.6760     0.3290 N.4   1 <1>  -0.9590 
 21 C       -3.2670    -5.4050    -0.0400 C.3   1 <1>  -0.1060 
 22 C       -3.0810    -8.2730    -0.7700 C.3   1 <1>   0.3430 
 23 C       -1.1230    -8.5240     0.7170 C.3   1 <1>   0.2630 
 24 C       -4.0030    -5.4520     1.3140 C.2   1 <1>   0.9060 
 25 C       -4.1520    -5.9930    -1.1650 C.3   1 <1>  -0.1600 
 26 C       -4.3870    -7.4980    -0.9660 C.3   1 <1>  -0.1600 
 27 O       -3.8930    -6.4660     2.0220 O.co2 1 <1>  -0.9000 
 28 O       -4.6730    -4.4860     1.6730 O.co2 1 <1>  -0.9000 
 29 H        2.2500     1.5220    -3.2770 H     1 <1>   0.3700 
 30 H        2.3930    -2.9550    -1.6550 H     1 <1>   0.0800 
 31 H        2.9940    -2.5790    -0.0610 H     1 <1>   0.0800 
 32 H        3.8550    -0.8050     1.2860 H     1 <1>   0.1500 
 33 H        0.1520    -2.1910    -1.0200 H     1 <1>   0.0800 
 34 H        0.7240    -1.7880     0.5870 H     1 <1>   0.0800 
 35 H        3.7660     3.2710    -1.5280 H     1 <1>   0.1500 
 36 H        4.9690     1.2650     2.0540 H     1 <1>   0.1500 
 37 H        4.9270     3.2870     0.6620 H     1 <1>   0.1500 
 38 H       -0.1150    -6.1540     1.2020 H     1 <1>   0.0800 
 39 H       -1.4880    -5.5510     2.0860 H     1 <1>   0.0800 
 40 H       -2.3730    -3.2660     1.5750 H     1 <1>   0.0800 
 41 H       -1.6640    -2.3210     0.3030 H     1 <1>   0.0800 
 42 H       -1.4540    -6.1710    -0.8720 H     1 <1>   0.0800 
 43 H       -3.7810    -3.3360    -0.4360 H     1 <1>   0.0800 
 44 H       -2.4450    -3.8980    -1.3880 H     1 <1>   0.0800 
 45 H       -2.9370    -7.5880     1.1540 H     1 <1>   0.4500 
 46 H       -2.5100    -8.2510    -1.6840 H     1 <1>   0.0800 
 47 H       -3.3140    -9.2990    -0.5370 H     1 <1>   0.0800 
 48 H       -0.3860    -8.5330    -0.0700 H     1 <1>   0.0800 
 49 H       -1.4500    -9.5340     0.9040 H     1 <1>   0.0800 
 50 H       -0.6690    -8.1450     1.6180 H     1 <1>   0.0800 
 51 H       -5.1010    -5.4800    -1.1750 H     1 <1>   0.0800 
 52 H       -3.6820    -5.8340    -2.1210 H     1 <1>   0.0800 
 53 H       -4.9080    -7.8940    -1.8200 H     1 <1>   0.0800 
 54 H       -5.0200    -7.6570    -0.1090 H     1 <1>   0.0800 
@<TRIPOS>BOND
  1   1   2  2   
  2   2   3  am  
  3   2   4  am  
  4   3   5  1   
  5   3   6  1   
  6   4   7  1   
  7   4  29  1   
  8   5   7  ar  
  9   5   8  ar  
 10   6   9  1   
 11   6  30  1   
 12   6  31  1   
 13   7  10  ar  
 14   8  11  ar  
 15   8  32  1   
 16   9  12  1   
 17   9  33  1   
 18   9  34  1   
 19  10  13  ar  
 20  10  35  1   
 21  11  13  ar  
 22  11  36  1   
 23  12  14  2   
 24  12  15  am  
 25  13  37  1   
 26  15  16  1   
 27  15  17  1   
 28  16  18  1   
 29  16  38  1   
 30  16  39  1   
 31  17  19  1   
 32  17  40  1   
 33  17  41  1   
 34  18  20  1   
 35  18  21  1   
 36  18  42  1   
 37  19  21  1   
 38  19  43  1   
 39  19  44  1   
 40  20  22  1   
 41  20  23  1   
 42  20  45  1   
 43  21  24  1   
 44  21  25  1   
 45  22  26  1   
 46  22  46  1   
 47  22  47  1   
 48  23  48  1   
 49  23  49  1   
 50  23  50  1   
 51  24  27  ar  
 52  24  28  ar  
 53  25  26  1   
 54  25  51  1   
 55  25  52  1   
 56  26  53  1   
 57  26  54  1   
@<TRIPOS>SUBSTRUCTURE
  1 ****  12 GROUP 4 **** **** 0

# MOE 2024.06 (io_trps.svl 2023.06)
