@<TRIPOS>MOLECULE
NONAME
50 51 1 0 0 
SMALL
USER_CHARGES


@<TRIPOS>ATOM
  1 O       -0.3580     0.3280    -0.1040 O.2   1 <1>  -0.5700 
  2 C       -1.4200     0.8940    -0.2130 C.2   1 <1>   0.5690 
  3 N       -2.5830     0.2100    -0.4400 N.am  1 <1>  -0.6600 
  4 C       -1.4350     2.4080    -0.0920 C.3   1 <1>  -0.0990 
  5 C       -3.9530     0.8060    -0.5220 C.3   1 <1>   0.1400 
  6 C       -2.5950    -1.2780    -0.6060 C.3   1 <1>   0.1400 
  7 C       -0.0230     3.0020     0.0070 C.3   1 <1>   0.0960 
  8 C       -4.9370     0.0480     0.3950 C.3   1 <1>   0.2000 
  9 C       -3.6650    -1.9340     0.2920 C.3   1 <1>   0.2000 
 10 N       -0.0990     4.4700     0.1100 N.pl3 1 <1>   0.0480 
 11 O       -4.9050    -1.3180     0.0900 O.3   1 <1>  -0.5600 
 12 C       -6.4040     0.5270     0.2930 C.3   1 <1>  -0.0800 
 13 C       -3.8640    -3.4270     0.0020 C.3   1 <1>  -0.1600 
 14 C       -0.1820     5.2250     1.2060 C.2   1 <1>   0.0360 
 15 C       -0.1400     5.3730    -0.8700 C.2   1 <1>   0.0360 
 16 C       -7.0090     0.3740    -1.1130 C.3   1 <1>  -0.2400 
 17 C       -6.5680     1.9800     0.7690 C.3   1 <1>  -0.2400 
 18 C       -2.6210    -4.2750     0.3200 C.3   1 <1>  -0.1600 
 19 N       -0.2690     6.4770     0.9180 N.2   1 <1>  -0.3380 
 20 N       -0.2420     6.5720    -0.4130 N.2   1 <1>  -0.3380 
 21 C       -2.9030    -5.7660     0.1030 C.3   1 <1>  -0.1600 
 22 C       -1.6660    -6.6120     0.4170 C.3   1 <1>  -0.2400 
 23 H       -1.9260     2.8120    -0.9570 H     1 <1>   0.0800 
 24 H       -1.9920     2.6690     0.7890 H     1 <1>   0.0800 
 25 H       -3.9390     1.8410    -0.2390 H     1 <1>   0.0800 
 26 H       -4.2940     0.7450    -1.5400 H     1 <1>   0.0800 
 27 H       -2.8040    -1.5140    -1.6350 H     1 <1>   0.0800 
 28 H       -1.6310    -1.6880    -0.3640 H     1 <1>   0.0800 
 29 H        0.5520     2.7400    -0.8650 H     1 <1>   0.0800 
 30 H        0.4840     2.6160     0.8740 H     1 <1>   0.0800 
 31 H       -4.6170     0.1590     1.4170 H     1 <1>   0.0800 
 32 H       -3.3950    -1.8080     1.3270 H     1 <1>   0.0800 
 33 H       -6.9750    -0.0930     0.9650 H     1 <1>   0.0800 
 34 H       -4.6840    -3.7780     0.6050 H     1 <1>   0.0800 
 35 H       -4.1300    -3.5540    -1.0330 H     1 <1>   0.0800 
 36 H       -0.1770     4.8240     2.2030 H     1 <1>   0.1500 
 37 H       -0.0940     5.1160    -1.9130 H     1 <1>   0.1500 
 38 H       -6.5330     1.0280    -1.8200 H     1 <1>   0.0800 
 39 H       -8.0590     0.6080    -1.0900 H     1 <1>   0.0800 
 40 H       -6.9030    -0.6410    -1.4550 H     1 <1>   0.0800 
 41 H       -6.0820     2.6680     0.1010 H     1 <1>   0.0800 
 42 H       -6.1570     2.1010     1.7560 H     1 <1>   0.0800 
 43 H       -7.6130     2.2350     0.8110 H     1 <1>   0.0800 
 44 H       -1.8010    -3.9800    -0.3120 H     1 <1>   0.0800 
 45 H       -2.3290    -4.1140     1.3450 H     1 <1>   0.0800 
 46 H       -3.7150    -6.0770     0.7390 H     1 <1>   0.0800 
 47 H       -3.1970    -5.9340    -0.9190 H     1 <1>   0.0800 
 48 H       -1.3670    -6.4760     1.4410 H     1 <1>   0.0800 
 49 H       -0.8470    -6.3340    -0.2230 H     1 <1>   0.0800 
 50 H       -1.8840    -7.6540     0.2600 H     1 <1>   0.0800 
@<TRIPOS>BOND
  1   1   2  2   
  2   2   3  am  
  3   2   4  1   
  4   3   5  1   
  5   3   6  1   
  6   4   7  1   
  7   4  23  1   
  8   4  24  1   
  9   5   8  1   
 10   5  25  1   
 11   5  26  1   
 12   6   9  1   
 13   6  27  1   
 14   6  28  1   
 15   7  10  1   
 16   7  29  1   
 17   7  30  1   
 18   8  11  1   
 19   8  12  1   
 20   8  31  1   
 21   9  11  1   
 22   9  13  1   
 23   9  32  1   
 24  10  14  1   
 25  10  15  1   
 26  12  16  1   
 27  12  17  1   
 28  12  33  1   
 29  13  18  1   
 30  13  34  1   
 31  13  35  1   
 32  14  19  2   
 33  14  36  1   
 34  15  20  2   
 35  15  37  1   
 36  16  38  1   
 37  16  39  1   
 38  16  40  1   
 39  17  41  1   
 40  17  42  1   
 41  17  43  1   
 42  18  21  1   
 43  18  44  1   
 44  18  45  1   
 45  19  20  1   
 46  21  22  1   
 47  21  46  1   
 48  21  47  1   
 49  22  48  1   
 50  22  49  1   
 51  22  50  1   
@<TRIPOS>SUBSTRUCTURE
  1 ****   3 GROUP 4 **** **** 0

# MOE 2024.06 (io_trps.svl 2023.06)
