@<TRIPOS>MOLECULE
NONAME
50 52 1 0 0 
SMALL
USER_CHARGES


@<TRIPOS>ATOM
  1 O       -2.7490     0.7130    -1.6120 O.2   1 <1>  -0.5700 
  2 C       -2.3770     0.8750    -0.4740 C.2   1 <1>   0.5690 
  3 N       -2.1840    -0.1640     0.3840 N.am  1 <1>  -0.5790 
  4 C       -2.1060     2.2890     0.0450 C.3   1 <1>  -0.0190 
  5 C       -2.2950    -1.5960     0.0570 C.3   1 <1>   0.0540 
  6 C       -2.8040     3.3870    -0.7870 C.3   1 <1>  -0.1600 
  7 C       -0.5850     2.5610     0.1370 C.3   1 <1>  -0.1600 
  8 C       -1.3420    -2.4830     0.7960 C.3   1 <1>  -0.2000 
  9 C       -1.1190    -2.1850    -0.6550 C.3   1 <1>  -0.2000 
 10 C       -3.7470    -2.0140    -0.2650 C.3   1 <1>   0.0780 
 11 C       -2.6400     4.7910    -0.1660 C.3   1 <1>   0.2000 
 12 C       -0.2200     4.0590     0.1820 C.3   1 <1>  -0.1600 
 13 C       -3.9650    -3.5240    -0.3950 C.ar  1 <1>  -0.1440 
 14 O       -2.5610     5.7340    -1.2060 O.3   1 <1>  -0.5600 
 15 C       -1.3730     4.9090     0.7220 C.3   1 <1>   0.2000 
 16 C       -4.3370    -4.3270     0.6830 C.ar  1 <1>  -0.1440 
 17 C       -3.7930    -4.1030    -1.6440 C.ar  1 <1>  -0.1500 
 18 C       -3.7750     6.0580    -1.8100 C.3   1 <1>   0.0400 
 19 O       -0.9580     6.2240     0.7500 O.3   1 <1>  -0.6800 
 20 C       -4.5200    -5.6880     0.4880 C.ar  1 <1>  -0.1500 
 21 C       -4.5590    -3.7600     2.0790 C.3   1 <1>  -0.0970 
 22 C       -3.9760    -5.4600    -1.8290 C.ar  1 <1>  -0.1500 
 23 C       -4.3400    -6.2550    -0.7600 C.ar  1 <1>  -0.1500 
 24 H       -1.8290     0.0230     1.3210 H     1 <1>   0.3700 
 25 H       -2.5180     2.3380     1.0380 H     1 <1>   0.0800 
 26 H       -3.8510     3.1580    -0.8770 H     1 <1>   0.0800 
 27 H       -2.3750     3.3810    -1.7760 H     1 <1>   0.0800 
 28 H       -0.1990     2.0730     1.0150 H     1 <1>   0.0800 
 29 H       -0.0920     2.1220    -0.7150 H     1 <1>   0.0800 
 30 H       -0.6580    -2.0600     1.5100 H     1 <1>   0.1000 
 31 H       -1.6130    -3.4960     1.0410 H     1 <1>   0.1000 
 32 H       -1.2650    -2.9870    -1.3550 H     1 <1>   0.1000 
 33 H       -0.3230    -1.5260    -0.9500 H     1 <1>   0.1000 
 34 H       -4.3990    -1.6230     0.4930 H     1 <1>   0.0800 
 35 H       -4.0360    -1.5480    -1.1900 H     1 <1>   0.0800 
 36 H       -3.4930     5.0270     0.4480 H     1 <1>   0.0800 
 37 H        0.0050     4.3910    -0.8180 H     1 <1>   0.0800 
 38 H        0.6570     4.2010     0.7890 H     1 <1>   0.0800 
 39 H       -1.5930     4.6120     1.7320 H     1 <1>   0.0800 
 40 H       -3.5110    -3.4920    -2.4850 H     1 <1>   0.1500 
 41 H       -3.5850     6.8020    -2.5630 H     1 <1>   0.0800 
 42 H       -4.4460     6.4580    -1.0690 H     1 <1>   0.0800 
 43 H       -4.1960     5.1810    -2.2700 H     1 <1>   0.0800 
 44 H       -1.2110     6.6010    -0.1240 H     1 <1>   0.4000 
 45 H       -4.8070    -6.3200     1.3100 H     1 <1>   0.1500 
 46 H       -4.6530    -4.5490     2.8030 H     1 <1>   0.0800 
 47 H       -5.4620    -3.1760     2.0950 H     1 <1>   0.0800 
 48 H       -3.7330    -3.1380     2.3700 H     1 <1>   0.0800 
 49 H       -3.8360    -5.8950    -2.8030 H     1 <1>   0.1500 
 50 H       -4.4840    -7.3120    -0.8980 H     1 <1>   0.1500 
@<TRIPOS>BOND
  1   1   2  2   
  2   2   3  am  
  3   2   4  1   
  4   3   5  1   
  5   3  24  1   
  6   4   6  1   
  7   4   7  1   
  8   4  25  1   
  9   5   8  1   
 10   5   9  1   
 11   5  10  1   
 12   6  11  1   
 13   6  26  1   
 14   6  27  1   
 15   7  12  1   
 16   7  28  1   
 17   7  29  1   
 18   8   9  1   
 19   8  30  1   
 20   8  31  1   
 21   9  32  1   
 22   9  33  1   
 23  10  13  1   
 24  10  34  1   
 25  10  35  1   
 26  11  14  1   
 27  11  15  1   
 28  11  36  1   
 29  12  15  1   
 30  12  37  1   
 31  12  38  1   
 32  13  16  ar  
 33  13  17  ar  
 34  14  18  1   
 35  15  19  1   
 36  15  39  1   
 37  16  20  ar  
 38  16  21  1   
 39  17  22  ar  
 40  17  40  1   
 41  18  41  1   
 42  18  42  1   
 43  18  43  1   
 44  19  44  1   
 45  20  23  ar  
 46  20  45  1   
 47  21  46  1   
 48  21  47  1   
 49  21  48  1   
 50  22  23  ar  
 51  22  49  1   
 52  23  50  1   
@<TRIPOS>SUBSTRUCTURE
  1 ****   3 GROUP 4 **** **** 0

# MOE 2024.06 (io_trps.svl 2023.06)
