@<TRIPOS>MOLECULE
NONAME
55 58 1 0 0 
SMALL
USER_CHARGES


@<TRIPOS>ATOM
  1 O       -1.3980     0.7990    -0.9120 O.2   1 <1>  -0.5700 
  2 C       -0.9550     1.7960    -0.4020 C.2   1 <1>   0.5690 
  3 N       -1.7710     2.8190    -0.0650 N.am  1 <1>  -0.7300 
  4 C        0.5530     1.9320    -0.1640 C.3   1 <1>   0.1810 
  5 C       -1.2990     4.0630     0.5890 C.3   1 <1>   0.3640 
  6 O        0.8880     2.9530     0.7510 O.3   1 <1>  -0.5600 
  7 C       -1.9620     5.2620    -0.0870 C.ar  1 <1>  -0.1440 
  8 C        0.2430     4.1970     0.5210 C.3   1 <1>   0.2610 
  9 C       -2.4500     6.3040     0.6890 C.ar  1 <1>  -0.1500 
 10 C       -2.0750     5.3450    -1.4700 C.ar  1 <1>  -0.1500 
 11 C        0.7500     5.2770     1.4940 C.2   1 <1>   0.5690 
 12 C       -3.0410     7.4060     0.0980 C.ar  1 <1>  -0.1500 
 13 C       -2.6660     6.4470    -2.0630 C.ar  1 <1>  -0.1500 
 14 O        0.1130     5.4900     2.5040 O.2   1 <1>  -0.5700 
 15 N        1.8810     6.0080     1.2080 N.am  1 <1>  -0.6600 
 16 C       -3.1500     7.4790    -1.2790 C.ar  1 <1>  -0.1500 
 17 C        2.8360     5.7240     0.1060 C.3   1 <1>   0.1400 
 18 C        2.2300     7.2340     1.9730 C.3   1 <1>   0.1400 
 19 C        2.7920     6.8860    -0.8900 C.3   1 <1>  -0.1600 
 20 C        2.1990     8.4360     1.0240 C.3   1 <1>  -0.1600 
 21 C        3.1110     8.2280    -0.2040 C.3   1 <1>  -0.0800 
 22 C        2.9990     9.3780    -1.2200 C.3   1 <1>   0.1400 
 23 N        3.3920    10.6740    -0.6180 N.am  1 <1>  -0.6600 
 24 C        4.6630    11.0650    -0.3780 C.2   1 <1>   0.5690 
 25 C        2.3970    11.7100    -0.2990 C.3   1 <1>   0.1400 
 26 O        5.6570    10.4130    -0.5830 O.2   1 <1>  -0.5700 
 27 C        4.6930    12.4540     0.1960 C.3   1 <1>  -0.0990 
 28 C        3.2420    12.9450     0.0500 C.3   1 <1>  -0.1600 
 29 H       -2.7760     2.7240    -0.2170 H     1 <1>   0.3700 
 30 H        1.0420     2.1410    -1.0980 H     1 <1>   0.0800 
 31 H        0.9350     1.0060     0.2260 H     1 <1>   0.0800 
 32 H       -1.6060     4.0230     1.6210 H     1 <1>   0.0800 
 33 H        0.4930     4.5080    -0.4750 H     1 <1>   0.0800 
 34 H       -2.3670     6.2660     1.7640 H     1 <1>   0.1500 
 35 H       -1.7070     4.5500    -2.0970 H     1 <1>   0.1500 
 36 H       -3.4170     8.2070     0.7110 H     1 <1>   0.1500 
 37 H       -2.7530     6.5000    -3.1340 H     1 <1>   0.1500 
 38 H       -3.6120     8.3350    -1.7390 H     1 <1>   0.1500 
 39 H        3.8270     5.6370     0.5190 H     1 <1>   0.0800 
 40 H        2.6080     4.7960    -0.3860 H     1 <1>   0.0800 
 41 H        1.5360     7.3940     2.7820 H     1 <1>   0.0800 
 42 H        3.2130     7.1200     2.3960 H     1 <1>   0.0800 
 43 H        3.5090     6.7030    -1.6710 H     1 <1>   0.0800 
 44 H        1.8150     6.9230    -1.3390 H     1 <1>   0.0800 
 45 H        1.1840     8.5970     0.7050 H     1 <1>   0.0800 
 46 H        2.5170     9.3060     1.5690 H     1 <1>   0.0800 
 47 H        4.1330     8.1880     0.1350 H     1 <1>   0.0800 
 48 H        1.9930     9.4450    -1.5960 H     1 <1>   0.0800 
 49 H        3.6550     9.1800    -2.0520 H     1 <1>   0.0800 
 50 H        1.7610    11.9000    -1.1470 H     1 <1>   0.0800 
 51 H        1.8040    11.3960     0.5430 H     1 <1>   0.0800 
 52 H        4.9850    12.3970     1.2280 H     1 <1>   0.0800 
 53 H        5.3830    13.0710    -0.3500 H     1 <1>   0.0800 
 54 H        3.1770    13.6520    -0.7580 H     1 <1>   0.0800 
 55 H        2.8870    13.4170     0.9500 H     1 <1>   0.0800 
@<TRIPOS>BOND
  1   1   2  2   
  2   2   3  am  
  3   2   4  1   
  4   3   5  1   
  5   3  29  1   
  6   4   6  1   
  7   4  30  1   
  8   4  31  1   
  9   5   7  1   
 10   5   8  1   
 11   5  32  1   
 12   6   8  1   
 13   7   9  ar  
 14   7  10  ar  
 15   8  11  1   
 16   8  33  1   
 17   9  12  ar  
 18   9  34  1   
 19  10  13  ar  
 20  10  35  1   
 21  11  14  2   
 22  11  15  am  
 23  12  16  ar  
 24  12  36  1   
 25  13  16  ar  
 26  13  37  1   
 27  15  17  1   
 28  15  18  1   
 29  16  38  1   
 30  17  19  1   
 31  17  39  1   
 32  17  40  1   
 33  18  20  1   
 34  18  41  1   
 35  18  42  1   
 36  19  21  1   
 37  19  43  1   
 38  19  44  1   
 39  20  21  1   
 40  20  45  1   
 41  20  46  1   
 42  21  22  1   
 43  21  47  1   
 44  22  23  1   
 45  22  48  1   
 46  22  49  1   
 47  23  24  am  
 48  23  25  1   
 49  24  26  2   
 50  24  27  1   
 51  25  28  1   
 52  25  50  1   
 53  25  51  1   
 54  27  28  1   
 55  27  52  1   
 56  27  53  1   
 57  28  54  1   
 58  28  55  1   
@<TRIPOS>SUBSTRUCTURE
  1 ****  15 GROUP 4 **** **** 0

# MOE 2024.06 (io_trps.svl 2023.06)
