@<TRIPOS>MOLECULE
NONAME
54 57 1 0 0 
SMALL
USER_CHARGES


@<TRIPOS>ATOM
  1 O        1.9150    -0.6090    -0.9240 O.3   1 <1>  -0.3630 
  2 C        1.3190    -1.7240    -0.4450 C.ar  1 <1>   0.0830 
  3 C        2.0090     0.5950    -0.1950 C.3   1 <1>   0.2000 
  4 C        0.6650    -1.8260     0.7730 C.ar  1 <1>  -0.1500 
  5 C        1.3550    -2.8600    -1.2250 C.ar  1 <1>  -0.1500 
  6 C        2.2700     1.7200    -1.1970 C.3   1 <1>  -0.1600 
  7 C        3.1590     0.4890     0.8120 C.3   1 <1>  -0.1600 
  8 C        0.1000    -3.0360     1.1310 C.ar  1 <1>   0.1600 
  9 C        0.7560    -4.0180    -0.7690 C.ar  1 <1>   0.1600 
 10 C        2.4860     3.0520    -0.4790 C.3   1 <1>   0.2090 
 11 C        3.3760     1.8250     1.5230 C.3   1 <1>   0.2090 
 12 N        0.1290    -4.1350     0.3920 N.ar  1 <1>  -0.6200 
 13 N        3.5810     2.9090     0.5200 N.pl3 1 <1>  -0.8380 
 14 C        4.8070     3.4570     0.3170 C.ar  1 <1>   0.4100 
 15 N        5.8070     2.6030     0.2400 N.ar  1 <1>  -0.6200 
 16 C        4.9970     4.8590     0.1810 C.ar  1 <1>  -0.1430 
 17 C        7.0070     3.0700    -0.0470 C.ar  1 <1>   0.7710 
 18 C        6.2470     5.3030    -0.1350 C.ar  1 <1>   0.2180 
 19 C        3.8250     5.8170     0.4260 C.3   1 <1>  -0.0970 
 20 N        7.2270     4.3770    -0.2460 N.ar  1 <1>  -0.1790 
 21 N        8.0470     2.2070    -0.1490 N.pl3 1 <1>  -0.8380 
 22 C        6.6530     6.7530    -0.3700 C.3   1 <1>  -0.0970 
 23 C        7.8490     0.7380     0.0090 C.3   1 <1>   0.2090 
 24 C        9.4840     2.5020    -0.3960 C.3   1 <1>   0.2090 
 25 C        9.1800     0.1110    -0.3830 C.3   1 <1>  -0.1600 
 26 C       10.2110     1.1970    -0.1010 C.3   1 <1>  -0.1600 
 27 H        1.0710     0.7780     0.2990 H     1 <1>   0.0800 
 28 H        0.5850    -0.9970     1.4450 H     1 <1>   0.1500 
 29 H        1.8480    -2.8360    -2.1780 H     1 <1>   0.1500 
 30 H        1.4320     1.8080    -1.8640 H     1 <1>   0.0800 
 31 H        3.1480     1.4930    -1.7760 H     1 <1>   0.0800 
 32 H        4.0660     0.2220     0.3000 H     1 <1>   0.0800 
 33 H        2.9470    -0.2670     1.5440 H     1 <1>   0.0800 
 34 H       -0.4070    -3.1090     2.0780 H     1 <1>   0.1500 
 35 H        0.7930    -4.8970    -1.3900 H     1 <1>   0.1500 
 36 H        1.5830     3.3540     0.0230 H     1 <1>   0.0800 
 37 H        2.7410     3.8030    -1.2060 H     1 <1>   0.0800 
 38 H        4.2330     1.7560     2.1730 H     1 <1>   0.0800 
 39 H        2.5190     2.0640     2.1290 H     1 <1>   0.0800 
 40 H        3.1390     5.4020     1.1440 H     1 <1>   0.0800 
 41 H        3.2930     6.0000    -0.4900 H     1 <1>   0.0800 
 42 H        4.1560     6.7560     0.8290 H     1 <1>   0.0800 
 43 H        8.1800     4.6200    -0.4780 H     1 <1>   0.4570 
 44 H        5.7990     7.3820    -0.5470 H     1 <1>   0.0800 
 45 H        7.2880     6.8320    -1.2350 H     1 <1>   0.0800 
 46 H        7.1820     7.1330     0.4860 H     1 <1>   0.0800 
 47 H        7.0490     0.3790    -0.6180 H     1 <1>   0.0800 
 48 H        7.6210     0.5180     1.0390 H     1 <1>   0.0800 
 49 H        9.8480     3.2890     0.2430 H     1 <1>   0.0800 
 50 H        9.6240     2.7650    -1.4320 H     1 <1>   0.0800 
 51 H        9.1630    -0.1190    -1.4340 H     1 <1>   0.0800 
 52 H        9.3730    -0.7920     0.1690 H     1 <1>   0.0800 
 53 H       10.4890     1.1740     0.9380 H     1 <1>   0.0800 
 54 H       11.0970     1.0850    -0.7010 H     1 <1>   0.0800 
@<TRIPOS>BOND
  1   1   2  1   
  2   1   3  1   
  3   2   4  ar  
  4   2   5  ar  
  5   3   6  1   
  6   3   7  1   
  7   3  27  1   
  8   4   8  ar  
  9   4  28  1   
 10   5   9  ar  
 11   5  29  1   
 12   6  10  1   
 13   6  30  1   
 14   6  31  1   
 15   7  11  1   
 16   7  32  1   
 17   7  33  1   
 18   8  12  ar  
 19   8  34  1   
 20   9  12  ar  
 21   9  35  1   
 22  10  13  1   
 23  10  36  1   
 24  10  37  1   
 25  11  13  1   
 26  11  38  1   
 27  11  39  1   
 28  13  14  1   
 29  14  15  ar  
 30  14  16  ar  
 31  15  17  ar  
 32  16  18  ar  
 33  16  19  1   
 34  17  20  ar  
 35  17  21  1   
 36  18  20  ar  
 37  18  22  1   
 38  19  40  1   
 39  19  41  1   
 40  19  42  1   
 41  20  43  1   
 42  21  23  1   
 43  21  24  1   
 44  22  44  1   
 45  22  45  1   
 46  22  46  1   
 47  23  25  1   
 48  23  47  1   
 49  23  48  1   
 50  24  26  1   
 51  24  49  1   
 52  24  50  1   
 53  25  26  1   
 54  25  51  1   
 55  25  52  1   
 56  26  53  1   
 57  26  54  1   
@<TRIPOS>SUBSTRUCTURE
  1 ****   7 GROUP 4 **** **** 0

# MOE 2024.06 (io_trps.svl 2023.06)
