@<TRIPOS>MOLECULE
Untitled Document
50 54 1 0 0 
SMALL
USER_CHARGES


@<TRIPOS>ATOM
  1 F        1.5380     0.9320    -1.0200 F     1 <1>  -0.1900 
  2 C        2.2610    -0.1100    -0.7120 C.ar  1 <1>   0.1900 
  3 C        2.9800    -0.1010     0.4600 C.ar  1 <1>  -0.1500 
  4 C        2.2670    -1.1920    -1.5960 C.ar  1 <1>  -0.1500 
  5 C        3.7300    -1.2390     0.7330 C.ar  1 <1>   0.1400 
  6 C        3.0220    -2.3090    -1.2980 C.ar  1 <1>  -0.1500 
  7 O        4.5060    -1.5000     1.7730 O.3   1 <1>  -0.0190 
  8 C        3.7660    -2.3270    -0.1090 C.ar  1 <1>   0.0000 
  9 N        5.0490    -2.6900     1.6690 N.2   1 <1>  -0.4100 
 10 C        4.6330    -3.2030     0.5720 C.2   1 <1>   0.1080 
 11 C        5.0350    -4.5860     0.0800 C.3   1 <1>   0.1010 
 12 C        4.5640    -5.6620     1.0720 C.3   1 <1>  -0.1600 
 13 C        6.5580    -4.6640    -0.1120 C.3   1 <1>  -0.1600 
 14 C        5.0660    -7.0510     0.6880 C.3   1 <1>   0.3430 
 15 C        7.0180    -6.0740    -0.4690 C.3   1 <1>   0.3430 
 16 N        6.5530    -7.0340     0.5790 N.4   1 <1>  -0.9590 
 17 C        7.0600    -8.4260     0.3380 C.3   1 <1>   0.3430 
 18 C        8.5770    -8.5580     0.5470 C.3   1 <1>   0.1400 
 19 N        9.0120    -9.9310     0.2120 N.am  1 <1>  -0.4200 
 20 C        9.9390   -10.2690    -0.7360 C.2   1 <1>   0.5440 
 21 C        8.6170   -11.0690     0.8620 C.2   1 <1>   0.5440 
 22 O       10.4240    -9.4580    -1.4960 O.2   1 <1>  -0.5700 
 23 C       10.1730   -11.6850    -0.6700 C.ar  1 <1>   0.0860 
 24 O        7.7520   -11.0600     1.7120 O.2   1 <1>  -0.5700 
 25 C        9.3490   -12.1840     0.3300 C.ar  1 <1>   0.0860 
 26 C       11.0090   -12.5370    -1.3800 C.ar  1 <1>  -0.1500 
 27 C        9.3510   -13.5410     0.6290 C.ar  1 <1>  -0.1500 
 28 C       11.0110   -13.8890    -1.0810 C.ar  1 <1>  -0.1500 
 29 C       10.1850   -14.3890    -0.0800 C.ar  1 <1>  -0.1500 
 30 H        2.9690     0.7350     1.1330 H     1 <1>   0.1500 
 31 H        1.6810    -1.1340    -2.4970 H     1 <1>   0.1500 
 32 H        3.0400    -3.1520    -1.9640 H     1 <1>   0.1500 
 33 H        4.5610    -4.7640    -0.8700 H     1 <1>   0.0800 
 34 H        3.4880    -5.6700     1.1010 H     1 <1>   0.0800 
 35 H        4.9070    -5.4250     2.0640 H     1 <1>   0.0800 
 36 H        7.0600    -4.3470     0.7860 H     1 <1>   0.0800 
 37 H        6.8510    -3.9860    -0.8950 H     1 <1>   0.0800 
 38 H        4.6320    -7.3470    -0.2540 H     1 <1>   0.0800 
 39 H        4.7590    -7.7620     1.4400 H     1 <1>   0.0800 
 40 H        8.0940    -6.0870    -0.5400 H     1 <1>   0.0800 
 41 H        6.6140    -6.3560    -1.4290 H     1 <1>   0.0800 
 42 H        6.9120    -6.7090     1.4890 H     1 <1>   0.4500 
 43 H        6.8180    -8.7270    -0.6690 H     1 <1>   0.0800 
 44 H        6.5700    -9.1050     1.0180 H     1 <1>   0.0800 
 45 H        8.8230    -8.3650     1.5770 H     1 <1>   0.0800 
 46 H        9.1090    -7.8630    -0.0780 H     1 <1>   0.0800 
 47 H       11.6450   -12.1390    -2.1540 H     1 <1>   0.1500 
 48 H        8.7080   -13.9200     1.4060 H     1 <1>   0.1500 
 49 H       11.6550   -14.5590    -1.6250 H     1 <1>   0.1500 
 50 H       10.1970   -15.4430     0.1430 H     1 <1>   0.1500 
@<TRIPOS>BOND
  1   1   2  1   
  2   2   3  ar  
  3   2   4  ar  
  4   3   5  ar  
  5   3  30  1   
  6   4   6  ar  
  7   4  31  1   
  8   5   7  1   
  9   5   8  ar  
 10   6   8  ar  
 11   6  32  1   
 12   7   9  1   
 13   8  10  1   
 14   9  10  2   
 15  10  11  1   
 16  11  12  1   
 17  11  13  1   
 18  11  33  1   
 19  12  14  1   
 20  12  34  1   
 21  12  35  1   
 22  13  15  1   
 23  13  36  1   
 24  13  37  1   
 25  14  16  1   
 26  14  38  1   
 27  14  39  1   
 28  15  16  1   
 29  15  40  1   
 30  15  41  1   
 31  16  17  1   
 32  16  42  1   
 33  17  18  1   
 34  17  43  1   
 35  17  44  1   
 36  18  19  1   
 37  18  45  1   
 38  18  46  1   
 39  19  20  am  
 40  19  21  am  
 41  20  22  2   
 42  20  23  1   
 43  21  24  2   
 44  21  25  1   
 45  23  25  ar  
 46  23  26  ar  
 47  25  27  ar  
 48  26  28  ar  
 49  26  47  1   
 50  27  29  ar  
 51  27  48  1   
 52  28  29  ar  
 53  28  49  1   
 54  29  50  1   
@<TRIPOS>SUBSTRUCTURE
  1 ****  16 GROUP 4 **** **** 0

# MOE 2024.06 (io_trps.svl 2023.06)
