@<TRIPOS>MOLECULE
NONAME
50 53 1 0 0 
SMALL
USER_CHARGES


@<TRIPOS>ATOM
  1 O       -0.5650     0.3790     0.2160 O.2   1 <1>  -0.5700 
  2 C       -1.6630     0.8770     0.1050 C.2   1 <1>   0.5690 
  3 N       -2.7330     0.1220    -0.3160 N.am  1 <1>  -0.6600 
  4 C       -1.8200     2.3660     0.4610 C.3   1 <1>  -0.0190 
  5 C       -2.4810    -1.2680    -0.8040 C.3   1 <1>   0.1400 
  6 C       -4.1600     0.5670    -0.2590 C.3   1 <1>   0.1400 
  7 C       -0.5990     3.1900    -0.0100 C.3   1 <1>  -0.1600 
  8 C       -2.0640     2.5330     1.9730 C.3   1 <1>  -0.2400 
  9 C       -3.6440    -1.7800    -1.6540 C.3   1 <1>  -0.1600 
 10 C       -5.0420    -0.6120     0.1410 C.3   1 <1>  -0.1600 
 11 C       -0.7870     4.7090     0.1220 C.3   1 <1>  -0.2400 
 12 C       -4.9880    -1.7330    -0.9100 C.3   1 <1>   0.4600 
 13 O       -5.9500    -1.4580    -1.9050 O.3   1 <1>  -0.5600 
 14 C       -5.2870    -3.0880    -0.2730 C.2   1 <1>  -0.3320 
 15 C       -7.2840    -1.8530    -1.6840 C.3   1 <1>   0.1200 
 16 N       -4.5220    -3.7330     0.6590 N.pl3 1 <1>   0.0330 
 17 C       -6.3660    -3.8420    -0.5590 C.2   1 <1>  -0.1810 
 18 C       -7.4010    -3.3800    -1.5520 C.3   1 <1>   0.0210 
 19 C       -5.1340    -4.9250     0.9600 C.ar  1 <1>  -0.1520 
 20 C       -6.3000    -5.0260     0.2050 C.ar  1 <1>   0.0000 
 21 C       -4.7630    -5.9430     1.8420 C.ar  1 <1>  -0.1500 
 22 C       -7.1080    -6.1600     0.3280 C.ar  1 <1>  -0.1500 
 23 C       -5.5690    -7.0530     1.9550 C.ar  1 <1>  -0.1500 
 24 C       -6.7420    -7.1610     1.1970 C.ar  1 <1>  -0.1500 
 25 H       -2.6710     2.7500    -0.0700 H     1 <1>   0.0800 
 26 H       -2.3300    -1.9110     0.0450 H     1 <1>   0.0800 
 27 H       -1.5790    -1.2810    -1.3930 H     1 <1>   0.0800 
 28 H       -4.4590     0.9390    -1.2250 H     1 <1>   0.0800 
 29 H       -4.2840     1.3520     0.4650 H     1 <1>   0.0800 
 30 H       -0.4120     2.9590    -1.0450 H     1 <1>   0.0800 
 31 H        0.2740     2.8900     0.5460 H     1 <1>   0.0800 
 32 H       -1.1830     2.2450     2.5210 H     1 <1>   0.0800 
 33 H       -2.8770     1.9060     2.2920 H     1 <1>   0.0800 
 34 H       -2.3080     3.5510     2.2160 H     1 <1>   0.0800 
 35 H       -3.4420    -2.7870    -1.9720 H     1 <1>   0.0800 
 36 H       -3.6960    -1.1680    -2.5370 H     1 <1>   0.0800 
 37 H       -6.0520    -0.2830     0.2890 H     1 <1>   0.0800 
 38 H       -4.6890    -0.9790     1.0870 H     1 <1>   0.0800 
 39 H       -1.6740     5.0270    -0.3980 H     1 <1>   0.0800 
 40 H        0.0580     5.2160    -0.3080 H     1 <1>   0.0800 
 41 H       -0.8610     5.0010     1.1540 H     1 <1>   0.0800 
 42 H       -7.8710    -1.5060    -2.5160 H     1 <1>   0.0800 
 43 H       -7.6390    -1.3760    -0.7880 H     1 <1>   0.0800 
 44 H       -3.6450    -3.4020     1.0730 H     1 <1>   0.2700 
 45 H       -7.2290    -3.8470    -2.5040 H     1 <1>   0.0800 
 46 H       -8.3860    -3.6400    -1.2100 H     1 <1>   0.0800 
 47 H       -3.8600    -5.8520     2.4200 H     1 <1>   0.1500 
 48 H       -8.0040    -6.2290    -0.2600 H     1 <1>   0.1500 
 49 H       -5.3050    -7.8500     2.6270 H     1 <1>   0.1500 
 50 H       -7.3540    -8.0400     1.3030 H     1 <1>   0.1500 
@<TRIPOS>BOND
  1   1   2  2   
  2   2   3  am  
  3   2   4  1   
  4   3   5  1   
  5   3   6  1   
  6   4   7  1   
  7   4   8  1   
  8   4  25  1   
  9   5   9  1   
 10   5  26  1   
 11   5  27  1   
 12   6  10  1   
 13   6  28  1   
 14   6  29  1   
 15   7  11  1   
 16   7  30  1   
 17   7  31  1   
 18   8  32  1   
 19   8  33  1   
 20   8  34  1   
 21   9  12  1   
 22   9  35  1   
 23   9  36  1   
 24  10  12  1   
 25  10  37  1   
 26  10  38  1   
 27  11  39  1   
 28  11  40  1   
 29  11  41  1   
 30  12  13  1   
 31  12  14  1   
 32  13  15  1   
 33  14  16  1   
 34  14  17  2   
 35  15  18  1   
 36  15  42  1   
 37  15  43  1   
 38  16  19  1   
 39  16  44  1   
 40  17  18  1   
 41  17  20  1   
 42  18  45  1   
 43  18  46  1   
 44  19  20  ar  
 45  19  21  ar  
 46  20  22  ar  
 47  21  23  ar  
 48  21  47  1   
 49  22  24  ar  
 50  22  48  1   
 51  23  24  ar  
 52  23  49  1   
 53  24  50  1   
@<TRIPOS>SUBSTRUCTURE
  1 ****  12 GROUP 4 **** **** 0

# MOE 2024.06 (io_trps.svl 2023.06)
