@<TRIPOS>MOLECULE
NONAME
49 52 1 0 0 
SMALL
USER_CHARGES


@<TRIPOS>ATOM
  1 F        0.3510    -0.9280     0.4940 F     1 <1>  -0.3400 
  2 C       -0.8970    -1.0410     0.0550 C.3   1 <1>   1.1640 
  3 F       -1.5420     0.0380     0.4770 F     1 <1>  -0.3400 
  4 F       -0.8330    -0.9420    -1.2680 F     1 <1>  -0.3400 
  5 C       -1.5840    -2.3370     0.5160 C.ar  1 <1>  -0.1440 
  6 C       -2.6100    -2.9040    -0.2330 C.ar  1 <1>  -0.1500 
  7 C       -1.2020    -2.9640     1.6980 C.ar  1 <1>  -0.1500 
  8 C       -3.2510    -4.0720     0.1640 C.ar  1 <1>   0.1170 
  9 C       -1.8260    -4.1290     2.1080 C.ar  1 <1>  -0.1500 
 10 N       -4.2700    -4.5870    -0.6510 N.am  1 <1>  -0.5470 
 11 C       -2.8400    -4.6790     1.3460 C.ar  1 <1>  -0.1500 
 12 C       -5.2600    -5.4880    -0.4160 C.2   1 <1>   0.6900 
 13 O       -5.4410    -6.0360     0.6570 O.2   1 <1>  -0.5700 
 14 N       -6.1030    -5.7920    -1.4420 N.am  1 <1>  -0.6600 
 15 C       -7.5270    -5.3520    -1.2970 C.3   1 <1>   0.1400 
 16 C       -5.9840    -7.1690    -2.0180 C.3   1 <1>   0.1400 
 17 C       -8.3580    -6.3270    -0.4150 C.3   1 <1>   0.4230 
 18 C       -6.9690    -8.1730    -1.3660 C.3   1 <1>   0.3430 
 19 N       -7.6080    -7.6070    -0.1280 N.4   1 <1>  -0.9590 
 20 C       -9.7380    -6.6230    -1.0440 C.3   1 <1>   0.1200 
 21 C       -8.4530    -8.5530     0.6640 C.3   1 <1>   0.5180 
 22 O      -10.4590    -7.5240    -0.2520 O.3   1 <1>  -0.5600 
 23 C       -7.6640    -9.8520     0.9210 C.3   1 <1>  -0.1950 
 24 C       -9.8280    -8.7570    -0.0180 C.3   1 <1>   0.1200 
 25 C       -7.6370   -11.0390     0.0010 C.3   1 <1>  -0.2000 
 26 C       -8.3200   -11.1350     1.3360 C.3   1 <1>  -0.2000 
 27 H       -2.9230    -2.4290    -1.1460 H     1 <1>   0.1500 
 28 H       -0.4160    -2.5530     2.3100 H     1 <1>   0.1500 
 29 H       -1.5210    -4.6090     3.0220 H     1 <1>   0.1500 
 30 H       -4.3110    -4.2000    -1.5910 H     1 <1>   0.3700 
 31 H       -3.3020    -5.5870     1.6840 H     1 <1>   0.1500 
 32 H       -7.5580    -4.3700    -0.8540 H     1 <1>   0.0800 
 33 H       -7.9650    -5.2690    -2.2770 H     1 <1>   0.0800 
 34 H       -6.1550    -7.1330    -3.0800 H     1 <1>   0.0800 
 35 H       -4.9780    -7.5280    -1.8710 H     1 <1>   0.0800 
 36 H       -8.5420    -5.8270     0.5220 H     1 <1>   0.0800 
 37 H       -6.4260    -9.0710    -1.1260 H     1 <1>   0.0800 
 38 H       -7.7310    -8.4360    -2.0800 H     1 <1>   0.0800 
 39 H       -6.8120    -7.3020     0.4700 H     1 <1>   0.4500 
 40 H       -9.6400    -7.0380    -2.0320 H     1 <1>   0.0800 
 41 H      -10.3180    -5.7180    -1.1100 H     1 <1>   0.0800 
 42 H       -8.6500    -8.1070     1.6250 H     1 <1>   0.0800 
 43 H       -6.7560    -9.6320     1.4580 H     1 <1>   0.1000 
 44 H      -10.4760    -9.3290     0.6220 H     1 <1>   0.0800 
 45 H       -9.7300    -9.2750    -0.9550 H     1 <1>   0.0800 
 46 H       -8.2630   -11.0950    -0.8730 H     1 <1>   0.1000 
 47 H       -6.7160   -11.5840    -0.1280 H     1 <1>   0.1000 
 48 H       -7.8550   -11.7300     2.1040 H     1 <1>   0.1000 
 49 H       -9.3920   -11.2420     1.3440 H     1 <1>   0.1000 
@<TRIPOS>BOND
  1   1   2  1   
  2   2   3  1   
  3   2   4  1   
  4   2   5  1   
  5   5   6  ar  
  6   5   7  ar  
  7   6   8  ar  
  8   6  27  1   
  9   7   9  ar  
 10   7  28  1   
 11   8  10  1   
 12   8  11  ar  
 13   9  11  ar  
 14   9  29  1   
 15  10  12  am  
 16  10  30  1   
 17  11  31  1   
 18  12  13  2   
 19  12  14  am  
 20  14  15  1   
 21  14  16  1   
 22  15  17  1   
 23  15  32  1   
 24  15  33  1   
 25  16  18  1   
 26  16  34  1   
 27  16  35  1   
 28  17  19  1   
 29  17  20  1   
 30  17  36  1   
 31  18  19  1   
 32  18  37  1   
 33  18  38  1   
 34  19  21  1   
 35  19  39  1   
 36  20  22  1   
 37  20  40  1   
 38  20  41  1   
 39  21  23  1   
 40  21  24  1   
 41  21  42  1   
 42  22  24  1   
 43  23  25  1   
 44  23  26  1   
 45  23  43  1   
 46  24  44  1   
 47  24  45  1   
 48  25  26  1   
 49  25  46  1   
 50  25  47  1   
 51  26  48  1   
 52  26  49  1   
@<TRIPOS>SUBSTRUCTURE
  1 ****  12 GROUP 4 **** **** 0

# MOE 2024.06 (io_trps.svl 2023.06)
