@<TRIPOS>MOLECULE
NONAME
45 48 1 0 0 
SMALL
USER_CHARGES


@<TRIPOS>ATOM
  1 O       -0.7580    -0.2370     0.8670 O.2   1 <1>  -0.5700 
  2 C       -1.5640     0.6000     0.5080 C.2   1 <1>   0.5440 
  3 N       -2.7370     0.1910    -0.1000 N.am  1 <1>  -0.6600 
  4 C       -1.2780     1.9940     0.7610 C.ar  1 <1>   0.0860 
  5 C       -3.8740     1.1340    -0.3370 C.3   1 <1>   0.2200 
  6 C       -2.9510    -1.2610    -0.3910 C.3   1 <1>   0.0600 
  7 C       -1.0000     2.9080    -0.2850 C.ar  1 <1>   0.0000 
  8 C       -1.2950     2.4990     2.0350 C.ar  1 <1>  -0.1500 
  9 C       -5.1880     0.7010     0.3050 C.3   1 <1>  -0.1600 
 10 C       -4.2180     1.3180    -1.8130 C.3   1 <1>  -0.1600 
 11 C       -0.8440     4.2710     0.0480 C.ar  1 <1>   0.3100 
 12 C       -0.8690     2.5300    -1.6400 C.ar  1 <1>  -0.1500 
 13 C       -1.1040     3.8610     2.2610 C.ar  1 <1>   0.1600 
 14 C       -6.2540     1.5140    -0.4400 C.3   1 <1>  -0.0800 
 15 C       -5.6390     1.8960    -1.8000 C.3   1 <1>  -0.0800 
 16 N       -0.9050     4.7320     1.3210 N.ar  1 <1>  -0.6200 
 17 C       -0.6100     5.1960    -0.9820 C.ar  1 <1>  -0.1500 
 18 C       -0.6350     3.4550    -2.6210 C.ar  1 <1>  -0.1500 
 19 C       -6.6130     2.8330     0.2580 C.3   1 <1>  -0.1600 
 20 C       -5.6690     3.4300    -1.8750 C.3   1 <1>  -0.1600 
 21 C       -0.5090     4.8060    -2.2900 C.ar  1 <1>  -0.1500 
 22 C       -6.7330     3.8440    -0.8700 C.3   1 <1>   0.2000 
 23 O       -6.4770     5.1140    -0.4020 O.3   1 <1>  -0.6800 
 24 H       -3.6400     2.1050     0.0600 H     1 <1>   0.0800 
 25 H       -3.6180    -1.3970    -1.2210 H     1 <1>   0.0800 
 26 H       -3.3640    -1.7430     0.4780 H     1 <1>   0.0800 
 27 H       -2.0130    -1.7330    -0.6300 H     1 <1>   0.0800 
 28 H       -1.4650     1.8460     2.8720 H     1 <1>   0.1500 
 29 H       -5.3740    -0.3420     0.1250 H     1 <1>   0.0800 
 30 H       -5.1950     0.8840     1.3650 H     1 <1>   0.0800 
 31 H       -3.5210     1.9660    -2.3120 H     1 <1>   0.0800 
 32 H       -4.2380     0.3700    -2.3170 H     1 <1>   0.0800 
 33 H       -0.9560     1.4890    -1.9030 H     1 <1>   0.1500 
 34 H       -1.1310     4.2140     3.2790 H     1 <1>   0.1500 
 35 H       -7.1470     0.9280    -0.5880 H     1 <1>   0.0800 
 36 H       -6.2250     1.4820    -2.6030 H     1 <1>   0.0800 
 37 H       -0.5080     6.2300    -0.7060 H     1 <1>   0.1500 
 38 H       -0.5410     3.1550    -3.6510 H     1 <1>   0.1500 
 39 H       -5.8240     3.1290     0.9270 H     1 <1>   0.0800 
 40 H       -7.5360     2.7500     0.8050 H     1 <1>   0.0800 
 41 H       -5.9170     3.7700    -2.8650 H     1 <1>   0.0800 
 42 H       -4.7170     3.8370    -1.5830 H     1 <1>   0.0800 
 43 H       -0.3270     5.5260    -3.0700 H     1 <1>   0.1500 
 44 H       -7.7160     3.8210    -1.3110 H     1 <1>   0.0800 
 45 H       -5.5780     5.1560    -0.0280 H     1 <1>   0.4000 
@<TRIPOS>BOND
  1   1   2  2   
  2   2   3  am  
  3   2   4  1   
  4   3   5  1   
  5   3   6  1   
  6   4   7  ar  
  7   4   8  ar  
  8   5   9  1   
  9   5  10  1   
 10   5  24  1   
 11   6  25  1   
 12   6  26  1   
 13   6  27  1   
 14   7  11  ar  
 15   7  12  ar  
 16   8  13  ar  
 17   8  28  1   
 18   9  14  1   
 19   9  29  1   
 20   9  30  1   
 21  10  15  1   
 22  10  31  1   
 23  10  32  1   
 24  11  16  ar  
 25  11  17  ar  
 26  12  18  ar  
 27  12  33  1   
 28  13  16  ar  
 29  13  34  1   
 30  14  15  1   
 31  14  19  1   
 32  14  35  1   
 33  15  20  1   
 34  15  36  1   
 35  17  21  ar  
 36  17  37  1   
 37  18  21  ar  
 38  18  38  1   
 39  19  22  1   
 40  19  39  1   
 41  19  40  1   
 42  20  22  1   
 43  20  41  1   
 44  20  42  1   
 45  21  43  1   
 46  22  23  1   
 47  22  44  1   
 48  23  45  1   
@<TRIPOS>SUBSTRUCTURE
  1 ****   5 GROUP 4 **** **** 0

# MOE 2024.06 (io_trps.svl 2023.06)
