@<TRIPOS>MOLECULE
NONAME
57 60 1 0 0 
SMALL
USER_CHARGES


@<TRIPOS>ATOM
  1 O       -1.7640     3.5670    -1.3360 O.2   1 <1>  -0.5700 
  2 C       -1.6510     3.2630    -0.1650 C.2   1 <1>   0.7160 
  3 N       -2.6930     2.6200     0.4800 N.am  1 <1>  -0.6600 
  4 C       -0.4370     3.5910     0.5270 C.2   1 <1>  -0.0860 
  5 C       -3.8700     2.1470    -0.3100 C.3   1 <1>   0.2200 
  6 C       -2.6790     2.3730     1.9570 C.3   1 <1>   0.0600 
  7 C        0.7470     2.8630     0.5380 C.2   1 <1>   0.2350 
  8 C       -0.1290     4.6510     1.2970 C.2   1 <1>  -0.0400 
  9 C       -5.0960     3.0320    -0.1120 C.3   1 <1>  -0.1600 
 10 C       -4.3540     0.7380     0.0340 C.3   1 <1>  -0.1600 
 11 N        1.6120     3.4820     1.2750 N.2   1 <1>  -0.4100 
 12 C        1.0140     1.6230    -0.1640 C.ar  1 <1>   0.0540 
 13 O        1.0940     4.5870     1.7560 O.3   1 <1>  -0.0190 
 14 C       -0.9790     5.8500     1.6690 C.3   1 <1>  -0.0600 
 15 C       -6.2680     2.1570    -0.5770 C.3   1 <1>  -0.0800 
 16 C       -5.7910     0.7020    -0.5030 C.3   1 <1>  -0.0800 
 17 C        2.2240     1.4440    -0.8330 C.ar  1 <1>  -0.1500 
 18 C        0.1000     0.5700    -0.1990 C.ar  1 <1>  -0.1500 
 19 C       -7.5300     2.2270     0.2930 C.3   1 <1>  -0.1600 
 20 C       -6.8120    -0.0300     0.3820 C.3   1 <1>  -0.1600 
 21 C        2.5060     0.2760    -1.5170 C.ar  1 <1>  -0.1500 
 22 C        0.3740    -0.6010    -0.8830 C.ar  1 <1>  -0.1500 
 23 C       -8.0960     0.8030     0.2970 C.3   1 <1>   0.4230 
 24 C        1.5790    -0.7500    -1.5450 C.ar  1 <1>  -0.1500 
 25 N       -8.8290     0.5150    -0.9780 N.4   1 <1>  -0.9590 
 26 C      -10.0070     1.4180    -1.1880 C.3   1 <1>   0.2630 
 27 C       -9.3010    -0.9050    -1.0650 C.3   1 <1>   0.2630 
 28 H       -3.6300     2.1490    -1.3610 H     1 <1>   0.0800 
 29 H       -3.6640     2.4990     2.3680 H     1 <1>   0.0800 
 30 H       -2.0210     3.0580     2.4610 H     1 <1>   0.0800 
 31 H       -2.3430     1.3690     2.1550 H     1 <1>   0.0800 
 32 H       -5.1980     3.2920     0.9260 H     1 <1>   0.0800 
 33 H       -5.0160     3.9310    -0.6980 H     1 <1>   0.0800 
 34 H       -3.7370    -0.0080    -0.4360 H     1 <1>   0.0800 
 35 H       -4.3550     0.5820     1.0960 H     1 <1>   0.0800 
 36 H       -1.9530     5.7780     1.2190 H     1 <1>   0.0800 
 37 H       -0.5040     6.7500     1.3230 H     1 <1>   0.0800 
 38 H       -1.0890     5.9030     2.7370 H     1 <1>   0.0800 
 39 H       -6.5050     2.3950    -1.6010 H     1 <1>   0.0800 
 40 H       -5.7900     0.2860    -1.4980 H     1 <1>   0.0800 
 41 H        2.9500     2.2380    -0.8130 H     1 <1>   0.1500 
 42 H       -0.8370     0.6590     0.3160 H     1 <1>   0.1500 
 43 H       -8.2130     2.9880    -0.0340 H     1 <1>   0.0800 
 44 H       -7.2540     2.4630     1.3060 H     1 <1>   0.0800 
 45 H       -6.4840    -0.0040     1.4070 H     1 <1>   0.0800 
 46 H       -6.9220    -1.0630     0.1110 H     1 <1>   0.0800 
 47 H        3.4480     0.1660    -2.0270 H     1 <1>   0.1500 
 48 H       -0.3480    -1.3990    -0.9000 H     1 <1>   0.1500 
 49 H       -8.7370     0.6330     1.1490 H     1 <1>   0.0800 
 50 H        1.7960    -1.6590    -2.0780 H     1 <1>   0.1500 
 51 H       -8.1540     0.6810    -1.7380 H     1 <1>   0.4500 
 52 H      -10.6910     1.3420    -0.3580 H     1 <1>   0.0800 
 53 H      -10.5300     1.1450    -2.0910 H     1 <1>   0.0800 
 54 H       -9.6910     2.4440    -1.2840 H     1 <1>   0.0800 
 55 H       -9.9420    -1.1380    -0.2300 H     1 <1>   0.0800 
 56 H       -8.4680    -1.5870    -1.0630 H     1 <1>   0.0800 
 57 H       -9.8550    -1.0580    -1.9770 H     1 <1>   0.0800 
@<TRIPOS>BOND
  1   1   2  2   
  2   2   3  am  
  3   2   4  1   
  4   3   5  1   
  5   3   6  1   
  6   4   7  1   
  7   4   8  2   
  8   5   9  1   
  9   5  10  1   
 10   5  28  1   
 11   6  29  1   
 12   6  30  1   
 13   6  31  1   
 14   7  11  2   
 15   7  12  1   
 16   8  13  1   
 17   8  14  1   
 18   9  15  1   
 19   9  32  1   
 20   9  33  1   
 21  10  16  1   
 22  10  34  1   
 23  10  35  1   
 24  11  13  1   
 25  12  17  ar  
 26  12  18  ar  
 27  14  36  1   
 28  14  37  1   
 29  14  38  1   
 30  15  16  1   
 31  15  19  1   
 32  15  39  1   
 33  16  20  1   
 34  16  40  1   
 35  17  21  ar  
 36  17  41  1   
 37  18  22  ar  
 38  18  42  1   
 39  19  23  1   
 40  19  43  1   
 41  19  44  1   
 42  20  23  1   
 43  20  45  1   
 44  20  46  1   
 45  21  24  ar  
 46  21  47  1   
 47  22  24  ar  
 48  22  48  1   
 49  23  25  1   
 50  23  49  1   
 51  24  50  1   
 52  25  26  1   
 53  25  27  1   
 54  25  51  1   
 55  26  52  1   
 56  26  53  1   
 57  26  54  1   
 58  27  55  1   
 59  27  56  1   
 60  27  57  1   
@<TRIPOS>SUBSTRUCTURE
  1 ****   3 GROUP 4 **** **** 0

# MOE 2024.06 (io_trps.svl 2023.06)
