@<TRIPOS>MOLECULE
NONAME
46 48 1 0 0 
SMALL
USER_CHARGES


@<TRIPOS>ATOM
  1 S       -2.5640     0.2050    -2.0580 S.3   1 <1>  -0.0800 
  2 C       -2.7090    -1.2120    -1.0340 C.2   1 <1>  -0.1100 
  3 C       -2.7320     1.2690    -0.6740 C.2   1 <1>  -0.1100 
  4 C       -2.8810    -0.8610     0.2560 C.2   1 <1>  -0.1810 
  5 C       -2.8870     0.5580     0.4570 C.2   1 <1>  -0.1500 
  6 C       -3.0540    -1.8070     1.4410 C.3   1 <1>   0.0820 
  7 C       -3.4260    -3.2360     1.0520 C.2   1 <1>   0.5690 
  8 O       -2.6690    -4.1200     1.3810 O.2   1 <1>  -0.5700 
  9 N       -4.5910    -3.5350     0.3800 N.am  1 <1>  -0.6600 
 10 C       -4.8760    -4.9260    -0.0700 C.3   1 <1>   0.1400 
 11 C       -5.6860    -2.5650     0.0910 C.3   1 <1>   0.1400 
 12 C       -6.1660    -5.4420     0.6050 C.3   1 <1>   0.4230 
 13 C       -6.9660    -3.0600     0.7760 C.3   1 <1>  -0.1600 
 14 N       -6.4570    -6.9130     0.3330 N.4   1 <1>  -0.9590 
 15 C       -7.3820    -4.4990     0.3540 C.3   1 <1>   0.0000 
 16 C       -7.8730    -7.3210     0.6140 C.3   1 <1>   0.3430 
 17 C       -6.0410    -7.4160    -1.0180 C.3   1 <1>   0.2630 
 18 C       -8.5760    -4.9550     1.2440 C.3   1 <1>  -0.1600 
 19 C       -7.7830    -4.5270    -1.1500 C.3   1 <1>   0.1200 
 20 C       -8.4980    -6.4290     1.6850 C.3   1 <1>  -0.1600 
 21 O       -8.7160    -3.5490    -1.4490 O.3   1 <1>  -0.6800 
 22 H       -2.6490    -2.1710    -1.5180 H     1 <1>   0.1500 
 23 H       -2.6940     2.3280    -0.8590 H     1 <1>   0.1500 
 24 H       -3.0060     0.9830     1.4390 H     1 <1>   0.1500 
 25 H       -3.8160    -1.4300     2.0960 H     1 <1>   0.0800 
 26 H       -2.1340    -1.8290     1.9970 H     1 <1>   0.0800 
 27 H       -4.9700    -4.9200    -1.1400 H     1 <1>   0.0800 
 28 H       -4.0590    -5.5770     0.1890 H     1 <1>   0.0800 
 29 H       -5.4470    -1.5810     0.4560 H     1 <1>   0.0800 
 30 H       -5.8300    -2.4870    -0.9740 H     1 <1>   0.0800 
 31 H       -5.9700    -5.3670     1.6620 H     1 <1>   0.0800 
 32 H       -6.7960    -3.0230     1.8390 H     1 <1>   0.0800 
 33 H       -7.7590    -2.3610     0.5690 H     1 <1>   0.0800 
 34 H       -5.8790    -7.4170     1.0230 H     1 <1>   0.4500 
 35 H       -8.4620    -7.2360    -0.2850 H     1 <1>   0.0800 
 36 H       -7.9020    -8.3510     0.9330 H     1 <1>   0.0800 
 37 H       -6.5760    -6.8980    -1.7960 H     1 <1>   0.0800 
 38 H       -6.2480    -8.4710    -1.1030 H     1 <1>   0.0800 
 39 H       -4.9830    -7.2690    -1.1680 H     1 <1>   0.0800 
 40 H       -8.6320    -4.3560     2.1380 H     1 <1>   0.0800 
 41 H       -9.5050    -4.7950     0.7240 H     1 <1>   0.0800 
 42 H       -8.2100    -5.4730    -1.4290 H     1 <1>   0.0800 
 43 H       -6.9360    -4.3370    -1.7850 H     1 <1>   0.0800 
 44 H       -9.4900    -6.7830     1.9060 H     1 <1>   0.0800 
 45 H       -7.9250    -6.5150     2.5930 H     1 <1>   0.0800 
 46 H       -9.5630    -3.6850    -0.9800 H     1 <1>   0.4000 
@<TRIPOS>BOND
  1   1   2  1   
  2   1   3  1   
  3   2   4  2   
  4   2  22  1   
  5   3   5  2   
  6   3  23  1   
  7   4   5  1   
  8   4   6  1   
  9   5  24  1   
 10   6   7  1   
 11   6  25  1   
 12   6  26  1   
 13   7   8  2   
 14   7   9  am  
 15   9  10  1   
 16   9  11  1   
 17  10  12  1   
 18  10  27  1   
 19  10  28  1   
 20  11  13  1   
 21  11  29  1   
 22  11  30  1   
 23  12  14  1   
 24  12  15  1   
 25  12  31  1   
 26  13  15  1   
 27  13  32  1   
 28  13  33  1   
 29  14  16  1   
 30  14  17  1   
 31  14  34  1   
 32  15  18  1   
 33  15  19  1   
 34  16  20  1   
 35  16  35  1   
 36  16  36  1   
 37  17  37  1   
 38  17  38  1   
 39  17  39  1   
 40  18  20  1   
 41  18  40  1   
 42  18  41  1   
 43  19  21  1   
 44  19  42  1   
 45  19  43  1   
 46  20  44  1   
 47  20  45  1   
 48  21  46  1   
@<TRIPOS>SUBSTRUCTURE
  1 ****   9 GROUP 4 **** **** 0

# MOE 2024.06 (io_trps.svl 2023.06)
