@<TRIPOS>MOLECULE
NONAME
47 49 1 0 0 
SMALL
USER_CHARGES


@<TRIPOS>ATOM
  1 O       -0.2290     0.0700    -1.0670 O.2   1 <1>  -0.5700 
  2 C       -1.2320     0.7200    -0.9010 C.2   1 <1>   0.5690 
  3 N       -2.4510     0.1330    -0.7070 N.am  1 <1>  -0.6600 
  4 C       -1.0800     2.2240    -0.8770 C.3   1 <1>  -0.0990 
  5 C       -3.7400     0.8110    -0.4200 C.3   1 <1>   0.1400 
  6 C       -2.6280    -1.3390    -0.6990 C.3   1 <1>   0.1400 
  7 C       -0.5660     2.6540     0.4970 C.3   1 <1>   0.0960 
  8 C       -4.7440    -0.3180    -0.1690 C.3   1 <1>   0.2000 
  9 C       -3.9150    -1.5750     0.0920 C.3   1 <1>  -0.0800 
 10 N       -0.4150     4.1210     0.5480 N.pl3 1 <1>   0.0480 
 11 O       -5.5450    -0.0470     0.9280 O.3   1 <1>  -0.6800 
 12 C       -4.6640    -2.8650    -0.2860 C.3   1 <1>  -0.0160 
 13 C        0.6700     4.8850     0.2600 C.2   1 <1>   0.0060 
 14 C       -1.3770     5.0020     0.8760 C.2   1 <1>  -0.3020 
 15 C       -3.8440    -4.1080     0.0190 C.ar  1 <1>   0.1670 
 16 N        0.4540     6.1550     0.3800 N.2   1 <1>  -0.5650 
 17 C        2.0160     4.3210    -0.1680 C.3   1 <1>   0.0200 
 18 C       -0.8310     6.2310     0.7680 C.2   1 <1>   0.0770 
 19 N       -2.9230    -4.4400    -0.8720 N.ar  1 <1>  -0.6200 
 20 C       -4.0790    -4.8300     1.1880 C.ar  1 <1>   0.1600 
 21 C        2.8460     3.8830     1.0430 C.3   1 <1>  -0.2400 
 22 C       -2.2590    -5.5280    -0.5180 C.ar  1 <1>   0.1600 
 23 N       -3.4150    -5.9180     1.5440 N.ar  1 <1>  -0.6200 
 24 C       -2.4960    -6.2410     0.6500 C.ar  1 <1>   0.1600 
 25 H       -0.3670     2.5020    -1.6320 H     1 <1>   0.0800 
 26 H       -2.0100     2.7090    -1.1010 H     1 <1>   0.0800 
 27 H       -3.6350     1.4360     0.4490 H     1 <1>   0.0800 
 28 H       -4.0460     1.3990    -1.2680 H     1 <1>   0.0800 
 29 H       -2.7300    -1.6870    -1.7130 H     1 <1>   0.0800 
 30 H       -1.7860    -1.8330    -0.2420 H     1 <1>   0.0800 
 31 H        0.3830     2.1900     0.6960 H     1 <1>   0.0800 
 32 H       -1.2560     2.3520     1.2640 H     1 <1>   0.0800 
 33 H       -5.3790    -0.4360    -1.0310 H     1 <1>   0.0800 
 34 H       -3.6410    -1.6150     1.1320 H     1 <1>   0.0800 
 35 H       -5.0040     0.0200     1.7390 H     1 <1>   0.4000 
 36 H       -4.9060    -2.8560    -1.3350 H     1 <1>   0.0800 
 37 H       -5.5920    -2.9050     0.2570 H     1 <1>   0.0800 
 38 H       -2.3730     4.7210     1.1610 H     1 <1>   0.1500 
 39 H        1.8750     3.4940    -0.8410 H     1 <1>   0.0800 
 40 H        2.5530     5.0870    -0.7010 H     1 <1>   0.0800 
 41 H       -1.3000     7.1830     0.9530 H     1 <1>   0.1500 
 42 H       -4.8490    -4.4940     1.8600 H     1 <1>   0.1500 
 43 H        2.3420     3.1080     1.5910 H     1 <1>   0.0800 
 44 H        2.9990     4.7230     1.6980 H     1 <1>   0.0800 
 45 H        3.8040     3.5160     0.7220 H     1 <1>   0.0800 
 46 H       -1.4880    -5.8710    -1.1850 H     1 <1>   0.1500 
 47 H       -1.9010    -7.1150     0.8520 H     1 <1>   0.1500 
@<TRIPOS>BOND
  1   1   2  2   
  2   2   3  am  
  3   2   4  1   
  4   3   5  1   
  5   3   6  1   
  6   4   7  1   
  7   4  25  1   
  8   4  26  1   
  9   5   8  1   
 10   5  27  1   
 11   5  28  1   
 12   6   9  1   
 13   6  29  1   
 14   6  30  1   
 15   7  10  1   
 16   7  31  1   
 17   7  32  1   
 18   8   9  1   
 19   8  11  1   
 20   8  33  1   
 21   9  12  1   
 22   9  34  1   
 23  10  13  1   
 24  10  14  1   
 25  11  35  1   
 26  12  15  1   
 27  12  36  1   
 28  12  37  1   
 29  13  16  2   
 30  13  17  1   
 31  14  18  2   
 32  14  38  1   
 33  15  19  ar  
 34  15  20  ar  
 35  16  18  1   
 36  17  21  1   
 37  17  39  1   
 38  17  40  1   
 39  18  41  1   
 40  19  22  ar  
 41  20  23  ar  
 42  20  42  1   
 43  21  43  1   
 44  21  44  1   
 45  21  45  1   
 46  22  24  ar  
 47  22  46  1   
 48  23  24  ar  
 49  24  47  1   
@<TRIPOS>SUBSTRUCTURE
  1 ****   3 GROUP 4 **** **** 0

# MOE 2024.06 (io_trps.svl 2023.06)
