@<TRIPOS>MOLECULE
NONAME
60 62 1 0 0 
SMALL
USER_CHARGES


@<TRIPOS>ATOM
  1 O        0.2620    -0.6360    -0.9120 O.3   1 <1>  -0.5600 
  2 C       -0.1280    -1.5180     0.1280 C.3   1 <1>   0.2800 
  3 C       -0.7270     0.1150    -1.5710 C.3   1 <1>   0.1200 
  4 C       -1.6560    -1.4410     0.4280 C.3   1 <1>   0.2000 
  5 C        0.6870    -1.1010     1.3650 C.3   1 <1>  -0.1600 
  6 C        0.3430    -2.9210    -0.3210 C.3   1 <1>  -0.1600 
  7 C       -1.8450    -0.8180    -2.0400 C.3   1 <1>  -0.1600 
  8 O       -2.0360    -2.3980     1.3740 O.3   1 <1>  -0.6800 
  9 C       -2.5470    -1.4920    -0.8480 C.3   1 <1>   0.2800 
 10 C        2.2010    -1.0740     1.1200 C.3   1 <1>   0.3430 
 11 C        1.8460    -3.1630    -0.1490 C.3   1 <1>   0.3430 
 12 O       -3.6740    -0.7520    -0.5600 O.3   1 <1>  -0.6800 
 13 C       -3.0650    -2.8830    -1.2420 C.3   1 <1>  -0.2400 
 14 N        2.5580    -1.8550    -0.1080 N.4   1 <1>  -0.9590 
 15 C        4.0210    -1.8290    -0.5180 C.3   1 <1>   0.3430 
 16 C        5.0970    -2.7170     0.2250 C.3   1 <1>   0.5030 
 17 N        6.4960    -2.3790    -0.2120 N.4   1 <1>  -0.9590 
 18 C        5.0460    -2.5330     1.7470 C.3   1 <1>  -0.2400 
 19 C        4.8960    -4.2110    -0.0710 C.3   1 <1>  -0.2400 
 20 C        7.0380    -1.0180     0.1750 C.3   1 <1>   0.3430 
 21 C        6.8640    -2.6750    -1.6510 C.3   1 <1>   0.3430 
 22 C        8.5390    -0.8890    -0.1720 C.3   1 <1>   0.1200 
 23 C        8.3760    -2.4730    -1.8990 C.3   1 <1>   0.1200 
 24 O        9.0250    -2.0820    -0.7210 O.3   1 <1>  -0.5600 
 25 H       -1.1030     0.8700    -0.8990 H     1 <1>   0.0800 
 26 H       -0.2660     0.6030    -2.4130 H     1 <1>   0.0800 
 27 H       -1.8260    -0.4870     0.8980 H     1 <1>   0.0800 
 28 H        0.3670    -0.1330     1.7080 H     1 <1>   0.0800 
 29 H        0.4810    -1.7900     2.1660 H     1 <1>   0.0800 
 30 H       -0.1630    -3.6790     0.2500 H     1 <1>   0.0800 
 31 H        0.0720    -3.0800    -1.3480 H     1 <1>   0.0800 
 32 H       -1.4010    -1.5600    -2.6800 H     1 <1>   0.0800 
 33 H       -2.5530    -0.2700    -2.6370 H     1 <1>   0.0800 
 34 H       -2.9960    -2.2950     1.5480 H     1 <1>   0.4000 
 35 H        2.7040    -1.4640     1.9890 H     1 <1>   0.0800 
 36 H        2.5050    -0.0480     0.9850 H     1 <1>   0.0800 
 37 H        2.2020    -3.7670    -0.9680 H     1 <1>   0.0800 
 38 H        2.0180    -3.6960     0.7720 H     1 <1>   0.0800 
 39 H       -4.3240    -0.8390    -1.2840 H     1 <1>   0.4000 
 40 H       -2.2470    -3.5550    -1.4170 H     1 <1>   0.0800 
 41 H       -3.6480    -2.8300    -2.1440 H     1 <1>   0.0800 
 42 H       -3.6740    -3.3020    -0.4610 H     1 <1>   0.0800 
 43 H        2.0320    -1.3140    -0.8300 H     1 <1>   0.4500 
 44 H        4.0650    -2.0970    -1.5600 H     1 <1>   0.0800 
 45 H        4.3510    -0.8070    -0.4470 H     1 <1>   0.0800 
 46 H        7.1210    -3.0180     0.3090 H     1 <1>   0.4500 
 47 H        4.1430    -2.9590     2.1470 H     1 <1>   0.0800 
 48 H        5.0650    -1.4950     2.0260 H     1 <1>   0.0800 
 49 H        5.8690    -3.0390     2.2230 H     1 <1>   0.0800 
 50 H        4.0300    -4.5920     0.4380 H     1 <1>   0.0800 
 51 H        5.7360    -4.7870     0.2800 H     1 <1>   0.0800 
 52 H        4.7600    -4.3940    -1.1210 H     1 <1>   0.0800 
 53 H        6.4960    -0.2370    -0.3320 H     1 <1>   0.0800 
 54 H        6.9270    -0.8570     1.2350 H     1 <1>   0.0800 
 55 H        6.6200    -3.6950    -1.8990 H     1 <1>   0.0800 
 56 H        6.3130    -2.0360    -2.3210 H     1 <1>   0.0800 
 57 H        9.1110    -0.6800     0.7160 H     1 <1>   0.0800 
 58 H        8.7080    -0.0900    -0.8740 H     1 <1>   0.0800 
 59 H        8.5480    -1.7250    -2.6550 H     1 <1>   0.0800 
 60 H        8.8260    -3.3930    -2.2320 H     1 <1>   0.0800 
@<TRIPOS>BOND
  1   1   2  1   
  2   1   3  1   
  3   2   4  1   
  4   2   5  1   
  5   2   6  1   
  6   3   7  1   
  7   3  25  1   
  8   3  26  1   
  9   4   8  1   
 10   4   9  1   
 11   4  27  1   
 12   5  10  1   
 13   5  28  1   
 14   5  29  1   
 15   6  11  1   
 16   6  30  1   
 17   6  31  1   
 18   7   9  1   
 19   7  32  1   
 20   7  33  1   
 21   8  34  1   
 22   9  12  1   
 23   9  13  1   
 24  10  14  1   
 25  10  35  1   
 26  10  36  1   
 27  11  14  1   
 28  11  37  1   
 29  11  38  1   
 30  12  39  1   
 31  13  40  1   
 32  13  41  1   
 33  13  42  1   
 34  14  15  1   
 35  14  43  1   
 36  15  16  1   
 37  15  44  1   
 38  15  45  1   
 39  16  17  1   
 40  16  18  1   
 41  16  19  1   
 42  17  20  1   
 43  17  21  1   
 44  17  46  1   
 45  18  47  1   
 46  18  48  1   
 47  18  49  1   
 48  19  50  1   
 49  19  51  1   
 50  19  52  1   
 51  20  22  1   
 52  20  53  1   
 53  20  54  1   
 54  21  23  1   
 55  21  55  1   
 56  21  56  1   
 57  22  24  1   
 58  22  57  1   
 59  22  58  1   
 60  23  24  1   
 61  23  59  1   
 62  23  60  1   
@<TRIPOS>SUBSTRUCTURE
  1 ****  14 GROUP 4 **** **** 0

# MOE 2024.06 (io_trps.svl 2023.06)
