@<TRIPOS>MOLECULE
NONAME
40 41 1 0 0 
SMALL
USER_CHARGES


@<TRIPOS>ATOM
  1 O        0.7900    -0.9220     2.2940 O.2   1 <1>  -0.5700 
  2 C        1.3610    -1.0280     1.2500 C.2   1 <1>   0.4480 
  3 C        1.2440    -2.2940     0.4020 C.3   1 <1>  -0.0190 
  4 C        2.2250     0.1180     0.7360 C.3   1 <1>  -0.0990 
  5 C        0.2200    -3.2590     1.0170 C.3   1 <1>   0.2090 
  6 C        2.6010    -3.0080     0.2170 C.3   1 <1>  -0.1600 
  7 C        1.7990     0.6740    -0.6380 C.3   1 <1>  -0.0800 
  8 N        0.0920    -4.4730     0.1530 N.pl3 1 <1>  -0.8380 
  9 C        2.4320    -4.3040    -0.5940 C.3   1 <1>  -0.1600 
 10 C        2.7260     1.8260    -1.0450 C.3   1 <1>  -0.2400 
 11 C        0.3450     1.1660    -0.6220 C.3   1 <1>  -0.2400 
 12 C       -1.1030    -4.9430    -0.3300 C.2   1 <1>   0.2000 
 13 C        1.3650    -5.2300    -0.0020 C.3   1 <1>   0.2090 
 14 N       -2.0530    -4.0280    -0.6430 N.pl3 1 <1>  -0.5500 
 15 C       -1.4360    -6.2460    -0.5440 C.2   1 <1>  -0.1360 
 16 C       -3.2710    -4.3920    -1.1410 C.2   1 <1>   0.4400 
 17 C       -2.6990    -6.5770    -1.0600 C.2   1 <1>   0.7670 
 18 N       -3.6200    -5.6040    -1.3550 N.2   1 <1>  -0.6610 
 19 O       -3.0100    -7.7460    -1.2620 O.2   1 <1>  -0.5700 
 20 H        0.8650    -2.0120    -0.5620 H     1 <1>   0.0800 
 21 H        3.2450    -0.2130     0.6920 H     1 <1>   0.0800 
 22 H        2.1830     0.9120     1.4610 H     1 <1>   0.0800 
 23 H       -0.7300    -2.7680     1.1360 H     1 <1>   0.0800 
 24 H        0.5500    -3.5610     1.9980 H     1 <1>   0.0800 
 25 H        3.0130    -3.2440     1.1830 H     1 <1>   0.0800 
 26 H        3.2950    -2.3650    -0.2950 H     1 <1>   0.0800 
 27 H        1.8940    -0.0990    -1.3810 H     1 <1>   0.0800 
 28 H        3.3700    -4.8290    -0.6350 H     1 <1>   0.0800 
 29 H        2.1500    -4.0640    -1.6040 H     1 <1>   0.0800 
 30 H        2.6610     2.6350    -0.3390 H     1 <1>   0.0800 
 31 H        2.4550     2.1990    -2.0170 H     1 <1>   0.0800 
 32 H        3.7470     1.4900    -1.0880 H     1 <1>   0.0800 
 33 H        0.2130     1.9300     0.1240 H     1 <1>   0.0800 
 34 H       -0.3340     0.3610    -0.4070 H     1 <1>   0.0800 
 35 H        0.0800     1.5780    -1.5800 H     1 <1>   0.0800 
 36 H        1.2270    -6.0730    -0.6560 H     1 <1>   0.0800 
 37 H        1.6810    -5.5930     0.9610 H     1 <1>   0.0800 
 38 H       -1.8180    -3.0470    -0.5300 H     1 <1>   0.4000 
 39 H       -0.7720    -7.0540    -0.3240 H     1 <1>   0.1500 
 40 H       -3.9590    -3.5940    -1.3610 H     1 <1>   0.0600 
@<TRIPOS>BOND
  1   1   2  2   
  2   2   3  1   
  3   2   4  1   
  4   3   5  1   
  5   3   6  1   
  6   3  20  1   
  7   4   7  1   
  8   4  21  1   
  9   4  22  1   
 10   5   8  1   
 11   5  23  1   
 12   5  24  1   
 13   6   9  1   
 14   6  25  1   
 15   6  26  1   
 16   7  10  1   
 17   7  11  1   
 18   7  27  1   
 19   8  12  1   
 20   8  13  1   
 21   9  13  1   
 22   9  28  1   
 23   9  29  1   
 24  10  30  1   
 25  10  31  1   
 26  10  32  1   
 27  11  33  1   
 28  11  34  1   
 29  11  35  1   
 30  12  14  1   
 31  12  15  2   
 32  13  36  1   
 33  13  37  1   
 34  14  16  1   
 35  14  38  1   
 36  15  17  1   
 37  15  39  1   
 38  16  18  2   
 39  16  40  1   
 40  17  18  1   
 41  17  19  2   
@<TRIPOS>SUBSTRUCTURE
  1 ****   5 GROUP 4 **** **** 0

# MOE 2024.06 (io_trps.svl 2023.06)
