@<TRIPOS>MOLECULE
NONAME
48 51 1 0 0 
SMALL
USER_CHARGES


@<TRIPOS>ATOM
  1 O        0.2350    -0.1590    -1.2070 O.2   1 <1>  -0.5700 
  2 C       -0.6660     0.3200    -0.5560 C.2   1 <1>   0.5690 
  3 N       -1.9680    -0.0990    -0.7230 N.am  1 <1>  -0.6600 
  4 C       -0.2720     1.3690     0.4920 C.3   1 <1>   0.1810 
  5 C       -2.3500    -1.0330    -1.8180 C.3   1 <1>   0.1400 
  6 C       -3.1310     0.3950     0.0660 C.3   1 <1>   0.1400 
  7 O       -0.9740     2.5800     0.3490 O.3   1 <1>  -0.5600 
  8 C       -3.0720    -2.2430    -1.2240 C.3   1 <1>  -0.1600 
  9 C       -3.8580    -0.8000     0.6850 C.3   1 <1>  -0.1600 
 10 C       -0.5400     3.5890     1.1960 C.3   1 <1>   0.1200 
 11 C       -4.2790    -1.8200    -0.3820 C.3   1 <1>   0.4600 
 12 C       -1.4270     4.8030     0.9500 C.3   1 <1>  -0.2400 
 13 O       -5.1910    -1.2110    -1.2710 O.3   1 <1>  -0.5600 
 14 C       -4.9360    -3.0410     0.2520 C.2   1 <1>  -0.3320 
 15 C       -6.5410    -1.1220    -0.8810 C.3   1 <1>   0.1200 
 16 N       -4.3260    -3.9720     1.0470 N.pl3 1 <1>   0.0330 
 17 C       -6.2350    -3.3670     0.1040 C.2   1 <1>  -0.1810 
 18 C       -7.1680    -2.5170    -0.7220 C.3   1 <1>   0.0210 
 19 C       -5.2670    -4.9080     1.4020 C.ar  1 <1>  -0.1520 
 20 C       -6.4820    -4.5560     0.8210 C.ar  1 <1>   0.0000 
 21 C       -5.1580    -6.0540     2.1940 C.ar  1 <1>  -0.1500 
 22 C       -7.6080    -5.3580     1.0290 C.ar  1 <1>  -0.1500 
 23 C       -6.2740    -6.8340     2.3920 C.ar  1 <1>  -0.1500 
 24 C       -7.4990    -6.4860     1.8100 C.ar  1 <1>  -0.1500 
 25 H        0.7790     1.5740     0.3890 H     1 <1>   0.0800 
 26 H       -0.4620     0.9770     1.4730 H     1 <1>   0.0800 
 27 H       -1.4810    -1.3620    -2.3630 H     1 <1>   0.0800 
 28 H       -2.9990    -0.5190    -2.5070 H     1 <1>   0.0800 
 29 H       -3.7950     0.9330    -0.5900 H     1 <1>   0.0800 
 30 H       -2.8210     1.0630     0.8470 H     1 <1>   0.0800 
 31 H       -2.3750    -2.7890    -0.6190 H     1 <1>   0.0800 
 32 H       -3.4040    -2.8940    -2.0120 H     1 <1>   0.0800 
 33 H       -4.7160    -0.4660     1.2360 H     1 <1>   0.0800 
 34 H       -3.1970    -1.2750     1.3850 H     1 <1>   0.0800 
 35 H        0.4880     3.8180     0.9670 H     1 <1>   0.0800 
 36 H       -0.6280     3.2540     2.2160 H     1 <1>   0.0800 
 37 H       -1.3430     5.1180    -0.0740 H     1 <1>   0.0800 
 38 H       -1.1210     5.6130     1.5860 H     1 <1>   0.0800 
 39 H       -2.4520     4.5620     1.1680 H     1 <1>   0.0800 
 40 H       -7.0640    -0.5640    -1.6370 H     1 <1>   0.0800 
 41 H       -6.5950    -0.5810     0.0460 H     1 <1>   0.0800 
 42 H       -3.3400    -3.9930     1.3230 H     1 <1>   0.2700 
 43 H       -7.3100    -2.9680    -1.6880 H     1 <1>   0.0800 
 44 H       -8.1230    -2.4330    -0.2360 H     1 <1>   0.0800 
 45 H       -4.2140    -6.3160     2.6370 H     1 <1>   0.1500 
 46 H       -8.5400    -5.0790     0.5750 H     1 <1>   0.1500 
 47 H       -6.2170    -7.7210     2.9980 H     1 <1>   0.1500 
 48 H       -8.3570    -7.1130     1.9800 H     1 <1>   0.1500 
@<TRIPOS>BOND
  1   1   2  2   
  2   2   3  am  
  3   2   4  1   
  4   3   5  1   
  5   3   6  1   
  6   4   7  1   
  7   4  25  1   
  8   4  26  1   
  9   5   8  1   
 10   5  27  1   
 11   5  28  1   
 12   6   9  1   
 13   6  29  1   
 14   6  30  1   
 15   7  10  1   
 16   8  11  1   
 17   8  31  1   
 18   8  32  1   
 19   9  11  1   
 20   9  33  1   
 21   9  34  1   
 22  10  12  1   
 23  10  35  1   
 24  10  36  1   
 25  11  13  1   
 26  11  14  1   
 27  12  37  1   
 28  12  38  1   
 29  12  39  1   
 30  13  15  1   
 31  14  16  1   
 32  14  17  2   
 33  15  18  1   
 34  15  40  1   
 35  15  41  1   
 36  16  19  1   
 37  16  42  1   
 38  17  18  1   
 39  17  20  1   
 40  18  43  1   
 41  18  44  1   
 42  19  20  ar  
 43  19  21  ar  
 44  20  22  ar  
 45  21  23  ar  
 46  21  45  1   
 47  22  24  ar  
 48  22  46  1   
 49  23  24  ar  
 50  23  47  1   
 51  24  48  1   
@<TRIPOS>SUBSTRUCTURE
  1 ****  11 GROUP 4 **** **** 0

# MOE 2024.06 (io_trps.svl 2023.06)
