@<TRIPOS>MOLECULE
NONAME
47 49 1 0 0 
SMALL
USER_CHARGES


@<TRIPOS>ATOM
  1 O        1.3560    -1.3380     1.5480 O.3   1 <1>  -0.5600 
  2 C        0.1830    -2.0970     1.5750 C.3   1 <1>   0.1200 
  3 C        1.5980    -0.6330     0.3780 C.3   1 <1>   0.1200 
  4 C        0.3860    -3.4430     0.8510 C.3   1 <1>   0.1900 
  5 C        1.8880    -1.5770    -0.8000 C.3   1 <1>  -0.0800 
  6 N        0.1220    -3.4010    -0.6320 N.3   1 <1>  -0.8100 
  7 C        1.8090    -3.9910     1.1190 C.3   1 <1>   0.3430 
  8 C        0.5880    -2.2020    -1.3550 C.3   1 <1>   0.1100 
  9 C        3.0560    -2.5450    -0.4950 C.3   1 <1>   0.3430 
 10 C       -1.2470    -3.8020    -1.0050 C.3   1 <1>   0.2540 
 11 N        2.6350    -3.9330    -0.1300 N.4   1 <1>  -0.9590 
 12 C       -1.4140    -5.2760    -0.6940 C.ar  1 <1>  -0.1440 
 13 C        3.7630    -4.9050    -0.1090 C.3   1 <1>   0.2630 
 14 C       -0.6210    -6.2190    -1.3050 C.ar  1 <1>   0.1600 
 15 C       -2.3300    -5.7370     0.2240 C.ar  1 <1>   0.1600 
 16 N       -0.6940    -7.4940    -1.0160 N.ar  1 <1>  -0.6200 
 17 N       -2.4310    -7.0060     0.5310 N.ar  1 <1>  -0.6200 
 18 C       -1.5980    -7.8230    -0.1060 C.ar  1 <1>   0.7200 
 19 N       -1.6490    -9.1420     0.1780 N.pl3 1 <1>  -0.8690 
 20 C       -2.8050    -9.7990     0.8070 C.3   1 <1>   0.2090 
 21 C       -2.4950   -11.2830     0.9490 C.3   1 <1>  -0.2400 
 22 H       -0.0280    -2.2880     2.6130 H     1 <1>   0.0800 
 23 H       -0.6370    -1.5330     1.1650 H     1 <1>   0.0800 
 24 H        0.7560     0.0090     0.1780 H     1 <1>   0.0800 
 25 H        2.4540    -0.0070     0.5650 H     1 <1>   0.0800 
 26 H       -0.2990    -4.1350     1.3090 H     1 <1>   0.0800 
 27 H        2.2460    -0.9230    -1.5750 H     1 <1>   0.0800 
 28 H        1.7130    -5.0170     1.4360 H     1 <1>   0.0800 
 29 H        2.2810    -3.4420     1.9170 H     1 <1>   0.0800 
 30 H        0.7480    -2.4750    -2.3860 H     1 <1>   0.0800 
 31 H       -0.1890    -1.4540    -1.3460 H     1 <1>   0.0800 
 32 H        3.6590    -2.1310     0.2980 H     1 <1>   0.0800 
 33 H        3.6740    -2.6030    -1.3760 H     1 <1>   0.0800 
 34 H       -1.9690    -3.2070    -0.4720 H     1 <1>   0.0800 
 35 H       -1.4000    -3.6540    -2.0620 H     1 <1>   0.0800 
 36 H        1.9300    -4.1930    -0.8460 H     1 <1>   0.4500 
 37 H        4.4660    -4.6430     0.6650 H     1 <1>   0.0800 
 38 H        4.2740    -4.9050    -1.0570 H     1 <1>   0.0800 
 39 H        3.3930    -5.8990     0.0810 H     1 <1>   0.0800 
 40 H        0.0990    -5.9150    -2.0440 H     1 <1>   0.1500 
 41 H       -2.9920    -5.0520     0.7260 H     1 <1>   0.1500 
 42 H       -1.1250    -9.7050    -0.4890 H     1 <1>   0.4000 
 43 H       -2.9840    -9.3610     1.7750 H     1 <1>   0.0800 
 44 H       -3.6790    -9.6530     0.1940 H     1 <1>   0.0800 
 45 H       -1.6190   -11.4200     1.5570 H     1 <1>   0.0800 
 46 H       -2.3400   -11.7270    -0.0170 H     1 <1>   0.0800 
 47 H       -3.3220   -11.7780     1.4240 H     1 <1>   0.0800 
@<TRIPOS>BOND
  1   1   2  1   
  2   1   3  1   
  3   2   4  1   
  4   2  22  1   
  5   2  23  1   
  6   3   5  1   
  7   3  24  1   
  8   3  25  1   
  9   4   6  1   
 10   4   7  1   
 11   4  26  1   
 12   5   8  1   
 13   5   9  1   
 14   5  27  1   
 15   6   8  1   
 16   6  10  1   
 17   7  11  1   
 18   7  28  1   
 19   7  29  1   
 20   8  30  1   
 21   8  31  1   
 22   9  11  1   
 23   9  32  1   
 24   9  33  1   
 25  10  12  1   
 26  10  34  1   
 27  10  35  1   
 28  11  13  1   
 29  11  36  1   
 30  12  14  ar  
 31  12  15  ar  
 32  13  37  1   
 33  13  38  1   
 34  13  39  1   
 35  14  16  ar  
 36  14  40  1   
 37  15  17  ar  
 38  15  41  1   
 39  16  18  ar  
 40  17  18  ar  
 41  18  19  1   
 42  19  20  1   
 43  19  42  1   
 44  20  21  1   
 45  20  43  1   
 46  20  44  1   
 47  21  45  1   
 48  21  46  1   
 49  21  47  1   
@<TRIPOS>SUBSTRUCTURE
  1 ****  12 GROUP 4 **** **** 0

# MOE 2024.06 (io_trps.svl 2023.06)
