@<TRIPOS>MOLECULE
NONAME
52 55 1 0 0 
SMALL
USER_CHARGES


@<TRIPOS>ATOM
  1 O        2.5690     0.6990     1.6670 O.co2 1 <1>  -0.9000 
  2 C        2.0740     1.1500     0.6230 C.2   1 <1>   0.9060 
  3 O        1.4010     2.1770     0.6310 O.co2 1 <1>  -0.9000 
  4 C        2.5460     0.5760    -0.7200 C.3   1 <1>  -0.1060 
  5 C        3.9370    -0.0400    -0.5100 C.3   1 <1>   0.4230 
  6 C        2.7410     1.7030    -1.7630 C.3   1 <1>  -0.1600 
  7 C        1.5580    -0.4770    -1.2710 C.3   1 <1>  -0.1600 
  8 N        3.8320    -1.2460     0.3960 N.4   1 <1>  -0.9590 
  9 C        4.9460     1.0480    -0.0040 C.3   1 <1>   0.3430 
 10 C        3.5420     2.8930    -1.2150 C.3   1 <1>   0.3430 
 11 C        1.5240    -1.7210    -0.3740 C.3   1 <1>  -0.1600 
 12 C        2.9200    -2.2980    -0.1390 C.3   1 <1>   0.3430 
 13 C        5.1190    -1.8420     0.8620 C.3   1 <1>   0.2630 
 14 N        4.6000     2.5120    -0.2130 N.4   1 <1>  -0.9590 
 15 C        4.2590     3.1600     1.1010 C.3   1 <1>   0.5240 
 16 C        4.8360     4.5640     1.0540 C.2   1 <1>   0.0460 
 17 N        6.0390     4.7990     0.4880 N.2   1 <1>  -0.5650 
 18 C        4.3110     5.7150     1.4900 C.2   1 <1>  -0.0100 
 19 C        6.1920     6.0860     0.6170 C.2   1 <1>   0.4250 
 20 O        5.1620     6.6610     1.2150 O.3   1 <1>  -0.2800 
 21 C        7.3180     6.8870     0.1820 C.ar  1 <1>   0.0530 
 22 C        7.3040     8.2810     0.2700 C.ar  1 <1>  -0.1500 
 23 C        8.4650     6.2930    -0.3470 C.ar  1 <1>  -0.1500 
 24 C        8.3790     9.0430    -0.1510 C.ar  1 <1>  -0.1500 
 25 C        9.5440     7.0480    -0.7700 C.ar  1 <1>  -0.1500 
 26 C        9.5020     8.4270    -0.6730 C.ar  1 <1>  -0.1500 
 27 H        4.2890    -0.3790    -1.4690 H     1 <1>   0.0800 
 28 H        1.7770     2.0790    -2.0660 H     1 <1>   0.0800 
 29 H        3.2220     1.3270    -2.6490 H     1 <1>   0.0800 
 30 H        0.5690    -0.0490    -1.3240 H     1 <1>   0.0800 
 31 H        1.8430    -0.7680    -2.2680 H     1 <1>   0.0800 
 32 H        3.3280    -0.8330     1.2280 H     1 <1>   0.4500 
 33 H        5.8940     0.8540    -0.4750 H     1 <1>   0.0800 
 34 H        5.0750     0.8900     1.0540 H     1 <1>   0.0800 
 35 H        2.8400     3.5640    -0.7420 H     1 <1>   0.0800 
 36 H        3.9890     3.4300    -2.0350 H     1 <1>   0.0800 
 37 H        0.9040    -2.4730    -0.8310 H     1 <1>   0.0800 
 38 H        1.0770    -1.4780     0.5760 H     1 <1>   0.0800 
 39 H        3.3110    -2.6830    -1.0660 H     1 <1>   0.0800 
 40 H        2.8480    -3.1120     0.5640 H     1 <1>   0.0800 
 41 H        5.6810    -2.2260     0.0270 H     1 <1>   0.0800 
 42 H        4.9210    -2.6530     1.5450 H     1 <1>   0.0800 
 43 H        5.7110    -1.1070     1.3800 H     1 <1>   0.0800 
 44 H        5.4560     3.0440    -0.4550 H     1 <1>   0.4500 
 45 H        3.1980     3.2020     1.2750 H     1 <1>   0.0800 
 46 H        4.7150     2.6220     1.9150 H     1 <1>   0.0800 
 47 H        3.3830     5.9540     1.9820 H     1 <1>   0.1500 
 48 H        6.4410     8.7800     0.6730 H     1 <1>   0.1500 
 49 H        8.5160     5.2220    -0.4260 H     1 <1>   0.1500 
 50 H        8.3440    10.1160    -0.0730 H     1 <1>   0.1500 
 51 H       10.4180     6.5660    -1.1740 H     1 <1>   0.1500 
 52 H       10.3400     9.0180    -1.0010 H     1 <1>   0.1500 
@<TRIPOS>BOND
  1   1   2  ar  
  2   2   3  ar  
  3   2   4  1   
  4   4   5  1   
  5   4   6  1   
  6   4   7  1   
  7   5   8  1   
  8   5   9  1   
  9   5  27  1   
 10   6  10  1   
 11   6  28  1   
 12   6  29  1   
 13   7  11  1   
 14   7  30  1   
 15   7  31  1   
 16   8  12  1   
 17   8  13  1   
 18   8  32  1   
 19   9  14  1   
 20   9  33  1   
 21   9  34  1   
 22  10  14  1   
 23  10  35  1   
 24  10  36  1   
 25  11  12  1   
 26  11  37  1   
 27  11  38  1   
 28  12  39  1   
 29  12  40  1   
 30  13  41  1   
 31  13  42  1   
 32  13  43  1   
 33  14  15  1   
 34  14  44  1   
 35  15  16  1   
 36  15  45  1   
 37  15  46  1   
 38  16  17  1   
 39  16  18  2   
 40  17  19  2   
 41  18  20  1   
 42  18  47  1   
 43  19  20  1   
 44  19  21  1   
 45  21  22  ar  
 46  21  23  ar  
 47  22  24  ar  
 48  22  48  1   
 49  23  25  ar  
 50  23  49  1   
 51  24  26  ar  
 52  24  50  1   
 53  25  26  ar  
 54  25  51  1   
 55  26  52  1   
@<TRIPOS>SUBSTRUCTURE
  1 ****  14 GROUP 4 **** **** 0

# MOE 2024.06 (io_trps.svl 2023.06)
