@<TRIPOS>MOLECULE
NONAME
50 52 1 0 0 
SMALL
USER_CHARGES


@<TRIPOS>ATOM
  1 O       -0.1830    -1.5470    -0.5200 O.2   1 <1>  -0.5700 
  2 C       -0.7310    -2.4360     0.1040 C.2   1 <1>   0.7160 
  3 N       -0.2100    -2.6890     1.3350 N.am  1 <1>  -0.8000 
  4 C       -1.8760    -3.1960    -0.4080 C.2   1 <1>   0.4300 
  5 N       -2.4860    -3.0170    -1.5330 N.2   1 <1>  -0.4100 
  6 N       -2.4330    -4.2050     0.2880 N.2   1 <1>  -0.5650 
  7 O       -3.4500    -3.8740    -1.6090 O.3   1 <1>  -0.0190 
  8 C       -3.3770    -4.5490    -0.4920 C.2   1 <1>   0.2980 
  9 C       -4.3870    -5.6720    -0.2540 C.3   1 <1>   0.2900 
 10 N       -5.6360    -5.2300     0.4210 N.3   1 <1>  -0.8100 
 11 C       -6.3610    -6.4110     0.9380 C.3   1 <1>   0.1100 
 12 C       -6.4710    -4.3930    -0.4600 C.3   1 <1>   0.1100 
 13 C       -7.5840    -6.0630     1.8040 C.3   1 <1>   0.1400 
 14 C       -7.4340    -3.5430     0.3710 C.3   1 <1>  -0.1600 
 15 N       -8.7480    -5.6370     0.9650 N.am  1 <1>  -0.6600 
 16 C       -8.8050    -4.1900     0.6050 C.3   1 <1>   0.1400 
 17 C       -9.7720    -6.4800     0.5790 C.2   1 <1>   0.5690 
 18 O      -10.7330    -6.0410    -0.0160 O.2   1 <1>  -0.5700 
 19 C       -9.7880    -7.9810     0.9340 C.3   1 <1>   0.2610 
 20 O       -8.5560    -8.6250     0.6340 O.3   1 <1>  -0.2170 
 21 C      -10.8170    -8.8480     0.1980 C.3   1 <1>  -0.0990 
 22 N       -8.7320    -9.8060     0.0740 N.2   1 <1>  -0.5130 
 23 C       -9.9430   -10.0010    -0.1940 C.2   1 <1>   0.3280 
 24 C      -10.5740   -11.2360    -0.8450 C.3   1 <1>  -0.0190 
 25 C       -9.5950   -12.4190    -0.9200 C.3   1 <1>  -0.2400 
 26 C      -11.0980   -10.9160    -2.2540 C.3   1 <1>  -0.2400 
 27 H        0.5740    -2.1370     1.6780 H     1 <1>   0.3700 
 28 H       -0.6160    -3.3970     1.9480 H     1 <1>   0.3700 
 29 H       -3.8980    -6.4020     0.3660 H     1 <1>   0.0800 
 30 H       -4.6250    -6.1450    -1.1910 H     1 <1>   0.0800 
 31 H       -5.6880    -6.9770     1.5590 H     1 <1>   0.0800 
 32 H       -6.6630    -7.0450     0.1230 H     1 <1>   0.0800 
 33 H       -7.0060    -5.0000    -1.1730 H     1 <1>   0.0800 
 34 H       -5.8460    -3.7120    -1.0090 H     1 <1>   0.0800 
 35 H       -7.3240    -5.2880     2.5040 H     1 <1>   0.0800 
 36 H       -7.8530    -6.9280     2.3820 H     1 <1>   0.0800 
 37 H       -7.6070    -2.6220    -0.1550 H     1 <1>   0.0800 
 38 H       -6.9750    -3.2780     1.3070 H     1 <1>   0.0800 
 39 H       -9.3800    -4.0780    -0.2980 H     1 <1>   0.0800 
 40 H       -9.3230    -3.6570     1.3840 H     1 <1>   0.0800 
 41 H       -9.9330    -8.0800     1.9930 H     1 <1>   0.0800 
 42 H      -11.2100    -8.3660    -0.6770 H     1 <1>   0.0800 
 43 H      -11.6160    -9.1430     0.8520 H     1 <1>   0.0800 
 44 H      -11.4050   -11.5380    -0.2330 H     1 <1>   0.0800 
 45 H       -8.7480   -12.1670    -1.5340 H     1 <1>   0.0800 
 46 H      -10.0780   -13.2860    -1.3340 H     1 <1>   0.0800 
 47 H       -9.2370   -12.6650     0.0650 H     1 <1>   0.0800 
 48 H      -10.2920   -10.5780    -2.8820 H     1 <1>   0.0800 
 49 H      -11.8490   -10.1470    -2.2160 H     1 <1>   0.0800 
 50 H      -11.5360   -11.7920    -2.6990 H     1 <1>   0.0800 
@<TRIPOS>BOND
  1   1   2  2   
  2   2   3  am  
  3   2   4  1   
  4   3  27  1   
  5   3  28  1   
  6   4   5  2   
  7   4   6  1   
  8   5   7  1   
  9   6   8  2   
 10   7   8  1   
 11   8   9  1   
 12   9  10  1   
 13   9  29  1   
 14   9  30  1   
 15  10  11  1   
 16  10  12  1   
 17  11  13  1   
 18  11  31  1   
 19  11  32  1   
 20  12  14  1   
 21  12  33  1   
 22  12  34  1   
 23  13  15  1   
 24  13  35  1   
 25  13  36  1   
 26  14  16  1   
 27  14  37  1   
 28  14  38  1   
 29  15  16  1   
 30  15  17  am  
 31  16  39  1   
 32  16  40  1   
 33  17  18  2   
 34  17  19  1   
 35  19  20  1   
 36  19  21  1   
 37  19  41  1   
 38  20  22  1   
 39  21  23  1   
 40  21  42  1   
 41  21  43  1   
 42  22  23  2   
 43  23  24  1   
 44  24  25  1   
 45  24  26  1   
 46  24  44  1   
 47  25  45  1   
 48  25  46  1   
 49  25  47  1   
 50  26  48  1   
 51  26  49  1   
 52  26  50  1   
@<TRIPOS>SUBSTRUCTURE
  1 ****  11 GROUP 4 **** **** 0

# MOE 2024.06 (io_trps.svl 2023.06)
