@<TRIPOS>MOLECULE
NONAME
45 46 1 0 0 
SMALL
USER_CHARGES


@<TRIPOS>ATOM
  1 O       -0.5670    -0.4110    -0.4590 O.2   1 <1>  -0.5700 
  2 C       -1.4990     0.3450    -0.2680 C.2   1 <1>   0.5440 
  3 N       -2.5990    -0.1100     0.4330 N.am  1 <1>  -0.6600 
  4 C       -1.4120     1.7080    -0.7590 C.ar  1 <1>   0.0860 
  5 C       -2.7360    -1.5550     0.7690 C.3   1 <1>   0.3200 
  6 C       -3.5450     0.8180     1.1320 C.3   1 <1>   0.1400 
  7 C       -0.3560     2.5340    -0.3780 C.ar  1 <1>  -0.1500 
  8 C       -2.3700     2.2380    -1.6200 C.ar  1 <1>  -0.1500 
  9 C       -3.8210    -2.1870    -0.0800 C.2   1 <1>  -0.3320 
 10 C       -4.9430     0.8140     0.5020 C.3   1 <1>   0.1200 
 11 C       -0.2570     3.8470    -0.8110 C.ar  1 <1>  -0.1430 
 12 C       -2.2890     3.5450    -2.0610 C.ar  1 <1>  -0.1500 
 13 N       -4.5450    -3.2570     0.3000 N.pl3 1 <1>   0.0330 
 14 C       -4.2640    -1.8570    -1.3140 C.2   1 <1>   0.0770 
 15 O       -5.7400     1.7460     1.1550 O.3   1 <1>  -0.6800 
 16 C       -1.2380     4.3470    -1.6560 C.ar  1 <1>  -0.1500 
 17 C        0.9180     4.7110    -0.3590 C.3   1 <1>   0.0630 
 18 C       -5.3950    -3.4960    -0.7230 C.2   1 <1>   0.0070 
 19 N       -5.2590    -2.6730    -1.7080 N.2   1 <1>  -0.5650 
 20 C        0.4300     5.9200     0.4450 C.3   1 <1>  -0.2400 
 21 C        1.7610     5.1570    -1.5580 C.3   1 <1>  -0.2400 
 22 C       -6.4030    -4.6240    -0.7070 C.3   1 <1>  -0.0600 
 23 H       -2.9820    -1.6490     1.8120 H     1 <1>   0.0800 
 24 H       -1.8110    -2.0830     0.6070 H     1 <1>   0.0800 
 25 H       -3.1590     1.8220     1.1040 H     1 <1>   0.0800 
 26 H       -3.6190     0.5260     2.1650 H     1 <1>   0.0800 
 27 H        0.3960     2.1210     0.2720 H     1 <1>   0.1500 
 28 H       -3.1820     1.6150    -1.9490 H     1 <1>   0.1500 
 29 H       -5.4160    -0.1480     0.5870 H     1 <1>   0.0800 
 30 H       -4.8920     1.1000    -0.5330 H     1 <1>   0.0800 
 31 H       -3.0410     3.9390    -2.7220 H     1 <1>   0.1500 
 32 H       -4.4750    -3.7930     1.1690 H     1 <1>   0.2700 
 33 H       -3.9090    -1.0610    -1.9470 H     1 <1>   0.1500 
 34 H       -6.0180     1.4180     2.0320 H     1 <1>   0.4000 
 35 H       -1.1860     5.3630    -2.0060 H     1 <1>   0.1500 
 36 H        1.5520     4.1240     0.2840 H     1 <1>   0.0800 
 37 H       -0.1680     6.5720    -0.1670 H     1 <1>   0.0800 
 38 H        1.2670     6.4770     0.8240 H     1 <1>   0.0800 
 39 H       -0.1660     5.5890     1.2770 H     1 <1>   0.0800 
 40 H        1.1910     5.7920    -2.2130 H     1 <1>   0.0800 
 41 H        2.0880     4.2970    -2.1140 H     1 <1>   0.0800 
 42 H        2.6280     5.6980    -1.2240 H     1 <1>   0.0800 
 43 H       -7.0840    -4.5010     0.1150 H     1 <1>   0.0800 
 44 H       -5.9000    -5.5690    -0.6190 H     1 <1>   0.0800 
 45 H       -6.9660    -4.6180    -1.6230 H     1 <1>   0.0800 
@<TRIPOS>BOND
  1   1   2  2   
  2   2   3  am  
  3   2   4  1   
  4   3   5  1   
  5   3   6  1   
  6   4   7  ar  
  7   4   8  ar  
  8   5   9  1   
  9   5  23  1   
 10   5  24  1   
 11   6  10  1   
 12   6  25  1   
 13   6  26  1   
 14   7  11  ar  
 15   7  27  1   
 16   8  12  ar  
 17   8  28  1   
 18   9  13  1   
 19   9  14  2   
 20  10  15  1   
 21  10  29  1   
 22  10  30  1   
 23  11  16  ar  
 24  11  17  1   
 25  12  16  ar  
 26  12  31  1   
 27  13  18  1   
 28  13  32  1   
 29  14  19  1   
 30  14  33  1   
 31  15  34  1   
 32  16  35  1   
 33  17  20  1   
 34  17  21  1   
 35  17  36  1   
 36  18  19  2   
 37  18  22  1   
 38  20  37  1   
 39  20  38  1   
 40  20  39  1   
 41  21  40  1   
 42  21  41  1   
 43  21  42  1   
 44  22  43  1   
 45  22  44  1   
 46  22  45  1   
@<TRIPOS>SUBSTRUCTURE
  1 ****   2 GROUP 4 **** **** 0

# MOE 2024.06 (io_trps.svl 2023.06)
