@<TRIPOS>MOLECULE
NONAME
32 33 1 0 0 
SMALL
USER_CHARGES


@<TRIPOS>ATOM
  1 O        0.8710    -0.1430     2.2670 O.2   1 <1>  -0.5700 
  2 C        1.2400    -0.6200     1.2230 C.2   1 <1>   0.5690 
  3 N        1.9780     0.0700     0.2980 N.am  1 <1>  -0.4940 
  4 C        0.8430    -2.0640     0.9410 C.3   1 <1>   0.2370 
  5 C        2.4860     1.3710     0.3460 C.2   1 <1>   0.2040 
  6 N        0.3740    -2.1740    -0.4570 N.pl3 1 <1>   0.3140 
  7 C        1.9870    -3.0550     1.2350 C.3   1 <1>  -0.2400 
  8 O        2.5040     2.0810     1.4490 O.3   1 <1>  -0.0190 
  9 C        3.0310     2.1200    -0.6330 C.2   1 <1>  -0.1810 
 10 N        1.1670    -2.1110    -1.5120 N.2   1 <1>  -0.4180 
 11 C       -0.8610    -2.2940    -0.9040 C.2   1 <1>   0.0360 
 12 N        3.0370     3.2610     1.2580 N.2   1 <1>  -0.4100 
 13 C        3.3610     3.3100     0.0150 C.2   1 <1>   0.1080 
 14 C        3.2450     1.7820    -2.1000 C.3   1 <1>  -0.0590 
 15 N        0.4070    -2.2000    -2.5430 N.2   1 <1>   0.0000 
 16 N       -0.8660    -2.3140    -2.1800 N.2   1 <1>  -0.3380 
 17 C        4.0150     4.5220    -0.6250 C.3   1 <1>   0.0210 
 18 C        5.5410     4.3800    -0.6540 C.3   1 <1>  -0.2400 
 19 H        2.1310    -0.4100    -0.5930 H     1 <1>   0.3700 
 20 H        0.0150    -2.3040     1.5820 H     1 <1>   0.0800 
 21 H        2.8500    -2.8360     0.6300 H     1 <1>   0.0800 
 22 H        1.6680    -4.0650     1.0440 H     1 <1>   0.0800 
 23 H        2.2740    -2.9790     2.2690 H     1 <1>   0.0800 
 24 H       -1.7300    -2.3600    -0.2740 H     1 <1>   0.1500 
 25 H        2.7300     2.4940    -2.7190 H     1 <1>   0.0800 
 26 H        2.8680     0.8000    -2.3250 H     1 <1>   0.0800 
 27 H        4.2940     1.8090    -2.3350 H     1 <1>   0.0800 
 28 H        3.6390     4.6480    -1.6240 H     1 <1>   0.0800 
 29 H        3.7490     5.3980    -0.0600 H     1 <1>   0.0800 
 30 H        5.8280     3.5170    -1.2260 H     1 <1>   0.0800 
 31 H        5.9150     4.2690     0.3490 H     1 <1>   0.0800 
 32 H        5.9860     5.2540    -1.0950 H     1 <1>   0.0800 
@<TRIPOS>BOND
  1   1   2  2   
  2   2   3  am  
  3   2   4  1   
  4   3   5  1   
  5   3  19  1   
  6   4   6  1   
  7   4   7  1   
  8   4  20  1   
  9   5   8  1   
 10   5   9  2   
 11   6  10  1   
 12   6  11  1   
 13   7  21  1   
 14   7  22  1   
 15   7  23  1   
 16   8  12  1   
 17   9  13  1   
 18   9  14  1   
 19  10  15  2   
 20  11  16  2   
 21  11  24  1   
 22  12  13  2   
 23  13  17  1   
 24  14  25  1   
 25  14  26  1   
 26  14  27  1   
 27  15  16  1   
 28  17  18  1   
 29  17  28  1   
 30  17  29  1   
 31  18  30  1   
 32  18  31  1   
 33  18  32  1   
@<TRIPOS>SUBSTRUCTURE
  1 ****   3 GROUP 4 **** **** 0

# MOE 2024.06 (io_trps.svl 2023.06)
