@<TRIPOS>MOLECULE
NONAME
52 54 1 0 0 
SMALL
USER_CHARGES


@<TRIPOS>ATOM
  1 S        0.8880     0.9630    -1.5140 S.o2  1 <1>   1.3330 
  2 O        0.3950     1.9160    -2.4810 O.2   1 <1>  -0.6500 
  3 O        1.0600    -0.4210    -1.8960 O.2   1 <1>  -0.6500 
  4 N       -0.1720     1.0040    -0.1850 N.am  1 <1>  -0.8490 
  5 C        2.4440     1.5480    -0.8380 C.3   1 <1>  -0.0550 
  6 C       -1.2660     0.0380    -0.3230 C.3   1 <1>   0.1160 
  7 C       -0.7220     2.3400     0.0750 C.3   1 <1>   0.1160 
  8 C        3.1100     0.5750     0.1600 C.3   1 <1>  -0.0800 
  9 C        4.5080     0.9730     0.6100 C.3   1 <1>   0.2200 
 10 C        2.3670     0.3880     1.4890 C.3   1 <1>   0.1200 
 11 N        4.5730     2.4220     0.9160 N.am  1 <1>  -0.7300 
 12 C        4.6090     0.1960     1.9140 C.3   1 <1>   0.1200 
 13 O        3.3430     0.3010     2.4890 O.3   1 <1>  -0.5600 
 14 C        5.0460     3.3880     0.0760 C.2   1 <1>   0.5440 
 15 O        5.4070     3.0500    -1.0340 O.2   1 <1>  -0.5700 
 16 C        5.0730     4.7800     0.4820 C.ar  1 <1>   0.0860 
 17 C        4.9290     5.8000    -0.4320 C.ar  1 <1>  -0.1500 
 18 C        5.2400     5.1480     1.8330 C.ar  1 <1>  -0.1500 
 19 C        4.9210     7.1530    -0.0740 C.ar  1 <1>   0.3100 
 20 C        5.2430     6.4590     2.2210 C.ar  1 <1>  -0.1500 
 21 N        4.7540     8.0720    -1.0570 N.ar  1 <1>  -0.6200 
 22 C        5.0800     7.5040     1.2860 C.ar  1 <1>   0.0000 
 23 C        4.7430     9.3210    -0.7180 C.ar  1 <1>   0.1670 
 24 C        5.0650     8.8760     1.6190 C.ar  1 <1>  -0.1440 
 25 C        4.8950     9.7690     0.6020 C.ar  1 <1>  -0.1500 
 26 C        4.5570    10.3330    -1.8290 C.3   1 <1>  -0.0970 
 27 C        5.2310     9.3540     3.0540 C.3   1 <1>  -0.0970 
 28 H        3.1250     1.7000    -1.6540 H     1 <1>   0.0800 
 29 H        2.2910     2.5010    -0.3730 H     1 <1>   0.0800 
 30 H       -1.9130     0.0810     0.5370 H     1 <1>   0.0800 
 31 H       -0.8700    -0.9610    -0.3940 H     1 <1>   0.0800 
 32 H       -1.8390     0.2460    -1.2110 H     1 <1>   0.0800 
 33 H       -1.3110     2.3280     0.9750 H     1 <1>   0.0800 
 34 H       -1.3430     2.6580    -0.7470 H     1 <1>   0.0800 
 35 H        0.0750     3.0530     0.2000 H     1 <1>   0.0800 
 36 H        3.1810    -0.3920    -0.3090 H     1 <1>   0.0800 
 37 H        5.2730     0.6960    -0.0970 H     1 <1>   0.0800 
 38 H        1.7770    -0.5130     1.4940 H     1 <1>   0.0800 
 39 H        1.7410     1.2320     1.7220 H     1 <1>   0.0800 
 40 H        4.1430     2.6720     1.8100 H     1 <1>   0.3700 
 41 H        5.3500     0.5960     2.5840 H     1 <1>   0.0800 
 42 H        4.8040    -0.8460     1.7270 H     1 <1>   0.0800 
 43 H        4.8120     5.5700    -1.4760 H     1 <1>   0.1500 
 44 H        5.3780     4.3740     2.5670 H     1 <1>   0.1500 
 45 H        5.3750     6.7050     3.2590 H     1 <1>   0.1500 
 46 H        4.8770    10.8260     0.7920 H     1 <1>   0.1500 
 47 H        4.2910    11.2970    -1.4360 H     1 <1>   0.0800 
 48 H        3.7770    10.0030    -2.4900 H     1 <1>   0.0800 
 49 H        5.4700    10.4200    -2.3880 H     1 <1>   0.0800 
 50 H        5.1900    10.4270     3.1080 H     1 <1>   0.0800 
 51 H        6.1820     9.0330     3.4410 H     1 <1>   0.0800 
 52 H        4.4460     8.9540     3.6700 H     1 <1>   0.0800 
@<TRIPOS>BOND
  1   1   2  2   
  2   1   3  2   
  3   1   4  am  
  4   1   5  1   
  5   4   6  1   
  6   4   7  1   
  7   5   8  1   
  8   5  28  1   
  9   5  29  1   
 10   6  30  1   
 11   6  31  1   
 12   6  32  1   
 13   7  33  1   
 14   7  34  1   
 15   7  35  1   
 16   8   9  1   
 17   8  10  1   
 18   8  36  1   
 19   9  11  1   
 20   9  12  1   
 21   9  37  1   
 22  10  13  1   
 23  10  38  1   
 24  10  39  1   
 25  11  14  am  
 26  11  40  1   
 27  12  13  1   
 28  12  41  1   
 29  12  42  1   
 30  14  15  2   
 31  14  16  1   
 32  16  17  ar  
 33  16  18  ar  
 34  17  19  ar  
 35  17  43  1   
 36  18  20  ar  
 37  18  44  1   
 38  19  21  ar  
 39  19  22  ar  
 40  20  22  ar  
 41  20  45  1   
 42  21  23  ar  
 43  22  24  ar  
 44  23  25  ar  
 45  23  26  1   
 46  24  25  ar  
 47  24  27  1   
 48  25  46  1   
 49  26  47  1   
 50  26  48  1   
 51  26  49  1   
 52  27  50  1   
 53  27  51  1   
 54  27  52  1   
@<TRIPOS>SUBSTRUCTURE
  1 ****  14 GROUP 4 **** **** 0

# MOE 2024.06 (io_trps.svl 2023.06)
