@<TRIPOS>MOLECULE
NONAME
36 37 1 0 0 
SMALL
USER_CHARGES


@<TRIPOS>ATOM
  1 O        0.0920    -0.2960    -0.1360 O.2   1 <1>  -0.5700 
  2 C        1.1890    -0.8080    -0.0110 C.2   1 <1>   0.5440 
  3 N        2.3120    -0.0200     0.0180 N.am  1 <1>  -0.4930 
  4 C        1.3090    -2.2430     0.0890 C.ar  1 <1>   0.0860 
  5 C        2.4260     1.3940    -0.0020 C.2   1 <1>   0.0630 
  6 C        0.3390    -3.0740    -0.4690 C.ar  1 <1>   0.1600 
  7 C        2.3710    -2.8750     0.7350 C.ar  1 <1>  -0.1500 
  8 C        3.5760     2.1040    -0.0560 C.2   1 <1>  -0.3320 
  9 C        1.4180     2.3580     0.0340 C.2   1 <1>   0.1390 
 10 N        0.3460    -4.3950    -0.4620 N.ar  1 <1>  -0.6200 
 11 C        2.3910    -4.2480     0.7530 C.ar  1 <1>  -0.1500 
 12 N        3.2200     3.4140    -0.0490 N.pl3 1 <1>   0.3140 
 13 C        5.0190     1.6220    -0.1150 C.3   1 <1>  -0.0600 
 14 N        1.8890     3.5680     0.0070 N.2   1 <1>  -0.7070 
 15 C        1.3740    -4.9800     0.1420 C.ar  1 <1>   0.4100 
 16 C        4.1120     4.5800    -0.0960 C.3   1 <1>   0.0160 
 17 N        1.4050    -6.3600     0.1510 N.pl3 1 <1>  -0.8380 
 18 C        2.6270    -7.0990    -0.2600 C.3   1 <1>   0.1290 
 19 C        0.1380    -7.1360     0.0450 C.3   1 <1>   0.1290 
 20 H        3.2040    -0.5050     0.0010 H     1 <1>   0.3700 
 21 H       -0.4990    -2.6030    -0.9560 H     1 <1>   0.1500 
 22 H        3.1480    -2.3120     1.2190 H     1 <1>   0.1500 
 23 H        0.3660     2.1320     0.0790 H     1 <1>   0.1500 
 24 H        3.1800    -4.7800     1.2480 H     1 <1>   0.1500 
 25 H        5.0640     0.5490    -0.1180 H     1 <1>   0.0800 
 26 H        5.5640     1.9840     0.7390 H     1 <1>   0.0800 
 27 H        5.4920     1.9840    -1.0110 H     1 <1>   0.0800 
 28 H        4.7660     4.5590     0.7550 H     1 <1>   0.0800 
 29 H        3.5190     5.4760    -0.0720 H     1 <1>   0.0800 
 30 H        4.6830     4.5510    -1.0040 H     1 <1>   0.0800 
 31 H        3.4260    -6.4160    -0.4910 H     1 <1>   0.0800 
 32 H        2.4210    -7.6880    -1.1370 H     1 <1>   0.0800 
 33 H        2.9410    -7.7510     0.5370 H     1 <1>   0.0800 
 34 H       -0.6610    -6.6040     0.5320 H     1 <1>   0.0800 
 35 H        0.2520    -8.0950     0.5180 H     1 <1>   0.0800 
 36 H       -0.1180    -7.2730    -0.9920 H     1 <1>   0.0800 
@<TRIPOS>BOND
  1   1   2  2   
  2   2   3  am  
  3   2   4  1   
  4   3   5  1   
  5   3  20  1   
  6   4   6  ar  
  7   4   7  ar  
  8   5   8  2   
  9   5   9  1   
 10   6  10  ar  
 11   6  21  1   
 12   7  11  ar  
 13   7  22  1   
 14   8  12  1   
 15   8  13  1   
 16   9  14  2   
 17   9  23  1   
 18  10  15  ar  
 19  11  15  ar  
 20  11  24  1   
 21  12  14  1   
 22  12  16  1   
 23  13  25  1   
 24  13  26  1   
 25  13  27  1   
 26  15  17  1   
 27  16  28  1   
 28  16  29  1   
 29  16  30  1   
 30  17  18  1   
 31  17  19  1   
 32  18  31  1   
 33  18  32  1   
 34  18  33  1   
 35  19  34  1   
 36  19  35  1   
 37  19  36  1   
@<TRIPOS>SUBSTRUCTURE
  1 ****   2 GROUP 4 **** **** 0

# MOE 2024.06 (io_trps.svl 2023.06)
