@<TRIPOS>MOLECULE
NONAME
43 45 1 0 0 
SMALL
USER_CHARGES


@<TRIPOS>ATOM
  1 O       -2.1980     0.9940    -0.6070 O.3   1 <1>  -0.5600 
  2 C       -2.1980     2.0460    -1.5410 C.3   1 <1>   0.2000 
  3 C       -1.6650    -0.2380    -1.0280 C.3   1 <1>   0.2640 
  4 C       -0.7690     2.6070    -1.7060 C.3   1 <1>   0.3430 
  5 C       -3.0880     3.1510    -0.9480 C.3   1 <1>  -0.1600 
  6 C       -0.3110    -0.4740    -0.3600 C.ar  1 <1>   0.1660 
  7 N       -0.1680     2.8110    -0.3440 N.4   1 <1>  -0.9590 
  8 C       -2.3010     4.1340    -0.0480 C.3   1 <1>  -0.1600 
  9 N        0.7550     0.0660    -0.9400 N.ar  1 <1>  -0.6200 
 10 C       -0.2520    -1.2280     0.8030 C.ar  1 <1>  -0.1500 
 11 C       -1.0840     3.4930     0.6380 C.3   1 <1>   0.3430 
 12 C        1.2310     3.3240    -0.4200 C.3   1 <1>   0.3430 
 13 C        1.9240    -0.1970    -0.3700 C.ar  1 <1>   0.1600 
 14 C        0.9660    -1.4680     1.4030 C.ar  1 <1>  -0.1500 
 15 C        1.9790     3.1340     0.9040 C.3   1 <1>   0.0960 
 16 C        2.0790    -0.9380     0.7870 C.ar  1 <1>  -0.1500 
 17 N        3.4230     3.2250     0.6530 N.pl3 1 <1>   0.3140 
 18 N        4.0010     2.5830    -0.3520 N.2   1 <1>  -0.7070 
 19 C        4.3580     3.9050     1.3220 C.2   1 <1>   0.0360 
 20 C        5.2430     2.9210    -0.2190 C.2   1 <1>   0.3660 
 21 N        5.5180     3.7410     0.8020 N.2   1 <1>  -0.5650 
 22 H       -2.6080     1.6940    -2.4730 H     1 <1>   0.0800 
 23 H       -1.5700    -0.2610    -2.1000 H     1 <1>   0.0800 
 24 H       -2.3590    -1.0050    -0.7320 H     1 <1>   0.0800 
 25 H       -0.8090     3.5390    -2.2440 H     1 <1>   0.0800 
 26 H       -0.1730     1.9130    -2.2760 H     1 <1>   0.0800 
 27 H       -3.8930     2.6970    -0.3940 H     1 <1>   0.0800 
 28 H       -3.5360     3.7120    -1.7510 H     1 <1>   0.0800 
 29 H       -0.0970     1.8210    -0.0310 H     1 <1>   0.4500 
 30 H       -2.9620     4.5320     0.7030 H     1 <1>   0.0800 
 31 H       -1.9590     4.9680    -0.6360 H     1 <1>   0.0800 
 32 H       -1.1500    -1.6320     1.2380 H     1 <1>   0.1500 
 33 H       -0.5470     4.2450     1.1930 H     1 <1>   0.0800 
 34 H       -1.4460     2.7570     1.3390 H     1 <1>   0.0800 
 35 H        1.2320     4.3650    -0.6980 H     1 <1>   0.0800 
 36 H        1.7520     2.7680    -1.1850 H     1 <1>   0.0800 
 37 H        2.8080     0.1990    -0.8450 H     1 <1>   0.1500 
 38 H        1.0450    -2.0520     2.3050 H     1 <1>   0.1500 
 39 H        1.7830     2.1570     1.3060 H     1 <1>   0.0800 
 40 H        1.6970     3.8860     1.6160 H     1 <1>   0.0800 
 41 H        3.0610    -1.1040     1.1950 H     1 <1>   0.1500 
 42 H        4.1520     4.5090     2.1880 H     1 <1>   0.1500 
 43 H        6.0290     2.5790    -0.8760 H     1 <1>   0.1500 
@<TRIPOS>BOND
  1   1   2  1   
  2   1   3  1   
  3   2   4  1   
  4   2   5  1   
  5   2  22  1   
  6   3   6  1   
  7   3  23  1   
  8   3  24  1   
  9   4   7  1   
 10   4  25  1   
 11   4  26  1   
 12   5   8  1   
 13   5  27  1   
 14   5  28  1   
 15   6   9  ar  
 16   6  10  ar  
 17   7  11  1   
 18   7  12  1   
 19   7  29  1   
 20   8  11  1   
 21   8  30  1   
 22   8  31  1   
 23   9  13  ar  
 24  10  14  ar  
 25  10  32  1   
 26  11  33  1   
 27  11  34  1   
 28  12  15  1   
 29  12  35  1   
 30  12  36  1   
 31  13  16  ar  
 32  13  37  1   
 33  14  16  ar  
 34  14  38  1   
 35  15  17  1   
 36  15  39  1   
 37  15  40  1   
 38  16  41  1   
 39  17  18  1   
 40  17  19  1   
 41  18  20  2   
 42  19  21  2   
 43  19  42  1   
 44  20  21  1   
 45  20  43  1   
@<TRIPOS>SUBSTRUCTURE
  1 ****   7 GROUP 4 **** **** 0

# MOE 2024.06 (io_trps.svl 2023.06)
