@<TRIPOS>MOLECULE
NONAME
50 53 1 0 0 
SMALL
USER_CHARGES


@<TRIPOS>ATOM
  1 O       -1.3640     0.3120     0.6880 O.2   1 <1>  -0.5700 
  2 C       -2.2220     1.1720     0.7900 C.2   1 <1>   0.5440 
  3 N       -3.5150     0.7590     1.0220 N.am  1 <1>  -0.6600 
  4 C       -1.8760     2.5740     0.6350 C.ar  1 <1>   0.0860 
  5 C       -3.7790    -0.6250     1.5100 C.3   1 <1>   0.1400 
  6 C       -4.6700     1.3460     0.2830 C.3   1 <1>   0.1400 
  7 C       -0.8930     2.9850    -0.2380 C.ar  1 <1>  -0.1500 
  8 C       -2.5350     3.5720     1.3850 C.ar  1 <1>  -0.1500 
  9 C       -4.0270    -1.5370     0.2870 C.3   1 <1>   0.4230 
 10 C       -4.9920     0.4460    -0.9200 C.3   1 <1>  -0.1600 
 11 C       -0.5500     4.3380    -0.4170 C.ar  1 <1>   0.0000 
 12 C       -2.2270     4.8940     1.2380 C.ar  1 <1>  -0.1500 
 13 N       -4.1820    -2.9940     0.6190 N.4   1 <1>  -0.9590 
 14 C       -5.2560    -1.0300    -0.5010 C.3   1 <1>  -0.1060 
 15 C       -1.2330     5.3170     0.3340 C.ar  1 <1>   0.0000 
 16 C        0.4500     4.7540    -1.3190 C.ar  1 <1>  -0.1500 
 17 C       -4.2950    -3.8300    -0.6020 C.3   1 <1>   0.3430 
 18 C       -3.1830    -3.5290     1.5820 C.3   1 <1>   0.2630 
 19 C       -6.4960    -1.1250     0.4100 C.2   1 <1>   0.9060 
 20 C       -5.4440    -1.8840    -1.7780 C.3   1 <1>  -0.1600 
 21 C       -0.8940     6.6720     0.1520 C.ar  1 <1>  -0.1500 
 22 C        0.7600     6.0760    -1.4760 C.ar  1 <1>  -0.1500 
 23 C       -5.4890    -3.3840    -1.4500 C.3   1 <1>  -0.1600 
 24 O       -6.5600    -2.0440     1.2430 O.co2 1 <1>  -0.9000 
 25 O       -7.3880    -0.2840     0.3110 O.co2 1 <1>  -0.9000 
 26 C        0.0800     7.0470    -0.7330 C.ar  1 <1>  -0.1500 
 27 H       -2.9260    -0.9620     2.0690 H     1 <1>   0.0800 
 28 H       -4.6320    -0.6130     2.1670 H     1 <1>   0.0800 
 29 H       -5.5220     1.4130     0.9400 H     1 <1>   0.0800 
 30 H       -4.4410     2.3380    -0.0640 H     1 <1>   0.0800 
 31 H       -0.3610     2.2480    -0.8120 H     1 <1>   0.1500 
 32 H       -3.2920     3.2660     2.0860 H     1 <1>   0.1500 
 33 H       -3.1610    -1.4350    -0.3450 H     1 <1>   0.0800 
 34 H       -5.8620     0.8400    -1.4180 H     1 <1>   0.0800 
 35 H       -4.1730     0.4990    -1.6150 H     1 <1>   0.0800 
 36 H       -2.7410     5.6410     1.8170 H     1 <1>   0.1500 
 37 H       -5.1390    -2.9920     1.0660 H     1 <1>   0.4500 
 38 H        0.9720     4.0040    -1.8870 H     1 <1>   0.1500 
 39 H       -3.3900    -3.7450    -1.1820 H     1 <1>   0.0800 
 40 H       -4.4270    -4.8630    -0.3250 H     1 <1>   0.0800 
 41 H       -2.1870    -3.4170     1.1860 H     1 <1>   0.0800 
 42 H       -3.3730    -4.5720     1.7700 H     1 <1>   0.0800 
 43 H       -3.2500    -2.9990     2.5180 H     1 <1>   0.0800 
 44 H       -6.3600    -1.5960    -2.2670 H     1 <1>   0.0800 
 45 H       -4.6330    -1.6990    -2.4620 H     1 <1>   0.0800 
 46 H       -1.4180     7.4140     0.7260 H     1 <1>   0.1500 
 47 H        1.5250     6.3870    -2.1670 H     1 <1>   0.1500 
 48 H       -5.5040    -3.9490    -2.3650 H     1 <1>   0.0800 
 49 H       -6.3980    -3.6140    -0.9210 H     1 <1>   0.0800 
 50 H        0.3350     8.0840    -0.8680 H     1 <1>   0.1500 
@<TRIPOS>BOND
  1   1   2  2   
  2   2   3  am  
  3   2   4  1   
  4   3   5  1   
  5   3   6  1   
  6   4   7  ar  
  7   4   8  ar  
  8   5   9  1   
  9   5  27  1   
 10   5  28  1   
 11   6  10  1   
 12   6  29  1   
 13   6  30  1   
 14   7  11  ar  
 15   7  31  1   
 16   8  12  ar  
 17   8  32  1   
 18   9  13  1   
 19   9  14  1   
 20   9  33  1   
 21  10  14  1   
 22  10  34  1   
 23  10  35  1   
 24  11  15  ar  
 25  11  16  ar  
 26  12  15  ar  
 27  12  36  1   
 28  13  17  1   
 29  13  18  1   
 30  13  37  1   
 31  14  19  1   
 32  14  20  1   
 33  15  21  ar  
 34  16  22  ar  
 35  16  38  1   
 36  17  23  1   
 37  17  39  1   
 38  17  40  1   
 39  18  41  1   
 40  18  42  1   
 41  18  43  1   
 42  19  24  ar  
 43  19  25  ar  
 44  20  23  1   
 45  20  44  1   
 46  20  45  1   
 47  21  26  ar  
 48  21  46  1   
 49  22  26  ar  
 50  22  47  1   
 51  23  48  1   
 52  23  49  1   
 53  26  50  1   
@<TRIPOS>SUBSTRUCTURE
  1 ****   3 GROUP 4 **** **** 0

# MOE 2024.06 (io_trps.svl 2023.06)
