@<TRIPOS>MOLECULE
NONAME
57 59 1 0 0 
SMALL
USER_CHARGES


@<TRIPOS>ATOM
  1 O        0.3450     1.5370    -0.8660 O.2   1 <1>  -0.5700 
  2 C       -0.1260     2.6160    -0.5820 C.2   1 <1>   0.5690 
  3 N       -1.1150     2.7800     0.3580 N.am  1 <1>  -0.5090 
  4 C        0.4540     3.8360    -1.3030 C.3   1 <1>   0.1810 
  5 C       -1.5990     4.1490     0.7290 C.3   1 <1>   0.3640 
  6 C       -1.5480     1.6800     1.2560 C.3   1 <1>   0.0490 
  7 O       -0.3320     4.9990    -1.1790 O.3   1 <1>  -0.5600 
  8 C       -3.0540     4.3360     0.2910 C.ar  1 <1>  -0.1440 
  9 C       -0.7330     5.2920     0.1470 C.3   1 <1>   0.2610 
 10 C       -1.9810     0.3720     0.6720 C.3   1 <1>  -0.2000 
 11 C       -2.9900     1.2750     1.3030 C.3   1 <1>  -0.2000 
 12 C       -4.0180     4.6970     1.2230 C.ar  1 <1>  -0.1500 
 13 C       -3.4330     4.1550    -1.0320 C.ar  1 <1>  -0.1500 
 14 C        0.4540     5.6390     1.0640 C.2   1 <1>   0.5690 
 15 C       -5.3370     4.8760     0.8420 C.ar  1 <1>  -0.1500 
 16 C       -4.7500     4.3330    -1.4150 C.ar  1 <1>  -0.1500 
 17 O        0.9560     4.7600     1.7220 O.2   1 <1>  -0.5700 
 18 N        0.9740     6.8880     1.2000 N.am  1 <1>  -0.7300 
 19 C       -5.7110     4.6950    -0.4860 C.ar  1 <1>   0.0830 
 20 C        0.7480     8.2050     0.5740 C.3   1 <1>   0.3000 
 21 O       -6.9780     4.8490    -0.9430 O.3   1 <1>  -0.3620 
 22 C        1.9760     9.0910     0.9670 C.3   1 <1>  -0.0800 
 23 C       -0.5460     8.7740     1.1670 C.3   1 <1>  -0.2400 
 24 C        0.6140     8.0530    -0.9480 C.3   1 <1>  -0.2400 
 25 C       -8.0350     5.1980    -0.0770 C.3   1 <1>   0.0400 
 26 C        1.8730    10.5730     0.5500 C.3   1 <1>  -0.2400 
 27 C        3.3230     8.5450     0.4480 C.3   1 <1>  -0.2400 
 28 H        0.5410     3.6150    -2.3510 H     1 <1>   0.0800 
 29 H        1.4350     4.0420    -0.9150 H     1 <1>   0.0800 
 30 H       -1.5670     4.2270     1.8010 H     1 <1>   0.0800 
 31 H       -0.9720     1.6500     2.1670 H     1 <1>   0.1000 
 32 H       -1.3570     6.1600     0.0900 H     1 <1>   0.0800 
 33 H       -1.9780     0.2610    -0.3980 H     1 <1>   0.1000 
 34 H       -1.7050    -0.5330     1.1820 H     1 <1>   0.1000 
 35 H       -3.4160     0.9760     2.2440 H     1 <1>   0.1000 
 36 H       -3.7100     1.7340     0.6490 H     1 <1>   0.1000 
 37 H       -3.7500     4.8380     2.2560 H     1 <1>   0.1500 
 38 H       -2.7040     3.8710    -1.7720 H     1 <1>   0.1500 
 39 H       -6.0560     5.1540     1.5880 H     1 <1>   0.1500 
 40 H       -5.0420     4.1910    -2.4400 H     1 <1>   0.1500 
 41 H        1.7630     6.9160     1.8470 H     1 <1>   0.3700 
 42 H        2.0280     9.0900     2.0430 H     1 <1>   0.0800 
 43 H       -0.7990     9.7040     0.6930 H     1 <1>   0.0800 
 44 H       -0.4310     8.9500     2.2210 H     1 <1>   0.0800 
 45 H       -1.3730     8.1080     1.0180 H     1 <1>   0.0800 
 46 H        0.6500     9.0120    -1.4290 H     1 <1>   0.0800 
 47 H       -0.3260     7.6150    -1.2190 H     1 <1>   0.0800 
 48 H        1.4070     7.4460    -1.3440 H     1 <1>   0.0800 
 49 H       -8.9370     5.2560    -0.6590 H     1 <1>   0.0800 
 50 H       -7.8230     6.1550     0.3650 H     1 <1>   0.0800 
 51 H       -8.1350     4.4360     0.6760 H     1 <1>   0.0800 
 52 H        1.8350    10.6800    -0.5180 H     1 <1>   0.0800 
 53 H        2.7330    11.1130     0.9050 H     1 <1>   0.0800 
 54 H        1.0050    11.0410     0.9780 H     1 <1>   0.0800 
 55 H        3.3710     8.5970    -0.6250 H     1 <1>   0.0800 
 56 H        3.4770     7.5230     0.7450 H     1 <1>   0.0800 
 57 H        4.1360     9.1260     0.8470 H     1 <1>   0.0800 
@<TRIPOS>BOND
  1   1   2  2   
  2   2   3  am  
  3   2   4  1   
  4   3   5  1   
  5   3   6  1   
  6   4   7  1   
  7   4  28  1   
  8   4  29  1   
  9   5   8  1   
 10   5   9  1   
 11   5  30  1   
 12   6  10  1   
 13   6  11  1   
 14   6  31  1   
 15   7   9  1   
 16   8  12  ar  
 17   8  13  ar  
 18   9  14  1   
 19   9  32  1   
 20  10  11  1   
 21  10  33  1   
 22  10  34  1   
 23  11  35  1   
 24  11  36  1   
 25  12  15  ar  
 26  12  37  1   
 27  13  16  ar  
 28  13  38  1   
 29  14  17  2   
 30  14  18  am  
 31  15  19  ar  
 32  15  39  1   
 33  16  19  ar  
 34  16  40  1   
 35  18  20  1   
 36  18  41  1   
 37  19  21  1   
 38  20  22  1   
 39  20  23  1   
 40  20  24  1   
 41  21  25  1   
 42  22  26  1   
 43  22  27  1   
 44  22  42  1   
 45  23  43  1   
 46  23  44  1   
 47  23  45  1   
 48  24  46  1   
 49  24  47  1   
 50  24  48  1   
 51  25  49  1   
 52  25  50  1   
 53  25  51  1   
 54  26  52  1   
 55  26  53  1   
 56  26  54  1   
 57  27  55  1   
 58  27  56  1   
 59  27  57  1   
@<TRIPOS>SUBSTRUCTURE
  1 ****   9 GROUP 4 **** **** 0

# MOE 2024.06 (io_trps.svl 2023.06)
