@<TRIPOS>MOLECULE
NONAME
52 54 1 0 0 
SMALL
USER_CHARGES


@<TRIPOS>ATOM
  1 S        0.1520    -0.5280     0.7750 S.3   1 <1>  -0.3320 
  2 C       -0.0730    -2.2770     0.4050 C.ar  1 <1>   0.1020 
  3 C        1.9550    -0.1640     0.6070 C.3   1 <1>  -0.0100 
  4 C       -1.3410    -2.7840     0.4670 C.ar  1 <1>  -0.1500 
  5 C        1.0070    -3.0980     0.0650 C.ar  1 <1>  -0.1500 
  6 C       -1.5990    -4.1350     0.1940 C.ar  1 <1>   0.3100 
  7 C        0.7830    -4.4210    -0.2070 C.ar  1 <1>  -0.1500 
  8 N       -2.8810    -4.5620     0.2820 N.ar  1 <1>  -0.6200 
  9 C       -0.5140    -4.9780    -0.1530 C.ar  1 <1>   0.0000 
 10 C       -3.1040    -5.8140     0.0350 C.ar  1 <1>   0.4100 
 11 C       -0.8020    -6.3350    -0.4280 C.ar  1 <1>  -0.1430 
 12 N       -4.4090    -6.1900     0.1490 N.pl3 1 <1>  -0.8690 
 13 C       -2.1000    -6.7300    -0.3310 C.ar  1 <1>  -0.1500 
 14 C        0.2870    -7.3220    -0.8220 C.3   1 <1>  -0.0970 
 15 C       -4.8280    -7.4350     0.8310 C.3   1 <1>   0.2090 
 16 C       -5.5940    -8.3040    -0.1600 C.3   1 <1>  -0.0990 
 17 C       -5.9260    -9.6400     0.4590 C.2   1 <1>   0.5690 
 18 O       -6.3960    -9.6710     1.5690 O.2   1 <1>  -0.5700 
 19 N       -5.6800   -10.7640    -0.2590 N.am  1 <1>  -0.7300 
 20 C       -5.9400   -12.1370     0.2020 C.3   1 <1>   0.2200 
 21 C       -4.6150   -12.9040     0.2470 C.3   1 <1>  -0.1600 
 22 C       -6.9360   -12.8020    -0.7540 C.3   1 <1>  -0.1600 
 23 C       -4.8380   -14.3770     0.6200 C.3   1 <1>  -0.1600 
 24 C       -7.1640   -14.2740    -0.3820 C.3   1 <1>  -0.1600 
 25 C       -5.8380   -15.0460    -0.3330 C.3   1 <1>  -0.1600 
 26 H        2.0960     0.8790     0.8270 H     1 <1>   0.0800 
 27 H        2.2450    -0.3830    -0.4050 H     1 <1>   0.0800 
 28 H        2.4850    -0.7780     1.3130 H     1 <1>   0.0800 
 29 H       -2.1690    -2.1530     0.7280 H     1 <1>   0.1500 
 30 H        2.0010    -2.7000     0.0160 H     1 <1>   0.1500 
 31 H        1.6140    -5.0500    -0.4690 H     1 <1>   0.1500 
 32 H       -4.9850    -5.3800     0.3930 H     1 <1>   0.4000 
 33 H       -2.3960    -7.7390    -0.5360 H     1 <1>   0.1500 
 34 H        0.7700    -6.9970    -1.7260 H     1 <1>   0.0800 
 35 H       -0.1250    -8.3000    -0.9910 H     1 <1>   0.0800 
 36 H        1.0200    -7.3960    -0.0370 H     1 <1>   0.0800 
 37 H       -5.4570    -7.1900     1.6710 H     1 <1>   0.0800 
 38 H       -3.9670    -7.9650     1.2030 H     1 <1>   0.0800 
 39 H       -4.9990    -8.4480    -1.0420 H     1 <1>   0.0800 
 40 H       -6.5110    -7.8150    -0.4320 H     1 <1>   0.0800 
 41 H       -5.3030   -10.6950    -1.2030 H     1 <1>   0.3700 
 42 H       -6.3660   -12.1140     1.1930 H     1 <1>   0.0800 
 43 H       -3.9660   -12.4490     0.9740 H     1 <1>   0.0800 
 44 H       -4.1370   -12.8570    -0.7160 H     1 <1>   0.0800 
 45 H       -6.5610   -12.7500    -1.7610 H     1 <1>   0.0800 
 46 H       -7.8740   -12.2760    -0.7100 H     1 <1>   0.0800 
 47 H       -5.2140   -14.4350     1.6280 H     1 <1>   0.0800 
 48 H       -3.9000   -14.9040     0.5890 H     1 <1>   0.0800 
 49 H       -7.8220   -14.7320    -1.1010 H     1 <1>   0.0800 
 50 H       -7.6420   -14.3270     0.5820 H     1 <1>   0.0800 
 51 H       -6.0220   -16.0570    -0.0100 H     1 <1>   0.0800 
 52 H       -5.4140   -15.0890    -1.3220 H     1 <1>   0.0800 
@<TRIPOS>BOND
  1   1   2  1   
  2   1   3  1   
  3   2   4  ar  
  4   2   5  ar  
  5   3  26  1   
  6   3  27  1   
  7   3  28  1   
  8   4   6  ar  
  9   4  29  1   
 10   5   7  ar  
 11   5  30  1   
 12   6   8  ar  
 13   6   9  ar  
 14   7   9  ar  
 15   7  31  1   
 16   8  10  ar  
 17   9  11  ar  
 18  10  12  1   
 19  10  13  ar  
 20  11  13  ar  
 21  11  14  1   
 22  12  15  1   
 23  12  32  1   
 24  13  33  1   
 25  14  34  1   
 26  14  35  1   
 27  14  36  1   
 28  15  16  1   
 29  15  37  1   
 30  15  38  1   
 31  16  17  1   
 32  16  39  1   
 33  16  40  1   
 34  17  18  2   
 35  17  19  am  
 36  19  20  1   
 37  19  41  1   
 38  20  21  1   
 39  20  22  1   
 40  20  42  1   
 41  21  23  1   
 42  21  43  1   
 43  21  44  1   
 44  22  24  1   
 45  22  45  1   
 46  22  46  1   
 47  23  25  1   
 48  23  47  1   
 49  23  48  1   
 50  24  25  1   
 51  24  49  1   
 52  24  50  1   
 53  25  51  1   
 54  25  52  1   
@<TRIPOS>SUBSTRUCTURE
  1 ****  13 GROUP 4 **** **** 0

# MOE 2024.06 (io_trps.svl 2023.06)
