@<TRIPOS>MOLECULE
NONAME
45 48 1 0 0 
SMALL
USER_CHARGES


@<TRIPOS>ATOM
  1 O        1.8730    -0.4230     2.3410 O.2   1 <1>  -0.5700 
  2 C        2.0300    -0.8470     1.2130 C.2   1 <1>   0.5440 
  3 N        2.4990     0.0140     0.2330 N.am  1 <1>  -0.6600 
  4 C        1.7610    -2.2370     0.9410 C.ar  1 <1>   0.0860 
  5 C        2.8590     1.4190     0.6160 C.3   1 <1>   0.1400 
  6 C        2.9840    -0.4890    -1.0920 C.3   1 <1>   0.1400 
  7 C        2.7400    -3.1970     1.2610 C.ar  1 <1>   0.1600 
  8 C        0.6030    -2.6770     0.3540 C.ar  1 <1>  -0.1500 
  9 C        4.3750     1.6230     0.8870 C.3   1 <1>   0.4230 
 10 C        4.4810    -0.2220    -1.3660 C.3   1 <1>  -0.0800 
 11 N        2.6490    -4.4690     1.0150 N.ar  1 <1>  -0.6200 
 12 C        0.4500    -4.0440     0.0800 C.ar  1 <1>   0.0000 
 13 N        5.1580     1.9990    -0.3480 N.4   1 <1>  -0.9590 
 14 C        5.0730     0.4420     1.6160 C.3   1 <1>   0.1200 
 15 C        5.4750    -0.8920    -0.3910 C.3   1 <1>   0.1200 
 16 C        4.7520     1.2690    -1.5860 C.3   1 <1>   0.3430 
 17 C        1.5090    -4.9130     0.4260 C.ar  1 <1>   0.3100 
 18 C       -0.7040    -4.5820    -0.5260 C.ar  1 <1>  -0.1500 
 19 C        5.1370     3.4760    -0.5810 C.3   1 <1>   0.2630 
 20 O        5.0760    -0.7930     0.9400 O.3   1 <1>  -0.5600 
 21 C        1.3720    -6.2810     0.1480 C.ar  1 <1>  -0.1500 
 22 C       -0.8060    -5.9220    -0.7830 C.ar  1 <1>  -0.1500 
 23 C        0.2420    -6.7830    -0.4440 C.ar  1 <1>  -0.1500 
 24 H        2.5170     2.0970    -0.1430 H     1 <1>   0.0800 
 25 H        2.3300     1.6890     1.5130 H     1 <1>   0.0800 
 26 H        2.8210    -1.5490    -1.1720 H     1 <1>   0.0800 
 27 H        2.3890    -0.0300    -1.8630 H     1 <1>   0.0800 
 28 H        3.6350    -2.8370     1.7410 H     1 <1>   0.1500 
 29 H       -0.1840    -1.9900     0.1010 H     1 <1>   0.1500 
 30 H        4.4410     2.4590     1.5640 H     1 <1>   0.0800 
 31 H        4.6700    -0.6730    -2.3240 H     1 <1>   0.0800 
 32 H        6.1280     1.7200    -0.1460 H     1 <1>   0.4500 
 33 H        4.5660     0.2700     2.5500 H     1 <1>   0.0800 
 34 H        6.0920     0.6950     1.8450 H     1 <1>   0.0800 
 35 H        6.4720    -0.5000    -0.4890 H     1 <1>   0.0800 
 36 H        5.5160    -1.9470    -0.6080 H     1 <1>   0.0800 
 37 H        3.8650     1.7210    -2.0010 H     1 <1>   0.0800 
 38 H        5.5370     1.3710    -2.3180 H     1 <1>   0.0800 
 39 H       -1.5090    -3.9170    -0.7830 H     1 <1>   0.1500 
 40 H        4.1340     3.8110    -0.7890 H     1 <1>   0.0800 
 41 H        5.7650     3.7330    -1.4200 H     1 <1>   0.0800 
 42 H        5.5010     3.9990     0.2890 H     1 <1>   0.0800 
 43 H        2.1870    -6.9270     0.4190 H     1 <1>   0.1500 
 44 H       -1.6890    -6.3300    -1.2460 H     1 <1>   0.1500 
 45 H        0.1490    -7.8350    -0.6520 H     1 <1>   0.1500 
@<TRIPOS>BOND
  1   1   2  2   
  2   2   3  am  
  3   2   4  1   
  4   3   5  1   
  5   3   6  1   
  6   4   7  ar  
  7   4   8  ar  
  8   5   9  1   
  9   5  24  1   
 10   5  25  1   
 11   6  10  1   
 12   6  26  1   
 13   6  27  1   
 14   7  11  ar  
 15   7  28  1   
 16   8  12  ar  
 17   8  29  1   
 18   9  13  1   
 19   9  14  1   
 20   9  30  1   
 21  10  15  1   
 22  10  16  1   
 23  10  31  1   
 24  11  17  ar  
 25  12  17  ar  
 26  12  18  ar  
 27  13  16  1   
 28  13  19  1   
 29  13  32  1   
 30  14  20  1   
 31  14  33  1   
 32  14  34  1   
 33  15  20  1   
 34  15  35  1   
 35  15  36  1   
 36  16  37  1   
 37  16  38  1   
 38  17  21  ar  
 39  18  22  ar  
 40  18  39  1   
 41  19  40  1   
 42  19  41  1   
 43  19  42  1   
 44  21  23  ar  
 45  21  43  1   
 46  22  23  ar  
 47  22  44  1   
 48  23  45  1   
@<TRIPOS>SUBSTRUCTURE
  1 ****   4 GROUP 4 **** **** 0

# MOE 2024.06 (io_trps.svl 2023.06)
