@<TRIPOS>MOLECULE
NONAME
49 52 1 0 0 
SMALL
USER_CHARGES


@<TRIPOS>ATOM
  1 S       -0.3900     0.7800    -1.9590 S.3   1 <1>  -0.0800 
  2 C       -1.1420     1.4150    -0.5030 C.2   1 <1>  -0.1400 
  3 C       -1.6750    -0.4070    -2.1390 C.2   1 <1>  -0.1100 
  4 C       -2.2720     0.7550    -0.2250 C.2   1 <1>  -0.1810 
  5 C       -0.5370     2.5540     0.3030 C.3   1 <1>   0.4600 
  6 C       -2.5830    -0.2900    -1.1510 C.2   1 <1>  -0.1500 
  7 C       -3.0830     1.1470     0.9900 C.3   1 <1>   0.0210 
  8 O       -1.2970     2.7560     1.4700 O.3   1 <1>  -0.5600 
  9 C        0.8630     2.1660     0.8060 C.3   1 <1>  -0.1600 
 10 C       -0.5430     3.8630    -0.5030 C.3   1 <1>  -0.1600 
 11 C       -2.6990     2.5800     1.4080 C.3   1 <1>   0.1200 
 12 C        1.9440     2.6990    -0.1230 C.3   1 <1>   0.3430 
 13 C        0.5300     4.7980     0.0330 C.3   1 <1>   0.3430 
 14 N        1.8900     4.1910    -0.1780 N.4   1 <1>  -0.9590 
 15 C        2.5530     4.7140    -1.4080 C.3   1 <1>   0.4860 
 16 C        2.7070     6.2080    -1.2420 C.ar  1 <1>  -0.1430 
 17 C        3.3710     6.6870    -0.1310 C.ar  1 <1>  -0.1500 
 18 C        2.1550     7.1070    -2.1380 C.ar  1 <1>  -0.1500 
 19 C        3.4500     8.0420     0.1750 C.ar  1 <1>  -0.1790 
 20 C        2.2500     8.4610    -1.8800 C.ar  1 <1>  -0.1500 
 21 C        2.8720     8.9460    -0.7380 C.ar  1 <1>   0.0830 
 22 C        4.0730     8.3250     1.4490 C.2   1 <1>   0.9790 
 23 O        2.8190    10.2970    -0.6240 O.3   1 <1>  -0.3620 
 24 O        3.5600     7.8370     2.4720 O.co2 1 <1>  -0.9000 
 25 O        5.1570     8.9210     1.5390 O.co2 1 <1>  -0.9000 
 26 C        3.5280    11.0390     0.3430 C.3   1 <1>   0.0400 
 27 H       -1.6170    -1.0790    -2.9780 H     1 <1>   0.1500 
 28 H       -3.4630    -0.8980    -1.0330 H     1 <1>   0.1500 
 29 H       -2.8880     0.4630     1.7960 H     1 <1>   0.0800 
 30 H       -4.1330     1.1120     0.7610 H     1 <1>   0.0800 
 31 H        0.9400     1.0950     0.8670 H     1 <1>   0.0800 
 32 H        1.0330     2.5590     1.7930 H     1 <1>   0.0800 
 33 H       -1.5040     4.3370    -0.4430 H     1 <1>   0.0800 
 34 H       -0.3490     3.6710    -1.5420 H     1 <1>   0.0800 
 35 H       -3.1000     2.8000     2.3830 H     1 <1>   0.0800 
 36 H       -3.1020     3.2890     0.7070 H     1 <1>   0.0800 
 37 H        1.7800     2.2910    -1.1080 H     1 <1>   0.0800 
 38 H        2.9150     2.3770     0.2190 H     1 <1>   0.0800 
 39 H        0.3610     4.9440     1.0890 H     1 <1>   0.0800 
 40 H        0.4630     5.7620    -0.4450 H     1 <1>   0.0800 
 41 H        2.4550     4.5690     0.6000 H     1 <1>   0.4500 
 42 H        1.9580     4.4940    -2.2790 H     1 <1>   0.0800 
 43 H        3.5280     4.2690    -1.5270 H     1 <1>   0.0800 
 44 H        3.8390     6.0130     0.5690 H     1 <1>   0.1500 
 45 H        1.6460     6.7750    -3.0260 H     1 <1>   0.1500 
 46 H        1.8260     9.1700    -2.5670 H     1 <1>   0.1500 
 47 H        3.3170    12.0800     0.1880 H     1 <1>   0.0800 
 48 H        4.5810    10.8600     0.2150 H     1 <1>   0.0800 
 49 H        3.2040    10.7460     1.3260 H     1 <1>   0.0800 
@<TRIPOS>BOND
  1   1   2  1   
  2   1   3  1   
  3   2   4  2   
  4   2   5  1   
  5   3   6  2   
  6   3  27  1   
  7   4   6  1   
  8   4   7  1   
  9   5   8  1   
 10   5   9  1   
 11   5  10  1   
 12   6  28  1   
 13   7  11  1   
 14   7  29  1   
 15   7  30  1   
 16   8  11  1   
 17   9  12  1   
 18   9  31  1   
 19   9  32  1   
 20  10  13  1   
 21  10  33  1   
 22  10  34  1   
 23  11  35  1   
 24  11  36  1   
 25  12  14  1   
 26  12  37  1   
 27  12  38  1   
 28  13  14  1   
 29  13  39  1   
 30  13  40  1   
 31  14  15  1   
 32  14  41  1   
 33  15  16  1   
 34  15  42  1   
 35  15  43  1   
 36  16  17  ar  
 37  16  18  ar  
 38  17  19  ar  
 39  17  44  1   
 40  18  20  ar  
 41  18  45  1   
 42  19  21  ar  
 43  19  22  1   
 44  20  21  ar  
 45  20  46  1   
 46  21  23  1   
 47  22  24  ar  
 48  22  25  ar  
 49  23  26  1   
 50  26  47  1   
 51  26  48  1   
 52  26  49  1   
@<TRIPOS>SUBSTRUCTURE
  1 ****  13 GROUP 4 **** **** 0

# MOE 2024.06 (io_trps.svl 2023.06)
