@<TRIPOS>MOLECULE
NONAME
43 46 1 0 0 
SMALL
USER_CHARGES


@<TRIPOS>ATOM
  1 O        0.3680    -0.1010    -0.2650 O.3   1 <1>  -0.6800 
  2 C        1.6780    -0.2040    -0.7150 C.3   1 <1>   0.2000 
  3 C        2.3770    -1.3980    -0.0740 C.3   1 <1>  -0.0800 
  4 C        2.5040     1.0090    -0.2920 C.3   1 <1>   0.2090 
  5 C        3.8550    -1.0030    -0.0550 C.3   1 <1>   0.2090 
  6 C        2.1180    -2.7190    -0.8140 C.3   1 <1>   0.0210 
  7 N        3.8790     0.4850    -0.0800 N.pl3 1 <1>  -0.8380 
  8 C        2.8390    -3.8680    -0.1410 C.2   1 <1>   0.1080 
  9 C        5.0030     1.2000    -0.4390 C.ar  1 <1>   0.4100 
 10 N        2.4190    -4.4030     0.9620 N.2   1 <1>  -0.7070 
 11 C        4.0060    -4.4650    -0.6060 C.2   1 <1>  -0.1500 
 12 N        6.0300     0.5380    -0.9350 N.ar  1 <1>  -0.6200 
 13 C        5.0620     2.5710    -0.2810 C.ar  1 <1>  -0.1500 
 14 N        3.3170    -5.3680     1.2350 N.pl3 1 <1>   0.3000 
 15 C        4.2890    -5.4240     0.3010 C.2   1 <1>  -0.3320 
 16 C        7.0760     1.2680    -1.2700 C.ar  1 <1>   0.4700 
 17 C        6.2030     3.2210    -0.6620 C.ar  1 <1>   0.2780 
 18 C        5.4460    -6.4050     0.3320 C.3   1 <1>  -0.0600 
 19 N        7.2320     2.5760    -1.1730 N.ar  1 <1>  -0.6200 
 20 C        6.3360     4.7300    -0.5200 C.3   1 <1>  -0.0680 
 21 C        7.2420     5.3050     0.5260 C.3   1 <1>  -0.2000 
 22 C        5.7590     5.4790     0.6460 C.3   1 <1>  -0.2000 
 23 H       -0.0850    -0.9630    -0.3320 H     1 <1>   0.4000 
 24 H        1.6720    -0.2820    -1.7890 H     1 <1>   0.0800 
 25 H        2.0590    -1.4900     0.9510 H     1 <1>   0.0800 
 26 H        2.1330     1.4060     0.6380 H     1 <1>   0.0800 
 27 H        2.4890     1.7650    -1.0570 H     1 <1>   0.0800 
 28 H        4.3590    -1.3860    -0.9270 H     1 <1>   0.0800 
 29 H        4.3470    -1.3740     0.8280 H     1 <1>   0.0800 
 30 H        2.4430    -2.6440    -1.8360 H     1 <1>   0.0800 
 31 H        1.0650    -2.9360    -0.8140 H     1 <1>   0.0800 
 32 H        4.5470    -4.1990    -1.4960 H     1 <1>   0.1500 
 33 H        4.2320     3.1010     0.1370 H     1 <1>   0.1500 
 34 H        3.2380    -5.9670     2.0650 H     1 <1>   0.2700 
 35 H        7.9130     0.7270    -1.6770 H     1 <1>   0.1500 
 36 H        6.0860    -6.2490    -0.5180 H     1 <1>   0.0800 
 37 H        5.0790    -7.4160     0.3030 H     1 <1>   0.0800 
 38 H        6.0270    -6.2680     1.2270 H     1 <1>   0.0800 
 39 H        6.3380     5.2170    -1.4790 H     1 <1>   0.1000 
 40 H        7.7460     4.6220     1.1870 H     1 <1>   0.1000 
 41 H        7.8530     6.1500     0.2610 H     1 <1>   0.1000 
 42 H        5.3370     6.4540     0.4730 H     1 <1>   0.1000 
 43 H        5.2560     4.9460     1.4340 H     1 <1>   0.1000 
@<TRIPOS>BOND
  1   1   2  1   
  2   1  23  1   
  3   2   3  1   
  4   2   4  1   
  5   2  24  1   
  6   3   5  1   
  7   3   6  1   
  8   3  25  1   
  9   4   7  1   
 10   4  26  1   
 11   4  27  1   
 12   5   7  1   
 13   5  28  1   
 14   5  29  1   
 15   6   8  1   
 16   6  30  1   
 17   6  31  1   
 18   7   9  1   
 19   8  10  2   
 20   8  11  1   
 21   9  12  ar  
 22   9  13  ar  
 23  10  14  1   
 24  11  15  2   
 25  11  32  1   
 26  12  16  ar  
 27  13  17  ar  
 28  13  33  1   
 29  14  15  1   
 30  14  34  1   
 31  15  18  1   
 32  16  19  ar  
 33  16  35  1   
 34  17  19  ar  
 35  17  20  1   
 36  18  36  1   
 37  18  37  1   
 38  18  38  1   
 39  20  21  1   
 40  20  22  1   
 41  20  39  1   
 42  21  22  1   
 43  21  40  1   
 44  21  41  1   
 45  22  42  1   
 46  22  43  1   
@<TRIPOS>SUBSTRUCTURE
  1 ****   5 GROUP 4 **** **** 0

# MOE 2024.06 (io_trps.svl 2023.06)
