@<TRIPOS>MOLECULE
NONAME
47 49 1 0 0 
SMALL
USER_CHARGES


@<TRIPOS>ATOM
  1 S        0.4910    -0.1310     2.4510 S.3   1 <1>  -0.0800 
  2 C        1.5610    -0.8100     1.2350 C.2   1 <1>  -0.1400 
  3 C        0.9240     1.5000     1.9800 C.2   1 <1>  -0.1100 
  4 C        2.1770     0.1730     0.5520 C.2   1 <1>  -0.1500 
  5 C        1.6240    -2.3190     1.1370 C.3   1 <1>   0.5230 
  6 C        1.8180     1.4980     0.9700 C.2   1 <1>   0.0190 
  7 N        0.2700    -2.8250     0.8020 N.4   1 <1>  -0.9590 
  8 C        2.3840     2.6540     0.3440 C.1   1 <1>  -0.0190 
  9 C       -0.3310    -2.2770    -0.4450 C.3   1 <1>   0.3430 
 10 C        0.1500    -4.3080     0.7130 C.3   1 <1>   0.3430 
 11 C        2.8520     3.6190    -0.1720 C.1   1 <1>  -0.2000 
 12 C       -1.4790    -3.2410    -0.7350 C.3   1 <1>   0.2000 
 13 C       -0.8450    -4.5980    -0.4210 C.3   1 <1>  -0.0800 
 14 C        3.4370     4.8320    -0.8030 C.3   1 <1>   0.3200 
 15 O       -2.4920    -3.0090     0.2010 O.3   1 <1>  -0.5600 
 16 C       -1.8420    -5.7240    -0.0840 C.3   1 <1>   0.0200 
 17 O        2.3960     5.5620    -1.3350 O.3   1 <1>  -0.6800 
 18 C       -3.4740    -2.1000    -0.1960 C.3   1 <1>   0.0400 
 19 C       -1.1140    -7.0390     0.1210 C.2   1 <1>  -0.0400 
 20 O       -0.2640    -7.1690     1.1050 O.3   1 <1>  -0.0190 
 21 C       -1.1480    -8.2010    -0.5470 C.2   1 <1>  -0.1500 
 22 N        0.2850    -8.3450     1.1210 N.2   1 <1>  -0.4100 
 23 C       -0.2330    -8.9950     0.1410 C.2   1 <1>   0.1080 
 24 C        0.1100   -10.4260    -0.2090 C.3   1 <1>  -0.0590 
 25 H        0.4640     2.3140     2.5110 H     1 <1>   0.1500 
 26 H        2.8890     0.0450    -0.2460 H     1 <1>   0.1500 
 27 H        1.9500    -2.7270     2.0800 H     1 <1>   0.0800 
 28 H        2.3290    -2.6050     0.3740 H     1 <1>   0.0800 
 29 H       -0.3710    -2.5230     1.5520 H     1 <1>   0.4500 
 30 H       -0.6830    -1.2670    -0.3140 H     1 <1>   0.0800 
 31 H        0.3850    -2.3110    -1.2490 H     1 <1>   0.0800 
 32 H        1.0990    -4.7700     0.4930 H     1 <1>   0.0800 
 33 H       -0.2220    -4.7020     1.6460 H     1 <1>   0.0800 
 34 H       -1.8690    -3.1770    -1.7380 H     1 <1>   0.0800 
 35 H       -0.2730    -4.9060    -1.2790 H     1 <1>   0.0800 
 36 H        4.1100     4.5650    -1.5990 H     1 <1>   0.0800 
 37 H        3.9470     5.4450    -0.0800 H     1 <1>   0.0800 
 38 H       -2.5480    -5.8340    -0.8880 H     1 <1>   0.0800 
 39 H       -2.3950    -5.4910     0.8100 H     1 <1>   0.0800 
 40 H        1.7640     4.9510    -1.7580 H     1 <1>   0.4000 
 41 H       -4.1830    -2.0000     0.6080 H     1 <1>   0.0800 
 42 H       -3.9790    -2.4780    -1.0690 H     1 <1>   0.0800 
 43 H       -3.0260    -1.1430    -0.4000 H     1 <1>   0.0800 
 44 H       -1.7220    -8.4920    -1.4080 H     1 <1>   0.1500 
 45 H       -0.7730   -11.0350    -0.1580 H     1 <1>   0.0800 
 46 H        0.8370   -10.8100     0.4840 H     1 <1>   0.0800 
 47 H        0.5170   -10.4730    -1.2020 H     1 <1>   0.0800 
@<TRIPOS>BOND
  1   1   2  1   
  2   1   3  1   
  3   2   4  2   
  4   2   5  1   
  5   3   6  2   
  6   3  25  1   
  7   4   6  1   
  8   4  26  1   
  9   5   7  1   
 10   5  27  1   
 11   5  28  1   
 12   6   8  1   
 13   7   9  1   
 14   7  10  1   
 15   7  29  1   
 16   8  11  3   
 17   9  12  1   
 18   9  30  1   
 19   9  31  1   
 20  10  13  1   
 21  10  32  1   
 22  10  33  1   
 23  11  14  1   
 24  12  13  1   
 25  12  15  1   
 26  12  34  1   
 27  13  16  1   
 28  13  35  1   
 29  14  17  1   
 30  14  36  1   
 31  14  37  1   
 32  15  18  1   
 33  16  19  1   
 34  16  38  1   
 35  16  39  1   
 36  17  40  1   
 37  18  41  1   
 38  18  42  1   
 39  18  43  1   
 40  19  20  1   
 41  19  21  2   
 42  20  22  1   
 43  21  23  1   
 44  21  44  1   
 45  22  23  2   
 46  23  24  1   
 47  24  45  1   
 48  24  46  1   
 49  24  47  1   
@<TRIPOS>SUBSTRUCTURE
  1 ****   7 GROUP 4 **** **** 0

# MOE 2024.06 (io_trps.svl 2023.06)
