@<TRIPOS>MOLECULE
NONAME
57 59 1 0 0 
SMALL
USER_CHARGES


@<TRIPOS>ATOM
  1 O       -0.2980     0.8510    -0.8060 O.2   1 <1>  -0.5700 
  2 C       -0.4460     2.0490    -0.7470 C.2   1 <1>   0.5690 
  3 N       -1.4370     2.6620    -0.0220 N.am  1 <1>  -0.6600 
  4 C        0.5280     2.9180    -1.5360 C.3   1 <1>   0.1810 
  5 C       -1.5570     4.1610    -0.0140 C.3   1 <1>   0.3640 
  6 C       -2.4050     1.9550     0.8610 C.3   1 <1>   0.2200 
  7 O        0.7810     4.1330    -0.8800 O.3   1 <1>  -0.5600 
  8 C       -2.8700     4.5640    -0.6900 C.ar  1 <1>  -0.1440 
  9 C       -0.3770     4.9310    -0.6740 C.3   1 <1>   0.2610 
 10 C       -1.6670     1.2860     2.0190 C.3   1 <1>  -0.2400 
 11 C       -3.2580     0.9600     0.0740 C.3   1 <1>  -0.2400 
 12 C       -3.2650     4.0000    -1.8970 C.ar  1 <1>  -0.1500 
 13 C       -3.6850     5.5210    -0.1000 C.ar  1 <1>  -0.1500 
 14 C       -0.0230     6.1590     0.1750 C.2   1 <1>   0.5690 
 15 C       -4.4510     4.3810    -2.4990 C.ar  1 <1>  -0.1500 
 16 C       -4.8710     5.9030    -0.7010 C.ar  1 <1>  -0.1500 
 17 O       -0.8910     6.9310     0.5070 O.2   1 <1>  -0.5700 
 18 N        1.2730     6.3510     0.5410 N.am  1 <1>  -0.7300 
 19 C       -5.2560     5.3340    -1.9010 C.ar  1 <1>  -0.1500 
 20 C        1.8030     7.4760     1.3540 C.3   1 <1>   0.1400 
 21 C        2.7160     8.4170     0.5350 C.3   1 <1>   0.0000 
 22 C        3.2590     9.5270     1.4660 C.3   1 <1>  -0.1600 
 23 C        1.9080     9.1660    -0.5560 C.3   1 <1>  -0.1600 
 24 C        3.8690     7.5900    -0.0880 C.3   1 <1>   0.1200 
 25 C        3.1480    10.8350     0.6870 C.3   1 <1>  -0.1600 
 26 C        1.9080    10.6470    -0.1750 C.3   1 <1>  -0.1600 
 27 O        4.8090     8.4080    -0.6960 O.3   1 <1>  -0.6800 
 28 H        0.1300     3.1240    -2.5130 H     1 <1>   0.0800 
 29 H        1.4640     2.4000    -1.6390 H     1 <1>   0.0800 
 30 H       -1.6050     4.4640     1.0180 H     1 <1>   0.0800 
 31 H       -3.0790     2.6830     1.2840 H     1 <1>   0.0800 
 32 H       -0.6880     5.2890    -1.6390 H     1 <1>   0.0800 
 33 H       -1.0300     0.4970     1.6610 H     1 <1>   0.0800 
 34 H       -2.3750     0.8590     2.7040 H     1 <1>   0.0800 
 35 H       -1.0730     2.0080     2.5490 H     1 <1>   0.0800 
 36 H       -2.6620     0.1520    -0.3090 H     1 <1>   0.0800 
 37 H       -3.7520     1.4560    -0.7410 H     1 <1>   0.0800 
 38 H       -4.0100     0.5410     0.7170 H     1 <1>   0.0800 
 39 H       -2.6550     3.2530    -2.3750 H     1 <1>   0.1500 
 40 H       -3.3980     5.9830     0.8290 H     1 <1>   0.1500 
 41 H       -4.7490     3.9360    -3.4320 H     1 <1>   0.1500 
 42 H       -5.4930     6.6480    -0.2350 H     1 <1>   0.1500 
 43 H        1.9400     5.6330     0.2380 H     1 <1>   0.3700 
 44 H       -6.1790     5.6320    -2.3680 H     1 <1>   0.1500 
 45 H        0.9790     8.0420     1.7570 H     1 <1>   0.0800 
 46 H        2.3550     7.0690     2.1840 H     1 <1>   0.0800 
 47 H        2.6440     9.6130     2.3450 H     1 <1>   0.0800 
 48 H        4.2720     9.3440     1.7830 H     1 <1>   0.0800 
 49 H        2.3660     9.0490    -1.5220 H     1 <1>   0.0800 
 50 H        0.8950     8.8100    -0.6320 H     1 <1>   0.0800 
 51 H        3.4890     6.9180    -0.8380 H     1 <1>   0.0800 
 52 H        4.3810     7.0160     0.6660 H     1 <1>   0.0800 
 53 H        3.0610    11.6870     1.3390 H     1 <1>   0.0800 
 54 H        4.0140    10.9610     0.0600 H     1 <1>   0.0800 
 55 H        1.9140    11.2890    -1.0390 H     1 <1>   0.0800 
 56 H        1.0320    10.8610     0.4140 H     1 <1>   0.0800 
 57 H        4.3560     9.1570    -1.1310 H     1 <1>   0.4000 
@<TRIPOS>BOND
  1   1   2  2   
  2   2   3  am  
  3   2   4  1   
  4   3   5  1   
  5   3   6  1   
  6   4   7  1   
  7   4  28  1   
  8   4  29  1   
  9   5   8  1   
 10   5   9  1   
 11   5  30  1   
 12   6  10  1   
 13   6  11  1   
 14   6  31  1   
 15   7   9  1   
 16   8  12  ar  
 17   8  13  ar  
 18   9  14  1   
 19   9  32  1   
 20  10  33  1   
 21  10  34  1   
 22  10  35  1   
 23  11  36  1   
 24  11  37  1   
 25  11  38  1   
 26  12  15  ar  
 27  12  39  1   
 28  13  16  ar  
 29  13  40  1   
 30  14  17  2   
 31  14  18  am  
 32  15  19  ar  
 33  15  41  1   
 34  16  19  ar  
 35  16  42  1   
 36  18  20  1   
 37  18  43  1   
 38  19  44  1   
 39  20  21  1   
 40  20  45  1   
 41  20  46  1   
 42  21  22  1   
 43  21  23  1   
 44  21  24  1   
 45  22  25  1   
 46  22  47  1   
 47  22  48  1   
 48  23  26  1   
 49  23  49  1   
 50  23  50  1   
 51  24  27  1   
 52  24  51  1   
 53  24  52  1   
 54  25  26  1   
 55  25  53  1   
 56  25  54  1   
 57  26  55  1   
 58  26  56  1   
 59  27  57  1   
@<TRIPOS>SUBSTRUCTURE
  1 ****   9 GROUP 4 **** **** 0

# MOE 2024.06 (io_trps.svl 2023.06)
