@<TRIPOS>MOLECULE
NONAME
35 37 1 0 0 
SMALL
USER_CHARGES


@<TRIPOS>ATOM
  1 CL      -0.4200     0.1660     0.6260 Cl    1 <1>  -0.1770 
  2 C       -1.8510    -0.7820     0.2860 C.ar  1 <1>   0.1770 
  3 C       -1.8770    -2.1350     0.5220 C.ar  1 <1>   0.1600 
  4 C       -2.9850    -0.1980    -0.2220 C.ar  1 <1>   0.1600 
  5 N       -2.9460    -2.8600     0.2720 N.ar  1 <1>  -0.6200 
  6 N       -4.0670    -0.8990    -0.4820 N.ar  1 <1>  -0.6200 
  7 C       -3.9970    -2.2060    -0.2270 C.ar  1 <1>   0.7200 
  8 N       -5.1140    -2.9530    -0.5030 N.pl3 1 <1>  -0.8380 
  9 C       -6.4500    -2.3760    -0.8080 C.3   1 <1>   0.2090 
 10 C       -5.2340    -4.4010    -0.1970 C.3   1 <1>   0.2090 
 11 C       -7.4320    -3.3840    -0.2110 C.3   1 <1>   0.2000 
 12 C       -6.7190    -4.7280    -0.3920 C.3   1 <1>  -0.0800 
 13 O       -7.5590    -3.1100     1.1440 O.3   1 <1>  -0.6800 
 14 C       -7.2290    -5.8710     0.5050 C.3   1 <1>  -0.0170 
 15 C       -6.4960    -7.1690     0.2050 C.ar  1 <1>  -0.1430 
 16 C       -6.8410    -7.9670    -0.8670 C.ar  1 <1>  -0.1500 
 17 C       -5.4490    -7.6170     0.9850 C.ar  1 <1>  -0.1500 
 18 C       -6.1400    -9.1390    -1.1020 C.ar  1 <1>   0.1600 
 19 C       -4.8140    -8.8050     0.6630 C.ar  1 <1>   0.1600 
 20 N       -5.1340    -9.5770    -0.3630 N.ar  1 <1>  -0.6200 
 21 H       -1.0050    -2.6230     0.9200 H     1 <1>   0.1500 
 22 H       -2.9980     0.8600    -0.4170 H     1 <1>   0.1500 
 23 H       -6.5830    -1.3950    -0.3840 H     1 <1>   0.0800 
 24 H       -6.5700    -2.3250    -1.8760 H     1 <1>   0.0800 
 25 H       -4.6120    -4.9830    -0.8550 H     1 <1>   0.0800 
 26 H       -4.9360    -4.5740     0.8230 H     1 <1>   0.0800 
 27 H       -8.4080    -3.3470    -0.6640 H     1 <1>   0.0800 
 28 H       -6.8440    -5.0250    -1.4190 H     1 <1>   0.0800 
 29 H       -6.6660    -2.9080     1.4930 H     1 <1>   0.4000 
 30 H       -8.2830    -6.0110     0.3410 H     1 <1>   0.0800 
 31 H       -7.0980    -5.6190     1.5430 H     1 <1>   0.0800 
 32 H       -7.6470    -7.6900    -1.5210 H     1 <1>   0.1500 
 33 H       -5.1200    -7.0550     1.8400 H     1 <1>   0.1500 
 34 H       -6.4230    -9.7490    -1.9430 H     1 <1>   0.1500 
 35 H       -3.9990    -9.1370     1.2830 H     1 <1>   0.1500 
@<TRIPOS>BOND
  1   1   2  1   
  2   2   3  ar  
  3   2   4  ar  
  4   3   5  ar  
  5   3  21  1   
  6   4   6  ar  
  7   4  22  1   
  8   5   7  ar  
  9   6   7  ar  
 10   7   8  1   
 11   8   9  1   
 12   8  10  1   
 13   9  11  1   
 14   9  23  1   
 15   9  24  1   
 16  10  12  1   
 17  10  25  1   
 18  10  26  1   
 19  11  12  1   
 20  11  13  1   
 21  11  27  1   
 22  12  14  1   
 23  12  28  1   
 24  13  29  1   
 25  14  15  1   
 26  14  30  1   
 27  14  31  1   
 28  15  16  ar  
 29  15  17  ar  
 30  16  18  ar  
 31  16  32  1   
 32  17  19  ar  
 33  17  33  1   
 34  18  20  ar  
 35  18  34  1   
 36  19  20  ar  
 37  19  35  1   
@<TRIPOS>SUBSTRUCTURE
  1 ****  10 GROUP 4 **** **** 0

# MOE 2024.06 (io_trps.svl 2023.06)
