@<TRIPOS>MOLECULE
NONAME
51 55 1 0 0 
SMALL
USER_CHARGES


@<TRIPOS>ATOM
  1 O       -0.8750     1.1560    -1.7030 O.2   1 <1>  -0.5700 
  2 C       -1.8360     1.5340    -1.0490 C.2   1 <1>   0.6300 
  3 N       -3.0140     0.8020    -1.1750 N.am  1 <1>  -0.6600 
  4 C       -1.7050     2.7070    -0.1670 C.2   1 <1>   0.6550 
  5 C       -4.2140     0.9850    -0.3100 C.3   1 <1>   0.1400 
  6 C       -3.1940    -0.2510    -2.2180 C.3   1 <1>   0.1400 
  7 O       -2.5620     3.5790    -0.1710 O.2   1 <1>  -0.5700 
  8 C       -0.5790     2.8230     0.7360 C.2   1 <1>  -0.2370 
  9 C       -4.5280    -0.3380     0.3920 C.3   1 <1>  -0.1600 
 10 C       -3.4980    -1.5860    -1.5380 C.3   1 <1>  -0.1600 
 11 N       -0.3040     3.9090     1.5410 N.pl3 1 <1>   0.0480 
 12 C        0.4070     1.8920     0.9700 C.2   1 <1>  -0.1500 
 13 C       -4.7140    -1.4820    -0.6130 C.3   1 <1>   0.4600 
 14 C        0.8180     3.6380     2.2490 C.2   1 <1>  -0.3020 
 15 C       -1.0450     5.1830     1.6470 C.3   1 <1>   0.0160 
 16 C        1.2810     2.4040     1.9200 C.2   1 <1>  -0.1500 
 17 O       -5.8180    -1.1930    -1.4430 O.3   1 <1>  -0.5600 
 18 C       -4.9530    -2.8090     0.0990 C.2   1 <1>  -0.3320 
 19 C       -7.1090    -1.4770    -0.9570 C.3   1 <1>   0.1200 
 20 N       -4.0540    -3.4910     0.8720 N.pl3 1 <1>   0.0330 
 21 C       -6.1110    -3.4970     0.0530 C.2   1 <1>  -0.1810 
 22 C       -7.2970    -2.9850    -0.7250 C.3   1 <1>   0.0210 
 23 C       -4.6630    -4.6390     1.3180 C.ar  1 <1>  -0.1520 
 24 C       -5.9620    -4.6730     0.8160 C.ar  1 <1>   0.0000 
 25 C       -4.1830    -5.6690     2.1310 C.ar  1 <1>  -0.1500 
 26 C       -6.7960    -5.7510     1.1260 C.ar  1 <1>  -0.1500 
 27 C       -5.0150    -6.7240     2.4290 C.ar  1 <1>  -0.1500 
 28 C       -6.3210    -6.7650     1.9260 C.ar  1 <1>  -0.1500 
 29 H       -5.0480     1.2840    -0.9230 H     1 <1>   0.0800 
 30 H       -4.0560     1.7460     0.4320 H     1 <1>   0.0800 
 31 H       -2.3130    -0.3490    -2.8300 H     1 <1>   0.0800 
 32 H       -4.0120     0.0270    -2.8600 H     1 <1>   0.0800 
 33 H       -5.4070    -0.2350     0.9990 H     1 <1>   0.0800 
 34 H       -3.7140    -0.5750     1.0520 H     1 <1>   0.0800 
 35 H       -2.6330    -1.8860    -0.9760 H     1 <1>   0.0800 
 36 H       -3.6840    -2.3410    -2.2790 H     1 <1>   0.0800 
 37 H        0.5160     0.9240     0.5090 H     1 <1>   0.1500 
 38 H        1.2430     4.3320     2.9520 H     1 <1>   0.1500 
 39 H       -1.1080     5.6390     0.6760 H     1 <1>   0.0800 
 40 H       -0.5360     5.8470     2.3200 H     1 <1>   0.0800 
 41 H       -2.0350     4.9880     2.0160 H     1 <1>   0.0800 
 42 H        2.1530     1.9050     2.3050 H     1 <1>   0.1500 
 43 H       -7.8180    -1.1220    -1.6830 H     1 <1>   0.0800 
 44 H       -7.2560    -0.9370    -0.0390 H     1 <1>   0.0800 
 45 H       -3.0890    -3.2180     1.0810 H     1 <1>   0.2700 
 46 H       -7.3620    -3.4970    -1.6680 H     1 <1>   0.0800 
 47 H       -8.2040    -3.1570    -0.1750 H     1 <1>   0.0800 
 48 H       -3.1780    -5.6310     2.5120 H     1 <1>   0.1500 
 49 H       -7.7950    -5.7700     0.7320 H     1 <1>   0.1500 
 50 H       -4.6690    -7.5300     3.0520 H     1 <1>   0.1500 
 51 H       -6.9510    -7.6020     2.1730 H     1 <1>   0.1500 
@<TRIPOS>BOND
  1   1   2  2   
  2   2   3  am  
  3   2   4  1   
  4   3   5  1   
  5   3   6  1   
  6   4   7  2   
  7   4   8  1   
  8   5   9  1   
  9   5  29  1   
 10   5  30  1   
 11   6  10  1   
 12   6  31  1   
 13   6  32  1   
 14   8  11  1   
 15   8  12  2   
 16   9  13  1   
 17   9  33  1   
 18   9  34  1   
 19  10  13  1   
 20  10  35  1   
 21  10  36  1   
 22  11  14  1   
 23  11  15  1   
 24  12  16  1   
 25  12  37  1   
 26  13  17  1   
 27  13  18  1   
 28  14  16  2   
 29  14  38  1   
 30  15  39  1   
 31  15  40  1   
 32  15  41  1   
 33  16  42  1   
 34  17  19  1   
 35  18  20  1   
 36  18  21  2   
 37  19  22  1   
 38  19  43  1   
 39  19  44  1   
 40  20  23  1   
 41  20  45  1   
 42  21  22  1   
 43  21  24  1   
 44  22  46  1   
 45  22  47  1   
 46  23  24  ar  
 47  23  25  ar  
 48  24  26  ar  
 49  25  27  ar  
 50  25  48  1   
 51  26  28  ar  
 52  26  49  1   
 53  27  28  ar  
 54  27  50  1   
 55  28  51  1   
@<TRIPOS>SUBSTRUCTURE
  1 ****   9 GROUP 4 **** **** 0

# MOE 2024.06 (io_trps.svl 2023.06)
