@<TRIPOS>MOLECULE
NONAME
27 28 1 0 0 
SMALL
USER_CHARGES


@<TRIPOS>ATOM
  1 O        5.6650    -2.4860    -1.1570 O.co2 1 <1>  -0.9000 
  2 C        5.3500    -1.4690    -0.5530 C.2   1 <1>   0.9060 
  3 O        4.6450    -1.4720     0.4690 O.co2 1 <1>  -0.9000 
  4 C        5.7700    -0.1310    -1.1230 C.3   1 <1>  -0.1860 
  5 C        6.6470     0.7020    -0.1740 C.3   1 <1>   0.0000 
  6 C        4.5060     0.6890    -1.2260 C.3   1 <1>   0.3430 
  7 C        5.6380     1.4090     0.7500 C.3   1 <1>   0.3430 
  8 C        7.4970     1.7430    -0.9130 C.3   1 <1>  -0.1600 
  9 C        7.6970    -0.0880     0.6130 C.3   1 <1>  -0.1600 
 10 N        4.3020     1.1230     0.1700 N.4   1 <1>  -0.9060 
 11 C        8.6070     2.1240     0.0700 C.3   1 <1>  -0.1600 
 12 C        8.7480     0.9410     1.0360 C.3   1 <1>  -0.1600 
 13 H        6.2220    -0.2950    -2.0830 H     1 <1>   0.0800 
 14 H        3.6810     0.0910    -1.5820 H     1 <1>   0.0800 
 15 H        4.6600     1.5390    -1.8690 H     1 <1>   0.0800 
 16 H        5.8310     2.4680     0.7750 H     1 <1>   0.0800 
 17 H        5.6990     1.0070     1.7480 H     1 <1>   0.0800 
 18 H        6.9340     2.6000    -1.2390 H     1 <1>   0.0800 
 19 H        7.9530     1.2830    -1.7750 H     1 <1>   0.0800 
 20 H        8.1570    -0.8110    -0.0420 H     1 <1>   0.0800 
 21 H        7.2770    -0.6170     1.4530 H     1 <1>   0.0800 
 22 H        4.0380     0.2090     0.6230 H     1 <1>   0.4500 
 23 H        3.5640     1.8080     0.3370 H     1 <1>   0.4500 
 24 H        8.3350     3.0100     0.6180 H     1 <1>   0.0800 
 25 H        9.5310     2.3130    -0.4510 H     1 <1>   0.0800 
 26 H        9.7350     0.5120     0.9880 H     1 <1>   0.0800 
 27 H        8.5630     1.2670     2.0450 H     1 <1>   0.0800 
@<TRIPOS>BOND
  1   1   2  ar  
  2   2   3  ar  
  3   2   4  1   
  4   4   5  1   
  5   4   6  1   
  6   4  13  1   
  7   5   7  1   
  8   5   8  1   
  9   5   9  1   
 10   6  10  1   
 11   6  14  1   
 12   6  15  1   
 13   7  10  1   
 14   7  16  1   
 15   7  17  1   
 16   8  11  1   
 17   8  18  1   
 18   8  19  1   
 19   9  12  1   
 20   9  20  1   
 21   9  21  1   
 22  10  22  1   
 23  10  23  1   
 24  11  12  1   
 25  11  24  1   
 26  11  25  1   
 27  12  26  1   
 28  12  27  1   
@<TRIPOS>SUBSTRUCTURE
  1 ****   5 GROUP 4 **** **** 0

# MOE 2024.06 (io_trps.svl 2023.06)
