@<TRIPOS>MOLECULE
NONAME
49 52 1 0 0 
SMALL
USER_CHARGES


@<TRIPOS>ATOM
  1 O        0.0790     1.3580     1.4520 O.2   1 <1>  -0.5700 
  2 C        0.0660     2.3360     0.7490 C.2   1 <1>   0.5690 
  3 N        0.1940     3.5710     1.2850 N.am  1 <1>  -0.7300 
  4 C       -0.1250     2.1920    -0.7650 C.3   1 <1>   0.1810 
  5 C        0.1850     4.8160     0.4810 C.3   1 <1>   0.3640 
  6 O        0.2590     3.3470    -1.4810 O.3   1 <1>  -0.5600 
  7 C       -0.6800     5.8620     1.1740 C.ar  1 <1>  -0.1440 
  8 C       -0.2890     4.5540    -0.9690 C.3   1 <1>   0.2610 
  9 C       -0.2360     7.1750     1.2430 C.ar  1 <1>  -0.1500 
 10 C       -1.9130     5.5380     1.7280 C.ar  1 <1>  -0.1500 
 11 C        0.0190     5.7680    -1.8590 C.2   1 <1>   0.5690 
 12 C       -1.0080     8.1490     1.8520 C.ar  1 <1>  -0.1500 
 13 C       -2.6830     6.5110     2.3420 C.ar  1 <1>  -0.1500 
 14 O       -0.9330     6.3610    -2.3100 O.2   1 <1>  -0.5700 
 15 N        1.2990     6.2100    -2.1140 N.am  1 <1>  -0.6600 
 16 C       -2.2310     7.8170     2.4040 C.ar  1 <1>  -0.1500 
 17 C        1.5020     7.5860    -2.6820 C.3   1 <1>   0.3210 
 18 C        2.5620     5.4590    -1.8450 C.3   1 <1>   0.0600 
 19 C        1.7330     8.6310    -1.5880 C.2   1 <1>   0.3350 
 20 N        0.9730     9.6290    -1.3650 N.2   1 <1>  -0.4100 
 21 N        2.7760     8.5750    -0.7630 N.2   1 <1>  -0.5650 
 22 O        1.4760    10.2820    -0.3640 O.3   1 <1>  -0.0190 
 23 C        2.5510     9.6040    -0.0470 C.2   1 <1>   0.3170 
 24 C        3.4110    10.0730     1.1180 C.3   1 <1>   0.1610 
 25 C        2.6460    10.2900     2.4510 C.3   1 <1>   0.0000 
 26 C        3.7410    11.5890     1.1450 C.3   1 <1>   0.0000 
 27 C        3.5670    11.5170     2.6850 C.3   1 <1>   0.0000 
 28 H        0.2890     3.6670     2.2970 H     1 <1>   0.3700 
 29 H       -1.1590     1.9900    -0.9780 H     1 <1>   0.0800 
 30 H        0.4700     1.3720    -1.1240 H     1 <1>   0.0800 
 31 H        1.1940     5.1850     0.4510 H     1 <1>   0.0800 
 32 H       -1.3580     4.4350    -0.9610 H     1 <1>   0.0800 
 33 H        0.7110     7.4540     0.8160 H     1 <1>   0.1500 
 34 H       -2.2830     4.5290     1.6860 H     1 <1>   0.1500 
 35 H       -0.6580     9.1660     1.8890 H     1 <1>   0.1500 
 36 H       -3.6360     6.2520     2.7690 H     1 <1>   0.1500 
 37 H       -2.8320     8.5740     2.8760 H     1 <1>   0.1500 
 38 H        2.3500     7.5810    -3.3420 H     1 <1>   0.0800 
 39 H        0.6450     7.8800    -3.2620 H     1 <1>   0.0800 
 40 H        3.1790     5.4600    -2.7280 H     1 <1>   0.0800 
 41 H        2.3700     4.4370    -1.5790 H     1 <1>   0.0800 
 42 H        3.1050     5.9290    -1.0430 H     1 <1>   0.0800 
 43 H        4.2930     9.4700     1.2610 H     1 <1>   0.0000 
 44 H        1.6160    10.5710     2.3160 H     1 <1>   0.0000 
 45 H        2.7860     9.4990     3.1660 H     1 <1>   0.0000 
 46 H        4.7440    11.8210     0.8330 H     1 <1>   0.0000 
 47 H        2.9920    12.2050     0.6780 H     1 <1>   0.0000 
 48 H        4.4800    11.2600     3.1950 H     1 <1>   0.0000 
 49 H        3.0610    12.3670     3.1070 H     1 <1>   0.0000 
@<TRIPOS>BOND
  1   1   2  2   
  2   2   3  am  
  3   2   4  1   
  4   3   5  1   
  5   3  28  1   
  6   4   6  1   
  7   4  29  1   
  8   4  30  1   
  9   5   7  1   
 10   5   8  1   
 11   5  31  1   
 12   6   8  1   
 13   7   9  ar  
 14   7  10  ar  
 15   8  11  1   
 16   8  32  1   
 17   9  12  ar  
 18   9  33  1   
 19  10  13  ar  
 20  10  34  1   
 21  11  14  2   
 22  11  15  am  
 23  12  16  ar  
 24  12  35  1   
 25  13  16  ar  
 26  13  36  1   
 27  15  17  1   
 28  15  18  1   
 29  16  37  1   
 30  17  19  1   
 31  17  38  1   
 32  17  39  1   
 33  18  40  1   
 34  18  41  1   
 35  18  42  1   
 36  19  20  2   
 37  19  21  1   
 38  20  22  1   
 39  21  23  2   
 40  22  23  1   
 41  23  24  1   
 42  24  25  1   
 43  24  26  1   
 44  24  43  1   
 45  25  27  1   
 46  25  44  1   
 47  25  45  1   
 48  26  27  1   
 49  26  46  1   
 50  26  47  1   
 51  27  48  1   
 52  27  49  1   
@<TRIPOS>SUBSTRUCTURE
  1 ****   9 GROUP 4 **** **** 0

# MOE 2024.06 (io_trps.svl 2023.06)
