@<TRIPOS>MOLECULE
NONAME
50 53 1 0 0 
SMALL
USER_CHARGES


@<TRIPOS>ATOM
  1 CL       0.7430    -0.0320     0.2400 Cl    1 <1>  -0.1770 
  2 C        0.5650    -1.7660     0.2580 C.ar  1 <1>   0.1770 
  3 C        1.1800    -2.5250    -0.7170 C.ar  1 <1>  -0.1500 
  4 C       -0.1900    -2.3630     1.2480 C.ar  1 <1>  -0.1500 
  5 C        1.0350    -3.9010    -0.6980 C.ar  1 <1>  -0.1500 
  6 C       -0.3280    -3.7400     1.2560 C.ar  1 <1>  -0.1500 
  7 C        0.2780    -4.5500     0.2870 C.ar  1 <1>   0.0000 
  8 C        0.1290    -6.0010     0.3010 C.ar  1 <1>   0.6200 
  9 N       -0.1610    -6.5920     1.4650 N.ar  1 <1>  -0.6200 
 10 N        0.2890    -6.6600    -0.8520 N.ar  1 <1>  -0.6200 
 11 C       -0.2870    -7.8940     1.4680 C.ar  1 <1>   0.1600 
 12 C        0.1570    -7.9610    -0.8290 C.ar  1 <1>   0.1600 
 13 C       -0.1530    -8.6430     0.3230 C.ar  1 <1>  -0.1430 
 14 C       -0.3390   -10.1420     0.3310 C.3   1 <1>   0.4860 
 15 N       -1.6830   -10.5340    -0.2070 N.4   1 <1>  -0.9590 
 16 C       -2.8110   -10.0410     0.6640 C.3   1 <1>   0.4230 
 17 C       -1.6700   -12.0090    -0.4820 C.3   1 <1>   0.2630 
 18 C       -4.0600   -10.9310     0.6520 C.3   1 <1>  -0.1600 
 19 C       -3.3680    -8.7480     0.0630 C.3   1 <1>  -0.1600 
 20 C       -4.7980   -10.6040    -0.6550 C.3   1 <1>  -0.0800 
 21 C       -4.3530    -9.1850    -1.0340 C.3   1 <1>  -0.0800 
 22 C       -6.3280   -10.5650    -0.5190 C.3   1 <1>  -0.1600 
 23 C       -5.6270    -8.3280    -1.1150 C.3   1 <1>  -0.1600 
 24 C       -6.7120    -9.0960    -0.3670 C.3   1 <1>   0.2000 
 25 O       -6.6390    -8.7620     0.9670 O.3   1 <1>  -0.6800 
 26 H        1.7640    -2.0410    -1.4790 H     1 <1>   0.1500 
 27 H       -0.6600    -1.7550     1.9990 H     1 <1>   0.1500 
 28 H        1.5220    -4.4820    -1.4620 H     1 <1>   0.1500 
 29 H       -0.9190    -4.1950     2.0330 H     1 <1>   0.1500 
 30 H       -0.5070    -8.3600     2.4140 H     1 <1>   0.1500 
 31 H        0.2990    -8.4830    -1.7620 H     1 <1>   0.1500 
 32 H       -0.2260   -10.5160     1.3370 H     1 <1>   0.0800 
 33 H        0.4360   -10.5860    -0.2730 H     1 <1>   0.0800 
 34 H       -1.8140   -10.0520    -1.1060 H     1 <1>   0.4500 
 35 H       -2.4670    -9.8900     1.6750 H     1 <1>   0.0800 
 36 H       -1.5890   -12.5630     0.4400 H     1 <1>   0.0800 
 37 H       -0.8370   -12.2680    -1.1150 H     1 <1>   0.0800 
 38 H       -2.5770   -12.3060    -0.9830 H     1 <1>   0.0800 
 39 H       -3.8790   -11.9810     0.7850 H     1 <1>   0.0800 
 40 H       -4.6740   -10.6270     1.4830 H     1 <1>   0.0800 
 41 H       -3.9000    -8.2250     0.8380 H     1 <1>   0.0800 
 42 H       -2.6270    -8.0740    -0.3220 H     1 <1>   0.0800 
 43 H       -4.5170   -11.3010    -1.4260 H     1 <1>   0.0800 
 44 H       -3.8580    -9.1930    -1.9910 H     1 <1>   0.0800 
 45 H       -6.7100   -11.1730     0.2830 H     1 <1>   0.0800 
 46 H       -6.7600   -10.9210    -1.4380 H     1 <1>   0.0800 
 47 H       -5.9260    -8.2640    -2.1470 H     1 <1>   0.0800 
 48 H       -5.5030    -7.3250    -0.7440 H     1 <1>   0.0800 
 49 H       -7.7080    -8.8800    -0.7160 H     1 <1>   0.0800 
 50 H       -5.7230    -8.8400     1.2750 H     1 <1>   0.4000 
@<TRIPOS>BOND
  1   1   2  1   
  2   2   3  ar  
  3   2   4  ar  
  4   3   5  ar  
  5   3  26  1   
  6   4   6  ar  
  7   4  27  1   
  8   5   7  ar  
  9   5  28  1   
 10   6   7  ar  
 11   6  29  1   
 12   7   8  1   
 13   8   9  ar  
 14   8  10  ar  
 15   9  11  ar  
 16  10  12  ar  
 17  11  13  ar  
 18  11  30  1   
 19  12  13  ar  
 20  12  31  1   
 21  13  14  1   
 22  14  15  1   
 23  14  32  1   
 24  14  33  1   
 25  15  16  1   
 26  15  17  1   
 27  15  34  1   
 28  16  18  1   
 29  16  19  1   
 30  16  35  1   
 31  17  36  1   
 32  17  37  1   
 33  17  38  1   
 34  18  20  1   
 35  18  39  1   
 36  18  40  1   
 37  19  21  1   
 38  19  41  1   
 39  19  42  1   
 40  20  21  1   
 41  20  22  1   
 42  20  43  1   
 43  21  23  1   
 44  21  44  1   
 45  22  24  1   
 46  22  45  1   
 47  22  46  1   
 48  23  24  1   
 49  23  47  1   
 50  23  48  1   
 51  24  25  1   
 52  24  49  1   
 53  25  50  1   
@<TRIPOS>SUBSTRUCTURE
  1 ****  11 GROUP 4 **** **** 0

# MOE 2024.06 (io_trps.svl 2023.06)
