@<TRIPOS>MOLECULE
NONAME
55 59 1 0 0 
SMALL
USER_CHARGES


@<TRIPOS>ATOM
  1 O       -1.0950     0.7670    -1.5870 O.2   1 <1>  -0.5700 
  2 C       -1.6610     0.9130    -0.5190 C.2   1 <1>   0.7160 
  3 N       -2.2780    -0.1790     0.0520 N.am  1 <1>  -0.6600 
  4 C       -1.6250     2.1940     0.1100 C.2   1 <1>  -0.0860 
  5 C       -2.3890    -1.4680    -0.6950 C.3   1 <1>   0.3210 
  6 C       -2.8710    -0.1810     1.4290 C.3   1 <1>   0.1400 
  7 C       -2.7260     3.0130     0.3920 C.2   1 <1>   0.3720 
  8 C       -0.5620     2.9140     0.5610 C.2   1 <1>   0.0870 
  9 C       -3.7540    -2.0960    -0.4740 C.2   1 <1>  -0.1810 
 10 C       -4.3750    -0.4800     1.3900 C.3   1 <1>   0.0210 
 11 N       -2.3480     4.0980     0.9730 N.2   1 <1>  -0.4100 
 12 N       -4.0670     2.7020     0.1060 N.pl3 1 <1>  -0.8210 
 13 O       -1.0480     4.0220     1.0590 O.3   1 <1>  -0.0190 
 14 C        0.8630     2.6760     0.5880 C.ar  1 <1>   0.0530 
 15 C       -4.6580    -1.6530     0.4810 C.2   1 <1>   0.1080 
 16 C       -4.3720    -3.1350    -1.0790 C.2   1 <1>  -0.3320 
 17 C       -5.1380     3.6370     0.5590 C.3   1 <1>   0.2090 
 18 C       -4.3680     2.2560    -1.2820 C.3   1 <1>   0.2090 
 19 C        1.4120     1.3950     0.4830 C.ar  1 <1>  -0.1500 
 20 C        1.7590     3.7370     0.7310 C.ar  1 <1>  -0.1500 
 21 N       -5.7530    -2.3450     0.4910 N.2   1 <1>  -0.7070 
 22 N       -5.5750    -3.2640    -0.4770 N.pl3 1 <1>   0.3000 
 23 C       -3.8950    -4.0320    -2.2080 C.3   1 <1>  -0.0600 
 24 C       -5.9690     3.9410    -0.6790 C.3   1 <1>  -0.1600 
 25 C       -5.7910     2.7170    -1.5640 C.3   1 <1>  -0.1600 
 26 C        2.7780     1.1820     0.5150 C.ar  1 <1>  -0.1500 
 27 C        3.1250     3.5340     0.7650 C.ar  1 <1>  -0.1500 
 28 C        3.6490     2.2570     0.6570 C.ar  1 <1>   0.0830 
 29 O        4.9970     2.1390     0.6970 O.3   1 <1>  -0.3620 
 30 C        5.6340     0.8890     0.5610 C.3   1 <1>   0.0400 
 31 H       -1.6270    -2.1420    -0.3450 H     1 <1>   0.0800 
 32 H       -2.2470    -1.3130    -1.7500 H     1 <1>   0.0800 
 33 H       -2.7090     0.7590     1.9260 H     1 <1>   0.0800 
 34 H       -2.3810    -0.9460     2.0060 H     1 <1>   0.0800 
 35 H       -4.9150     0.3740     1.0310 H     1 <1>   0.0800 
 36 H       -4.7270    -0.7010     2.3800 H     1 <1>   0.0800 
 37 H       -4.7530     4.5440     0.9910 H     1 <1>   0.0800 
 38 H       -5.7420     3.1320     1.2930 H     1 <1>   0.0800 
 39 H       -4.2930     1.1840    -1.3670 H     1 <1>   0.0800 
 40 H       -3.6820     2.7210    -1.9710 H     1 <1>   0.0800 
 41 H        0.7670     0.5430     0.3770 H     1 <1>   0.1500 
 42 H        1.3810     4.7420     0.8130 H     1 <1>   0.1500 
 43 H       -6.2940    -3.9620    -0.7020 H     1 <1>   0.2700 
 44 H       -2.9100    -3.7420    -2.5280 H     1 <1>   0.0800 
 45 H       -4.5620    -3.9570    -3.0480 H     1 <1>   0.0800 
 46 H       -3.8590    -5.0550    -1.8790 H     1 <1>   0.0800 
 47 H       -5.5600     4.8090    -1.1660 H     1 <1>   0.0800 
 48 H       -7.0000     4.1270    -0.4340 H     1 <1>   0.0800 
 49 H       -6.4730     1.9410    -1.2620 H     1 <1>   0.0800 
 50 H       -5.9410     2.9330    -2.6060 H     1 <1>   0.0800 
 51 H        3.1460     0.1780     0.4270 H     1 <1>   0.1500 
 52 H        3.7980     4.3650     0.8750 H     1 <1>   0.1500 
 53 H        6.6960     1.0480     0.6110 H     1 <1>   0.0800 
 54 H        5.3720     0.4660    -0.3920 H     1 <1>   0.0800 
 55 H        5.3220     0.2490     1.3670 H     1 <1>   0.0800 
@<TRIPOS>BOND
  1   1   2  2   
  2   2   3  am  
  3   2   4  1   
  4   3   5  1   
  5   3   6  1   
  6   4   7  1   
  7   4   8  2   
  8   5   9  1   
  9   5  31  1   
 10   5  32  1   
 11   6  10  1   
 12   6  33  1   
 13   6  34  1   
 14   7  11  2   
 15   7  12  1   
 16   8  13  1   
 17   8  14  1   
 18   9  15  1   
 19   9  16  2   
 20  10  15  1   
 21  10  35  1   
 22  10  36  1   
 23  11  13  1   
 24  12  17  1   
 25  12  18  1   
 26  14  19  ar  
 27  14  20  ar  
 28  15  21  2   
 29  16  22  1   
 30  16  23  1   
 31  17  24  1   
 32  17  37  1   
 33  17  38  1   
 34  18  25  1   
 35  18  39  1   
 36  18  40  1   
 37  19  26  ar  
 38  19  41  1   
 39  20  27  ar  
 40  20  42  1   
 41  21  22  1   
 42  22  43  1   
 43  23  44  1   
 44  23  45  1   
 45  23  46  1   
 46  24  25  1   
 47  24  47  1   
 48  24  48  1   
 49  25  49  1   
 50  25  50  1   
 51  26  28  ar  
 52  26  51  1   
 53  27  28  ar  
 54  27  52  1   
 55  28  29  1   
 56  29  30  1   
 57  30  53  1   
 58  30  54  1   
 59  30  55  1   
@<TRIPOS>SUBSTRUCTURE
  1 ****   2 GROUP 4 **** **** 0

# MOE 2024.06 (io_trps.svl 2023.06)
