@<TRIPOS>MOLECULE
NONAME
45 48 1 0 0 
SMALL
USER_CHARGES


@<TRIPOS>ATOM
  1 S       -0.0390    -0.9230     0.6000 S.o2  1 <1>   1.4470 
  2 O       -1.0280    -0.7240     1.6420 O.2   1 <1>  -0.6500 
  3 O        0.6190    -2.2060     0.5290 O.2   1 <1>  -0.6500 
  4 N       -0.9000    -0.7650    -0.8610 N.am  1 <1>  -0.8490 
  5 C        1.1580     0.4370     0.5460 C.ar  1 <1>  -0.0090 
  6 C       -2.0200     0.2070    -0.8130 C.3   1 <1>   0.1960 
  7 C       -1.3690    -2.0520    -1.4120 C.3   1 <1>   0.1960 
  8 C        1.1120     1.4700     1.4760 C.ar  1 <1>  -0.1500 
  9 C        2.1420     0.4870    -0.4390 C.ar  1 <1>  -0.1500 
 10 C       -3.3670    -0.3680    -0.2670 C.3   1 <1>   0.4230 
 11 C       -2.4690    -2.7160    -0.5440 C.3   1 <1>   0.3430 
 12 C        2.0250     2.5030     1.3950 C.ar  1 <1>   0.1900 
 13 C        3.0550     1.5290    -0.5070 C.ar  1 <1>  -0.1500 
 14 N       -3.2120    -1.7420     0.3440 N.4   1 <1>  -0.9590 
 15 C       -4.4680    -0.3870    -1.3520 C.3   1 <1>   0.1200 
 16 F        1.9600     3.4650     2.2730 F     1 <1>  -0.1900 
 17 C        2.9990     2.5550     0.4190 C.ar  1 <1>  -0.1500 
 18 C       -4.5270    -2.2430     0.8500 C.3   1 <1>   0.5180 
 19 O       -5.6660    -0.8800    -0.8190 O.3   1 <1>  -0.5600 
 20 C       -4.3360    -3.6430     1.4680 C.3   1 <1>  -0.1950 
 21 C       -5.6000    -2.1700    -0.2670 C.3   1 <1>   0.1200 
 22 C       -4.4000    -4.9360     0.7070 C.3   1 <1>  -0.2000 
 23 C       -5.4720    -4.5920     1.7030 C.3   1 <1>  -0.2000 
 24 H       -1.7350     1.0550    -0.2120 H     1 <1>   0.0800 
 25 H       -2.1800     0.5900    -1.8070 H     1 <1>   0.0800 
 26 H       -1.7670    -1.8810    -2.3980 H     1 <1>   0.0800 
 27 H       -0.5440    -2.7340    -1.5360 H     1 <1>   0.0800 
 28 H        0.3780     1.4780     2.2630 H     1 <1>   0.1500 
 29 H        2.1990    -0.3060    -1.1670 H     1 <1>   0.1500 
 30 H       -3.7090     0.3110     0.4970 H     1 <1>   0.0800 
 31 H       -2.0070    -3.4700     0.0730 H     1 <1>   0.0800 
 32 H       -3.1590    -3.2220    -1.1980 H     1 <1>   0.0800 
 33 H        3.8070     1.5410    -1.2790 H     1 <1>   0.1500 
 34 H       -2.5980    -1.5880     1.1680 H     1 <1>   0.4500 
 35 H       -4.1870    -0.9980    -2.1920 H     1 <1>   0.0800 
 36 H       -4.6610     0.6110    -1.7040 H     1 <1>   0.0800 
 37 H        3.6940     3.3760     0.3890 H     1 <1>   0.1500 
 38 H       -4.8600    -1.5900     1.6400 H     1 <1>   0.0800 
 39 H       -3.6310    -3.5940     2.2810 H     1 <1>   0.1000 
 40 H       -6.5700    -2.3920     0.1400 H     1 <1>   0.0800 
 41 H       -5.3950    -2.8690    -1.0570 H     1 <1>   0.0800 
 42 H       -4.6940    -4.9780    -0.3270 H     1 <1>   0.1000 
 43 H       -3.7170    -5.7300     0.9640 H     1 <1>   0.1000 
 44 H       -5.5030    -5.1450     2.6280 H     1 <1>   0.1000 
 45 H       -6.4610    -4.3910     1.3260 H     1 <1>   0.1000 
@<TRIPOS>BOND
  1   1   2  2   
  2   1   3  2   
  3   1   4  am  
  4   1   5  1   
  5   4   6  1   
  6   4   7  1   
  7   5   8  ar  
  8   5   9  ar  
  9   6  10  1   
 10   6  24  1   
 11   6  25  1   
 12   7  11  1   
 13   7  26  1   
 14   7  27  1   
 15   8  12  ar  
 16   8  28  1   
 17   9  13  ar  
 18   9  29  1   
 19  10  14  1   
 20  10  15  1   
 21  10  30  1   
 22  11  14  1   
 23  11  31  1   
 24  11  32  1   
 25  12  16  1   
 26  12  17  ar  
 27  13  17  ar  
 28  13  33  1   
 29  14  18  1   
 30  14  34  1   
 31  15  19  1   
 32  15  35  1   
 33  15  36  1   
 34  17  37  1   
 35  18  20  1   
 36  18  21  1   
 37  18  38  1   
 38  19  21  1   
 39  20  22  1   
 40  20  23  1   
 41  20  39  1   
 42  21  40  1   
 43  21  41  1   
 44  22  23  1   
 45  22  42  1   
 46  22  43  1   
 47  23  44  1   
 48  23  45  1   
@<TRIPOS>SUBSTRUCTURE
  1 ****   4 GROUP 4 **** **** 0

# MOE 2024.06 (io_trps.svl 2023.06)
