@<TRIPOS>MOLECULE
NONAME
47 49 1 0 0 
SMALL
USER_CHARGES


@<TRIPOS>ATOM
  1 O       -0.6320    -2.9110     1.5750 O.co2 1 <1>  -0.9000 
  2 C       -0.6390    -2.3060     0.4900 C.2   1 <1>   1.0330 
  3 O       -1.4750    -1.3990     0.3190 O.co2 1 <1>  -0.9000 
  4 C        0.2840    -2.6390    -0.5380 C.2   1 <1>  -0.2330 
  5 C        0.0960    -3.5840    -1.5480 C.2   1 <1>   0.3720 
  6 C        1.5410    -2.1760    -0.7540 C.2   1 <1>   0.0870 
  7 N        1.1540    -3.6930    -2.2740 N.2   1 <1>  -0.4100 
  8 N       -1.0360    -4.3660    -1.8010 N.pl3 1 <1>  -0.8210 
  9 O        2.0110    -2.8350    -1.7870 O.3   1 <1>  -0.0190 
 10 C        2.3560    -1.1820    -0.0930 C.ar  1 <1>   0.0530 
 11 C       -2.3980    -3.7460    -1.6890 C.3   1 <1>   0.2090 
 12 C       -0.9540    -5.7790    -1.3330 C.3   1 <1>   0.2090 
 13 C        1.8010    -0.1650     0.6840 C.ar  1 <1>  -0.1500 
 14 C        3.7470    -1.2010    -0.2160 C.ar  1 <1>  -0.1500 
 15 C       -3.1880    -4.1610    -0.4250 C.3   1 <1>   0.1100 
 16 C       -1.7420    -6.0180    -0.0340 C.3   1 <1>   0.1100 
 17 C        2.5910     0.7820     1.3100 C.ar  1 <1>  -0.1500 
 18 C        4.5440    -0.2570     0.4050 C.ar  1 <1>  -0.1500 
 19 N       -3.1590    -5.6190    -0.1740 N.3   1 <1>  -0.8100 
 20 C        3.9670     0.7390     1.1720 C.ar  1 <1>  -0.1500 
 21 C       -3.8950    -5.9300     1.0840 C.3   1 <1>   0.1710 
 22 C       -4.1070    -7.4280     1.3840 C.2   1 <1>   0.5690 
 23 O       -3.7010    -7.8460     2.4460 O.2   1 <1>  -0.5700 
 24 N       -4.7490    -8.2600     0.4890 N.am  1 <1>  -0.6600 
 25 C       -5.2060    -7.8100    -0.8540 C.3   1 <1>   0.0600 
 26 C       -4.9220    -9.7150     0.7510 C.3   1 <1>   0.0600 
 27 H       -2.9670    -4.0390    -2.5510 H     1 <1>   0.0800 
 28 H       -2.3120    -2.6740    -1.7160 H     1 <1>   0.0800 
 29 H        0.0770    -6.0440    -1.1720 H     1 <1>   0.0800 
 30 H       -1.3430    -6.4210    -2.1030 H     1 <1>   0.0800 
 31 H        0.7320    -0.1080     0.8010 H     1 <1>   0.1500 
 32 H        4.2080    -1.9730    -0.8060 H     1 <1>   0.1500 
 33 H       -4.2060    -3.8390    -0.5460 H     1 <1>   0.0800 
 34 H       -2.7950    -3.6420     0.4300 H     1 <1>   0.0800 
 35 H       -1.2760    -5.4590     0.7620 H     1 <1>   0.0800 
 36 H       -1.6830    -7.0630     0.2140 H     1 <1>   0.0800 
 37 H        2.1290     1.5500     1.9040 H     1 <1>   0.1500 
 38 H        5.6130    -0.2980     0.2930 H     1 <1>   0.1500 
 39 H        4.5810     1.4750     1.6590 H     1 <1>   0.1500 
 40 H       -4.8680    -5.4760     1.0410 H     1 <1>   0.0800 
 41 H       -3.3740    -5.4880     1.9170 H     1 <1>   0.0800 
 42 H       -5.5350    -6.7870    -0.8200 H     1 <1>   0.0800 
 43 H       -6.0250    -8.4200    -1.1940 H     1 <1>   0.0800 
 44 H       -4.3910    -7.8870    -1.5530 H     1 <1>   0.0800 
 45 H       -4.5450    -9.9780     1.7250 H     1 <1>   0.0800 
 46 H       -4.3860   -10.2820     0.0110 H     1 <1>   0.0800 
 47 H       -5.9660    -9.9700     0.7090 H     1 <1>   0.0800 
@<TRIPOS>BOND
  1   1   2  ar  
  2   2   3  ar  
  3   2   4  1   
  4   4   5  1   
  5   4   6  2   
  6   5   7  2   
  7   5   8  1   
  8   6   9  1   
  9   6  10  1   
 10   7   9  1   
 11   8  11  1   
 12   8  12  1   
 13  10  13  ar  
 14  10  14  ar  
 15  11  15  1   
 16  11  27  1   
 17  11  28  1   
 18  12  16  1   
 19  12  29  1   
 20  12  30  1   
 21  13  17  ar  
 22  13  31  1   
 23  14  18  ar  
 24  14  32  1   
 25  15  19  1   
 26  15  33  1   
 27  15  34  1   
 28  16  19  1   
 29  16  35  1   
 30  16  36  1   
 31  17  20  ar  
 32  17  37  1   
 33  18  20  ar  
 34  18  38  1   
 35  19  21  1   
 36  20  39  1   
 37  21  22  1   
 38  21  40  1   
 39  21  41  1   
 40  22  23  2   
 41  22  24  am  
 42  24  25  1   
 43  24  26  1   
 44  25  42  1   
 45  25  43  1   
 46  25  44  1   
 47  26  45  1   
 48  26  46  1   
 49  26  47  1   
@<TRIPOS>SUBSTRUCTURE
  1 ****   4 GROUP 4 **** **** 0

# MOE 2024.06 (io_trps.svl 2023.06)
