@<TRIPOS>MOLECULE
NONAME
58 60 1 0 0 
SMALL
USER_CHARGES


@<TRIPOS>ATOM
  1 O       -1.7010     0.4350     1.7550 O.2   1 <1>  -0.5700 
  2 C       -1.8420     0.8710     0.6270 C.2   1 <1>   0.7160 
  3 N       -2.2990     0.0430    -0.3710 N.am  1 <1>  -0.6600 
  4 C       -1.5470     2.2600     0.3400 C.2   1 <1>  -0.0860 
  5 C       -2.4350    -1.4350    -0.1420 C.3   1 <1>   0.3640 
  6 C       -2.8230     0.6120    -1.6490 C.3   1 <1>   0.1400 
  7 C       -2.2570     3.3800     0.7000 C.2   1 <1>  -0.3320 
  8 C       -0.4510     2.7400    -0.3960 C.2   1 <1>  -0.1810 
  9 C       -1.1450    -2.1680    -0.5360 C.ar  1 <1>  -0.1430 
 10 C       -3.6600    -2.0830    -0.8630 C.3   1 <1>   0.2000 
 11 C       -3.4730    -0.4480    -2.5470 C.3   1 <1>   0.1200 
 12 N       -1.6520     4.4790     0.2140 N.pl3 1 <1>   0.0330 
 13 C       -3.5300     3.4400     1.5250 C.3   1 <1>  -0.0600 
 14 C       -0.5310     4.1080    -0.4810 C.2   1 <1>  -0.2370 
 15 C        0.6430     1.8520    -0.9710 C.3   1 <1>  -0.0590 
 16 C       -0.8020    -3.3150     0.1670 C.ar  1 <1>  -0.1500 
 17 C       -0.3120    -1.7460    -1.5670 C.ar  1 <1>  -0.1500 
 18 O       -4.3180    -1.2410    -1.7800 O.3   1 <1>  -0.5600 
 19 C       -4.7230    -2.5590     0.1360 C.3   1 <1>   0.1200 
 20 C        0.3300     5.0510    -1.1430 C.2   1 <1>   0.5940 
 21 C        0.3360    -4.0370    -0.1490 C.ar  1 <1>   0.0830 
 22 C        0.8390    -2.4490    -1.8790 C.ar  1 <1>  -0.1500 
 23 O       -4.2380    -3.6220     0.8930 O.3   1 <1>  -0.6800 
 24 O        1.2220     4.7390    -1.8890 O.2   1 <1>  -0.5700 
 25 C        0.1160     6.5330    -0.9160 C.3   1 <1>  -0.1790 
 26 O        0.5720    -5.1700     0.5600 O.3   1 <1>  -0.3630 
 27 C        1.1800    -3.5850    -1.1670 C.ar  1 <1>   0.0830 
 28 C        0.5600    -6.3820    -0.1610 C.3   1 <1>   0.0400 
 29 O        2.3400    -4.2050    -1.4950 O.3   1 <1>  -0.3630 
 30 C        3.3590    -4.1660    -0.5200 C.3   1 <1>   0.0400 
 31 H       -2.5650    -1.6010     0.9140 H     1 <1>   0.0800 
 32 H       -3.5590     1.3620    -1.4180 H     1 <1>   0.0800 
 33 H       -2.0250     1.0930    -2.1860 H     1 <1>   0.0800 
 34 H       -3.3260    -2.9380    -1.4250 H     1 <1>   0.0800 
 35 H       -2.7360    -1.0740    -3.0200 H     1 <1>   0.0800 
 36 H       -4.0640     0.0260    -3.3110 H     1 <1>   0.0800 
 37 H       -1.9770     5.4430     0.3470 H     1 <1>   0.2700 
 38 H       -3.8300     2.4520     1.8280 H     1 <1>   0.0800 
 39 H       -4.3270     3.8780     0.9520 H     1 <1>   0.0800 
 40 H       -3.3690     4.0270     2.4120 H     1 <1>   0.0800 
 41 H        0.7300     0.9420    -0.4050 H     1 <1>   0.0800 
 42 H        1.5910     2.3570    -0.9340 H     1 <1>   0.0800 
 43 H        0.4220     1.6120    -1.9940 H     1 <1>   0.0800 
 44 H       -1.4230    -3.6660     0.9740 H     1 <1>   0.1500 
 45 H       -0.5410    -0.8630    -2.1320 H     1 <1>   0.1500 
 46 H       -5.6060    -2.8930    -0.3810 H     1 <1>   0.0800 
 47 H       -4.9810    -1.7610     0.8110 H     1 <1>   0.0800 
 48 H        1.4840    -2.1140    -2.6710 H     1 <1>   0.1500 
 49 H       -4.2040    -4.4420     0.3610 H     1 <1>   0.4000 
 50 H        0.1100     6.7470     0.1360 H     1 <1>   0.0800 
 51 H       -0.8140     6.8380    -1.3590 H     1 <1>   0.0800 
 52 H        0.9140     7.0880    -1.3740 H     1 <1>   0.0800 
 53 H        0.6180    -7.1920     0.5440 H     1 <1>   0.0800 
 54 H        1.4060    -6.4140    -0.8230 H     1 <1>   0.0800 
 55 H       -0.3560    -6.4450    -0.7210 H     1 <1>   0.0800 
 56 H        4.2440    -4.6090    -0.9390 H     1 <1>   0.0800 
 57 H        3.0460    -4.7200     0.3460 H     1 <1>   0.0800 
 58 H        3.5480    -3.1400    -0.2570 H     1 <1>   0.0800 
@<TRIPOS>BOND
  1   1   2  2   
  2   2   3  am  
  3   2   4  1   
  4   3   5  1   
  5   3   6  1   
  6   4   7  2   
  7   4   8  1   
  8   5   9  1   
  9   5  10  1   
 10   5  31  1   
 11   6  11  1   
 12   6  32  1   
 13   6  33  1   
 14   7  12  1   
 15   7  13  1   
 16   8  14  2   
 17   8  15  1   
 18   9  16  ar  
 19   9  17  ar  
 20  10  18  1   
 21  10  19  1   
 22  10  34  1   
 23  11  18  1   
 24  11  35  1   
 25  11  36  1   
 26  12  14  1   
 27  12  37  1   
 28  13  38  1   
 29  13  39  1   
 30  13  40  1   
 31  14  20  1   
 32  15  41  1   
 33  15  42  1   
 34  15  43  1   
 35  16  21  ar  
 36  16  44  1   
 37  17  22  ar  
 38  17  45  1   
 39  19  23  1   
 40  19  46  1   
 41  19  47  1   
 42  20  24  2   
 43  20  25  1   
 44  21  26  1   
 45  21  27  ar  
 46  22  27  ar  
 47  22  48  1   
 48  23  49  1   
 49  25  50  1   
 50  25  51  1   
 51  25  52  1   
 52  26  28  1   
 53  27  29  1   
 54  28  53  1   
 55  28  54  1   
 56  28  55  1   
 57  29  30  1   
 58  30  56  1   
 59  30  57  1   
 60  30  58  1   
@<TRIPOS>SUBSTRUCTURE
  1 ****   3 GROUP 4 **** **** 0

# MOE 2024.06 (io_trps.svl 2023.06)
