@<TRIPOS>MOLECULE
NONAME
49 53 1 0 0 
SMALL
USER_CHARGES


@<TRIPOS>ATOM
  1 S        0.0450     0.2450    -0.3910 S.3   1 <1>  -0.0800 
  2 C       -0.9570     1.6140     0.0840 C.2   1 <1>   0.4620 
  3 C        1.4660     1.1590     0.0260 C.2   1 <1>  -0.1100 
  4 N       -0.2750     2.6210     0.5030 N.2   1 <1>  -0.5650 
  5 N       -2.3270     1.5190    -0.0150 N.pl3 1 <1>  -0.8220 
  6 C        1.0860     2.3670     0.4730 C.2   1 <1>   0.0460 
  7 C       -3.2040     2.6370     0.4470 C.3   1 <1>   0.2090 
  8 C       -3.0170     0.3910    -0.7080 C.3   1 <1>   0.2090 
  9 C        2.0020     3.4850     0.9500 C.3   1 <1>   0.3010 
 10 C       -3.9590     3.2720    -0.7420 C.3   1 <1>   0.1440 
 11 C       -4.4290     0.7880    -1.1730 C.3   1 <1>  -0.1600 
 12 O        3.2790     2.9970     1.1990 O.3   1 <1>  -0.6800 
 13 C       -5.1040     4.0860    -0.1650 C.ar  1 <1>   0.1670 
 14 C       -4.4390     2.2060    -1.7670 C.3   1 <1>  -0.1600 
 15 C       -3.1000     4.3660    -1.4290 C.3   1 <1>  -0.1600 
 16 N       -6.2200     3.5940     0.3180 N.ar  1 <1>  -0.6200 
 17 C       -4.8340     5.4190    -0.1870 C.ar  1 <1>  -0.1440 
 18 C       -3.4750     5.7070    -0.7760 C.3   1 <1>  -0.0170 
 19 C       -7.1020     4.4890     0.7830 C.ar  1 <1>   0.6200 
 20 C       -5.7850     6.2720     0.3090 C.ar  1 <1>   0.1600 
 21 N       -6.9190     5.8180     0.7930 N.ar  1 <1>  -0.6200 
 22 C       -8.3560     3.9770     1.3200 C.ar  1 <1>   0.0000 
 23 C       -9.5300     4.7350     1.2910 C.ar  1 <1>  -0.1500 
 24 C       -8.4450     2.7020     1.8880 C.ar  1 <1>  -0.1500 
 25 C      -10.7230     4.2520     1.7990 C.ar  1 <1>  -0.1500 
 26 C       -9.6330     2.2120     2.3970 C.ar  1 <1>  -0.1500 
 27 C      -10.7770     2.9870     2.3540 C.ar  1 <1>  -0.1500 
 28 H        2.4260     0.6960    -0.1110 H     1 <1>   0.1500 
 29 H       -2.6340     3.3860     0.9670 H     1 <1>   0.0800 
 30 H       -3.9160     2.2360     1.1490 H     1 <1>   0.0800 
 31 H       -3.0730    -0.4570    -0.0450 H     1 <1>   0.0800 
 32 H       -2.4410     0.1080    -1.5720 H     1 <1>   0.0800 
 33 H        1.6230     3.9080     1.8640 H     1 <1>   0.0800 
 34 H        2.0710     4.2560     0.2040 H     1 <1>   0.0800 
 35 H       -5.1080     0.7400    -0.3390 H     1 <1>   0.0800 
 36 H       -4.7710     0.0800    -1.9060 H     1 <1>   0.0800 
 37 H        3.2250     2.2810     1.8600 H     1 <1>   0.4000 
 38 H       -3.7800     2.2010    -2.6180 H     1 <1>   0.0800 
 39 H       -5.4250     2.4510    -2.1220 H     1 <1>   0.0800 
 40 H       -3.3580     4.4270    -2.4720 H     1 <1>   0.0800 
 41 H       -2.0460     4.1600    -1.3520 H     1 <1>   0.0800 
 42 H       -3.5100     6.5040    -1.4980 H     1 <1>   0.0800 
 43 H       -2.7820     5.9520     0.0110 H     1 <1>   0.0800 
 44 H       -5.6160     7.3350     0.3120 H     1 <1>   0.1500 
 45 H       -9.5080     5.7220     0.8630 H     1 <1>   0.1500 
 46 H       -7.5650     2.0840     1.9320 H     1 <1>   0.1500 
 47 H      -11.6090     4.8610     1.7610 H     1 <1>   0.1500 
 48 H       -9.6680     1.2260     2.8280 H     1 <1>   0.1500 
 49 H      -11.7040     2.6090     2.7490 H     1 <1>   0.1500 
@<TRIPOS>BOND
  1   1   2  1   
  2   1   3  1   
  3   2   4  2   
  4   2   5  1   
  5   3   6  2   
  6   3  28  1   
  7   4   6  1   
  8   5   7  1   
  9   5   8  1   
 10   6   9  1   
 11   7  10  1   
 12   7  29  1   
 13   7  30  1   
 14   8  11  1   
 15   8  31  1   
 16   8  32  1   
 17   9  12  1   
 18   9  33  1   
 19   9  34  1   
 20  10  13  1   
 21  10  14  1   
 22  10  15  1   
 23  11  14  1   
 24  11  35  1   
 25  11  36  1   
 26  12  37  1   
 27  13  16  ar  
 28  13  17  ar  
 29  14  38  1   
 30  14  39  1   
 31  15  18  1   
 32  15  40  1   
 33  15  41  1   
 34  16  19  ar  
 35  17  18  1   
 36  17  20  ar  
 37  18  42  1   
 38  18  43  1   
 39  19  21  ar  
 40  19  22  1   
 41  20  21  ar  
 42  20  44  1   
 43  22  23  ar  
 44  22  24  ar  
 45  23  25  ar  
 46  23  45  1   
 47  24  26  ar  
 48  24  46  1   
 49  25  27  ar  
 50  25  47  1   
 51  26  27  ar  
 52  26  48  1   
 53  27  49  1   
@<TRIPOS>SUBSTRUCTURE
  1 ****  10 GROUP 4 **** **** 0

# MOE 2024.06 (io_trps.svl 2023.06)
