@<TRIPOS>MOLECULE
NONAME
37 38 1 0 0 
SMALL
USER_CHARGES


@<TRIPOS>ATOM
  1 O        0.1050    -0.1480     0.3080 O.2   1 <1>  -0.5700 
  2 C        1.1660    -0.6170    -0.0600 C.2   1 <1>   0.7150 
  3 N        2.2160     0.2110    -0.3730 N.am  1 <1>  -0.4940 
  4 C        1.3630    -2.0430    -0.1750 C.2   1 <1>   0.0550 
  5 C        2.3890     1.6150    -0.3070 C.2   1 <1>  -0.0880 
  6 O        2.5400    -2.5090    -0.5810 O.3   1 <1>  -0.2800 
  7 C        0.5450    -3.0930     0.0610 C.2   1 <1>   0.0460 
  8 N        1.4660     2.5910    -0.5380 N.pl3 1 <1>   0.3140 
  9 C        3.5500     2.2520    -0.0230 C.2   1 <1>  -0.1810 
 10 C        2.3420    -3.8100    -0.5620 C.2   1 <1>   0.2980 
 11 N        1.1890    -4.2250    -0.1940 N.2   1 <1>  -0.5650 
 12 C       -0.8930    -3.1560     0.5390 C.3   1 <1>  -0.0590 
 13 N        2.0100     3.8210    -0.4120 N.2   1 <1>  -0.7070 
 14 C        0.0700     2.4610    -0.9760 C.3   1 <1>   0.0160 
 15 C        3.2480     3.6090    -0.1040 C.2   1 <1>   0.1080 
 16 C        4.8960     1.6360     0.3190 C.3   1 <1>   0.0210 
 17 C        3.4850    -4.7060    -0.9750 C.3   1 <1>  -0.0600 
 18 C        4.2130     4.7480     0.1320 C.3   1 <1>  -0.0590 
 19 C        5.7170     1.4020    -0.9510 C.3   1 <1>  -0.2400 
 20 H        3.0670    -0.3110    -0.5830 H     1 <1>   0.3700 
 21 H       -1.2960    -2.1770     0.7150 H     1 <1>   0.0800 
 22 H       -0.9410    -3.7170     1.4540 H     1 <1>   0.0800 
 23 H       -1.4950    -3.6510    -0.2000 H     1 <1>   0.0800 
 24 H       -0.0180     1.6280    -1.6470 H     1 <1>   0.0800 
 25 H       -0.2270     3.3620    -1.4790 H     1 <1>   0.0800 
 26 H       -0.5520     2.3080    -0.1150 H     1 <1>   0.0800 
 27 H        4.7440     0.7010     0.8290 H     1 <1>   0.0800 
 28 H        5.4330     2.2860     0.9870 H     1 <1>   0.0800 
 29 H        3.7710    -4.4850    -1.9860 H     1 <1>   0.0800 
 30 H        3.1820    -5.7360    -0.9140 H     1 <1>   0.0800 
 31 H        4.3230    -4.5470    -0.3240 H     1 <1>   0.0800 
 32 H        5.1440     4.5560    -0.3660 H     1 <1>   0.0800 
 33 H        4.3860     4.8610     1.1860 H     1 <1>   0.0800 
 34 H        3.7970     5.6620    -0.2510 H     1 <1>   0.0800 
 35 H        5.1910     0.7420    -1.6180 H     1 <1>   0.0800 
 36 H        6.6670     0.9640    -0.7040 H     1 <1>   0.0800 
 37 H        5.8880     2.3350    -1.4590 H     1 <1>   0.0800 
@<TRIPOS>BOND
  1   1   2  2   
  2   2   3  am  
  3   2   4  1   
  4   3   5  1   
  5   3  20  1   
  6   4   6  1   
  7   4   7  2   
  8   5   8  1   
  9   5   9  2   
 10   6  10  1   
 11   7  11  1   
 12   7  12  1   
 13   8  13  1   
 14   8  14  1   
 15   9  15  1   
 16   9  16  1   
 17  10  11  2   
 18  10  17  1   
 19  12  21  1   
 20  12  22  1   
 21  12  23  1   
 22  13  15  2   
 23  14  24  1   
 24  14  25  1   
 25  14  26  1   
 26  15  18  1   
 27  16  19  1   
 28  16  27  1   
 29  16  28  1   
 30  17  29  1   
 31  17  30  1   
 32  17  31  1   
 33  18  32  1   
 34  18  33  1   
 35  18  34  1   
 36  19  35  1   
 37  19  36  1   
 38  19  37  1   
@<TRIPOS>SUBSTRUCTURE
  1 ****   3 GROUP 4 **** **** 0

# MOE 2024.06 (io_trps.svl 2023.06)
