@<TRIPOS>MOLECULE
NONAME
42 43 1 0 0 
SMALL
USER_CHARGES


@<TRIPOS>ATOM
  1 O        0.1840    -0.0270     0.5380 O.2   1 <1>  -0.5700 
  2 C        1.2710     0.5140     0.4100 C.2   1 <1>   0.5440 
  3 N        1.4960     1.7000     1.0540 N.am  1 <1>  -0.7300 
  4 C        2.2970    -0.0840    -0.4120 C.ar  1 <1>   0.0860 
  5 C        0.5180     2.4290     1.9040 C.3   1 <1>   0.0600 
  6 C        2.5130    -1.4760    -0.3970 C.ar  1 <1>   0.4100 
  7 C        3.0770     0.6800    -1.2690 C.ar  1 <1>  -0.1500 
  8 N        3.3620    -2.1050    -1.2020 N.ar  1 <1>  -0.6200 
  9 N        1.8170    -2.2810     0.4750 N.pl3 1 <1>  -0.8690 
 10 C        3.9900     0.0320    -2.0700 C.ar  1 <1>  -0.1500 
 11 C        4.0870    -1.3470    -2.0020 C.ar  1 <1>   0.1600 
 12 C        1.5830    -3.7370     0.3110 C.3   1 <1>   0.2890 
 13 C        0.0870    -4.1000     0.1800 C.3   1 <1>   0.4230 
 14 C        2.0420    -4.4950     1.5490 C.3   1 <1>  -0.1600 
 15 N       -0.5370    -3.8640    -1.1720 N.4   1 <1>  -0.9590 
 16 C        0.0430    -5.5740     0.5860 C.3   1 <1>  -0.1600 
 17 C        1.1820    -5.7660     1.6000 C.3   1 <1>  -0.1600 
 18 C       -0.4440    -2.4200    -1.5650 C.3   1 <1>   0.2630 
 19 C       -1.9660    -4.3010    -1.2160 C.3   1 <1>   0.2630 
 20 H        2.4350     2.1040     1.0290 H     1 <1>   0.3700 
 21 H       -0.4500     1.9570     1.8610 H     1 <1>   0.0800 
 22 H        0.4210     3.4440     1.5600 H     1 <1>   0.0800 
 23 H        0.8550     2.4320     2.9270 H     1 <1>   0.0800 
 24 H        2.9640     1.7500    -1.3180 H     1 <1>   0.1500 
 25 H        1.1530    -1.7840     1.0870 H     1 <1>   0.4000 
 26 H        4.6190     0.5820    -2.7470 H     1 <1>   0.1500 
 27 H        4.7980    -1.8460    -2.6390 H     1 <1>   0.1500 
 28 H        2.1140    -4.1270    -0.5410 H     1 <1>   0.0800 
 29 H       -0.4460    -3.5340     0.9270 H     1 <1>   0.0800 
 30 H        3.0910    -4.7260     1.4890 H     1 <1>   0.0800 
 31 H        1.8610    -3.9050     2.4320 H     1 <1>   0.0800 
 32 H        0.0070    -4.4070    -1.8580 H     1 <1>   0.4500 
 33 H       -0.9040    -5.8330     1.0270 H     1 <1>   0.0800 
 34 H        0.2310    -6.2020    -0.2670 H     1 <1>   0.0800 
 35 H        0.7940    -5.9090     2.5950 H     1 <1>   0.0800 
 36 H        1.7710    -6.6310     1.3390 H     1 <1>   0.0800 
 37 H       -0.8570    -1.7900    -0.7930 H     1 <1>   0.0800 
 38 H       -0.9810    -2.2430    -2.4820 H     1 <1>   0.0800 
 39 H        0.5840    -2.1410    -1.7190 H     1 <1>   0.0800 
 40 H       -2.5460    -3.7510    -0.4930 H     1 <1>   0.0800 
 41 H       -2.0460    -5.3530    -0.9970 H     1 <1>   0.0800 
 42 H       -2.3800    -4.1240    -2.1960 H     1 <1>   0.0800 
@<TRIPOS>BOND
  1   1   2  2   
  2   2   3  am  
  3   2   4  1   
  4   3   5  1   
  5   3  20  1   
  6   4   6  ar  
  7   4   7  ar  
  8   5  21  1   
  9   5  22  1   
 10   5  23  1   
 11   6   8  ar  
 12   6   9  1   
 13   7  10  ar  
 14   7  24  1   
 15   8  11  ar  
 16   9  12  1   
 17   9  25  1   
 18  10  11  ar  
 19  10  26  1   
 20  11  27  1   
 21  12  13  1   
 22  12  14  1   
 23  12  28  1   
 24  13  15  1   
 25  13  16  1   
 26  13  29  1   
 27  14  17  1   
 28  14  30  1   
 29  14  31  1   
 30  15  18  1   
 31  15  19  1   
 32  15  32  1   
 33  16  17  1   
 34  16  33  1   
 35  16  34  1   
 36  17  35  1   
 37  17  36  1   
 38  18  37  1   
 39  18  38  1   
 40  18  39  1   
 41  19  40  1   
 42  19  41  1   
 43  19  42  1   
@<TRIPOS>SUBSTRUCTURE
  1 ****   9 GROUP 4 **** **** 0

# MOE 2024.06 (io_trps.svl 2023.06)
