@<TRIPOS>MOLECULE
NONAME
52 54 1 0 0 
SMALL
USER_CHARGES


@<TRIPOS>ATOM
  1 O       -0.5000     0.2650     0.9750 O.2   1 <1>  -0.5700 
  2 C       -1.5150     0.8540     0.6560 C.2   1 <1>   0.5440 
  3 N       -2.6210     0.1170     0.2990 N.am  1 <1>  -0.6600 
  4 C       -1.5390     2.3020     0.6480 C.ar  1 <1>   0.0860 
  5 C       -3.7860     0.6480    -0.4510 C.3   1 <1>   0.1400 
  6 C       -2.6060    -1.3660     0.2620 C.3   1 <1>   0.1400 
  7 C       -0.6110     3.0290    -0.0910 C.ar  1 <1>  -0.1500 
  8 C       -2.4850     3.0220     1.3760 C.ar  1 <1>  -0.1500 
  9 C       -4.4590    -0.5830    -1.0600 C.3   1 <1>   0.2000 
 10 C       -4.0070    -1.7650    -0.2050 C.3   1 <1>  -0.0800 
 11 C       -0.6200     4.4120    -0.1270 C.ar  1 <1>   0.0830 
 12 C       -2.5180     4.4040     1.3500 C.ar  1 <1>  -0.1500 
 13 O       -5.8410    -0.4790    -1.0290 O.3   1 <1>  -0.6800 
 14 C       -4.0640    -3.1010    -0.9640 C.3   1 <1>  -0.0170 
 15 O        0.3520     4.9760    -0.8960 O.3   1 <1>  -0.3630 
 16 C       -1.5940     5.1230     0.5920 C.ar  1 <1>   0.0830 
 17 C       -3.6580    -4.2690    -0.0800 C.ar  1 <1>   0.1670 
 18 C        0.9820     6.1720    -0.4960 C.3   1 <1>   0.1200 
 19 O       -1.6300     6.4810     0.5260 O.3   1 <1>  -0.3630 
 20 N       -2.3610    -4.5020     0.0340 N.ar  1 <1>  -0.6200 
 21 C       -4.6350    -5.0280     0.5640 C.ar  1 <1>   0.1600 
 22 C        2.3480     6.2350    -1.1720 C.3   1 <1>  -0.2400 
 23 C       -2.6050     7.2550     1.1850 C.3   1 <1>   0.1200 
 24 C       -2.1070    -5.5290     0.8280 C.ar  1 <1>   0.1600 
 25 N       -4.3840    -6.0540     1.3590 N.ar  1 <1>  -0.6200 
 26 C       -2.3340     8.7220     0.8660 C.3   1 <1>  -0.2400 
 27 C       -3.0860    -6.2790     1.4690 C.ar  1 <1>   0.1600 
 28 H       -4.4490     1.1490     0.2320 H     1 <1>   0.0800 
 29 H       -3.4620     1.3260    -1.2220 H     1 <1>   0.0800 
 30 H       -1.8560    -1.6920    -0.4390 H     1 <1>   0.0800 
 31 H       -2.3780    -1.7710     1.2340 H     1 <1>   0.0800 
 32 H        0.1410     2.4990    -0.6480 H     1 <1>   0.1500 
 33 H       -3.1990     2.4820     1.9720 H     1 <1>   0.1500 
 34 H       -4.1470    -0.6980    -2.0840 H     1 <1>   0.0800 
 35 H       -4.6260    -1.8270     0.6740 H     1 <1>   0.0800 
 36 H       -3.2720     4.9020     1.9280 H     1 <1>   0.1500 
 37 H       -6.1550    -0.3760    -0.1110 H     1 <1>   0.4000 
 38 H       -3.4110    -3.0670    -1.8200 H     1 <1>   0.0800 
 39 H       -5.0630    -3.2590    -1.3290 H     1 <1>   0.0800 
 40 H        0.3670     6.9980    -0.8060 H     1 <1>   0.0800 
 41 H        1.0840     6.1670     0.5760 H     1 <1>   0.0800 
 42 H       -5.6690    -4.7730     0.4170 H     1 <1>   0.1500 
 43 H        2.2300     6.2250    -2.2410 H     1 <1>   0.0800 
 44 H        2.9480     5.3960    -0.8680 H     1 <1>   0.0800 
 45 H        2.8510     7.1410    -0.8890 H     1 <1>   0.0800 
 46 H       -3.5750     6.9600     0.8250 H     1 <1>   0.0800 
 47 H       -2.5250     7.0760     2.2440 H     1 <1>   0.0800 
 48 H       -1.0750    -5.7890     0.9790 H     1 <1>   0.1500 
 49 H       -2.3970     8.8860    -0.1950 H     1 <1>   0.0800 
 50 H       -1.3560     9.0020     1.2160 H     1 <1>   0.0800 
 51 H       -3.0640     9.3420     1.3530 H     1 <1>   0.0800 
 52 H       -2.7800    -7.0970     2.0960 H     1 <1>   0.1500 
@<TRIPOS>BOND
  1   1   2  2   
  2   2   3  am  
  3   2   4  1   
  4   3   5  1   
  5   3   6  1   
  6   4   7  ar  
  7   4   8  ar  
  8   5   9  1   
  9   5  28  1   
 10   5  29  1   
 11   6  10  1   
 12   6  30  1   
 13   6  31  1   
 14   7  11  ar  
 15   7  32  1   
 16   8  12  ar  
 17   8  33  1   
 18   9  10  1   
 19   9  13  1   
 20   9  34  1   
 21  10  14  1   
 22  10  35  1   
 23  11  15  1   
 24  11  16  ar  
 25  12  16  ar  
 26  12  36  1   
 27  13  37  1   
 28  14  17  1   
 29  14  38  1   
 30  14  39  1   
 31  15  18  1   
 32  16  19  1   
 33  17  20  ar  
 34  17  21  ar  
 35  18  22  1   
 36  18  40  1   
 37  18  41  1   
 38  19  23  1   
 39  20  24  ar  
 40  21  25  ar  
 41  21  42  1   
 42  22  43  1   
 43  22  44  1   
 44  22  45  1   
 45  23  26  1   
 46  23  46  1   
 47  23  47  1   
 48  24  27  ar  
 49  24  48  1   
 50  25  27  ar  
 51  26  49  1   
 52  26  50  1   
 53  26  51  1   
 54  27  52  1   
@<TRIPOS>SUBSTRUCTURE
  1 ****   3 GROUP 4 **** **** 0

# MOE 2024.06 (io_trps.svl 2023.06)
