@<TRIPOS>MOLECULE
NONAME
44 46 1 0 0 
SMALL
USER_CHARGES


@<TRIPOS>ATOM
  1 CL      -0.4790     0.3990    -0.9200 Cl    1 <1>  -0.1770 
  2 C       -1.8680    -0.4810    -0.3410 C.ar  1 <1>   0.1770 
  3 C       -2.8200    -0.9470    -1.2310 C.ar  1 <1>   0.1600 
  4 C       -2.0180    -0.7130     1.0060 C.ar  1 <1>  -0.1500 
  5 N       -3.9030    -1.6210    -0.8780 N.ar  1 <1>  -0.6200 
  6 C       -3.1440    -1.4170     1.3800 C.ar  1 <1>  -0.1500 
  7 C       -4.0780    -1.8630     0.4380 C.ar  1 <1>   0.3960 
  8 C       -5.2400    -2.6140     0.9290 C.2   1 <1>   0.5440 
  9 O       -5.0500    -3.4750     1.7750 O.2   1 <1>  -0.5700 
 10 N       -6.5490    -2.3710     0.5310 N.am  1 <1>  -0.6600 
 11 C       -6.8990    -1.3140    -0.4670 C.3   1 <1>   0.1400 
 12 C       -7.7040    -3.0440     1.1990 C.3   1 <1>   0.1400 
 13 C       -8.3930    -1.3110    -0.8000 C.3   1 <1>  -0.1600 
 14 C       -8.7250    -1.9900     1.6360 C.3   1 <1>  -0.1600 
 15 C       -9.2710    -1.1440     0.4590 C.3   1 <1>   0.2800 
 16 O       -9.1050     0.2070     0.8420 O.3   1 <1>  -0.5600 
 17 C      -10.7730    -1.4840     0.1930 C.3   1 <1>   0.2000 
 18 C      -10.2170     1.0540     0.9010 C.3   1 <1>   0.1200 
 19 O      -10.9440    -2.7840    -0.2980 O.3   1 <1>  -0.6800 
 20 C      -11.5160    -0.4320    -0.6840 C.3   1 <1>   0.2800 
 21 C      -10.9710     0.9840    -0.4290 C.3   1 <1>  -0.1600 
 22 O      -12.8390    -0.4450    -0.2810 O.3   1 <1>  -0.6800 
 23 C      -11.5580    -0.7330    -2.1900 C.3   1 <1>  -0.2400 
 24 H       -2.6740    -0.7520    -2.2790 H     1 <1>   0.1500 
 25 H       -1.2920    -0.3640     1.7190 H     1 <1>   0.1500 
 26 H       -3.3160    -1.6380     2.4190 H     1 <1>   0.1500 
 27 H       -6.6180    -0.3530    -0.0720 H     1 <1>   0.0800 
 28 H       -6.3520    -1.4860    -1.3780 H     1 <1>   0.0800 
 29 H       -8.1580    -3.7370     0.5110 H     1 <1>   0.0800 
 30 H       -7.3800    -3.5990     2.0610 H     1 <1>   0.0800 
 31 H       -8.6260    -2.2340    -1.2990 H     1 <1>   0.0800 
 32 H       -8.5900    -0.5150    -1.4920 H     1 <1>   0.0800 
 33 H       -8.2500    -1.3540     2.3620 H     1 <1>   0.0800 
 34 H       -9.5270    -2.5000     2.1360 H     1 <1>   0.0800 
 35 H      -11.2520    -1.4780     1.1570 H     1 <1>   0.0800 
 36 H      -10.8390     0.7570     1.7280 H     1 <1>   0.0800 
 37 H       -9.8550     2.0520     1.0790 H     1 <1>   0.0800 
 38 H      -11.9030    -2.9400    -0.4170 H     1 <1>   0.4000 
 39 H      -10.2760     1.2590    -1.2020 H     1 <1>   0.0800 
 40 H      -11.7640     1.7090    -0.4400 H     1 <1>   0.0800 
 41 H      -13.3620     0.1420    -0.8580 H     1 <1>   0.4000 
 42 H      -10.5650    -0.8160    -2.5860 H     1 <1>   0.0800 
 43 H      -12.0610     0.0540    -2.7220 H     1 <1>   0.0800 
 44 H      -12.0650    -1.6620    -2.3820 H     1 <1>   0.0800 
@<TRIPOS>BOND
  1   1   2  1   
  2   2   3  ar  
  3   2   4  ar  
  4   3   5  ar  
  5   3  24  1   
  6   4   6  ar  
  7   4  25  1   
  8   5   7  ar  
  9   6   7  ar  
 10   6  26  1   
 11   7   8  1   
 12   8   9  2   
 13   8  10  am  
 14  10  11  1   
 15  10  12  1   
 16  11  13  1   
 17  11  27  1   
 18  11  28  1   
 19  12  14  1   
 20  12  29  1   
 21  12  30  1   
 22  13  15  1   
 23  13  31  1   
 24  13  32  1   
 25  14  15  1   
 26  14  33  1   
 27  14  34  1   
 28  15  16  1   
 29  15  17  1   
 30  16  18  1   
 31  17  19  1   
 32  17  20  1   
 33  17  35  1   
 34  18  21  1   
 35  18  36  1   
 36  18  37  1   
 37  19  38  1   
 38  20  21  1   
 39  20  22  1   
 40  20  23  1   
 41  21  39  1   
 42  21  40  1   
 43  22  41  1   
 44  23  42  1   
 45  23  43  1   
 46  23  44  1   
@<TRIPOS>SUBSTRUCTURE
  1 ****  11 GROUP 4 **** **** 0

# MOE 2024.06 (io_trps.svl 2023.06)
