@<TRIPOS>MOLECULE
NONAME
35 36 1 0 0 
SMALL
USER_CHARGES


@<TRIPOS>ATOM
  1 F        0.2190     1.8290    -1.6320 F     1 <1>  -0.1900 
  2 C       -0.8760     1.8390    -0.9050 C.ar  1 <1>   0.1900 
  3 C       -1.4790     3.0540    -0.6020 C.ar  1 <1>   0.1000 
  4 C       -1.3940     0.6410    -0.4550 C.ar  1 <1>   0.1600 
  5 N       -0.9860     4.2820    -1.0370 N.pl3 1 <1>  -0.8690 
  6 C       -2.6300     2.9420     0.1630 C.ar  1 <1>  -0.1500 
  7 N       -2.4910     0.5400     0.2880 N.ar  1 <1>  -0.6200 
  8 C       -0.8830     5.4320    -0.1190 C.3   1 <1>   0.2090 
  9 C       -3.0790     1.6970     0.5720 C.ar  1 <1>   0.1600 
 10 C        0.5350     5.9900    -0.1990 C.3   1 <1>  -0.1600 
 11 C        0.7060     7.1870     0.7440 C.3   1 <1>   0.0960 
 12 N        2.0820     7.7160     0.6530 N.pl3 1 <1>   0.0480 
 13 C        2.5720     8.7110    -0.1320 C.2   1 <1>   0.0060 
 14 C        3.1400     7.2800     1.3610 C.2   1 <1>  -0.3020 
 15 N        3.8400     8.9190     0.0390 N.2   1 <1>  -0.5650 
 16 C        1.6980     9.4920    -1.1090 C.3   1 <1>   0.0200 
 17 C        4.1980     8.0220     0.9740 C.2   1 <1>   0.0770 
 18 C        2.4850    10.4770    -1.9820 C.3   1 <1>  -0.2400 
 19 H       -0.8860    -0.2710    -0.7160 H     1 <1>   0.1500 
 20 H       -0.1760     4.2040    -1.6660 H     1 <1>   0.4000 
 21 H       -3.1780     3.8240     0.4310 H     1 <1>   0.1500 
 22 H       -1.1000     5.1180     0.8890 H     1 <1>   0.0800 
 23 H       -1.5990     6.1810    -0.4120 H     1 <1>   0.0800 
 24 H       -3.9770     1.6450     1.1650 H     1 <1>   0.1500 
 25 H        0.7360     6.3020    -1.2090 H     1 <1>   0.0800 
 26 H        1.2320     5.2190     0.0800 H     1 <1>   0.0800 
 27 H        0.5250     6.8880     1.7610 H     1 <1>   0.0800 
 28 H        0.0130     7.9680     0.4900 H     1 <1>   0.0800 
 29 H        3.0880     6.4860     2.0820 H     1 <1>   0.1500 
 30 H        0.9600    10.0390    -0.5510 H     1 <1>   0.0800 
 31 H        1.1880     8.7970    -1.7530 H     1 <1>   0.0800 
 32 H        5.2150     7.9590     1.3240 H     1 <1>   0.1500 
 33 H        2.9850    11.2000    -1.3610 H     1 <1>   0.0800 
 34 H        1.8260    10.9930    -2.6560 H     1 <1>   0.0800 
 35 H        3.2270     9.9490    -2.5550 H     1 <1>   0.0800 
@<TRIPOS>BOND
  1   1   2  1   
  2   2   3  ar  
  3   2   4  ar  
  4   3   5  1   
  5   3   6  ar  
  6   4   7  ar  
  7   4  19  1   
  8   5   8  1   
  9   5  20  1   
 10   6   9  ar  
 11   6  21  1   
 12   7   9  ar  
 13   8  10  1   
 14   8  22  1   
 15   8  23  1   
 16   9  24  1   
 17  10  11  1   
 18  10  25  1   
 19  10  26  1   
 20  11  12  1   
 21  11  27  1   
 22  11  28  1   
 23  12  13  1   
 24  12  14  1   
 25  13  15  2   
 26  13  16  1   
 27  14  17  2   
 28  14  29  1   
 29  15  17  1   
 30  16  18  1   
 31  16  30  1   
 32  16  31  1   
 33  17  32  1   
 34  18  33  1   
 35  18  34  1   
 36  18  35  1   
@<TRIPOS>SUBSTRUCTURE
  1 ****  10 GROUP 4 **** **** 0

# MOE 2024.06 (io_trps.svl 2023.06)
