@<TRIPOS>MOLECULE
NONAME
68 72 1 0 0 
SMALL
USER_CHARGES


@<TRIPOS>ATOM
  1 O       -3.8320    -0.1130    -0.1970 O.3   1 <1>  -0.6800 
  2 C       -3.4680    -1.3480     0.3160 C.3   1 <1>   0.2000 
  3 C       -4.1980    -2.4660    -0.4510 C.3   1 <1>   0.2090 
  4 C       -3.8400    -1.3630     1.8010 C.3   1 <1>  -0.1600 
  5 N       -3.9190    -3.8040     0.1740 N.pl3 1 <1>  -0.8380 
  6 C       -3.6140    -2.7610     2.4010 C.3   1 <1>  -0.1600 
  7 C       -3.4760    -4.8980    -0.5000 C.ar  1 <1>   0.4100 
  8 C       -4.3410    -3.8550     1.6090 C.3   1 <1>   0.2090 
  9 N       -3.8580    -6.0850    -0.0640 N.ar  1 <1>  -0.6200 
 10 C       -2.6360    -4.7740    -1.6240 C.ar  1 <1>  -0.1500 
 11 C       -3.4650    -7.1500    -0.7250 C.ar  1 <1>   0.7710 
 12 C       -2.2420    -5.8900    -2.2830 C.ar  1 <1>   0.2110 
 13 N       -2.6780    -7.0860    -1.8160 N.ar  1 <1>  -0.1790 
 14 N       -3.9100    -8.3110    -0.2280 N.pl3 1 <1>  -0.8690 
 15 C       -3.7730    -9.7370    -0.5750 C.3   1 <1>   0.2890 
 16 C       -5.1660   -10.2810    -0.8980 C.3   1 <1>  -0.1600 
 17 C       -3.1750   -10.4630     0.6320 C.3   1 <1>  -0.1600 
 18 C       -5.1610   -11.8010    -1.0580 C.3   1 <1>   0.3430 
 19 C       -3.1950   -11.9820     0.4540 C.3   1 <1>   0.3430 
 20 N       -4.5830   -12.4350     0.1640 N.4   1 <1>  -0.9590 
 21 C       -4.6710   -13.9250     0.1000 C.3   1 <1>   0.4860 
 22 C       -6.1350   -14.3130     0.0430 C.ar  1 <1>  -0.1430 
 23 C       -6.9390   -14.1950     1.1680 C.ar  1 <1>  -0.1500 
 24 C       -6.6910   -14.7830    -1.1380 C.ar  1 <1>  -0.1500 
 25 C       -8.2800   -14.5250     1.1030 C.ar  1 <1>  -0.1500 
 26 C       -8.0320   -15.1110    -1.1940 C.ar  1 <1>  -0.1500 
 27 C       -8.8520   -14.9850    -0.0780 C.ar  1 <1>   0.0000 
 28 C      -10.2550   -15.3270    -0.1410 C.ar  1 <1>   0.0000 
 29 C      -11.1090   -14.6930    -1.0390 C.ar  1 <1>  -0.1500 
 30 C      -10.7930   -16.3020     0.6950 C.ar  1 <1>  -0.1500 
 31 C      -12.4520   -15.0180    -1.1000 C.ar  1 <1>  -0.1500 
 32 C      -12.1350   -16.6310     0.6390 C.ar  1 <1>  -0.1500 
 33 C      -12.9680   -15.9890    -0.2600 C.ar  1 <1>  -0.1500 
 34 H       -3.4080     0.0510    -1.0610 H     1 <1>   0.4000 
 35 H       -2.4030    -1.4560     0.2010 H     1 <1>   0.0800 
 36 H       -3.9090    -2.4510    -1.4840 H     1 <1>   0.0800 
 37 H       -5.2580    -2.2840    -0.4000 H     1 <1>   0.0800 
 38 H       -4.8770    -1.0970     1.9110 H     1 <1>   0.0800 
 39 H       -3.2430    -0.6410     2.3300 H     1 <1>   0.0800 
 40 H       -3.9620    -2.7730     3.4190 H     1 <1>   0.0800 
 41 H       -2.5620    -2.9860     2.4140 H     1 <1>   0.0800 
 42 H       -4.1110    -4.8120     2.0460 H     1 <1>   0.0800 
 43 H       -5.4060    -3.7070     1.6710 H     1 <1>   0.0800 
 44 H       -2.3100    -3.8000    -1.9330 H     1 <1>   0.1500 
 45 H       -1.6000    -5.8600    -3.1500 H     1 <1>   0.1500 
 46 H       -2.4240    -7.9580    -2.2630 H     1 <1>   0.4570 
 47 H       -4.5010    -8.1490     0.5980 H     1 <1>   0.4000 
 48 H       -3.1280    -9.8610    -1.4290 H     1 <1>   0.0800 
 49 H       -5.5230    -9.8400    -1.8120 H     1 <1>   0.0800 
 50 H       -5.8600   -10.0220    -0.1170 H     1 <1>   0.0800 
 51 H       -3.7220   -10.2160     1.5250 H     1 <1>   0.0800 
 52 H       -2.1570   -10.1460     0.7740 H     1 <1>   0.0800 
 53 H       -4.5820   -12.0780    -1.9240 H     1 <1>   0.0800 
 54 H       -6.1740   -12.1440    -1.2090 H     1 <1>   0.0800 
 55 H       -2.8330   -12.4530     1.3550 H     1 <1>   0.0800 
 56 H       -2.5420   -12.2630    -0.3570 H     1 <1>   0.0800 
 57 H       -5.1910   -12.1680     0.9510 H     1 <1>   0.4500 
 58 H       -4.2230   -14.3640     0.9770 H     1 <1>   0.0800 
 59 H       -4.1560   -14.2970    -0.7710 H     1 <1>   0.0800 
 60 H       -6.5390   -13.8530     2.1080 H     1 <1>   0.1500 
 61 H       -6.0930   -14.9040    -2.0260 H     1 <1>   0.1500 
 62 H       -8.9020   -14.4280     1.9760 H     1 <1>   0.1500 
 63 H       -8.4590   -15.4790    -2.1110 H     1 <1>   0.1500 
 64 H      -10.7180   -13.9350    -1.6930 H     1 <1>   0.1500 
 65 H      -10.1510   -16.8090     1.3930 H     1 <1>   0.1500 
 66 H      -13.0980   -14.5170    -1.8010 H     1 <1>   0.1500 
 67 H      -12.5330   -17.3880     1.2930 H     1 <1>   0.1500 
 68 H      -14.0120   -16.2440    -0.3060 H     1 <1>   0.1500 
@<TRIPOS>BOND
  1   1   2  1   
  2   1  34  1   
  3   2   3  1   
  4   2   4  1   
  5   2  35  1   
  6   3   5  1   
  7   3  36  1   
  8   3  37  1   
  9   4   6  1   
 10   4  38  1   
 11   4  39  1   
 12   5   7  1   
 13   5   8  1   
 14   6   8  1   
 15   6  40  1   
 16   6  41  1   
 17   7   9  ar  
 18   7  10  ar  
 19   8  42  1   
 20   8  43  1   
 21   9  11  ar  
 22  10  12  ar  
 23  10  44  1   
 24  11  13  ar  
 25  11  14  1   
 26  12  13  ar  
 27  12  45  1   
 28  13  46  1   
 29  14  15  1   
 30  14  47  1   
 31  15  16  1   
 32  15  17  1   
 33  15  48  1   
 34  16  18  1   
 35  16  49  1   
 36  16  50  1   
 37  17  19  1   
 38  17  51  1   
 39  17  52  1   
 40  18  20  1   
 41  18  53  1   
 42  18  54  1   
 43  19  20  1   
 44  19  55  1   
 45  19  56  1   
 46  20  21  1   
 47  20  57  1   
 48  21  22  1   
 49  21  58  1   
 50  21  59  1   
 51  22  23  ar  
 52  22  24  ar  
 53  23  25  ar  
 54  23  60  1   
 55  24  26  ar  
 56  24  61  1   
 57  25  27  ar  
 58  25  62  1   
 59  26  27  ar  
 60  26  63  1   
 61  27  28  1   
 62  28  29  ar  
 63  28  30  ar  
 64  29  31  ar  
 65  29  64  1   
 66  30  32  ar  
 67  30  65  1   
 68  31  33  ar  
 69  31  66  1   
 70  32  33  ar  
 71  32  67  1   
 72  33  68  1   
@<TRIPOS>SUBSTRUCTURE
  1 ****  16 GROUP 4 **** **** 0

# MOE 2024.06 (io_trps.svl 2023.06)
