@<TRIPOS>MOLECULE
NONAME
53 55 1 0 0 
SMALL
USER_CHARGES


@<TRIPOS>ATOM
  1 S       -0.1390    -0.2340    -0.5400 S.o2  1 <1>   1.2040 
  2 O        0.5240    -0.2100    -1.8250 O.2   1 <1>  -0.6500 
  3 O       -0.1980     0.9680     0.2620 O.2   1 <1>  -0.6500 
  4 C       -1.7960    -0.9370    -0.7170 C.ar  1 <1>  -0.0090 
  5 C        0.6760    -1.4770     0.4420 C.3   1 <1>  -0.1350 
  6 C       -2.8010    -0.6480     0.1970 C.ar  1 <1>  -0.1500 
  7 C       -2.0930    -1.8180    -1.7500 C.ar  1 <1>  -0.1500 
  8 C       -4.0560    -1.2210     0.0910 C.ar  1 <1>  -0.1500 
  9 C       -3.3460    -2.3950    -1.8620 C.ar  1 <1>  -0.1500 
 10 C       -4.3370    -2.1010    -0.9410 C.ar  1 <1>  -0.1430 
 11 C       -5.7180    -2.7390    -1.0620 C.3   1 <1>   0.0440 
 12 C       -5.8480    -4.0780    -0.3400 C.2   1 <1>   0.5690 
 13 O       -4.8660    -4.7740    -0.2080 O.2   1 <1>  -0.5700 
 14 N       -7.0660    -4.5070     0.1240 N.am  1 <1>  -0.6600 
 15 C       -7.1620    -5.7060     1.0110 C.3   1 <1>   0.1400 
 16 C       -8.3910    -4.0620    -0.3970 C.3   1 <1>   0.1400 
 17 C       -7.7410    -6.8860     0.1980 C.3   1 <1>   0.4230 
 18 C       -9.0170    -5.2220    -1.1880 C.3   1 <1>  -0.1600 
 19 N       -7.7900    -8.1900     0.9430 N.4   1 <1>  -0.9590 
 20 C       -9.1440    -6.5170    -0.3340 C.3   1 <1>  -0.1060 
 21 C       -8.2360    -9.3100     0.0760 C.3   1 <1>   0.3430 
 22 C       -6.5640    -8.5240     1.7180 C.3   1 <1>   0.2630 
 23 C      -10.0810    -6.2860     0.8670 C.2   1 <1>   0.9060 
 24 C       -9.6730    -7.6600    -1.2330 C.3   1 <1>  -0.1600 
 25 C       -9.6190    -9.0150    -0.5110 C.3   1 <1>  -0.1600 
 26 O       -9.9040    -6.9460     1.9030 O.co2 1 <1>  -0.9000 
 27 O      -10.9710    -5.4410     0.7860 O.co2 1 <1>  -0.9000 
 28 H        0.6770    -2.4180    -0.0720 H     1 <1>   0.0800 
 29 H        0.1750    -1.5980     1.3830 H     1 <1>   0.0800 
 30 H        1.6910    -1.1880     0.6300 H     1 <1>   0.0800 
 31 H       -2.6000     0.0370     1.0050 H     1 <1>   0.1500 
 32 H       -1.3350    -2.0570    -2.4770 H     1 <1>   0.1500 
 33 H       -4.8120    -0.9800     0.8190 H     1 <1>   0.1500 
 34 H       -3.5430    -3.0820    -2.6680 H     1 <1>   0.1500 
 35 H       -5.9510    -2.8920    -2.0990 H     1 <1>   0.0800 
 36 H       -6.4400    -2.0530    -0.6610 H     1 <1>   0.0800 
 37 H       -6.1870    -5.9510     1.3870 H     1 <1>   0.0800 
 38 H       -7.7940    -5.4720     1.8510 H     1 <1>   0.0800 
 39 H       -9.0280    -3.7860     0.4290 H     1 <1>   0.0800 
 40 H       -8.2980    -3.2060    -1.0390 H     1 <1>   0.0800 
 41 H       -7.0890    -7.0180    -0.6480 H     1 <1>   0.0800 
 42 H       -9.9940    -4.9170    -1.5240 H     1 <1>   0.0800 
 43 H       -8.4190    -5.4040    -2.0630 H     1 <1>   0.0800 
 44 H       -8.5860    -8.0020     1.6130 H     1 <1>   0.4500 
 45 H       -7.5280    -9.4500    -0.7230 H     1 <1>   0.0800 
 46 H       -8.2860   -10.2190     0.6530 H     1 <1>   0.0800 
 47 H       -5.7150    -8.6000     1.0590 H     1 <1>   0.0800 
 48 H       -6.6960    -9.4610     2.2330 H     1 <1>   0.0800 
 49 H       -6.3700    -7.7600     2.4530 H     1 <1>   0.0800 
 50 H      -10.6910    -7.4460    -1.5180 H     1 <1>   0.0800 
 51 H       -9.0850    -7.7190    -2.1330 H     1 <1>   0.0800 
 52 H       -9.8840    -9.7970    -1.2000 H     1 <1>   0.0800 
 53 H      -10.3470    -9.0330     0.2830 H     1 <1>   0.0800 
@<TRIPOS>BOND
  1   1   2  2   
  2   1   3  2   
  3   1   4  1   
  4   1   5  1   
  5   4   6  ar  
  6   4   7  ar  
  7   5  28  1   
  8   5  29  1   
  9   5  30  1   
 10   6   8  ar  
 11   6  31  1   
 12   7   9  ar  
 13   7  32  1   
 14   8  10  ar  
 15   8  33  1   
 16   9  10  ar  
 17   9  34  1   
 18  10  11  1   
 19  11  12  1   
 20  11  35  1   
 21  11  36  1   
 22  12  13  2   
 23  12  14  am  
 24  14  15  1   
 25  14  16  1   
 26  15  17  1   
 27  15  37  1   
 28  15  38  1   
 29  16  18  1   
 30  16  39  1   
 31  16  40  1   
 32  17  19  1   
 33  17  20  1   
 34  17  41  1   
 35  18  20  1   
 36  18  42  1   
 37  18  43  1   
 38  19  21  1   
 39  19  22  1   
 40  19  44  1   
 41  20  23  1   
 42  20  24  1   
 43  21  25  1   
 44  21  45  1   
 45  21  46  1   
 46  22  47  1   
 47  22  48  1   
 48  22  49  1   
 49  23  26  ar  
 50  23  27  ar  
 51  24  25  1   
 52  24  50  1   
 53  24  51  1   
 54  25  52  1   
 55  25  53  1   
@<TRIPOS>SUBSTRUCTURE
  1 ****  12 GROUP 4 **** **** 0

# MOE 2024.06 (io_trps.svl 2023.06)
