@<TRIPOS>MOLECULE
NONAME
49 52 1 0 0 
SMALL
USER_CHARGES


@<TRIPOS>ATOM
  1 O       -0.4840     0.2200    -0.2320 O.2   1 <1>  -0.5700 
  2 C       -1.5070     0.7870     0.0700 C.2   1 <1>   0.5690 
  3 N       -2.6480     0.0880     0.3680 N.am  1 <1>  -0.6600 
  4 C       -1.5100     2.3080     0.1100 C.3   1 <1>  -0.0990 
  5 C       -2.6560    -1.4090     0.4290 C.3   1 <1>   0.1400 
  6 C       -4.0050     0.6780     0.6000 C.3   1 <1>   0.1400 
  7 C       -0.1110     2.9350     0.0240 C.3   1 <1>  -0.0160 
  8 C       -3.7940    -2.0000    -0.4230 C.3   1 <1>   0.3440 
  9 C       -5.0720    -0.0220    -0.2730 C.3   1 <1>   0.2950 
 10 C       -0.2090     4.4500     0.1080 C.ar  1 <1>  -0.1440 
 11 O       -5.0180    -1.4040    -0.0750 O.3   1 <1>  -0.5600 
 12 C       -3.8840    -3.5100    -0.2240 C.ar  1 <1>  -0.1440 
 13 C       -6.5210     0.4100     0.0110 C.3   1 <1>  -0.1950 
 14 C       -0.1910     5.0950     1.3370 C.ar  1 <1>   0.1600 
 15 C       -0.3250     5.2100    -1.0380 C.ar  1 <1>  -0.1500 
 16 C       -3.1590    -4.3540    -1.0530 C.ar  1 <1>  -0.1500 
 17 C       -4.6680    -4.0640     0.7800 C.ar  1 <1>  -0.1500 
 18 C       -6.9070     1.7850     0.4680 C.3   1 <1>  -0.2000 
 19 C       -7.0790     0.6070     1.3870 C.3   1 <1>  -0.2000 
 20 N       -0.2850     6.4030     1.5100 N.ar  1 <1>  -0.6200 
 21 C       -0.4200     6.5760    -0.8770 C.ar  1 <1>  -0.1500 
 22 C       -3.2140    -5.7270    -0.8820 C.ar  1 <1>  -0.1500 
 23 C       -4.7240    -5.4370     0.9520 C.ar  1 <1>  -0.1500 
 24 C       -0.3950     7.1120     0.3990 C.ar  1 <1>   0.1600 
 25 C       -3.9960    -6.2690     0.1210 C.ar  1 <1>  -0.1500 
 26 H       -2.1040     2.6680    -0.7090 H     1 <1>   0.0800 
 27 H       -1.9680     2.6240     1.0290 H     1 <1>   0.0800 
 28 H       -1.7190    -1.8110     0.0840 H     1 <1>   0.0800 
 29 H       -2.7860    -1.7210     1.4500 H     1 <1>   0.0800 
 30 H       -4.2590     0.5600     1.6380 H     1 <1>   0.0800 
 31 H       -4.0100     1.7270     0.3730 H     1 <1>   0.0800 
 32 H        0.3600     2.6510    -0.9020 H     1 <1>   0.0800 
 33 H        0.5040     2.5640     0.8260 H     1 <1>   0.0800 
 34 H       -3.6100    -1.7920    -1.4630 H     1 <1>   0.0800 
 35 H       -4.8570     0.1740    -1.3100 H     1 <1>   0.0800 
 36 H       -7.1840    -0.0470    -0.7040 H     1 <1>   0.1000 
 37 H       -0.0950     4.5010     2.2300 H     1 <1>   0.1500 
 38 H       -0.3420     4.7620    -2.0170 H     1 <1>   0.1500 
 39 H       -2.5440    -3.9480    -1.8380 H     1 <1>   0.1500 
 40 H       -5.2410    -3.4260     1.4300 H     1 <1>   0.1500 
 41 H       -6.1630     2.5170     0.7280 H     1 <1>   0.1000 
 42 H       -7.7880     2.2380     0.0470 H     1 <1>   0.1000 
 43 H       -8.0720     0.2410     1.5860 H     1 <1>   0.1000 
 44 H       -6.4340     0.5100     2.2420 H     1 <1>   0.1000 
 45 H       -0.5110     7.2220    -1.7310 H     1 <1>   0.1500 
 46 H       -2.6480    -6.3730    -1.5300 H     1 <1>   0.1500 
 47 H       -5.3360    -5.8540     1.7320 H     1 <1>   0.1500 
 48 H       -0.4700     8.1800     0.5110 H     1 <1>   0.1500 
 49 H       -4.0400    -7.3360     0.2550 H     1 <1>   0.1500 
@<TRIPOS>BOND
  1   1   2  2   
  2   2   3  am  
  3   2   4  1   
  4   3   5  1   
  5   3   6  1   
  6   4   7  1   
  7   4  26  1   
  8   4  27  1   
  9   5   8  1   
 10   5  28  1   
 11   5  29  1   
 12   6   9  1   
 13   6  30  1   
 14   6  31  1   
 15   7  10  1   
 16   7  32  1   
 17   7  33  1   
 18   8  11  1   
 19   8  12  1   
 20   8  34  1   
 21   9  11  1   
 22   9  13  1   
 23   9  35  1   
 24  10  14  ar  
 25  10  15  ar  
 26  12  16  ar  
 27  12  17  ar  
 28  13  18  1   
 29  13  19  1   
 30  13  36  1   
 31  14  20  ar  
 32  14  37  1   
 33  15  21  ar  
 34  15  38  1   
 35  16  22  ar  
 36  16  39  1   
 37  17  23  ar  
 38  17  40  1   
 39  18  19  1   
 40  18  41  1   
 41  18  42  1   
 42  19  43  1   
 43  19  44  1   
 44  20  24  ar  
 45  21  24  ar  
 46  21  45  1   
 47  22  25  ar  
 48  22  46  1   
 49  23  25  ar  
 50  23  47  1   
 51  24  48  1   
 52  25  49  1   
@<TRIPOS>SUBSTRUCTURE
  1 ****   3 GROUP 4 **** **** 0

# MOE 2024.06 (io_trps.svl 2023.06)
