@<TRIPOS>MOLECULE
NONAME
35 37 1 0 0 
SMALL
USER_CHARGES


@<TRIPOS>ATOM
  1 CL      -0.6430     0.2790    -0.9240 Cl    1 <1>  -0.1240 
  2 C       -1.3540    -1.1950    -0.3320 C.2   1 <1>   0.1640 
  3 S       -0.8160    -2.6820    -1.0690 S.3   1 <1>  -0.0800 
  4 C       -2.2740    -1.4130     0.6210 C.2   1 <1>  -0.1500 
  5 C       -1.8950    -3.6420    -0.0400 C.2   1 <1>  -0.0450 
  6 C       -2.5740    -2.7980     0.7860 C.2   1 <1>  -0.1500 
  7 C       -1.8950    -5.0760    -0.2080 C.2   1 <1>   0.7150 
  8 O       -0.8860    -5.6510    -0.5730 O.2   1 <1>  -0.5700 
  9 N       -3.0210    -5.8330     0.0380 N.am  1 <1>  -0.6600 
 10 C       -4.4100    -5.3100     0.0330 C.3   1 <1>   0.1400 
 11 C       -3.0230    -7.3090    -0.1350 C.3   1 <1>   0.1400 
 12 C       -5.2840    -6.5130    -0.3220 C.3   1 <1>   0.2000 
 13 C       -4.4740    -7.7400     0.0860 C.3   1 <1>  -0.0800 
 14 O       -6.4890    -6.4880     0.3620 O.3   1 <1>  -0.6800 
 15 C       -4.8840    -9.0040    -0.6890 C.3   1 <1>  -0.0170 
 16 C       -4.1160   -10.2300    -0.2200 C.ar  1 <1>   0.1670 
 17 N       -2.8980   -10.3870    -0.7100 N.ar  1 <1>  -0.6200 
 18 C       -4.7020   -11.1160     0.6830 C.ar  1 <1>   0.1600 
 19 C       -2.3090   -11.4750    -0.2420 C.ar  1 <1>   0.1600 
 20 N       -4.1140   -12.2030     1.1550 N.ar  1 <1>  -0.6200 
 21 C       -2.8970   -12.3530     0.6600 C.ar  1 <1>   0.1600 
 22 H       -2.7470    -0.6490     1.2120 H     1 <1>   0.1500 
 23 H       -3.2850    -3.1110     1.5300 H     1 <1>   0.1500 
 24 H       -4.6530    -4.9450     1.0150 H     1 <1>   0.0800 
 25 H       -4.5220    -4.5290    -0.6990 H     1 <1>   0.0800 
 26 H       -2.6990    -7.5480    -1.1350 H     1 <1>   0.0800 
 27 H       -2.3570    -7.7790     0.5690 H     1 <1>   0.0800 
 28 H       -5.4910    -6.5130    -1.3790 H     1 <1>   0.0800 
 29 H       -4.5950    -7.9140     1.1410 H     1 <1>   0.0800 
 30 H       -6.3390    -6.5250     1.3260 H     1 <1>   0.4000 
 31 H       -4.7090    -8.8640    -1.7420 H     1 <1>   0.0800 
 32 H       -5.9390    -9.1720    -0.5590 H     1 <1>   0.0800 
 33 H       -5.6990   -10.9170     1.0330 H     1 <1>   0.1500 
 34 H       -1.3120   -11.6810    -0.5890 H     1 <1>   0.1500 
 35 H       -2.3370   -13.2120     0.9840 H     1 <1>   0.1500 
@<TRIPOS>BOND
  1   1   2  1   
  2   2   3  1   
  3   2   4  2   
  4   3   5  1   
  5   4   6  1   
  6   4  22  1   
  7   5   6  2   
  8   5   7  1   
  9   6  23  1   
 10   7   8  2   
 11   7   9  am  
 12   9  10  1   
 13   9  11  1   
 14  10  12  1   
 15  10  24  1   
 16  10  25  1   
 17  11  13  1   
 18  11  26  1   
 19  11  27  1   
 20  12  13  1   
 21  12  14  1   
 22  12  28  1   
 23  13  15  1   
 24  13  29  1   
 25  14  30  1   
 26  15  16  1   
 27  15  31  1   
 28  15  32  1   
 29  16  17  ar  
 30  16  18  ar  
 31  17  19  ar  
 32  18  20  ar  
 33  18  33  1   
 34  19  21  ar  
 35  19  34  1   
 36  20  21  ar  
 37  21  35  1   
@<TRIPOS>SUBSTRUCTURE
  1 ****  11 GROUP 4 **** **** 0

# MOE 2024.06 (io_trps.svl 2023.06)
