@<TRIPOS>MOLECULE
NONAME
54 56 1 0 0 
SMALL
USER_CHARGES


@<TRIPOS>ATOM
  1 O        3.3450     1.7610     1.7290 O.co2 1 <1>  -0.9000 
  2 C        2.6080     0.8920     1.2420 C.2   1 <1>   0.9060 
  3 O        2.2980    -0.1100     1.8850 O.co2 1 <1>  -0.9000 
  4 C        2.3290     0.8940    -0.2680 C.3   1 <1>  -0.1060 
  5 C        3.2070    -0.2660    -0.7830 C.3   1 <1>   0.2000 
  6 C        2.8000     2.2160    -0.9620 C.3   1 <1>  -0.1600 
  7 C        0.8200     0.6410    -0.5220 C.3   1 <1>  -0.0160 
  8 O        3.1180    -0.3580    -2.1750 O.3   1 <1>  -0.6800 
  9 C        4.6910    -0.0280    -0.3940 C.3   1 <1>   0.3430 
 10 C        4.3030     2.2630    -1.2920 C.3   1 <1>   0.3430 
 11 C       -0.0600     1.8260    -0.1430 C.ar  1 <1>  -0.1440 
 12 N        5.0530     1.4330    -0.3150 N.4   1 <1>  -0.9590 
 13 C       -0.3630     2.0730     1.1880 C.ar  1 <1>  -0.1500 
 14 C       -0.5710     2.6680    -1.1200 C.ar  1 <1>  -0.1500 
 15 C        6.5120     1.6680    -0.2380 C.3   1 <1>   0.4860 
 16 C       -1.1580     3.1500     1.5390 C.ar  1 <1>  -0.1500 
 17 C       -1.3680     3.7460    -0.7710 C.ar  1 <1>  -0.1500 
 18 C        6.8360     3.1540    -0.2950 C.ar  1 <1>  -0.1430 
 19 C       -1.6610     3.9880     0.5600 C.ar  1 <1>  -0.1500 
 20 C        6.5600     4.0280     0.7560 C.ar  1 <1>  -0.1430 
 21 C        7.4250     3.6430    -1.4540 C.ar  1 <1>  -0.1500 
 22 C        6.8670     5.3730     0.6230 C.ar  1 <1>  -0.1500 
 23 C        5.9160     3.5850     2.0660 C.3   1 <1>  -0.0970 
 24 C        7.7300     4.9850    -1.5750 C.ar  1 <1>  -0.1500 
 25 C        7.4520     5.8600    -0.5410 C.ar  1 <1>   0.0820 
 26 O        7.7750     7.1610    -0.7390 O.3   1 <1>  -0.3620 
 27 C        7.5570     8.1340     0.2580 C.3   1 <1>   0.0400 
 28 H        2.8800    -1.2090    -0.3740 H     1 <1>   0.0800 
 29 H        2.5490     3.0570    -0.3380 H     1 <1>   0.0800 
 30 H        2.2710     2.3530    -1.8870 H     1 <1>   0.0800 
 31 H        0.6560     0.4160    -1.5600 H     1 <1>   0.0800 
 32 H        0.4980    -0.2210     0.0390 H     1 <1>   0.0800 
 33 H        2.2090    -0.6130    -2.4310 H     1 <1>   0.4000 
 34 H        5.3170    -0.5380    -1.1040 H     1 <1>   0.0800 
 35 H        4.8510    -0.4660     0.5790 H     1 <1>   0.0800 
 36 H        4.6370     3.2870    -1.2630 H     1 <1>   0.0800 
 37 H        4.4660     1.8740    -2.2840 H     1 <1>   0.0800 
 38 H        4.6450     1.7510     0.6040 H     1 <1>   0.4500 
 39 H        0.0240     1.4270     1.9600 H     1 <1>   0.1500 
 40 H       -0.3530     2.4910    -2.1570 H     1 <1>   0.1500 
 41 H        6.8970     1.2530     0.6780 H     1 <1>   0.0800 
 42 H        6.9970     1.1720    -1.0620 H     1 <1>   0.0800 
 43 H       -1.3790     3.3310     2.5750 H     1 <1>   0.1500 
 44 H       -1.7590     4.3950    -1.5330 H     1 <1>   0.1500 
 45 H       -2.2770     4.8250     0.8340 H     1 <1>   0.1500 
 46 H        7.6520     2.9870    -2.2760 H     1 <1>   0.1500 
 47 H        6.6410     6.0350     1.4370 H     1 <1>   0.1500 
 48 H        6.3610     4.1060     2.8940 H     1 <1>   0.0800 
 49 H        6.0250     2.5320     2.2480 H     1 <1>   0.0800 
 50 H        4.8660     3.8190     2.0500 H     1 <1>   0.0800 
 51 H        8.1860     5.3670    -2.4710 H     1 <1>   0.1500 
 52 H        7.8950     9.0820    -0.1210 H     1 <1>   0.0800 
 53 H        8.1200     7.8690     1.1350 H     1 <1>   0.0800 
 54 H        6.5040     8.1830     0.4740 H     1 <1>   0.0800 
@<TRIPOS>BOND
  1   1   2  ar  
  2   2   3  ar  
  3   2   4  1   
  4   4   5  1   
  5   4   6  1   
  6   4   7  1   
  7   5   8  1   
  8   5   9  1   
  9   5  28  1   
 10   6  10  1   
 11   6  29  1   
 12   6  30  1   
 13   7  11  1   
 14   7  31  1   
 15   7  32  1   
 16   8  33  1   
 17   9  12  1   
 18   9  34  1   
 19   9  35  1   
 20  10  12  1   
 21  10  36  1   
 22  10  37  1   
 23  11  13  ar  
 24  11  14  ar  
 25  12  15  1   
 26  12  38  1   
 27  13  16  ar  
 28  13  39  1   
 29  14  17  ar  
 30  14  40  1   
 31  15  18  1   
 32  15  41  1   
 33  15  42  1   
 34  16  19  ar  
 35  16  43  1   
 36  17  19  ar  
 37  17  44  1   
 38  18  20  ar  
 39  18  21  ar  
 40  19  45  1   
 41  20  22  ar  
 42  20  23  1   
 43  21  24  ar  
 44  21  46  1   
 45  22  25  ar  
 46  22  47  1   
 47  23  48  1   
 48  23  49  1   
 49  23  50  1   
 50  24  25  ar  
 51  24  51  1   
 52  25  26  1   
 53  26  27  1   
 54  27  52  1   
 55  27  53  1   
 56  27  54  1   
@<TRIPOS>SUBSTRUCTURE
  1 ****   6 GROUP 4 **** **** 0

# MOE 2024.06 (io_trps.svl 2023.06)
