@<TRIPOS>MOLECULE
NONAME
47 48 1 0 0 
SMALL
USER_CHARGES


@<TRIPOS>ATOM
  1 F       -0.5570    -0.1110    -0.5430 F     1 <1>  -0.1900 
  2 C       -1.7990     0.2480    -0.3440 C.ar  1 <1>   0.1900 
  3 C       -2.1790     1.0270     0.7560 C.ar  1 <1>   0.0830 
  4 C       -2.7200    -0.1790    -1.2810 C.ar  1 <1>  -0.1500 
  5 O       -1.3680     1.5070     1.7420 O.3   1 <1>  -0.3630 
  6 C       -3.5190     1.3560     0.8760 C.ar  1 <1>  -0.1500 
  7 C       -4.0500     0.1700    -1.1300 C.ar  1 <1>  -0.1500 
  8 C        0.0140     1.2360     1.8010 C.3   1 <1>   0.0400 
  9 C       -4.4790     0.9390    -0.0480 C.ar  1 <1>   0.0530 
 10 C       -5.8610     1.3160     0.1170 C.2   1 <1>   0.0870 
 11 O       -6.1460     2.5410     0.4820 O.3   1 <1>  -0.0190 
 12 C       -7.0460     0.6590    -0.0310 C.2   1 <1>  -0.0860 
 13 N       -7.4290     2.7610     0.5790 N.2   1 <1>  -0.4100 
 14 C       -7.9940     1.6470     0.2730 C.2   1 <1>   0.3720 
 15 C       -7.3280    -0.7030    -0.3790 C.2   1 <1>   0.7160 
 16 N       -9.3880     1.4870     0.2660 N.pl3 1 <1>  -0.8210 
 17 O       -6.4430    -1.5290    -0.4980 O.2   1 <1>  -0.5700 
 18 N       -8.6110    -1.1090    -0.5740 N.am  1 <1>  -0.7300 
 19 C      -10.0710     2.4110    -0.6830 C.3   1 <1>   0.1290 
 20 C       -9.9800     1.5870     1.6290 C.3   1 <1>   0.1290 
 21 C       -9.0670    -2.4710    -0.9460 C.3   1 <1>   0.1400 
 22 C       -9.0300    -3.3960     0.2690 C.3   1 <1>   0.1200 
 23 O       -9.6290    -4.6040    -0.0790 O.3   1 <1>  -0.5600 
 24 C       -9.5740    -5.5650     0.9200 C.3   1 <1>   0.1200 
 25 C      -10.2770    -6.8110     0.3960 C.3   1 <1>  -0.2400 
 26 H       -2.4000    -0.7770    -2.1150 H     1 <1>   0.1500 
 27 H       -3.8250     1.9550     1.7160 H     1 <1>   0.1500 
 28 H       -4.7660    -0.1610    -1.8610 H     1 <1>   0.1500 
 29 H        0.4100     1.7110     2.6810 H     1 <1>   0.0800 
 30 H        0.4890     1.6410     0.9250 H     1 <1>   0.0800 
 31 H        0.1610     0.1730     1.8640 H     1 <1>   0.0800 
 32 H       -9.3280    -0.3910    -0.3880 H     1 <1>   0.3700 
 33 H       -9.5930     2.3640    -1.6470 H     1 <1>   0.0800 
 34 H      -10.0170     3.4240    -0.3210 H     1 <1>   0.0800 
 35 H      -11.1030     2.1280    -0.7950 H     1 <1>   0.0800 
 36 H       -9.4590     0.9290     2.3030 H     1 <1>   0.0800 
 37 H      -11.0180     1.3040     1.6020 H     1 <1>   0.0800 
 38 H       -9.8960     2.5960     1.9980 H     1 <1>   0.0800 
 39 H       -8.4220    -2.8660    -1.7120 H     1 <1>   0.0800 
 40 H      -10.0720    -2.4140    -1.3280 H     1 <1>   0.0800 
 41 H       -9.5830    -2.9660     1.0860 H     1 <1>   0.0800 
 42 H       -8.0100    -3.5810     0.5590 H     1 <1>   0.0800 
 43 H      -10.0730    -5.1870     1.7960 H     1 <1>   0.0800 
 44 H       -8.5420    -5.7770     1.1440 H     1 <1>   0.0800 
 45 H      -11.3020    -6.5850     0.1630 H     1 <1>   0.0800 
 46 H      -10.2550    -7.5840     1.1430 H     1 <1>   0.0800 
 47 H       -9.7790    -7.1700    -0.4870 H     1 <1>   0.0800 
@<TRIPOS>BOND
  1   1   2  1   
  2   2   3  ar  
  3   2   4  ar  
  4   3   5  1   
  5   3   6  ar  
  6   4   7  ar  
  7   4  26  1   
  8   5   8  1   
  9   6   9  ar  
 10   6  27  1   
 11   7   9  ar  
 12   7  28  1   
 13   8  29  1   
 14   8  30  1   
 15   8  31  1   
 16   9  10  1   
 17  10  11  1   
 18  10  12  2   
 19  11  13  1   
 20  12  14  1   
 21  12  15  1   
 22  13  14  2   
 23  14  16  1   
 24  15  17  2   
 25  15  18  am  
 26  16  19  1   
 27  16  20  1   
 28  18  21  1   
 29  18  32  1   
 30  19  33  1   
 31  19  34  1   
 32  19  35  1   
 33  20  36  1   
 34  20  37  1   
 35  20  38  1   
 36  21  22  1   
 37  21  39  1   
 38  21  40  1   
 39  22  23  1   
 40  22  41  1   
 41  22  42  1   
 42  23  24  1   
 43  24  25  1   
 44  24  43  1   
 45  24  44  1   
 46  25  45  1   
 47  25  46  1   
 48  25  47  1   
@<TRIPOS>SUBSTRUCTURE
  1 ****  12 GROUP 4 **** **** 0

# MOE 2024.06 (io_trps.svl 2023.06)
