@<TRIPOS>MOLECULE
NONAME
36 36 1 0 0 
SMALL
USER_CHARGES


@<TRIPOS>ATOM
  1 O        0.4230     0.0430     1.0770 O.2   1 <1>  -0.5700 
  2 C        1.2920     0.5420     0.3840 C.2   1 <1>   0.5440 
  3 N        1.0300     1.7410    -0.2270 N.am  1 <1>  -0.7300 
  4 C        2.5760    -0.0950     0.2060 C.ar  1 <1>   0.0860 
  5 C       -0.2420     2.5020    -0.1260 C.3   1 <1>   0.0600 
  6 C        2.6910    -1.4830    -0.0100 C.ar  1 <1>   0.4100 
  7 C        3.7480     0.6520     0.2340 C.ar  1 <1>  -0.1500 
  8 N        3.8530    -2.1100    -0.1970 N.ar  1 <1>  -0.6200 
  9 N        1.5720    -2.2820    -0.0450 N.pl3 1 <1>  -0.8690 
 10 C        4.9450     0.0010     0.0430 C.ar  1 <1>  -0.1500 
 11 C        4.9390    -1.3660    -0.1680 C.ar  1 <1>   0.1600 
 12 C        1.6110    -3.7550     0.0240 C.3   1 <1>   0.2090 
 13 C        0.1880    -4.3010    -0.0380 C.3   1 <1>  -0.1600 
 14 C        0.2000    -5.8280     0.0020 C.3   1 <1>   0.1200 
 15 O       -1.1150    -6.2700    -0.0460 O.3   1 <1>  -0.5600 
 16 C       -1.2500    -7.6500    -0.0270 C.3   1 <1>   0.1200 
 17 C       -2.7390    -7.9660    -0.0840 C.3   1 <1>  -0.2400 
 18 H        1.7030     2.0950    -0.9100 H     1 <1>   0.3700 
 19 H       -0.8770     2.0770     0.6340 H     1 <1>   0.0800 
 20 H       -0.7610     2.4680    -1.0680 H     1 <1>   0.0800 
 21 H       -0.0350     3.5260     0.1310 H     1 <1>   0.0800 
 22 H        3.7200     1.7140     0.4110 H     1 <1>   0.1500 
 23 H        0.7300    -1.8520     0.3700 H     1 <1>   0.4000 
 24 H        5.8750     0.5400     0.0580 H     1 <1>   0.1500 
 25 H        5.8780    -1.8700    -0.3180 H     1 <1>   0.1500 
 26 H        2.0890    -4.0530     0.9420 H     1 <1>   0.0800 
 27 H        2.1900    -4.1300    -0.8040 H     1 <1>   0.0800 
 28 H       -0.2760    -3.9770    -0.9520 H     1 <1>   0.0800 
 29 H       -0.3730    -3.9320     0.8010 H     1 <1>   0.0800 
 30 H        0.6490    -6.1810     0.9150 H     1 <1>   0.0800 
 31 H        0.7290    -6.2250    -0.8490 H     1 <1>   0.0800 
 32 H       -0.8150    -8.0310     0.8820 H     1 <1>   0.0800 
 33 H       -0.7420    -8.0620    -0.8820 H     1 <1>   0.0800 
 34 H       -3.2380    -7.5370     0.7670 H     1 <1>   0.0800 
 35 H       -2.8880    -9.0300    -0.0710 H     1 <1>   0.0800 
 36 H       -3.1650    -7.5680    -0.9870 H     1 <1>   0.0800 
@<TRIPOS>BOND
  1   1   2  2   
  2   2   3  am  
  3   2   4  1   
  4   3   5  1   
  5   3  18  1   
  6   4   6  ar  
  7   4   7  ar  
  8   5  19  1   
  9   5  20  1   
 10   5  21  1   
 11   6   8  ar  
 12   6   9  1   
 13   7  10  ar  
 14   7  22  1   
 15   8  11  ar  
 16   9  12  1   
 17   9  23  1   
 18  10  11  ar  
 19  10  24  1   
 20  11  25  1   
 21  12  13  1   
 22  12  26  1   
 23  12  27  1   
 24  13  14  1   
 25  13  28  1   
 26  13  29  1   
 27  14  15  1   
 28  14  30  1   
 29  14  31  1   
 30  15  16  1   
 31  16  17  1   
 32  16  32  1   
 33  16  33  1   
 34  17  34  1   
 35  17  35  1   
 36  17  36  1   
@<TRIPOS>SUBSTRUCTURE
  1 ****   9 GROUP 4 **** **** 0

# MOE 2024.06 (io_trps.svl 2023.06)
