@<TRIPOS>MOLECULE
NONAME
46 48 1 0 0 
SMALL
USER_CHARGES


@<TRIPOS>ATOM
  1 S       -0.1310     0.2190    -0.7750 S.o2  1 <1>   1.3330 
  2 O       -0.7960    -1.0580    -0.9030 O.2   1 <1>  -0.6500 
  3 O        0.0030     1.0770    -1.9310 O.2   1 <1>  -0.6500 
  4 N        1.4280    -0.0900    -0.1730 N.am  1 <1>  -0.8490 
  5 C       -0.9060     1.1460     0.5580 C.3   1 <1>  -0.0550 
  6 C        2.4190    -0.2360    -1.2450 C.3   1 <1>   0.1160 
  7 C        1.4930    -1.2540     0.7190 C.3   1 <1>   0.1160 
  8 C       -0.4920     2.6260     0.7360 C.3   1 <1>  -0.0800 
  9 C       -1.0930     3.5760    -0.3020 C.3   1 <1>   0.2000 
 10 C        1.0020     2.9450     0.7060 C.3   1 <1>   0.1400 
 11 O       -2.3910     3.8920     0.0690 O.3   1 <1>  -0.6800 
 12 C       -0.1890     4.8140    -0.2960 C.3   1 <1>   0.1400 
 13 N        1.0570     4.3930     0.4050 N.am  1 <1>  -0.6600 
 14 C        2.1740     5.1740     0.6520 C.2   1 <1>   0.6300 
 15 O        3.1360     4.6130     1.1610 O.2   1 <1>  -0.5700 
 16 C        2.2940     6.6160     0.3480 C.2   1 <1>   0.5000 
 17 N        3.5250     7.1850     0.5860 N.pl3 1 <1>  -0.5500 
 18 N        1.3240     7.3480    -0.1110 N.2   1 <1>  -0.6610 
 19 C        3.8270     8.5110     0.3630 C.ar  1 <1>   0.1000 
 20 C        1.5290     8.6790    -0.3590 C.2   1 <1>   0.6950 
 21 C        2.8010     9.3130    -0.1320 C.ar  1 <1>   0.0860 
 22 C        5.0880     9.0450     0.6130 C.ar  1 <1>  -0.1500 
 23 O        0.5820     9.3150    -0.7840 O.2   1 <1>  -0.5700 
 24 C        3.0720    10.6640    -0.3710 C.ar  1 <1>  -0.1500 
 25 C        5.3350    10.3800     0.3710 C.ar  1 <1>  -0.1500 
 26 C        4.3220    11.1930    -0.1230 C.ar  1 <1>  -0.1500 
 27 H       -1.9680     1.1260     0.4060 H     1 <1>   0.0800 
 28 H       -0.7180     0.6310     1.4790 H     1 <1>   0.0800 
 29 H        3.3960    -0.4170    -0.8290 H     1 <1>   0.0800 
 30 H        2.4670     0.6670    -1.8300 H     1 <1>   0.0800 
 31 H        2.1520    -1.0540    -1.8930 H     1 <1>   0.0800 
 32 H        2.4790    -1.3410     1.1410 H     1 <1>   0.0800 
 33 H        1.2620    -2.1570     0.1780 H     1 <1>   0.0800 
 34 H        0.7880    -1.1460     1.5250 H     1 <1>   0.0800 
 35 H       -0.8400     2.9380     1.7050 H     1 <1>   0.0800 
 36 H       -1.1190     3.1460    -1.2880 H     1 <1>   0.0800 
 37 H        1.5110     2.4280    -0.0870 H     1 <1>   0.0800 
 38 H        1.4790     2.7210     1.6460 H     1 <1>   0.0800 
 39 H       -2.3930     4.4280     0.8850 H     1 <1>   0.4000 
 40 H       -0.6490     5.6270     0.2370 H     1 <1>   0.0800 
 41 H        0.0390     5.1180    -1.3030 H     1 <1>   0.0800 
 42 H        4.2330     6.5430     0.9650 H     1 <1>   0.4000 
 43 H        5.8710     8.4140     0.9950 H     1 <1>   0.1500 
 44 H        2.2850    11.2930    -0.7530 H     1 <1>   0.1500 
 45 H        6.3090    10.7980     0.5620 H     1 <1>   0.1500 
 46 H        4.5180    12.2350    -0.3110 H     1 <1>   0.1500 
@<TRIPOS>BOND
  1   1   2  2   
  2   1   3  2   
  3   1   4  am  
  4   1   5  1   
  5   4   6  1   
  6   4   7  1   
  7   5   8  1   
  8   5  27  1   
  9   5  28  1   
 10   6  29  1   
 11   6  30  1   
 12   6  31  1   
 13   7  32  1   
 14   7  33  1   
 15   7  34  1   
 16   8   9  1   
 17   8  10  1   
 18   8  35  1   
 19   9  11  1   
 20   9  12  1   
 21   9  36  1   
 22  10  13  1   
 23  10  37  1   
 24  10  38  1   
 25  11  39  1   
 26  12  13  1   
 27  12  40  1   
 28  12  41  1   
 29  13  14  am  
 30  14  15  2   
 31  14  16  1   
 32  16  17  1   
 33  16  18  2   
 34  17  19  1   
 35  17  42  1   
 36  18  20  1   
 37  19  21  ar  
 38  19  22  ar  
 39  20  21  1   
 40  20  23  2   
 41  21  24  ar  
 42  22  25  ar  
 43  22  43  1   
 44  24  26  ar  
 45  24  44  1   
 46  25  26  ar  
 47  25  45  1   
 48  26  46  1   
@<TRIPOS>SUBSTRUCTURE
  1 ****  13 GROUP 4 **** **** 0

# MOE 2024.06 (io_trps.svl 2023.06)
