@<TRIPOS>MOLECULE
NONAME
45 46 1 0 0 
SMALL
USER_CHARGES


@<TRIPOS>ATOM
  1 O        1.3670    -1.0860    -1.9900 O.2   1 <1>  -0.5700 
  2 C        1.4870    -1.0070    -0.7890 C.2   1 <1>   0.5690 
  3 N        1.8190     0.1740    -0.1790 N.am  1 <1>  -0.6600 
  4 C        1.2420    -2.2600     0.0410 C.3   1 <1>  -0.0990 
  5 C        2.2030     1.3620    -0.9950 C.3   1 <1>   0.3210 
  6 C        1.8500     0.3870     1.2980 C.3   1 <1>   0.0600 
  7 C        1.3930    -3.5690    -0.7560 C.3   1 <1>  -0.0990 
  8 C        3.5430     1.9060    -0.5300 C.2   1 <1>  -0.1810 
  9 C        1.1130    -4.7780     0.1100 C.2   1 <1>   0.5690 
 10 C        3.8780     3.1020     0.0060 C.2   1 <1>  -0.3320 
 11 C        4.7360     1.1950    -0.5850 C.2   1 <1>   0.1390 
 12 O        1.8500    -5.0190     1.0340 O.2   1 <1>  -0.5700 
 13 N        0.0350    -5.5450    -0.1790 N.am  1 <1>  -0.7300 
 14 N        5.2080     3.0570     0.2380 N.pl3 1 <1>   0.3000 
 15 C        3.0220     4.3170     0.3240 C.3   1 <1>  -0.0600 
 16 N        5.7400     1.8760    -0.1250 N.2   1 <1>  -0.7070 
 17 C       -0.3700    -6.7550     0.5540 C.3   1 <1>   0.2200 
 18 C       -0.4230    -7.9250    -0.4200 C.3   1 <1>  -0.1600 
 19 C       -1.8200    -6.6000     0.9960 C.3   1 <1>  -0.1600 
 20 C       -1.7720    -7.8080    -1.1400 C.3   1 <1>  -0.1600 
 21 C       -2.6720    -6.9670    -0.2250 C.3   1 <1>  -0.1600 
 22 H        0.2510    -2.2050     0.4500 H     1 <1>   0.0800 
 23 H        1.9440    -2.2850     0.8550 H     1 <1>   0.0800 
 24 H        1.4420     2.1140    -0.8960 H     1 <1>   0.0800 
 25 H        2.2770     1.1050    -2.0380 H     1 <1>   0.0800 
 26 H        1.1760    -0.2840     1.7990 H     1 <1>   0.0800 
 27 H        1.5550     1.3960     1.5290 H     1 <1>   0.0800 
 28 H        2.8490     0.2270     1.6650 H     1 <1>   0.0800 
 29 H        2.3970    -3.6450    -1.1330 H     1 <1>   0.0800 
 30 H        0.7230    -3.5650    -1.5960 H     1 <1>   0.0800 
 31 H        4.8240     0.1890    -0.9640 H     1 <1>   0.1500 
 32 H       -0.5630    -5.3190    -0.9730 H     1 <1>   0.3700 
 33 H        5.7800     3.8100     0.6390 H     1 <1>   0.2700 
 34 H        1.9930     4.1370     0.0700 H     1 <1>   0.0800 
 35 H        3.3660     5.1680    -0.2360 H     1 <1>   0.0800 
 36 H        3.0770     4.5440     1.3740 H     1 <1>   0.0800 
 37 H        0.2940    -6.9410     1.3830 H     1 <1>   0.0800 
 38 H       -0.4080    -8.8390     0.1470 H     1 <1>   0.0800 
 39 H        0.4130    -7.9280    -1.0970 H     1 <1>   0.0800 
 40 H       -2.0280    -5.6130     1.3700 H     1 <1>   0.0800 
 41 H       -2.0120    -7.3110     1.7800 H     1 <1>   0.0800 
 42 H       -2.1950    -8.7820    -1.3220 H     1 <1>   0.0800 
 43 H       -1.6410    -7.3050    -2.0820 H     1 <1>   0.0800 
 44 H       -2.9800    -6.0730    -0.7410 H     1 <1>   0.0800 
 45 H       -3.5510    -7.5140     0.0720 H     1 <1>   0.0800 
@<TRIPOS>BOND
  1   1   2  2   
  2   2   3  am  
  3   2   4  1   
  4   3   5  1   
  5   3   6  1   
  6   4   7  1   
  7   4  22  1   
  8   4  23  1   
  9   5   8  1   
 10   5  24  1   
 11   5  25  1   
 12   6  26  1   
 13   6  27  1   
 14   6  28  1   
 15   7   9  1   
 16   7  29  1   
 17   7  30  1   
 18   8  10  2   
 19   8  11  1   
 20   9  12  2   
 21   9  13  am  
 22  10  14  1   
 23  10  15  1   
 24  11  16  2   
 25  11  31  1   
 26  13  17  1   
 27  13  32  1   
 28  14  16  1   
 29  14  33  1   
 30  15  34  1   
 31  15  35  1   
 32  15  36  1   
 33  17  18  1   
 34  17  19  1   
 35  17  37  1   
 36  18  20  1   
 37  18  38  1   
 38  18  39  1   
 39  19  21  1   
 40  19  40  1   
 41  19  41  1   
 42  20  21  1   
 43  20  42  1   
 44  20  43  1   
 45  21  44  1   
 46  21  45  1   
@<TRIPOS>SUBSTRUCTURE
  1 ****   4 GROUP 4 **** **** 0

# MOE 2024.06 (io_trps.svl 2023.06)
