@<TRIPOS>MOLECULE
NONAME
50 54 1 0 0 
SMALL
USER_CHARGES


@<TRIPOS>ATOM
  1 O       -0.6390     1.3350    -1.1090 O.2   1 <1>  -0.5700 
  2 C       -0.2550     2.3400    -0.5570 C.2   1 <1>   0.5690 
  3 N       -1.1070     3.2440     0.0240 N.am  1 <1>  -0.5090 
  4 C        1.2520     2.6080    -0.5560 C.3   1 <1>   0.1810 
  5 C       -0.6130     4.5560     0.5460 C.3   1 <1>   0.3640 
  6 C       -2.5600     2.9810     0.1810 C.3   1 <1>   0.0490 
  7 O        1.6390     3.6340     0.3280 O.3   1 <1>  -0.5600 
  8 C       -1.4640     5.6990    -0.0100 C.ar  1 <1>  -0.1440 
  9 C        0.8740     4.8120     0.2040 C.3   1 <1>   0.2610 
 10 C       -3.1560     3.0260     1.5550 C.3   1 <1>  -0.2000 
 11 C       -3.0120     1.7190     0.8440 C.3   1 <1>  -0.2000 
 12 C       -1.9990     6.6450     0.8530 C.ar  1 <1>   0.1600 
 13 C       -1.7090     5.8280    -1.3650 C.ar  1 <1>  -0.1500 
 14 C        1.4710     5.9370     1.0610 C.2   1 <1>   0.5690 
 15 N       -2.7210     7.6900     0.4800 N.ar  1 <1>  -0.6200 
 16 C       -2.4710     6.9030    -1.7680 C.ar  1 <1>  -0.1500 
 17 O        0.8600     6.3800     2.0070 O.2   1 <1>  -0.5700 
 18 N        2.6730     6.4590     0.7080 N.am  1 <1>  -0.7300 
 19 C       -2.9470     7.7900    -0.8190 C.ar  1 <1>   0.1600 
 20 C        3.2730     7.6690     1.3100 C.3   1 <1>   0.3200 
 21 C        2.9580     8.8630     0.4350 C.2   1 <1>   0.0060 
 22 N        3.7950     9.4610    -0.3490 N.2   1 <1>  -0.3380 
 23 N        1.7550     9.4330     0.3680 N.pl3 1 <1>   0.0480 
 24 N        3.1290    10.4570    -0.9510 N.2   1 <1>  -0.3380 
 25 C        1.9270    10.4030    -0.4980 C.2   1 <1>   0.0060 
 26 C        0.3910     9.3400     0.8860 C.3   1 <1>   0.0960 
 27 C        0.6700    11.1960    -0.7300 C.3   1 <1>   0.0200 
 28 C       -0.2860    10.6130     0.3340 C.3   1 <1>  -0.1600 
 29 H        1.5680     2.8760    -1.5470 H     1 <1>   0.0800 
 30 H        1.7690     1.7130    -0.2610 H     1 <1>   0.0800 
 31 H       -0.7130     4.5280     1.6170 H     1 <1>   0.0800 
 32 H       -3.1410     3.3520    -0.6470 H     1 <1>   0.1000 
 33 H        0.9430     5.1280    -0.8210 H     1 <1>   0.0800 
 34 H       -2.5330     3.1940     2.4150 H     1 <1>   0.1000 
 35 H       -4.1460     3.4300     1.6750 H     1 <1>   0.1000 
 36 H       -3.8970     1.2350     0.4710 H     1 <1>   0.1000 
 37 H       -2.2660     1.0170     1.1730 H     1 <1>   0.1000 
 38 H       -1.8150     6.5470     1.9110 H     1 <1>   0.1500 
 39 H       -1.3320     5.1190    -2.0840 H     1 <1>   0.1500 
 40 H       -2.7000     7.0520    -2.8080 H     1 <1>   0.1500 
 41 H        3.1850     6.0900    -0.0960 H     1 <1>   0.3700 
 42 H       -3.5450     8.6240    -1.1460 H     1 <1>   0.1500 
 43 H        2.8840     7.8290     2.3010 H     1 <1>   0.0800 
 44 H        4.3400     7.5430     1.3810 H     1 <1>   0.0800 
 45 H       -0.0690     8.4560     0.4850 H     1 <1>   0.0800 
 46 H        0.3930     9.3070     1.9600 H     1 <1>   0.0800 
 47 H        0.8440    12.2470    -0.5850 H     1 <1>   0.0800 
 48 H        0.3070    11.0130    -1.7260 H     1 <1>   0.0800 
 49 H       -1.2550    10.3870    -0.0760 H     1 <1>   0.0800 
 50 H       -0.4110    11.3190     1.1360 H     1 <1>   0.0800 
@<TRIPOS>BOND
  1   1   2  2   
  2   2   3  am  
  3   2   4  1   
  4   3   5  1   
  5   3   6  1   
  6   4   7  1   
  7   4  29  1   
  8   4  30  1   
  9   5   8  1   
 10   5   9  1   
 11   5  31  1   
 12   6  10  1   
 13   6  11  1   
 14   6  32  1   
 15   7   9  1   
 16   8  12  ar  
 17   8  13  ar  
 18   9  14  1   
 19   9  33  1   
 20  10  11  1   
 21  10  34  1   
 22  10  35  1   
 23  11  36  1   
 24  11  37  1   
 25  12  15  ar  
 26  12  38  1   
 27  13  16  ar  
 28  13  39  1   
 29  14  17  2   
 30  14  18  am  
 31  15  19  ar  
 32  16  19  ar  
 33  16  40  1   
 34  18  20  1   
 35  18  41  1   
 36  19  42  1   
 37  20  21  1   
 38  20  43  1   
 39  20  44  1   
 40  21  22  2   
 41  21  23  1   
 42  22  24  1   
 43  23  25  1   
 44  23  26  1   
 45  24  25  2   
 46  25  27  1   
 47  26  28  1   
 48  26  45  1   
 49  26  46  1   
 50  27  28  1   
 51  27  47  1   
 52  27  48  1   
 53  28  49  1   
 54  28  50  1   
@<TRIPOS>SUBSTRUCTURE
  1 ****   8 GROUP 4 **** **** 0

# MOE 2024.06 (io_trps.svl 2023.06)
