@<TRIPOS>MOLECULE
NONAME
45 48 1 0 0 
SMALL
USER_CHARGES


@<TRIPOS>ATOM
  1 O       -0.7500     0.5370     1.4940 O.2   1 <1>  -0.5700 
  2 C       -1.6110     1.1060     0.8440 C.2   1 <1>   0.7150 
  3 N       -2.6750     0.3460     0.3980 N.am  1 <1>  -0.6600 
  4 C       -1.4590     2.5260     0.5800 C.2   1 <1>   0.0550 
  5 C       -3.8840     0.8310    -0.3140 C.3   1 <1>   0.1400 
  6 C       -2.8090    -1.0980     0.6860 C.3   1 <1>   0.1400 
  7 O       -2.2680     3.1980    -0.2580 O.3   1 <1>  -0.2800 
  8 C       -0.5330     3.3860     1.0790 C.2   1 <1>  -0.1500 
  9 C       -4.8410    -0.3680    -0.3810 C.3   1 <1>   0.2000 
 10 C       -3.9150    -1.5820    -0.2530 C.3   1 <1>  -0.0800 
 11 C       -1.8720     4.4680    -0.2960 C.ar  1 <1>   0.1400 
 12 C       -0.7790     4.6530     0.5280 C.ar  1 <1>   0.0000 
 13 O       -5.7110    -0.3500     0.7160 O.3   1 <1>  -0.5600 
 14 C       -4.6090    -2.8710     0.2270 C.3   1 <1>   0.0200 
 15 C       -2.4230     5.5100    -1.0300 C.ar  1 <1>  -0.1500 
 16 C       -0.2050     5.9210     0.6330 C.ar  1 <1>  -0.1500 
 17 C       -6.8490     0.4390     0.5610 C.3   1 <1>   0.0400 
 18 C       -3.7050    -4.0920     0.1750 C.2   1 <1>  -0.0400 
 19 C       -1.8520     6.7620    -0.9220 C.ar  1 <1>  -0.1500 
 20 C       -0.7450     6.9650    -0.0920 C.ar  1 <1>  -0.1500 
 21 O       -4.1560    -5.2250     0.6440 O.3   1 <1>  -0.0190 
 22 C       -2.4580    -4.3050    -0.2760 C.2   1 <1>  -0.1500 
 23 N       -3.2800    -6.1820     0.5340 N.2   1 <1>  -0.4100 
 24 C       -2.2460    -5.6560    -0.0160 C.2   1 <1>   0.1080 
 25 C       -0.9750    -6.4110    -0.3340 C.3   1 <1>  -0.0590 
 26 H       -4.3260     1.6650     0.2020 H     1 <1>   0.0800 
 27 H       -3.6020     1.1280    -1.3090 H     1 <1>   0.0800 
 28 H       -1.8780    -1.6120     0.5180 H     1 <1>   0.0800 
 29 H       -3.1040    -1.2190     1.7150 H     1 <1>   0.0800 
 30 H        0.2580     3.1610     1.7710 H     1 <1>   0.1500 
 31 H       -5.4160    -0.3930    -1.2910 H     1 <1>   0.0800 
 32 H       -3.4750    -1.7620    -1.2180 H     1 <1>   0.0800 
 33 H       -5.4700    -3.0620    -0.3890 H     1 <1>   0.0800 
 34 H       -4.9550    -2.7440     1.2380 H     1 <1>   0.0800 
 35 H       -3.2730     5.3270    -1.6610 H     1 <1>   0.1500 
 36 H        0.6460     6.0670     1.2740 H     1 <1>   0.1500 
 37 H       -7.4250     0.3730     1.4670 H     1 <1>   0.0800 
 38 H       -7.4310     0.0660    -0.2640 H     1 <1>   0.0800 
 39 H       -6.5620     1.4620     0.3920 H     1 <1>   0.0800 
 40 H       -2.2550     7.5910    -1.4780 H     1 <1>   0.1500 
 41 H       -0.3140     7.9490    -0.0230 H     1 <1>   0.1500 
 42 H       -1.7560    -3.6340    -0.7340 H     1 <1>   0.1500 
 43 H       -0.7830    -6.3750    -1.3900 H     1 <1>   0.0800 
 44 H       -1.0740    -7.4380    -0.0320 H     1 <1>   0.0800 
 45 H       -0.1490    -5.9720     0.1940 H     1 <1>   0.0800 
@<TRIPOS>BOND
  1   1   2  2   
  2   2   3  am  
  3   2   4  1   
  4   3   5  1   
  5   3   6  1   
  6   4   7  1   
  7   4   8  2   
  8   5   9  1   
  9   5  26  1   
 10   5  27  1   
 11   6  10  1   
 12   6  28  1   
 13   6  29  1   
 14   7  11  1   
 15   8  12  1   
 16   8  30  1   
 17   9  10  1   
 18   9  13  1   
 19   9  31  1   
 20  10  14  1   
 21  10  32  1   
 22  11  12  ar  
 23  11  15  ar  
 24  12  16  ar  
 25  13  17  1   
 26  14  18  1   
 27  14  33  1   
 28  14  34  1   
 29  15  19  ar  
 30  15  35  1   
 31  16  20  ar  
 32  16  36  1   
 33  17  37  1   
 34  17  38  1   
 35  17  39  1   
 36  18  21  1   
 37  18  22  2   
 38  19  20  ar  
 39  19  40  1   
 40  20  41  1   
 41  21  23  1   
 42  22  24  1   
 43  22  42  1   
 44  23  24  2   
 45  24  25  1   
 46  25  43  1   
 47  25  44  1   
 48  25  45  1   
@<TRIPOS>SUBSTRUCTURE
  1 ****   3 GROUP 4 **** **** 0

# MOE 2024.06 (io_trps.svl 2023.06)
