@<TRIPOS>MOLECULE
NONAME
46 49 1 0 0 
SMALL
USER_CHARGES


@<TRIPOS>ATOM
  1 F       -2.3000     4.0750    -0.0480 F     1 <1>  -0.1900 
  2 C       -1.5280     3.4370     0.7930 C.ar  1 <1>   0.1900 
  3 C       -0.4190     2.7500     0.3170 C.ar  1 <1>  -0.0320 
  4 C       -1.8510     3.4880     2.1360 C.ar  1 <1>  -0.1500 
  5 C        0.3890     2.1050     1.2420 C.ar  1 <1>  -0.1500 
  6 C       -0.0660     2.7230    -1.1650 C.3   1 <1>   0.0320 
  7 C       -1.0350     2.8340     3.0430 C.ar  1 <1>  -0.1500 
  8 C        0.0820     2.1460     2.5940 C.ar  1 <1>  -0.1500 
  9 C        0.7280     3.9600    -1.5740 C.2   1 <1>   0.6300 
 10 C       -1.0490     2.1290    -2.1370 C.3   1 <1>  -0.2000 
 11 C        0.2120     1.3950    -1.8160 C.3   1 <1>  -0.2000 
 12 O        1.9130     3.8620    -1.7880 O.2   1 <1>  -0.5700 
 13 N        0.0440     5.1390    -1.6540 N.am  1 <1>  -0.4940 
 14 C        0.5080     6.4510    -1.9070 C.2   1 <1>  -0.0880 
 15 N        1.5800     7.0740    -1.3300 N.pl3 1 <1>   0.3140 
 16 C       -0.0560     7.3460    -2.7510 C.2   1 <1>  -0.1810 
 17 N        1.7040     8.3430    -1.8060 N.2   1 <1>  -0.7070 
 18 C        2.4920     6.5220    -0.2740 C.3   1 <1>   0.1760 
 19 C        0.7290     8.4860    -2.6460 C.2   1 <1>   0.1390 
 20 C       -1.2710     7.1920    -3.6460 C.3   1 <1>  -0.0590 
 21 C        1.7420     6.0200     0.9750 C.3   1 <1>  -0.1600 
 22 C        3.5180     7.5250     0.2720 C.3   1 <1>  -0.1600 
 23 C        2.5800     6.4230     2.1960 C.3   1 <1>  -0.1600 
 24 C        3.8930     6.9720     1.6420 C.3   1 <1>  -0.1600 
 25 H       -2.7210     4.0300     2.4630 H     1 <1>   0.1500 
 26 H        1.2640     1.5730     0.9100 H     1 <1>   0.1500 
 27 H       -1.2660     2.8600     4.0940 H     1 <1>   0.1500 
 28 H        0.7180     1.6400     3.3010 H     1 <1>   0.1500 
 29 H       -1.1470     2.5650    -3.1160 H     1 <1>   0.1000 
 30 H       -1.9800     1.7370    -1.7640 H     1 <1>   0.1000 
 31 H        0.1460     0.4970    -1.2270 H     1 <1>   0.1000 
 32 H        0.9930     1.3460    -2.5560 H     1 <1>   0.1000 
 33 H       -0.9650     5.0540    -1.5160 H     1 <1>   0.3700 
 34 H        3.0410     5.7050    -0.7040 H     1 <1>   0.0800 
 35 H        0.5580     9.3960    -3.1960 H     1 <1>   0.1500 
 36 H       -1.6280     6.1780    -3.6300 H     1 <1>   0.0800 
 37 H       -1.0120     7.4460    -4.6580 H     1 <1>   0.0800 
 38 H       -2.0570     7.8440    -3.3120 H     1 <1>   0.0800 
 39 H        1.6430     4.9500     0.9340 H     1 <1>   0.0800 
 40 H        0.7650     6.4660     1.0430 H     1 <1>   0.0800 
 41 H        3.0610     8.4910     0.4050 H     1 <1>   0.0800 
 42 H        4.3700     7.6150    -0.3770 H     1 <1>   0.0800 
 43 H        2.7480     5.5910     2.8590 H     1 <1>   0.0800 
 44 H        2.0680     7.2010     2.7360 H     1 <1>   0.0800 
 45 H        4.3180     7.7270     2.2810 H     1 <1>   0.0800 
 46 H        4.6000     6.1680     1.5240 H     1 <1>   0.0800 
@<TRIPOS>BOND
  1   1   2  1   
  2   2   3  ar  
  3   2   4  ar  
  4   3   5  ar  
  5   3   6  1   
  6   4   7  ar  
  7   4  25  1   
  8   5   8  ar  
  9   5  26  1   
 10   6   9  1   
 11   6  10  1   
 12   6  11  1   
 13   7   8  ar  
 14   7  27  1   
 15   8  28  1   
 16   9  12  2   
 17   9  13  am  
 18  10  11  1   
 19  10  29  1   
 20  10  30  1   
 21  11  31  1   
 22  11  32  1   
 23  13  14  1   
 24  13  33  1   
 25  14  15  1   
 26  14  16  2   
 27  15  17  1   
 28  15  18  1   
 29  16  19  1   
 30  16  20  1   
 31  17  19  2   
 32  18  21  1   
 33  18  22  1   
 34  18  34  1   
 35  19  35  1   
 36  20  36  1   
 37  20  37  1   
 38  20  38  1   
 39  21  23  1   
 40  21  39  1   
 41  21  40  1   
 42  22  24  1   
 43  22  41  1   
 44  22  42  1   
 45  23  24  1   
 46  23  43  1   
 47  23  44  1   
 48  24  45  1   
 49  24  46  1   
@<TRIPOS>SUBSTRUCTURE
  1 ****  13 GROUP 4 **** **** 0

# MOE 2024.06 (io_trps.svl 2023.06)
