@<TRIPOS>MOLECULE
NONAME
47 48 1 0 0 
SMALL
USER_CHARGES


@<TRIPOS>ATOM
  1 O        3.5020    -0.4460    -1.0030 O.2   1 <1>  -0.5700 
  2 C        2.3570    -0.7050    -0.7140 C.2   1 <1>   0.5690 
  3 N        1.4590     0.2570    -0.3190 N.am  1 <1>  -0.4940 
  4 C        1.9050    -2.1810    -0.8430 C.3   1 <1>   0.4840 
  5 C        1.6210     1.6630    -0.2490 C.2   1 <1>  -0.0880 
  6 N        2.8430    -3.0080    -1.7280 N.4   1 <1>  -0.9590 
  7 C        1.6710    -2.7790     0.5630 C.3   1 <1>  -0.0170 
  8 N        2.6850     2.3840     0.2200 N.pl3 1 <1>   0.3140 
  9 C        0.6890     2.5700    -0.6260 C.2   1 <1>  -0.1500 
 10 C        2.1750    -4.1850    -2.3730 C.3   1 <1>   0.2630 
 11 C        4.1120    -3.4220    -1.0490 C.3   1 <1>   0.2630 
 12 C        1.0950    -4.1850     0.5120 C.ar  1 <1>  -0.1440 
 13 N        2.4360     3.7130     0.1500 N.2   1 <1>  -0.7070 
 14 C        3.9250     1.9160     0.8800 C.3   1 <1>   0.0960 
 15 C        1.2510     3.8100    -0.3620 C.2   1 <1>   0.1390 
 16 C        1.8330    -5.2650     0.9760 C.ar  1 <1>  -0.1500 
 17 C       -0.1740    -4.4000    -0.0070 C.ar  1 <1>  -0.1500 
 18 C        5.1590     2.1810     0.0040 C.3   1 <1>  -0.1600 
 19 C        1.3200    -6.5470     0.8930 C.ar  1 <1>  -0.1500 
 20 C       -0.6860    -5.6830    -0.0890 C.ar  1 <1>  -0.1500 
 21 C        6.4360     1.6450     0.6620 C.3   1 <1>  -0.2400 
 22 C        0.0630    -6.7570     0.3560 C.ar  1 <1>  -0.1500 
 23 H        0.4880    -0.0300    -0.1810 H     1 <1>   0.3700 
 24 H        0.9490    -2.1510    -1.3350 H     1 <1>   0.0800 
 25 H        3.1380    -2.3520    -2.4720 H     1 <1>   0.4500 
 26 H        2.5850    -2.7610     1.1300 H     1 <1>   0.0800 
 27 H        0.9720    -2.1600     1.0960 H     1 <1>   0.0800 
 28 H       -0.2870     2.4100    -1.0460 H     1 <1>   0.1500 
 29 H        1.9230    -4.9320    -1.6380 H     1 <1>   0.0800 
 30 H        2.8340    -4.6350    -3.0990 H     1 <1>   0.0800 
 31 H        1.2720    -3.8790    -2.8750 H     1 <1>   0.0800 
 32 H        3.9050    -4.1260    -0.2600 H     1 <1>   0.0800 
 33 H        4.6100    -2.5620    -0.6290 H     1 <1>   0.0800 
 34 H        4.7790    -3.8880    -1.7570 H     1 <1>   0.0800 
 35 H        4.0230     2.4480     1.8080 H     1 <1>   0.0800 
 36 H        3.8350     0.8710     1.1000 H     1 <1>   0.0800 
 37 H        0.7670     4.7540    -0.5520 H     1 <1>   0.1500 
 38 H        2.8070    -5.1270     1.4110 H     1 <1>   0.1500 
 39 H       -0.7840    -3.5820    -0.3480 H     1 <1>   0.1500 
 40 H        5.0310     1.7120    -0.9560 H     1 <1>   0.0800 
 41 H        5.2600     3.2430    -0.1510 H     1 <1>   0.0800 
 42 H        1.8930    -7.3850     1.2530 H     1 <1>   0.1500 
 43 H       -1.6710    -5.8500    -0.4920 H     1 <1>   0.1500 
 44 H        6.3700     0.5810     0.8040 H     1 <1>   0.0800 
 45 H        6.5960     2.1180     1.6150 H     1 <1>   0.0800 
 46 H        7.2850     1.8530     0.0340 H     1 <1>   0.0800 
 47 H       -0.3370    -7.7550     0.2950 H     1 <1>   0.1500 
@<TRIPOS>BOND
  1   1   2  2   
  2   2   3  am  
  3   2   4  1   
  4   3   5  1   
  5   3  23  1   
  6   4   6  1   
  7   4   7  1   
  8   4  24  1   
  9   5   8  1   
 10   5   9  2   
 11   6  10  1   
 12   6  11  1   
 13   6  25  1   
 14   7  12  1   
 15   7  26  1   
 16   7  27  1   
 17   8  13  1   
 18   8  14  1   
 19   9  15  1   
 20   9  28  1   
 21  10  29  1   
 22  10  30  1   
 23  10  31  1   
 24  11  32  1   
 25  11  33  1   
 26  11  34  1   
 27  12  16  ar  
 28  12  17  ar  
 29  13  15  2   
 30  14  18  1   
 31  14  35  1   
 32  14  36  1   
 33  15  37  1   
 34  16  19  ar  
 35  16  38  1   
 36  17  20  ar  
 37  17  39  1   
 38  18  21  1   
 39  18  40  1   
 40  18  41  1   
 41  19  22  ar  
 42  19  42  1   
 43  20  22  ar  
 44  20  43  1   
 45  21  44  1   
 46  21  45  1   
 47  21  46  1   
 48  22  47  1   
@<TRIPOS>SUBSTRUCTURE
  1 ****   2 GROUP 4 **** **** 0

# MOE 2024.06 (io_trps.svl 2023.06)
