@<TRIPOS>MOLECULE
NONAME
51 53 1 0 0 
SMALL
USER_CHARGES


@<TRIPOS>ATOM
  1 O        0.1400    -1.6360    -1.1760 O.2   1 <1>  -0.5700 
  2 C        1.1510    -2.2670    -1.0070 C.2   1 <1>   0.5690 
  3 N        1.7130    -2.9820    -2.0030 N.am  1 <1>  -0.7300 
  4 C        1.8330    -2.2910     0.3430 C.3   1 <1>  -0.0990 
  5 C        2.9450    -3.7790    -1.8310 C.3   1 <1>   0.1400 
  6 C        3.3570    -2.1450     0.1770 C.3   1 <1>  -0.0800 
  7 C        3.9590    -3.0010    -0.9670 C.3   1 <1>  -0.0800 
  8 C        4.1370    -2.5020     1.4510 C.3   1 <1>  -0.1600 
  9 C        5.0000    -3.9110    -0.3030 C.3   1 <1>  -0.1600 
 10 C        5.4250    -3.1350     0.9400 C.3   1 <1>   0.2200 
 11 N        6.1210    -3.9460     1.9840 N.am  1 <1>  -0.6600 
 12 C        7.2750    -3.5260     2.6100 C.2   1 <1>   0.5690 
 13 C        5.5480    -5.2860     2.3210 C.3   1 <1>   0.0600 
 14 O        7.8750    -4.2510     3.3720 O.2   1 <1>  -0.5700 
 15 C        7.8520    -2.1290     2.4020 C.3   1 <1>   0.0440 
 16 C        8.5920    -1.9780     1.0700 C.ar  1 <1>  -0.1440 
 17 C        8.2700    -0.9820     0.1480 C.ar  1 <1>   0.0820 
 18 C        9.6190    -2.8640     0.7810 C.ar  1 <1>  -0.1500 
 19 O        7.2560    -0.1280     0.4570 O.3   1 <1>  -0.3620 
 20 C        8.9780    -0.8960    -1.0470 C.ar  1 <1>  -0.1500 
 21 C       10.3210    -2.7750    -0.4070 C.ar  1 <1>  -0.1500 
 22 C        6.9000     0.9380    -0.3970 C.3   1 <1>   0.0400 
 23 C       10.0000    -1.7850    -1.3290 C.ar  1 <1>   0.0820 
 24 O       10.6350    -1.6280    -2.5180 O.3   1 <1>  -0.3620 
 25 C       11.7090    -2.4630    -2.8900 C.3   1 <1>   0.0400 
 26 H        1.2320    -2.9960    -2.9050 H     1 <1>   0.3700 
 27 H        1.4470    -1.4970     0.9560 H     1 <1>   0.0800 
 28 H        1.5920    -3.2280     0.8110 H     1 <1>   0.0800 
 29 H        2.6800    -4.7070    -1.3530 H     1 <1>   0.0800 
 30 H        3.3760    -4.0020    -2.7920 H     1 <1>   0.0800 
 31 H        3.5590    -1.1130    -0.0630 H     1 <1>   0.0800 
 32 H        4.4880    -2.3290    -1.6220 H     1 <1>   0.0800 
 33 H        3.5860    -3.2130     2.0390 H     1 <1>   0.0800 
 34 H        4.3410    -1.6290     2.0440 H     1 <1>   0.0800 
 35 H        5.8390    -4.0960    -0.9510 H     1 <1>   0.0800 
 36 H        4.5370    -4.8420    -0.0330 H     1 <1>   0.0800 
 37 H        6.0610    -2.3430     0.6000 H     1 <1>   0.0800 
 38 H        4.4740    -5.2500     2.3280 H     1 <1>   0.0800 
 39 H        5.8780    -5.6050     3.2950 H     1 <1>   0.0800 
 40 H        5.8760    -6.0100     1.5960 H     1 <1>   0.0800 
 41 H        7.0590    -1.4160     2.5080 H     1 <1>   0.0800 
 42 H        8.5490    -1.9320     3.1950 H     1 <1>   0.0800 
 43 H        9.8770    -3.6360     1.4890 H     1 <1>   0.1500 
 44 H        8.7610    -0.1470    -1.7810 H     1 <1>   0.1500 
 45 H       11.1080    -3.4810    -0.5920 H     1 <1>   0.1500 
 46 H        6.0970     1.4830     0.0650 H     1 <1>   0.0800 
 47 H        6.5740     0.5370    -1.3400 H     1 <1>   0.0800 
 48 H        7.7520     1.5820    -0.5250 H     1 <1>   0.0800 
 49 H       12.0570    -2.1480    -3.8560 H     1 <1>   0.0800 
 50 H       11.3590    -3.4790    -2.9400 H     1 <1>   0.0800 
 51 H       12.4970    -2.3610    -2.1650 H     1 <1>   0.0800 
@<TRIPOS>BOND
  1   1   2  2   
  2   2   3  am  
  3   2   4  1   
  4   3   5  1   
  5   3  26  1   
  6   4   6  1   
  7   4  27  1   
  8   4  28  1   
  9   5   7  1   
 10   5  29  1   
 11   5  30  1   
 12   6   7  1   
 13   6   8  1   
 14   6  31  1   
 15   7   9  1   
 16   7  32  1   
 17   8  10  1   
 18   8  33  1   
 19   8  34  1   
 20   9  10  1   
 21   9  35  1   
 22   9  36  1   
 23  10  11  1   
 24  10  37  1   
 25  11  12  am  
 26  11  13  1   
 27  12  14  2   
 28  12  15  1   
 29  13  38  1   
 30  13  39  1   
 31  13  40  1   
 32  15  16  1   
 33  15  41  1   
 34  15  42  1   
 35  16  17  ar  
 36  16  18  ar  
 37  17  19  1   
 38  17  20  ar  
 39  18  21  ar  
 40  18  43  1   
 41  19  22  1   
 42  20  23  ar  
 43  20  44  1   
 44  21  23  ar  
 45  21  45  1   
 46  22  46  1   
 47  22  47  1   
 48  22  48  1   
 49  23  24  1   
 50  24  25  1   
 51  25  49  1   
 52  25  50  1   
 53  25  51  1   
@<TRIPOS>SUBSTRUCTURE
  1 ****  10 GROUP 4 **** **** 0

# MOE 2024.06 (io_trps.svl 2023.06)
