@<TRIPOS>MOLECULE
NONAME
37 38 1 0 0 
SMALL
USER_CHARGES


@<TRIPOS>ATOM
  1 S        0.0100    -0.0340    -1.1260 S.o2  1 <1>   1.3330 
  2 O       -0.7990    -1.2260    -1.0080 O.2   1 <1>  -0.6500 
  3 O        0.6160     0.3010    -2.3940 O.2   1 <1>  -0.6500 
  4 N        1.2530    -0.1490     0.0280 N.am  1 <1>  -0.8490 
  5 C       -0.9440     1.3860    -0.5840 C.3   1 <1>  -0.0550 
  6 C        2.4480    -0.8040    -0.5150 C.3   1 <1>   0.1160 
  7 C        0.8370    -0.8300     1.2600 C.3   1 <1>   0.1160 
  8 C       -0.2220     2.7400    -0.7600 C.3   1 <1>  -0.0800 
  9 C       -1.0760     3.9560    -0.4010 C.3   1 <1>   0.2000 
 10 C        1.0470     2.9080     0.0870 C.3   1 <1>   0.2090 
 11 O       -1.7000     3.7220     0.8160 O.3   1 <1>  -0.6800 
 12 C       -0.0380     5.0560    -0.1970 C.3   1 <1>   0.2090 
 13 N        1.1210     4.3560     0.4280 N.pl3 1 <1>  -0.8380 
 14 C        2.3540     4.9940     0.5450 C.ar  1 <1>   0.4100 
 15 N        2.4340     6.2330     0.0740 N.ar  1 <1>  -0.6200 
 16 C        3.4580     4.3560     1.1440 C.ar  1 <1>   0.1600 
 17 C        3.6370     6.7620     0.2230 C.ar  1 <1>   0.1600 
 18 N        4.6620     4.8780     1.2900 N.ar  1 <1>  -0.6200 
 19 C        4.7140     6.1110     0.8070 C.ar  1 <1>   0.1600 
 20 H       -1.8510     1.4190    -1.1560 H     1 <1>   0.0800 
 21 H       -1.2250     1.2530     0.4430 H     1 <1>   0.0800 
 22 H        3.2200    -0.8560     0.2330 H     1 <1>   0.0800 
 23 H        2.8290    -0.2440    -1.3530 H     1 <1>   0.0800 
 24 H        2.2090    -1.8010    -0.8480 H     1 <1>   0.0800 
 25 H        1.6310    -0.8010     1.9860 H     1 <1>   0.0800 
 26 H        0.5870    -1.8590     1.0570 H     1 <1>   0.0800 
 27 H       -0.0260    -0.3440     1.6830 H     1 <1>   0.0800 
 28 H        0.0680     2.8400    -1.7930 H     1 <1>   0.0800 
 29 H       -1.8220     4.1980    -1.1380 H     1 <1>   0.0800 
 30 H        1.9180     2.5890    -0.4610 H     1 <1>   0.0800 
 31 H        0.9710     2.3430     1.0000 H     1 <1>   0.0800 
 32 H       -1.0240     3.8390     1.5170 H     1 <1>   0.4000 
 33 H       -0.4060     5.8500     0.4300 H     1 <1>   0.0800 
 34 H        0.2580     5.4610    -1.1500 H     1 <1>   0.0800 
 35 H        3.3100     3.3620     1.5180 H     1 <1>   0.1500 
 36 H        3.7770     7.7650    -0.1380 H     1 <1>   0.1500 
 37 H        5.6560     6.6250     0.8800 H     1 <1>   0.1500 
@<TRIPOS>BOND
  1   1   2  2   
  2   1   3  2   
  3   1   4  am  
  4   1   5  1   
  5   4   6  1   
  6   4   7  1   
  7   5   8  1   
  8   5  20  1   
  9   5  21  1   
 10   6  22  1   
 11   6  23  1   
 12   6  24  1   
 13   7  25  1   
 14   7  26  1   
 15   7  27  1   
 16   8   9  1   
 17   8  10  1   
 18   8  28  1   
 19   9  11  1   
 20   9  12  1   
 21   9  29  1   
 22  10  13  1   
 23  10  30  1   
 24  10  31  1   
 25  11  32  1   
 26  12  13  1   
 27  12  33  1   
 28  12  34  1   
 29  13  14  1   
 30  14  15  ar  
 31  14  16  ar  
 32  15  17  ar  
 33  16  18  ar  
 34  16  35  1   
 35  17  19  ar  
 36  17  36  1   
 37  18  19  ar  
 38  19  37  1   
@<TRIPOS>SUBSTRUCTURE
  1 ****  10 GROUP 4 **** **** 0

# MOE 2024.06 (io_trps.svl 2023.06)
