@<TRIPOS>MOLECULE
NONAME
42 44 1 0 0 
SMALL
USER_CHARGES


@<TRIPOS>ATOM
  1 CL      -0.2880    -0.9900    -0.1550 Cl    1 <1>  -0.1770 
  2 C       -1.6160     0.1510    -0.1880 C.ar  1 <1>   0.1770 
  3 C       -2.9320    -0.3000    -0.1550 C.ar  1 <1>   0.0830 
  4 C       -1.3170     1.5000    -0.2470 C.ar  1 <1>  -0.1500 
  5 O       -3.1530    -1.6420    -0.0970 O.3   1 <1>  -0.3630 
  6 C       -3.9590     0.6420    -0.1830 C.ar  1 <1>  -0.1500 
  7 C       -2.3450     2.4260    -0.2740 C.ar  1 <1>  -0.1500 
  8 C       -4.4540    -2.1790    -0.0290 C.3   1 <1>   0.1200 
  9 C       -3.6620     1.9950    -0.2420 C.ar  1 <1>  -0.1500 
 10 C       -4.3400    -3.7010     0.0360 C.3   1 <1>  -0.1600 
 11 C       -5.7230    -4.3440     0.1780 C.3   1 <1>   0.1100 
 12 N       -5.6400    -5.8030     0.0250 N.3   1 <1>  -0.8100 
 13 C       -6.9720    -6.3760    -0.3180 C.3   1 <1>   0.2900 
 14 C       -5.0500    -6.4540     1.2090 C.3   1 <1>   0.0300 
 15 C       -6.9520    -7.8320    -0.7820 C.2   1 <1>   0.2980 
 16 O       -6.8020    -8.7990     0.0680 O.3   1 <1>  -0.2800 
 17 N       -7.1120    -8.2630    -1.9780 N.2   1 <1>  -0.3380 
 18 C       -6.8610    -9.8630    -0.6640 C.2   1 <1>   0.3930 
 19 N       -7.0480    -9.5930    -1.9000 N.2   1 <1>  -0.3380 
 20 C       -6.7100   -11.2290    -0.0150 C.3   1 <1>  -0.0150 
 21 C       -7.3650   -12.4470    -0.5930 C.3   1 <1>  -0.2000 
 22 C       -7.8660   -11.8660     0.6950 C.3   1 <1>  -0.2000 
 23 H       -0.2900     1.8160    -0.2720 H     1 <1>   0.1500 
 24 H       -4.9900     0.3470    -0.1610 H     1 <1>   0.1500 
 25 H       -2.1230     3.4790    -0.3200 H     1 <1>   0.1500 
 26 H       -4.9920    -1.8750    -0.9100 H     1 <1>   0.0800 
 27 H       -4.9310    -1.7940     0.8560 H     1 <1>   0.0800 
 28 H       -4.4600     2.7170    -0.2640 H     1 <1>   0.1500 
 29 H       -3.7230    -3.9600     0.8760 H     1 <1>   0.0800 
 30 H       -3.8770    -4.0560    -0.8680 H     1 <1>   0.0800 
 31 H       -6.3530    -3.9440    -0.5990 H     1 <1>   0.0800 
 32 H       -6.1610    -4.0930     1.1300 H     1 <1>   0.0800 
 33 H       -7.3950    -5.8020    -1.1240 H     1 <1>   0.0800 
 34 H       -7.6310    -6.2900     0.5270 H     1 <1>   0.0800 
 35 H       -4.0840    -6.0370     1.4270 H     1 <1>   0.0800 
 36 H       -4.9070    -7.5040     1.0240 H     1 <1>   0.0800 
 37 H       -5.6870    -6.3300     2.0670 H     1 <1>   0.0800 
 38 H       -5.7330   -11.3550     0.4160 H     1 <1>   0.1000 
 39 H       -6.8260   -13.3780    -0.5740 H     1 <1>   0.1000 
 40 H       -7.9620   -12.3340    -1.4830 H     1 <1>   0.1000 
 41 H       -8.8160   -11.3590     0.6940 H     1 <1>   0.1000 
 42 H       -7.6800   -12.3950     1.6130 H     1 <1>   0.1000 
@<TRIPOS>BOND
  1   1   2  1   
  2   2   3  ar  
  3   2   4  ar  
  4   3   5  1   
  5   3   6  ar  
  6   4   7  ar  
  7   4  23  1   
  8   5   8  1   
  9   6   9  ar  
 10   6  24  1   
 11   7   9  ar  
 12   7  25  1   
 13   8  10  1   
 14   8  26  1   
 15   8  27  1   
 16   9  28  1   
 17  10  11  1   
 18  10  29  1   
 19  10  30  1   
 20  11  12  1   
 21  11  31  1   
 22  11  32  1   
 23  12  13  1   
 24  12  14  1   
 25  13  15  1   
 26  13  33  1   
 27  13  34  1   
 28  14  35  1   
 29  14  36  1   
 30  14  37  1   
 31  15  16  1   
 32  15  17  2   
 33  16  18  1   
 34  17  19  1   
 35  18  19  2   
 36  18  20  1   
 37  20  21  1   
 38  20  22  1   
 39  20  38  1   
 40  21  22  1   
 41  21  39  1   
 42  21  40  1   
 43  22  41  1   
 44  22  42  1   
@<TRIPOS>SUBSTRUCTURE
  1 ****  11 GROUP 4 **** **** 0

# MOE 2024.06 (io_trps.svl 2023.06)
