@<TRIPOS>MOLECULE
NONAME
47 49 1 0 0 
SMALL
USER_CHARGES


@<TRIPOS>ATOM
  1 O       -0.4370    -1.1600     0.4420 O.3   1 <1>  -0.5600 
  2 C       -0.5000    -2.5380     0.5240 C.3   1 <1>   0.1200 
  3 C        0.8490    -0.6360     0.5340 C.3   1 <1>   0.0400 
  4 C       -1.9760    -2.9110     0.4270 C.3   1 <1>  -0.1600 
  5 C       -2.1570    -4.4250     0.4540 C.3   1 <1>   0.3430 
  6 N       -3.6040    -4.7680     0.4670 N.4   1 <1>  -0.9590 
  7 C       -4.3850    -4.3670    -0.7360 C.3   1 <1>   0.3430 
  8 C       -3.8860    -6.2190     0.6720 C.3   1 <1>   0.3430 
  9 C       -5.6700    -5.1850    -0.6150 C.3   1 <1>   0.2000 
 10 C       -5.1740    -6.5400    -0.1070 C.3   1 <1>  -0.0800 
 11 O       -6.4440    -4.6090     0.3860 O.3   1 <1>  -0.6800 
 12 C       -4.9200    -7.5250    -1.2700 C.3   1 <1>  -0.0170 
 13 C       -4.0920    -8.7260    -0.8200 C.ar  1 <1>  -0.1440 
 14 C       -4.6040    -9.7260     0.0410 C.ar  1 <1>   0.0000 
 15 C       -2.7970    -8.8520    -1.2340 C.ar  1 <1>  -0.1500 
 16 C       -3.7120   -10.7370     0.4760 C.ar  1 <1>   0.3100 
 17 C       -5.9440    -9.7920     0.4900 C.ar  1 <1>  -0.1500 
 18 C       -2.0080    -9.9110    -0.7690 C.ar  1 <1>   0.1600 
 19 N       -2.4210   -10.8070     0.0670 N.ar  1 <1>  -0.6200 
 20 C       -4.1750   -11.7180     1.3670 C.ar  1 <1>  -0.1500 
 21 C       -6.3660   -10.7650     1.3550 C.ar  1 <1>  -0.1500 
 22 C       -5.4700   -11.7370     1.8060 C.ar  1 <1>  -0.1500 
 23 H        0.0660    -2.9550    -0.2930 H     1 <1>   0.0800 
 24 H       -0.0780    -2.8480     1.4660 H     1 <1>   0.0800 
 25 H        0.7800     0.4350     0.4570 H     1 <1>   0.0800 
 26 H        1.4500    -1.0180    -0.2740 H     1 <1>   0.0800 
 27 H        1.2760    -0.9020     1.4860 H     1 <1>   0.0800 
 28 H       -2.4930    -2.4670     1.2600 H     1 <1>   0.0800 
 29 H       -2.3630    -2.5070    -0.4910 H     1 <1>   0.0800 
 30 H       -1.6870    -4.8190     1.3410 H     1 <1>   0.0800 
 31 H       -1.6800    -4.8660    -0.4060 H     1 <1>   0.0800 
 32 H       -4.0660    -4.2730     1.2480 H     1 <1>   0.4500 
 33 H       -4.5960    -3.3100    -0.7500 H     1 <1>   0.0800 
 34 H       -3.8570    -4.6450    -1.6320 H     1 <1>   0.0800 
 35 H       -3.0670    -6.8150     0.3050 H     1 <1>   0.0800 
 36 H       -4.0200    -6.4280     1.7220 H     1 <1>   0.0800 
 37 H       -6.2410    -5.2220    -1.5280 H     1 <1>   0.0800 
 38 H       -5.8900    -6.9780     0.5650 H     1 <1>   0.0800 
 39 H       -7.3530    -4.9780     0.3960 H     1 <1>   0.4000 
 40 H       -4.3980    -7.0230    -2.0660 H     1 <1>   0.0800 
 41 H       -5.8560    -7.8660    -1.6800 H     1 <1>   0.0800 
 42 H       -2.3420    -8.1570    -1.9150 H     1 <1>   0.1500 
 43 H       -6.6600    -9.0730     0.1420 H     1 <1>   0.1500 
 44 H       -0.9920    -9.9800    -1.1200 H     1 <1>   0.1500 
 45 H       -3.4720   -12.4630     1.6930 H     1 <1>   0.1500 
 46 H       -7.3870   -10.8040     1.6940 H     1 <1>   0.1500 
 47 H       -5.8120   -12.4970     2.4890 H     1 <1>   0.1500 
@<TRIPOS>BOND
  1   1   2  1   
  2   1   3  1   
  3   2   4  1   
  4   2  23  1   
  5   2  24  1   
  6   3  25  1   
  7   3  26  1   
  8   3  27  1   
  9   4   5  1   
 10   4  28  1   
 11   4  29  1   
 12   5   6  1   
 13   5  30  1   
 14   5  31  1   
 15   6   7  1   
 16   6   8  1   
 17   6  32  1   
 18   7   9  1   
 19   7  33  1   
 20   7  34  1   
 21   8  10  1   
 22   8  35  1   
 23   8  36  1   
 24   9  10  1   
 25   9  11  1   
 26   9  37  1   
 27  10  12  1   
 28  10  38  1   
 29  11  39  1   
 30  12  13  1   
 31  12  40  1   
 32  12  41  1   
 33  13  14  ar  
 34  13  15  ar  
 35  14  16  ar  
 36  14  17  ar  
 37  15  18  ar  
 38  15  42  1   
 39  16  19  ar  
 40  16  20  ar  
 41  17  21  ar  
 42  17  43  1   
 43  18  19  ar  
 44  18  44  1   
 45  20  22  ar  
 46  20  45  1   
 47  21  22  ar  
 48  21  46  1   
 49  22  47  1   
@<TRIPOS>SUBSTRUCTURE
  1 ****   8 GROUP 4 **** **** 0

# MOE 2024.06 (io_trps.svl 2023.06)
