@<TRIPOS>MOLECULE
NONAME
49 51 1 0 0 
SMALL
USER_CHARGES


@<TRIPOS>ATOM
  1 O       -1.1670    -0.6860    -1.7470 O.2   1 <1>  -0.5700 
  2 C       -1.3220    -1.5920    -0.9660 C.2   1 <1>   0.5690 
  3 N       -0.3500    -2.3300    -0.3900 N.am  1 <1>  -0.6600 
  4 C       -2.6750    -2.0610    -0.5130 C.3   1 <1>  -0.0990 
  5 C       -0.8880    -3.3810     0.4890 C.3   1 <1>   0.1400 
  6 C        1.1030    -2.1450    -0.5920 C.3   1 <1>   0.1400 
  7 C       -2.3860    -3.4370     0.1270 C.3   1 <1>  -0.0800 
  8 C        1.7410    -1.6280     0.6940 C.3   1 <1>  -0.2400 
  9 C       -2.6750    -4.5780    -0.8680 C.3   1 <1>   0.2090 
 10 N       -3.0700    -5.8490    -0.1730 N.pl3 1 <1>  -0.8380 
 11 C       -4.3580    -6.2860    -0.1200 C.ar  1 <1>   0.1000 
 12 C       -1.9290    -6.5950     0.4490 C.3   1 <1>   0.1290 
 13 C       -4.7410    -7.6690    -0.1970 C.ar  1 <1>   0.0000 
 14 C       -5.3870    -5.3600     0.0660 C.ar  1 <1>  -0.1500 
 15 C       -6.0520    -8.0530     0.1540 C.ar  1 <1>   0.3610 
 16 C       -3.8980    -8.6880    -0.6740 C.ar  1 <1>  -0.1500 
 17 C       -6.6710    -5.7550     0.3240 C.ar  1 <1>   0.2110 
 18 N       -6.9760    -7.0610     0.3980 N.ar  1 <1>  -0.1790 
 19 C       -6.4340    -9.4120     0.1990 C.ar  1 <1>  -0.1440 
 20 C       -4.2820   -10.0010    -0.6740 C.ar  1 <1>  -0.1500 
 21 C       -5.5450   -10.3820    -0.2200 C.ar  1 <1>  -0.1440 
 22 C       -7.8350    -9.7900     0.7010 C.3   1 <1>  -0.0970 
 23 C       -5.8680   -11.8730    -0.2380 C.3   1 <1>  -0.0970 
 24 H       -3.3600    -2.0990    -1.3390 H     1 <1>   0.0800 
 25 H       -3.0380    -1.3670     0.2230 H     1 <1>   0.0800 
 26 H       -0.7560    -3.0860     1.5160 H     1 <1>   0.0800 
 27 H       -0.3810    -4.3120     0.3090 H     1 <1>   0.0800 
 28 H        1.2640    -1.4330    -1.3860 H     1 <1>   0.0800 
 29 H        1.5490    -3.0810    -0.8840 H     1 <1>   0.0800 
 30 H       -2.9890    -3.5710     1.0080 H     1 <1>   0.0800 
 31 H        1.2780    -0.7020     0.9860 H     1 <1>   0.0800 
 32 H        2.7880    -1.4470     0.5280 H     1 <1>   0.0800 
 33 H        1.6420    -2.3470     1.4860 H     1 <1>   0.0800 
 34 H       -1.8150    -4.7550    -1.4940 H     1 <1>   0.0800 
 35 H       -3.4760    -4.2940    -1.5270 H     1 <1>   0.0800 
 36 H       -1.4470    -5.9820     1.1880 H     1 <1>   0.0800 
 37 H       -1.2130    -6.8740    -0.3050 H     1 <1>   0.0800 
 38 H       -2.2770    -7.4790     0.9520 H     1 <1>   0.0800 
 39 H       -5.1610    -4.3100     0.0450 H     1 <1>   0.1500 
 40 H       -2.9290    -8.4300    -1.0610 H     1 <1>   0.1500 
 41 H       -7.4500    -5.0250     0.4840 H     1 <1>   0.1500 
 42 H       -7.9280    -7.3680     0.6040 H     1 <1>   0.4570 
 43 H       -3.5970   -10.7510    -1.0340 H     1 <1>   0.1500 
 44 H       -8.0740    -9.2630     1.6070 H     1 <1>   0.0800 
 45 H       -7.9130   -10.8360     0.9330 H     1 <1>   0.0800 
 46 H       -8.5730    -9.5690    -0.0510 H     1 <1>   0.0800 
 47 H       -6.7880   -12.0530    -0.7660 H     1 <1>   0.0800 
 48 H       -5.9580   -12.2450     0.7670 H     1 <1>   0.0800 
 49 H       -5.0950   -12.4350    -0.7320 H     1 <1>   0.0800 
@<TRIPOS>BOND
  1   1   2  2   
  2   2   3  am  
  3   2   4  1   
  4   3   5  1   
  5   3   6  1   
  6   4   7  1   
  7   4  24  1   
  8   4  25  1   
  9   5   7  1   
 10   5  26  1   
 11   5  27  1   
 12   6   8  1   
 13   6  28  1   
 14   6  29  1   
 15   7   9  1   
 16   7  30  1   
 17   8  31  1   
 18   8  32  1   
 19   8  33  1   
 20   9  10  1   
 21   9  34  1   
 22   9  35  1   
 23  10  11  1   
 24  10  12  1   
 25  11  13  ar  
 26  11  14  ar  
 27  12  36  1   
 28  12  37  1   
 29  12  38  1   
 30  13  15  ar  
 31  13  16  ar  
 32  14  17  ar  
 33  14  39  1   
 34  15  18  ar  
 35  15  19  ar  
 36  16  20  ar  
 37  16  40  1   
 38  17  18  ar  
 39  17  41  1   
 40  18  42  1   
 41  19  21  ar  
 42  19  22  1   
 43  20  21  ar  
 44  20  43  1   
 45  21  23  1   
 46  22  44  1   
 47  22  45  1   
 48  22  46  1   
 49  23  47  1   
 50  23  48  1   
 51  23  49  1   
@<TRIPOS>SUBSTRUCTURE
  1 ****  10 GROUP 4 **** **** 0

# MOE 2024.06 (io_trps.svl 2023.06)
