@<TRIPOS>MOLECULE
NONAME
51 53 1 0 0 
SMALL
USER_CHARGES


@<TRIPOS>ATOM
  1 O        2.6840    -0.9180     1.8770 O.co2 1 <1>  -0.9000 
  2 C        2.2640     0.1850     1.4880 C.2   1 <1>   0.9060 
  3 O        1.8130     1.0150     2.2760 O.co2 1 <1>  -0.9000 
  4 C        2.2980     0.5080    -0.0180 C.3   1 <1>  -0.1060 
  5 C        3.4880    -0.2370    -0.6640 C.3   1 <1>   0.4230 
  6 C        2.4930     2.0350    -0.2440 C.3   1 <1>  -0.1600 
  7 C        0.9830     0.0640    -0.7020 C.3   1 <1>  -0.1600 
  8 N        3.2940    -1.7250    -0.5500 N.4   1 <1>  -0.9590 
  9 C        4.8280     0.2940    -0.0940 C.3   1 <1>   0.2090 
 10 C        3.8380     2.5270     0.3070 C.3   1 <1>   0.2090 
 11 C        0.8340    -1.4660    -0.6910 C.3   1 <1>  -0.1600 
 12 C        2.0670    -2.1800    -1.2510 C.3   1 <1>   0.3430 
 13 C        4.4850    -2.5560    -0.8680 C.3   1 <1>   0.2630 
 14 N        4.9240     1.7580    -0.3650 N.pl3 1 <1>  -0.8380 
 15 C        6.1660     2.3460    -0.5400 C.ar  1 <1>   0.4100 
 16 N        7.1420     1.8410     0.2070 N.ar  1 <1>  -0.6200 
 17 C        6.3580     3.3900    -1.4580 C.ar  1 <1>   0.0730 
 18 C        8.3400     2.3890     0.0930 C.ar  1 <1>   0.1670 
 19 C        5.2860     3.8530    -2.2830 C.1   1 <1>   0.4840 
 20 C        7.6170     3.9490    -1.5660 C.ar  1 <1>  -0.1500 
 21 C        8.6180     3.4360    -0.7710 C.ar  1 <1>  -0.1500 
 22 C        9.4410     1.8040     0.9800 C.3   1 <1>   0.0630 
 23 N        4.4450     4.2370    -2.9520 N.1   1 <1>  -0.5570 
 24 C       10.0270     2.8590     1.9290 C.3   1 <1>  -0.2400 
 25 C       10.5510     1.1560     0.1410 C.3   1 <1>  -0.2400 
 26 H        3.4940     0.0120    -1.7100 H     1 <1>   0.0800 
 27 H        1.7040     2.5780     0.2480 H     1 <1>   0.0800 
 28 H        2.4460     2.2760    -1.2920 H     1 <1>   0.0800 
 29 H        0.1470     0.5100    -0.1880 H     1 <1>   0.0800 
 30 H        0.9670     0.4120    -1.7200 H     1 <1>   0.0800 
 31 H        3.0890    -1.8100     0.4830 H     1 <1>   0.4500 
 32 H        5.6550    -0.1960    -0.5740 H     1 <1>   0.0800 
 33 H        4.8900     0.1220     0.9680 H     1 <1>   0.0800 
 34 H        3.8870     2.3710     1.3740 H     1 <1>   0.0800 
 35 H        3.9470     3.5820     0.1230 H     1 <1>   0.0800 
 36 H       -0.0290    -1.7440    -1.2690 H     1 <1>   0.0800 
 37 H        0.6620    -1.8060     0.3170 H     1 <1>   0.0800 
 38 H        2.1550    -1.9700    -2.3050 H     1 <1>   0.0800 
 39 H        1.9460    -3.2430    -1.1230 H     1 <1>   0.0800 
 40 H        4.7820    -2.4070    -1.8930 H     1 <1>   0.0800 
 41 H        4.2590    -3.5980    -0.7150 H     1 <1>   0.0800 
 42 H        5.3050    -2.2900    -0.2220 H     1 <1>   0.0800 
 43 H        7.8120     4.7570    -2.2510 H     1 <1>   0.1500 
 44 H        9.6100     3.8470    -0.8270 H     1 <1>   0.1500 
 45 H        9.0000     1.0330     1.5890 H     1 <1>   0.0800 
 46 H       10.5340     3.6340     1.3830 H     1 <1>   0.0800 
 47 H       10.7270     2.4020     2.6050 H     1 <1>   0.0800 
 48 H        9.2370     3.3040     2.5080 H     1 <1>   0.0800 
 49 H       11.0590     1.8890    -0.4590 H     1 <1>   0.0800 
 50 H       10.1260     0.4120    -0.5100 H     1 <1>   0.0800 
 51 H       11.2690     0.6760     0.7820 H     1 <1>   0.0800 
@<TRIPOS>BOND
  1   1   2  ar  
  2   2   3  ar  
  3   2   4  1   
  4   4   5  1   
  5   4   6  1   
  6   4   7  1   
  7   5   8  1   
  8   5   9  1   
  9   5  26  1   
 10   6  10  1   
 11   6  27  1   
 12   6  28  1   
 13   7  11  1   
 14   7  29  1   
 15   7  30  1   
 16   8  12  1   
 17   8  13  1   
 18   8  31  1   
 19   9  14  1   
 20   9  32  1   
 21   9  33  1   
 22  10  14  1   
 23  10  34  1   
 24  10  35  1   
 25  11  12  1   
 26  11  36  1   
 27  11  37  1   
 28  12  38  1   
 29  12  39  1   
 30  13  40  1   
 31  13  41  1   
 32  13  42  1   
 33  14  15  1   
 34  15  16  ar  
 35  15  17  ar  
 36  16  18  ar  
 37  17  19  1   
 38  17  20  ar  
 39  18  21  ar  
 40  18  22  1   
 41  19  23  3   
 42  20  21  ar  
 43  20  43  1   
 44  21  44  1   
 45  22  24  1   
 46  22  25  1   
 47  22  45  1   
 48  24  46  1   
 49  24  47  1   
 50  24  48  1   
 51  25  49  1   
 52  25  50  1   
 53  25  51  1   
@<TRIPOS>SUBSTRUCTURE
  1 ****  14 GROUP 4 **** **** 0

# MOE 2024.06 (io_trps.svl 2023.06)
