@<TRIPOS>MOLECULE
NONAME
56 58 1 0 0 
SMALL
USER_CHARGES


@<TRIPOS>ATOM
  1 O       -0.8650    -1.0080     1.6180 O.2   1 <1>  -0.5700 
  2 C       -1.5360    -1.7550     0.9510 C.2   1 <1>   0.5690 
  3 N       -1.1630    -3.0440     0.6990 N.am  1 <1>  -0.3680 
  4 C       -2.8330    -1.2770     0.3300 C.3   1 <1>  -0.0990 
  5 N       -1.9040    -3.9940     0.0050 N.2   1 <1>  -0.5120 
  6 C       -3.8200    -2.4400     0.1000 C.3   1 <1>  -0.0990 
  7 C       -3.1100    -3.7400    -0.2940 C.2   1 <1>   0.3280 
  8 C       -3.9600    -4.7440    -1.0530 C.3   1 <1>  -0.0990 
  9 C       -4.9220    -5.5050    -0.1200 C.3   1 <1>  -0.0990 
 10 C       -5.7890    -6.5280    -0.8440 C.2   1 <1>   0.5690 
 11 O       -5.9480    -6.3970    -2.0350 O.2   1 <1>  -0.5700 
 12 N       -6.3960    -7.5470    -0.1550 N.am  1 <1>  -0.6600 
 13 C       -7.1950    -8.5860    -0.8810 C.3   1 <1>   0.1400 
 14 C       -6.4350    -7.6850     1.3280 C.3   1 <1>   0.1400 
 15 C       -8.7080    -8.3180    -0.8140 C.3   1 <1>   0.1400 
 16 C       -7.5460    -6.8240     1.9450 C.3   1 <1>  -0.1600 
 17 N       -9.1950    -8.1160     0.5930 N.am  1 <1>  -0.6600 
 18 C       -8.8560    -6.7770     1.1480 C.3   1 <1>   0.1400 
 19 C       -9.9260    -9.0190     1.3320 C.2   1 <1>   0.5690 
 20 O      -10.3080    -8.7350     2.4460 O.2   1 <1>  -0.5700 
 21 C      -10.2490   -10.4140     0.7920 C.3   1 <1>   0.2370 
 22 N      -11.3590   -10.3060    -0.1770 N.pl3 1 <1>   0.3140 
 23 C      -10.5830   -11.4630     1.8740 C.3   1 <1>  -0.2400 
 24 N      -11.2460   -10.7860    -1.4340 N.2   1 <1>  -0.7070 
 25 C      -12.5730    -9.7530     0.0230 C.2   1 <1>  -0.3020 
 26 C      -12.3880   -10.5250    -1.9930 C.2   1 <1>   0.1390 
 27 C      -13.2630    -9.8770    -1.1290 C.2   1 <1>  -0.1810 
 28 C      -14.6730    -9.4190    -1.4360 C.3   1 <1>  -0.0590 
 29 H       -0.2360    -3.3080     1.0480 H     1 <1>   0.3700 
 30 H       -2.5860    -0.8280    -0.6150 H     1 <1>   0.0800 
 31 H       -3.2780    -0.5240     0.9550 H     1 <1>   0.0800 
 32 H       -4.5260    -2.1550    -0.6590 H     1 <1>   0.0800 
 33 H       -4.3630    -2.6250     1.0100 H     1 <1>   0.0800 
 34 H       -3.3100    -5.4560    -1.5330 H     1 <1>   0.0800 
 35 H       -4.5090    -4.2380    -1.8270 H     1 <1>   0.0800 
 36 H       -5.5740    -4.8100     0.3740 H     1 <1>   0.0800 
 37 H       -4.3280    -6.0050     0.6210 H     1 <1>   0.0800 
 38 H       -6.9860    -9.5550    -0.4650 H     1 <1>   0.0800 
 39 H       -6.8980    -8.6200    -1.9150 H     1 <1>   0.0800 
 40 H       -5.4850    -7.4290     1.7620 H     1 <1>   0.0800 
 41 H       -6.6230    -8.7160     1.5770 H     1 <1>   0.0800 
 42 H       -9.2240    -9.1310    -1.2890 H     1 <1>   0.0800 
 43 H       -8.9260    -7.4380    -1.3950 H     1 <1>   0.0800 
 44 H       -7.1890    -5.8190     2.0730 H     1 <1>   0.0800 
 45 H       -7.7610    -7.2030     2.9290 H     1 <1>   0.0800 
 46 H       -8.7590    -6.0710     0.3400 H     1 <1>   0.0800 
 47 H       -9.6550    -6.4300     1.7830 H     1 <1>   0.0800 
 48 H       -9.3890   -10.7660     0.2560 H     1 <1>   0.0800 
 49 H      -11.4560   -11.1670     2.4290 H     1 <1>   0.0800 
 50 H       -9.7600   -11.5540     2.5600 H     1 <1>   0.0800 
 51 H      -10.7600   -12.4210     1.4180 H     1 <1>   0.0800 
 52 H      -12.8670    -9.3100     0.9580 H     1 <1>   0.1500 
 53 H      -12.6220   -10.7870    -3.0120 H     1 <1>   0.1500 
 54 H      -15.1060    -8.9480    -0.5720 H     1 <1>   0.0800 
 55 H      -15.2810   -10.2620    -1.7120 H     1 <1>   0.0800 
 56 H      -14.6610    -8.7130    -2.2470 H     1 <1>   0.0800 
@<TRIPOS>BOND
  1   1   2  2   
  2   2   3  am  
  3   2   4  1   
  4   3   5  1   
  5   3  29  1   
  6   4   6  1   
  7   4  30  1   
  8   4  31  1   
  9   5   7  2   
 10   6   7  1   
 11   6  32  1   
 12   6  33  1   
 13   7   8  1   
 14   8   9  1   
 15   8  34  1   
 16   8  35  1   
 17   9  10  1   
 18   9  36  1   
 19   9  37  1   
 20  10  11  2   
 21  10  12  am  
 22  12  13  1   
 23  12  14  1   
 24  13  15  1   
 25  13  38  1   
 26  13  39  1   
 27  14  16  1   
 28  14  40  1   
 29  14  41  1   
 30  15  17  1   
 31  15  42  1   
 32  15  43  1   
 33  16  18  1   
 34  16  44  1   
 35  16  45  1   
 36  17  18  1   
 37  17  19  am  
 38  18  46  1   
 39  18  47  1   
 40  19  20  2   
 41  19  21  1   
 42  21  22  1   
 43  21  23  1   
 44  21  48  1   
 45  22  24  1   
 46  22  25  1   
 47  23  49  1   
 48  23  50  1   
 49  23  51  1   
 50  24  26  2   
 51  25  27  2   
 52  25  52  1   
 53  26  27  1   
 54  26  53  1   
 55  27  28  1   
 56  28  54  1   
 57  28  55  1   
 58  28  56  1   
@<TRIPOS>SUBSTRUCTURE
  1 ****  12 GROUP 4 **** **** 0

# MOE 2024.06 (io_trps.svl 2023.06)
