@<TRIPOS>MOLECULE
NONAME
49 52 1 0 0 
SMALL
USER_CHARGES


@<TRIPOS>ATOM
  1 O       -0.9160    -1.9880    -0.4350 O.2   1 <1>  -0.5700 
  2 C        0.2020    -2.4200    -0.5440 C.2   1 <1>   0.5690 
  3 N        0.7240    -2.7350    -1.7470 N.am  1 <1>  -0.7300 
  4 C        1.0700    -2.6410     0.6750 C.3   1 <1>  -0.0990 
  5 C        2.0810    -3.2940    -1.9190 C.3   1 <1>   0.1400 
  6 C        2.5090    -2.1590     0.4070 C.3   1 <1>  -0.0800 
  7 C        3.0700    -2.5760    -0.9770 C.3   1 <1>  -0.0800 
  8 C        3.5130    -2.6520     1.4590 C.3   1 <1>  -0.1600 
  9 C        4.3260    -3.4070    -0.6870 C.3   1 <1>  -0.1600 
 10 C        4.7970    -2.9070     0.6760 C.3   1 <1>   0.2200 
 11 N        5.7350    -3.8410     1.3740 N.am  1 <1>  -0.6600 
 12 C        6.9750    -3.4580     1.8420 C.2   1 <1>   0.5690 
 13 C        5.3330    -5.2780     1.4930 C.3   1 <1>   0.0600 
 14 O        7.7160    -4.2490     2.3800 O.2   1 <1>  -0.5700 
 15 C        7.4740    -2.0170     1.7480 C.3   1 <1>   0.1810 
 16 O        7.6520    -1.6200     0.3950 O.3   1 <1>  -0.3630 
 17 C        7.8490    -0.3210     0.0710 C.ar  1 <1>   0.0820 
 18 C        7.6870     0.0200    -1.2610 C.ar  1 <1>  -0.1500 
 19 C        8.1900     0.6640     0.9930 C.ar  1 <1>  -0.1500 
 20 C        7.8530     1.3290    -1.6740 C.ar  1 <1>  -0.1500 
 21 C        8.3550     1.9730     0.5780 C.ar  1 <1>  -0.1500 
 22 C        8.1900     2.3240    -0.7610 C.ar  1 <1>  -0.0230 
 23 N        8.3630     3.6710    -1.1930 N.pl3 1 <1>   0.5930 
 24 N        7.6140     4.2800    -2.1000 N.2   1 <1>  -0.4180 
 25 C        9.2670     4.5590    -0.8060 C.2   1 <1>   0.0360 
 26 N        8.0690     5.4740    -2.2230 N.2   1 <1>   0.0000 
 27 N        9.1070     5.6680    -1.4190 N.2   1 <1>  -0.3380 
 28 H        0.1250    -2.6210    -2.5670 H     1 <1>   0.3700 
 29 H        0.6520    -2.1150     1.5140 H     1 <1>   0.0800 
 30 H        1.0590    -3.6930     0.8950 H     1 <1>   0.0800 
 31 H        2.0420    -4.3450    -1.6890 H     1 <1>   0.0800 
 32 H        2.3980    -3.1800    -2.9410 H     1 <1>   0.0800 
 33 H        2.4960    -1.0810     0.4300 H     1 <1>   0.0800 
 34 H        3.3860    -1.6740    -1.4750 H     1 <1>   0.0800 
 35 H        3.1600    -3.5610     1.9080 H     1 <1>   0.0800 
 36 H        3.6670    -1.9170     2.2280 H     1 <1>   0.0800 
 37 H        5.0830    -3.2610    -1.4370 H     1 <1>   0.0800 
 38 H        4.0620    -4.4470    -0.6380 H     1 <1>   0.0800 
 39 H        5.2610    -1.9510     0.5140 H     1 <1>   0.0800 
 40 H        4.2650    -5.3830     1.5440 H     1 <1>   0.0800 
 41 H        5.7560    -5.7120     2.3830 H     1 <1>   0.0800 
 42 H        5.7000    -5.8220     0.6410 H     1 <1>   0.0800 
 43 H        8.4210    -1.9330     2.2470 H     1 <1>   0.0800 
 44 H        6.7590    -1.3640     2.2100 H     1 <1>   0.0800 
 45 H        7.4300    -0.7470    -1.9710 H     1 <1>   0.1500 
 46 H        8.3340     0.4280     2.0310 H     1 <1>   0.1500 
 47 H        7.7180     1.5770    -2.7150 H     1 <1>   0.1500 
 48 H        8.6100     2.7220     1.3080 H     1 <1>   0.1500 
 49 H       10.0240     4.3490    -0.0770 H     1 <1>   0.1500 
@<TRIPOS>BOND
  1   1   2  2   
  2   2   3  am  
  3   2   4  1   
  4   3   5  1   
  5   3  28  1   
  6   4   6  1   
  7   4  29  1   
  8   4  30  1   
  9   5   7  1   
 10   5  31  1   
 11   5  32  1   
 12   6   7  1   
 13   6   8  1   
 14   6  33  1   
 15   7   9  1   
 16   7  34  1   
 17   8  10  1   
 18   8  35  1   
 19   8  36  1   
 20   9  10  1   
 21   9  37  1   
 22   9  38  1   
 23  10  11  1   
 24  10  39  1   
 25  11  12  am  
 26  11  13  1   
 27  12  14  2   
 28  12  15  1   
 29  13  40  1   
 30  13  41  1   
 31  13  42  1   
 32  15  16  1   
 33  15  43  1   
 34  15  44  1   
 35  16  17  1   
 36  17  18  ar  
 37  17  19  ar  
 38  18  20  ar  
 39  18  45  1   
 40  19  21  ar  
 41  19  46  1   
 42  20  22  ar  
 43  20  47  1   
 44  21  22  ar  
 45  21  48  1   
 46  22  23  1   
 47  23  24  1   
 48  23  25  1   
 49  24  26  2   
 50  25  27  2   
 51  25  49  1   
 52  26  27  1   
@<TRIPOS>SUBSTRUCTURE
  1 ****  17 GROUP 4 **** **** 0

# MOE 2024.06 (io_trps.svl 2023.06)
