@<TRIPOS>MOLECULE
NONAME
49 51 1 0 0 
SMALL
USER_CHARGES


@<TRIPOS>ATOM
  1 O        3.4420    -1.6010    -0.9010 O.2   1 <1>  -0.5700 
  2 C        2.9940    -1.4320     0.2180 C.2   1 <1>   0.7030 
  3 N        3.5980    -0.4580     0.9900 N.am  1 <1>  -0.6600 
  4 C        1.8680    -2.2350     0.6930 C.2   1 <1>   0.2770 
  5 C        5.0720    -0.2190     0.8480 C.3   1 <1>   0.1400 
  6 C        2.8270     0.5310     1.7930 C.3   1 <1>   0.1400 
  7 N        0.9350    -2.9470    -0.0720 N.pl3 1 <1>  -0.7640 
  8 C        1.5190    -2.4680     1.9860 C.2   1 <1>   0.2000 
  9 C        5.4070     0.6220    -0.3990 C.3   1 <1>   0.3430 
 10 C        3.1830     1.9830     1.4440 C.3   1 <1>  -0.1600 
 11 C        0.0910    -3.5510     0.7530 C.cat 1 <1>   0.6500 
 12 C        0.9410    -3.0410    -1.5630 C.3   1 <1>   0.2740 
 13 N        0.4150    -3.2730     2.0060 N.pl3 1 <1>  -0.7000 
 14 N        4.9100     2.0360    -0.3300 N.4   1 <1>  -0.9590 
 15 C        3.4670     2.2360    -0.0400 C.3   1 <1>   0.3430 
 16 C        5.3680     2.7920    -1.5280 C.3   1 <1>   0.5240 
 17 C        6.7990     3.2350    -1.2420 C.2   1 <1>   0.1080 
 18 N        7.2810     3.2930    -0.0300 N.2   1 <1>  -0.7070 
 19 C        7.7350     3.6120    -2.1960 C.2   1 <1>  -0.1500 
 20 N        8.5530     3.7220    -0.1840 N.pl3 1 <1>   0.3140 
 21 C        8.8410     3.9160    -1.4860 C.2   1 <1>  -0.3020 
 22 C        9.4660     3.9410     0.9580 C.3   1 <1>   0.0960 
 23 C       10.3310     2.7020     1.2200 C.3   1 <1>  -0.2400 
 24 H        5.5660    -1.1720     0.7470 H     1 <1>   0.0800 
 25 H        5.4670     0.2530     1.7310 H     1 <1>   0.0800 
 26 H        3.0080     0.3620     2.8430 H     1 <1>   0.0800 
 27 H        1.7740     0.3890     1.6140 H     1 <1>   0.0800 
 28 H        2.0020    -2.1100     2.8830 H     1 <1>   0.1500 
 29 H        4.9970     0.1310    -1.2660 H     1 <1>   0.0800 
 30 H        6.4790     0.6390    -0.5120 H     1 <1>   0.0800 
 31 H        4.0120     2.3170     2.0440 H     1 <1>   0.0800 
 32 H        2.3440     2.5920     1.7300 H     1 <1>   0.0800 
 33 H       -0.7350    -4.1820     0.4510 H     1 <1>   0.1500 
 34 H        0.8920    -2.0560    -1.9950 H     1 <1>   0.0800 
 35 H        0.0990    -3.6150    -1.9110 H     1 <1>   0.0800 
 36 H        1.8470    -3.5200    -1.8960 H     1 <1>   0.0800 
 37 H       -0.0700    -3.6200     2.8420 H     1 <1>   0.4500 
 38 H        5.4830     2.5040     0.4010 H     1 <1>   0.4500 
 39 H        3.2050     3.2590    -0.2610 H     1 <1>   0.0800 
 40 H        2.8630     1.5910    -0.6580 H     1 <1>   0.0800 
 41 H        4.7620     3.6700    -1.6720 H     1 <1>   0.0800 
 42 H        5.3260     2.1800    -2.4130 H     1 <1>   0.0800 
 43 H        7.6020     3.6530    -3.2640 H     1 <1>   0.1500 
 44 H        9.8020     4.2550    -1.8290 H     1 <1>   0.1500 
 45 H        8.8740     4.1670     1.8270 H     1 <1>   0.0800 
 46 H       10.0890     4.7890     0.7400 H     1 <1>   0.0800 
 47 H        9.7100     1.8550     1.4500 H     1 <1>   0.0800 
 48 H       10.9820     2.8830     2.0560 H     1 <1>   0.0800 
 49 H       10.9370     2.4770     0.3590 H     1 <1>   0.0800 
@<TRIPOS>BOND
  1   1   2  2   
  2   2   3  am  
  3   2   4  1   
  4   3   5  1   
  5   3   6  1   
  6   4   7  1   
  7   4   8  2   
  8   5   9  1   
  9   5  24  1   
 10   5  25  1   
 11   6  10  1   
 12   6  26  1   
 13   6  27  1   
 14   7  11  ar  
 15   7  12  1   
 16   8  13  1   
 17   8  28  1   
 18   9  14  1   
 19   9  29  1   
 20   9  30  1   
 21  10  15  1   
 22  10  31  1   
 23  10  32  1   
 24  11  13  ar  
 25  11  33  1   
 26  12  34  1   
 27  12  35  1   
 28  12  36  1   
 29  13  37  1   
 30  14  15  1   
 31  14  16  1   
 32  14  38  1   
 33  15  39  1   
 34  15  40  1   
 35  16  17  1   
 36  16  41  1   
 37  16  42  1   
 38  17  18  2   
 39  17  19  1   
 40  18  20  1   
 41  19  21  2   
 42  19  43  1   
 43  20  21  1   
 44  20  22  1   
 45  21  44  1   
 46  22  23  1   
 47  22  45  1   
 48  22  46  1   
 49  23  47  1   
 50  23  48  1   
 51  23  49  1   
@<TRIPOS>SUBSTRUCTURE
  1 ****   9 GROUP 4 **** **** 0

# MOE 2024.06 (io_trps.svl 2023.06)
