@<TRIPOS>MOLECULE
NONAME
61 63 1 0 0 
SMALL
USER_CHARGES


@<TRIPOS>ATOM
  1 O        0.8420     1.7430    -1.4320 O.2   1 <1>  -0.5700 
  2 C        0.3590     2.1370    -0.3960 C.2   1 <1>   0.5770 
  3 N        1.1650     2.7450     0.5380 N.am  1 <1>  -0.6600 
  4 C       -1.1460     1.9920    -0.1760 C.3   1 <1>   0.0530 
  5 C        2.6440     2.6120     0.4110 C.3   1 <1>   0.1400 
  6 C        0.6800     3.6690     1.5950 C.3   1 <1>   0.1400 
  7 C       -1.5440     1.1960     1.0980 C.3   1 <1>   0.0000 
  8 C       -1.8480     0.8670    -0.9900 C.3   1 <1>   0.0000 
  9 C        3.1740     3.5510    -0.6870 C.3   1 <1>   0.3430 
 10 C        1.3700     5.0350     1.4830 C.3   1 <1>  -0.1600 
 11 C       -2.7130     0.6050     0.2700 C.3   1 <1>   0.0000 
 12 N        3.0500     5.0230    -0.3790 N.4   1 <1>  -0.9590 
 13 C        1.6760     5.4590     0.0410 C.3   1 <1>   0.3430 
 14 C        3.5220     5.8040    -1.5570 C.3   1 <1>   0.4860 
 15 C        3.6230     7.2690    -1.1850 C.ar  1 <1>  -0.1430 
 16 C        4.7000     7.7500    -0.4430 C.ar  1 <1>   0.0820 
 17 C        2.6220     8.1390    -1.5930 C.ar  1 <1>  -0.1500 
 18 O        5.6990     6.8830    -0.1130 O.3   1 <1>  -0.3630 
 19 C        4.7270     9.0960    -0.0780 C.ar  1 <1>  -0.1500 
 20 C        2.6670     9.4740    -1.2390 C.ar  1 <1>  -0.1500 
 21 C        6.9610     7.3990     0.2820 C.3   1 <1>   0.1200 
 22 C        3.7160     9.9500    -0.4760 C.ar  1 <1>  -0.1500 
 23 C        8.0090     6.2750     0.2700 C.3   1 <1>   0.3430 
 24 N        9.3990     6.7760     0.5510 N.4   1 <1>  -0.9590 
 25 C       10.4070     5.6980     0.2950 C.3   1 <1>   0.2630 
 26 C        9.5600     7.2950     1.9500 C.3   1 <1>   0.2630 
 27 H       -1.6760     2.9260    -0.2540 H     1 <1>   0.0000 
 28 H        2.8730     1.5960     0.1320 H     1 <1>   0.0800 
 29 H        3.1290     2.8050     1.3520 H     1 <1>   0.0800 
 30 H        0.8630     3.2360     2.5650 H     1 <1>   0.0800 
 31 H       -0.3820     3.8120     1.4980 H     1 <1>   0.0800 
 32 H       -1.8630     1.8140     1.9190 H     1 <1>   0.0000 
 33 H       -0.8170     0.4510     1.3750 H     1 <1>   0.0000 
 34 H       -1.2050     0.0340    -1.2190 H     1 <1>   0.0000 
 35 H       -2.4080     1.2250    -1.8350 H     1 <1>   0.0000 
 36 H        2.6360     3.3250    -1.5950 H     1 <1>   0.0800 
 37 H        4.2100     3.3130    -0.8610 H     1 <1>   0.0800 
 38 H        2.2630     5.0540     2.0810 H     1 <1>   0.0800 
 39 H        0.7030     5.7620     1.9130 H     1 <1>   0.0800 
 40 H       -3.5980     1.2190     0.3020 H     1 <1>   0.0000 
 41 H       -2.9010    -0.4360     0.4610 H     1 <1>   0.0000 
 42 H        3.6880     5.2720     0.3850 H     1 <1>   0.4500 
 43 H        1.6170     6.5350     0.0020 H     1 <1>   0.0800 
 44 H        0.9320     5.0610    -0.6310 H     1 <1>   0.0800 
 45 H        2.8390     5.6800    -2.3820 H     1 <1>   0.0800 
 46 H        4.4930     5.4550    -1.8670 H     1 <1>   0.0800 
 47 H        1.7940     7.7930    -2.1900 H     1 <1>   0.1500 
 48 H        5.5190     9.5130     0.5160 H     1 <1>   0.1500 
 49 H        1.8870    10.1480    -1.5560 H     1 <1>   0.1500 
 50 H        6.8540     7.8120     1.2690 H     1 <1>   0.0800 
 51 H        7.2400     8.1660    -0.4200 H     1 <1>   0.0800 
 52 H        3.7420    10.9900    -0.1950 H     1 <1>   0.1500 
 53 H        7.9940     5.8150    -0.7050 H     1 <1>   0.0800 
 54 H        7.7390     5.5320     1.0020 H     1 <1>   0.0800 
 55 H        9.6100     7.5490    -0.1030 H     1 <1>   0.4500 
 56 H       10.2410     4.8620     0.9560 H     1 <1>   0.0800 
 57 H       11.4050     6.0710     0.4600 H     1 <1>   0.0800 
 58 H       10.3380     5.3520    -0.7240 H     1 <1>   0.0800 
 59 H        9.3480     6.5170     2.6670 H     1 <1>   0.0800 
 60 H        8.8910     8.1210     2.1290 H     1 <1>   0.0800 
 61 H       10.5700     7.6370     2.1080 H     1 <1>   0.0800 
@<TRIPOS>BOND
  1   1   2  2   
  2   2   3  am  
  3   2   4  1   
  4   3   5  1   
  5   3   6  1   
  6   4   7  1   
  7   4   8  1   
  8   4  27  1   
  9   5   9  1   
 10   5  28  1   
 11   5  29  1   
 12   6  10  1   
 13   6  30  1   
 14   6  31  1   
 15   7  11  1   
 16   7  32  1   
 17   7  33  1   
 18   8  11  1   
 19   8  34  1   
 20   8  35  1   
 21   9  12  1   
 22   9  36  1   
 23   9  37  1   
 24  10  13  1   
 25  10  38  1   
 26  10  39  1   
 27  11  40  1   
 28  11  41  1   
 29  12  13  1   
 30  12  14  1   
 31  12  42  1   
 32  13  43  1   
 33  13  44  1   
 34  14  15  1   
 35  14  45  1   
 36  14  46  1   
 37  15  16  ar  
 38  15  17  ar  
 39  16  18  1   
 40  16  19  ar  
 41  17  20  ar  
 42  17  47  1   
 43  18  21  1   
 44  19  22  ar  
 45  19  48  1   
 46  20  22  ar  
 47  20  49  1   
 48  21  23  1   
 49  21  50  1   
 50  21  51  1   
 51  22  52  1   
 52  23  24  1   
 53  23  53  1   
 54  23  54  1   
 55  24  25  1   
 56  24  26  1   
 57  24  55  1   
 58  25  56  1   
 59  25  57  1   
 60  25  58  1   
 61  26  59  1   
 62  26  60  1   
 63  26  61  1   
@<TRIPOS>SUBSTRUCTURE
  1 ****  12 GROUP 4 **** **** 0

# MOE 2024.06 (io_trps.svl 2023.06)
