@<TRIPOS>MOLECULE
NONAME
50 52 1 0 0 
SMALL
USER_CHARGES


@<TRIPOS>ATOM
  1 O        0.8520     2.3140    -1.7250 O.2   1 <1>  -0.5700 
  2 C        0.1940     3.3290    -1.7270 C.2   1 <1>   0.5690 
  3 N       -0.5500     3.7550    -0.6610 N.am  1 <1>  -0.5090 
  4 C        0.1880     4.1970    -2.9790 C.3   1 <1>   0.1810 
  5 C       -1.3560     5.0120    -0.7640 C.3   1 <1>   0.3640 
  6 C       -0.4560     3.1270     0.6780 C.3   1 <1>   0.0490 
  7 O        0.2490     5.5560    -2.6290 O.3   1 <1>  -0.5600 
  8 C       -2.8220     4.6980    -1.0670 C.ar  1 <1>  -0.1440 
  9 C       -0.8220     6.0310    -1.8170 C.3   1 <1>   0.2610 
 10 C       -0.8380     1.6880     0.8170 C.3   1 <1>  -0.2000 
 11 C       -1.6990     2.7470     1.4250 C.3   1 <1>  -0.2000 
 12 C       -3.7930     5.5930    -0.6350 C.ar  1 <1>   0.1600 
 13 C       -3.2320     3.5690    -1.7570 C.ar  1 <1>  -0.1500 
 14 C       -0.4080     7.3090    -1.0840 C.2   1 <1>   0.5690 
 15 N       -5.0940     5.4580    -0.8320 N.ar  1 <1>  -0.6200 
 16 C       -4.5850     3.4140    -1.9690 C.ar  1 <1>  -0.1500 
 17 O       -1.2290     7.8840    -0.4090 O.2   1 <1>  -0.5700 
 18 N        0.8750     7.7440    -1.1800 N.am  1 <1>  -0.7300 
 19 C       -5.4600     4.3740    -1.4930 C.ar  1 <1>   0.1600 
 20 C        1.4800     8.8670    -0.4240 C.3   1 <1>   0.1400 
 21 C        2.5700     8.3860     0.5640 C.3   1 <1>   0.0000 
 22 C        3.1070     9.6460     1.2840 C.3   1 <1>   0.1200 
 23 C        3.7090     7.6810    -0.2020 C.3   1 <1>  -0.2400 
 24 C        1.9650     7.4010     1.5880 C.3   1 <1>  -0.2400 
 25 O        4.1030     9.3250     2.1950 O.3   1 <1>  -0.6800 
 26 H       -0.7030     4.0230    -3.5550 H     1 <1>   0.0800 
 27 H        1.0500     3.9710    -3.5790 H     1 <1>   0.0800 
 28 H       -1.3300     5.4790     0.2070 H     1 <1>   0.0800 
 29 H        0.3980     3.4750     1.2360 H     1 <1>   0.1000 
 30 H       -1.6200     6.2990    -2.4850 H     1 <1>   0.0800 
 31 H       -1.1830     1.1650    -0.0580 H     1 <1>   0.1000 
 32 H       -0.2530     1.0620     1.4670 H     1 <1>   0.1000 
 33 H       -1.7070     2.8340     2.4970 H     1 <1>   0.1000 
 34 H       -2.6720     2.9010     0.9950 H     1 <1>   0.1000 
 35 H       -3.4880     6.4770    -0.0960 H     1 <1>   0.1500 
 36 H       -2.5420     2.8240    -2.1140 H     1 <1>   0.1500 
 37 H       -4.9620     2.5560    -2.4950 H     1 <1>   0.1500 
 38 H        1.5100     7.2000    -1.7750 H     1 <1>   0.3700 
 39 H       -6.5150     4.2420    -1.6640 H     1 <1>   0.1500 
 40 H        1.9070     9.5620    -1.1270 H     1 <1>   0.0800 
 41 H        0.7070     9.3850     0.1190 H     1 <1>   0.0800 
 42 H        2.3170    10.1410     1.8230 H     1 <1>   0.0800 
 43 H        3.5290    10.3380     0.5760 H     1 <1>   0.0800 
 44 H        3.3540     6.7950    -0.6980 H     1 <1>   0.0800 
 45 H        4.4950     7.3870     0.4710 H     1 <1>   0.0800 
 46 H        4.1320     8.3410    -0.9390 H     1 <1>   0.0800 
 47 H        1.5720     6.5300     1.0940 H     1 <1>   0.0800 
 48 H        1.1620     7.8690     2.1310 H     1 <1>   0.0800 
 49 H        2.7070     7.0670     2.2900 H     1 <1>   0.0800 
 50 H        3.7840     8.6400     2.8130 H     1 <1>   0.4000 
@<TRIPOS>BOND
  1   1   2  2   
  2   2   3  am  
  3   2   4  1   
  4   3   5  1   
  5   3   6  1   
  6   4   7  1   
  7   4  26  1   
  8   4  27  1   
  9   5   8  1   
 10   5   9  1   
 11   5  28  1   
 12   6  10  1   
 13   6  11  1   
 14   6  29  1   
 15   7   9  1   
 16   8  12  ar  
 17   8  13  ar  
 18   9  14  1   
 19   9  30  1   
 20  10  11  1   
 21  10  31  1   
 22  10  32  1   
 23  11  33  1   
 24  11  34  1   
 25  12  15  ar  
 26  12  35  1   
 27  13  16  ar  
 28  13  36  1   
 29  14  17  2   
 30  14  18  am  
 31  15  19  ar  
 32  16  19  ar  
 33  16  37  1   
 34  18  20  1   
 35  18  38  1   
 36  19  39  1   
 37  20  21  1   
 38  20  40  1   
 39  20  41  1   
 40  21  22  1   
 41  21  23  1   
 42  21  24  1   
 43  22  25  1   
 44  22  42  1   
 45  22  43  1   
 46  23  44  1   
 47  23  45  1   
 48  23  46  1   
 49  24  47  1   
 50  24  48  1   
 51  24  49  1   
 52  25  50  1   
@<TRIPOS>SUBSTRUCTURE
  1 ****   5 GROUP 4 **** **** 0

# MOE 2024.06 (io_trps.svl 2023.06)
