@<TRIPOS>MOLECULE
NONAME
48 50 1 0 0 
SMALL
USER_CHARGES


@<TRIPOS>ATOM
  1 O       -1.9740     0.3820    -0.0670 O.co2 1 <1>  -0.9000 
  2 C       -2.0580    -0.3370    -1.0660 C.2   1 <1>   0.9060 
  3 O       -1.0970    -0.6430    -1.7760 O.co2 1 <1>  -0.9000 
  4 C       -3.3760    -1.0830    -1.2840 C.3   1 <1>   0.2370 
  5 N       -3.4470    -2.4210    -0.5590 N.4   1 <1>  -0.9590 
  6 C       -3.1870    -2.2390     0.9210 C.3   1 <1>   0.4230 
  7 C       -2.5580    -3.4050    -1.2280 C.3   1 <1>   0.3430 
  8 C       -1.7160    -2.4080     1.3830 C.3   1 <1>   0.1200 
  9 C       -4.1300    -3.2110     1.6820 C.3   1 <1>   0.2090 
 10 C       -2.3320    -4.6810    -0.4070 C.3   1 <1>  -0.0800 
 11 O       -1.4030    -3.7520     1.6260 O.3   1 <1>  -0.5600 
 12 N       -4.6450    -4.3380     0.7950 N.pl3 1 <1>  -0.8380 
 13 C       -1.1070    -4.5140     0.5070 C.3   1 <1>   0.1200 
 14 C       -3.5600    -5.2910     0.3200 C.3   1 <1>   0.2090 
 15 C       -5.9590    -4.6020     0.5810 C.ar  1 <1>   0.4100 
 16 N       -6.2660    -5.3080    -0.5160 N.ar  1 <1>  -0.6200 
 17 C       -6.9850    -4.1830     1.4420 C.ar  1 <1>  -0.1500 
 18 C       -7.5110    -5.6140    -0.7440 C.ar  1 <1>   0.5280 
 19 C       -8.2810    -4.5130     1.1730 C.ar  1 <1>   0.2180 
 20 N       -8.5230    -5.2400     0.0650 N.ar  1 <1>  -0.1790 
 21 C       -7.8430    -6.4350    -1.9840 C.3   1 <1>  -0.0170 
 22 C       -9.4440    -4.1120     2.0650 C.3   1 <1>  -0.0970 
 23 C       -8.4360    -7.8140    -1.6510 C.3   1 <1>  -0.2400 
 24 H       -3.4940    -1.2280    -2.3420 H     1 <1>   0.0800 
 25 H       -4.1600    -0.4370    -0.9370 H     1 <1>   0.0800 
 26 H       -4.3840    -2.8480    -0.5900 H     1 <1>   0.4500 
 27 H       -3.4650    -1.2320     1.1850 H     1 <1>   0.0800 
 28 H       -2.9950    -3.6720    -2.1760 H     1 <1>   0.0800 
 29 H       -1.6020    -2.9450    -1.4330 H     1 <1>   0.0800 
 30 H       -1.5930    -1.8930     2.3180 H     1 <1>   0.0800 
 31 H       -1.0120    -1.9840     0.6880 H     1 <1>   0.0800 
 32 H       -4.9460    -2.6160     2.0440 H     1 <1>   0.0800 
 33 H       -3.6410    -3.6220     2.5490 H     1 <1>   0.0800 
 34 H       -2.0170    -5.4200    -1.1210 H     1 <1>   0.0800 
 35 H       -0.2820    -4.0530    -0.0140 H     1 <1>   0.0800 
 36 H       -0.7810    -5.4760     0.8630 H     1 <1>   0.0800 
 37 H       -3.2070    -5.8410     1.1770 H     1 <1>   0.0800 
 38 H       -3.9840    -6.0270    -0.3390 H     1 <1>   0.0800 
 39 H       -6.7450    -3.6270     2.3260 H     1 <1>   0.1500 
 40 H       -9.4730    -5.5280    -0.1740 H     1 <1>   0.4570 
 41 H       -8.5280    -5.8860    -2.6060 H     1 <1>   0.0800 
 42 H       -6.9420    -6.5800    -2.5560 H     1 <1>   0.0800 
 43 H       -9.0970    -3.5390     2.9070 H     1 <1>   0.0800 
 44 H       -9.9480    -4.9840     2.4410 H     1 <1>   0.0800 
 45 H      -10.1490    -3.5080     1.5190 H     1 <1>   0.0800 
 46 H       -9.3810    -7.7320    -1.1450 H     1 <1>   0.0800 
 47 H       -7.7560    -8.3750    -1.0320 H     1 <1>   0.0800 
 48 H       -8.5930    -8.3710    -2.5600 H     1 <1>   0.0800 
@<TRIPOS>BOND
  1   1   2  ar  
  2   2   3  ar  
  3   2   4  1   
  4   4   5  1   
  5   4  24  1   
  6   4  25  1   
  7   5   6  1   
  8   5   7  1   
  9   5  26  1   
 10   6   8  1   
 11   6   9  1   
 12   6  27  1   
 13   7  10  1   
 14   7  28  1   
 15   7  29  1   
 16   8  11  1   
 17   8  30  1   
 18   8  31  1   
 19   9  12  1   
 20   9  32  1   
 21   9  33  1   
 22  10  13  1   
 23  10  14  1   
 24  10  34  1   
 25  11  13  1   
 26  12  14  1   
 27  12  15  1   
 28  13  35  1   
 29  13  36  1   
 30  14  37  1   
 31  14  38  1   
 32  15  16  ar  
 33  15  17  ar  
 34  16  18  ar  
 35  17  19  ar  
 36  17  39  1   
 37  18  20  ar  
 38  18  21  1   
 39  19  20  ar  
 40  19  22  1   
 41  20  40  1   
 42  21  23  1   
 43  21  41  1   
 44  21  42  1   
 45  22  43  1   
 46  22  44  1   
 47  22  45  1   
 48  23  46  1   
 49  23  47  1   
 50  23  48  1   
@<TRIPOS>SUBSTRUCTURE
  1 ****  12 GROUP 4 **** **** 0

# MOE 2024.06 (io_trps.svl 2023.06)
