@<TRIPOS>MOLECULE
NONAME
55 57 1 0 0 
SMALL
USER_CHARGES


@<TRIPOS>ATOM
  1 F        0.8170     0.6720    -1.5440 F     1 <1>  -0.1900 
  2 C        1.9010     1.1320    -0.9510 C.ar  1 <1>   0.1900 
  3 C        2.8220     0.2840    -0.3400 C.ar  1 <1>   0.4100 
  4 C        2.1170     2.4800    -0.9280 C.ar  1 <1>   0.1600 
  5 N        3.8810     0.8030     0.2550 N.ar  1 <1>  -0.6200 
  6 N        2.7060    -1.1050    -0.3100 N.pl3 1 <1>  -0.8380 
  7 N        3.1760     3.0010    -0.3390 N.ar  1 <1>  -0.6200 
  8 C        4.0030     2.1250     0.2310 C.ar  1 <1>   0.7200 
  9 C        2.3110    -1.8770    -1.5190 C.3   1 <1>   0.1290 
 10 C        3.3370    -1.9020     0.7780 C.3   1 <1>   0.1290 
 11 N        5.1130     2.6560     0.8590 N.pl3 1 <1>  -0.8380 
 12 C        6.3710     1.8980     1.0090 C.3   1 <1>   0.2090 
 13 C        5.0900     3.9810     1.5080 C.3   1 <1>   0.2090 
 14 C        7.4870     2.7170     0.3630 C.3   1 <1>  -0.1600 
 15 C        6.1710     4.8370     0.8550 C.3   1 <1>  -0.1600 
 16 C        7.5480     4.1520     0.9180 C.3   1 <1>   0.4230 
 17 N        8.5510     4.9570     0.1440 N.4   1 <1>  -0.9590 
 18 C        9.9250     4.3330     0.1180 C.3   1 <1>   0.3430 
 19 C        8.6690     6.3830     0.6250 C.3   1 <1>   0.3430 
 20 C       10.9330     5.1690    -0.6960 C.3   1 <1>   0.1100 
 21 C        9.6950     7.1970    -0.1910 C.3   1 <1>   0.1100 
 22 N       11.0240     6.5510    -0.1910 N.3   1 <1>  -0.8100 
 23 C       12.0200     7.3250    -0.9650 C.3   1 <1>   0.1100 
 24 C       12.4540     8.6000    -0.2310 C.3   1 <1>   0.1200 
 25 O       13.4110     9.2550    -0.9900 O.3   1 <1>  -0.6800 
 26 H        1.4120     3.1430    -1.3970 H     1 <1>   0.1500 
 27 H        2.3070    -1.2420    -2.3880 H     1 <1>   0.0800 
 28 H        1.3260    -2.2880    -1.3790 H     1 <1>   0.0800 
 29 H        3.0080    -2.6790    -1.6900 H     1 <1>   0.0800 
 30 H        3.3920    -1.3180     1.6810 H     1 <1>   0.0800 
 31 H        4.3330    -2.1880     0.4870 H     1 <1>   0.0800 
 32 H        2.7540    -2.7830     0.9750 H     1 <1>   0.0800 
 33 H        6.3090     0.9370     0.5250 H     1 <1>   0.0800 
 34 H        6.5660     1.7330     2.0550 H     1 <1>   0.0800 
 35 H        5.2810     3.8630     2.5610 H     1 <1>   0.0800 
 36 H        4.1270     4.4530     1.4010 H     1 <1>   0.0800 
 37 H        7.3060     2.7360    -0.6970 H     1 <1>   0.0800 
 38 H        8.4050     2.1930     0.5500 H     1 <1>   0.0800 
 39 H        6.1830     5.7760     1.3750 H     1 <1>   0.0800 
 40 H        5.8820     5.0070    -0.1670 H     1 <1>   0.0800 
 41 H        7.8530     4.1010     1.9510 H     1 <1>   0.0800 
 42 H        8.2150     4.9910    -0.8260 H     1 <1>   0.4500 
 43 H        9.8780     3.3480    -0.3140 H     1 <1>   0.0800 
 44 H       10.3000     4.2380     1.1240 H     1 <1>   0.0800 
 45 H        8.9760     6.3930     1.6580 H     1 <1>   0.0800 
 46 H        7.7160     6.8780     0.5570 H     1 <1>   0.0800 
 47 H       10.6460     5.1720    -1.7350 H     1 <1>   0.0800 
 48 H       11.9010     4.7020    -0.6230 H     1 <1>   0.0800 
 49 H        9.7690     8.1770     0.2480 H     1 <1>   0.0800 
 50 H        9.3410     7.3150    -1.2010 H     1 <1>   0.0800 
 51 H       11.6180     7.5840    -1.9310 H     1 <1>   0.0800 
 52 H       12.8980     6.7180    -1.1130 H     1 <1>   0.0800 
 53 H       12.8810     8.3690     0.7290 H     1 <1>   0.0800 
 54 H       11.6280     9.2770    -0.1100 H     1 <1>   0.0800 
 55 H       14.2680     8.7870    -0.9580 H     1 <1>   0.4000 
@<TRIPOS>BOND
  1   1   2  1   
  2   2   3  ar  
  3   2   4  ar  
  4   3   5  ar  
  5   3   6  1   
  6   4   7  ar  
  7   4  26  1   
  8   5   8  ar  
  9   6   9  1   
 10   6  10  1   
 11   7   8  ar  
 12   8  11  1   
 13   9  27  1   
 14   9  28  1   
 15   9  29  1   
 16  10  30  1   
 17  10  31  1   
 18  10  32  1   
 19  11  12  1   
 20  11  13  1   
 21  12  14  1   
 22  12  33  1   
 23  12  34  1   
 24  13  15  1   
 25  13  35  1   
 26  13  36  1   
 27  14  16  1   
 28  14  37  1   
 29  14  38  1   
 30  15  16  1   
 31  15  39  1   
 32  15  40  1   
 33  16  17  1   
 34  16  41  1   
 35  17  18  1   
 36  17  19  1   
 37  17  42  1   
 38  18  20  1   
 39  18  43  1   
 40  18  44  1   
 41  19  21  1   
 42  19  45  1   
 43  19  46  1   
 44  20  22  1   
 45  20  47  1   
 46  20  48  1   
 47  21  22  1   
 48  21  49  1   
 49  21  50  1   
 50  22  23  1   
 51  23  24  1   
 52  23  51  1   
 53  23  52  1   
 54  24  25  1   
 55  24  53  1   
 56  24  54  1   
 57  25  55  1   
@<TRIPOS>SUBSTRUCTURE
  1 ****  14 GROUP 4 **** **** 0

# MOE 2024.06 (io_trps.svl 2023.06)
