@<TRIPOS>MOLECULE
NONAME
54 55 1 0 0 
SMALL
USER_CHARGES


@<TRIPOS>ATOM
  1 S       -0.7170    -0.0420    -1.8350 S.o2  1 <1>   1.4470 
  2 O        0.1200    -0.1240    -3.0120 O.2   1 <1>  -0.6500 
  3 O       -2.1490    -0.1650    -1.9690 O.2   1 <1>  -0.6500 
  4 N       -0.4870     1.5020    -1.2190 N.am  1 <1>  -0.9140 
  5 C       -0.0960    -1.1180    -0.5140 C.ar  1 <1>  -0.0090 
  6 C        0.8860     1.9670    -1.2720 C.3   1 <1>   0.1960 
  7 C        0.9530    -2.0030    -0.7360 C.ar  1 <1>  -0.1500 
  8 C       -0.6490    -1.0750     0.7600 C.ar  1 <1>  -0.1500 
  9 C        0.9610     3.3370    -0.6040 C.3   1 <1>  -0.1600 
 10 C        1.4350    -2.8120     0.2780 C.ar  1 <1>  -0.1500 
 11 C       -0.1720    -1.8810     1.7780 C.ar  1 <1>  -0.1500 
 12 C        2.4020     3.8400    -0.5670 C.3   1 <1>   0.1400 
 13 C        0.8740    -2.7560     1.5420 C.ar  1 <1>  -0.1430 
 14 N        2.4320     5.1800     0.0550 N.am  1 <1>  -0.7300 
 15 C        1.4000    -3.6430     2.6570 C.3   1 <1>  -0.0970 
 16 C        2.8790     6.3100    -0.5550 C.2   1 <1>   0.5690 
 17 O        3.2740     6.2990    -1.6950 O.2   1 <1>  -0.5700 
 18 C        2.8750     7.6150     0.2470 C.3   1 <1>  -0.0190 
 19 C        2.9360     8.8750    -0.6430 C.3   1 <1>  -0.1600 
 20 C        4.0200     7.6280     1.2870 C.3   1 <1>  -0.1600 
 21 C        2.7800    10.1780     0.1720 C.3   1 <1>   0.2000 
 22 C        4.3950     9.0380     1.7870 C.3   1 <1>  -0.1600 
 23 O        3.5560    11.1820    -0.4360 O.3   1 <1>  -0.5600 
 24 C        3.2260    10.0170     1.6490 C.3   1 <1>   0.2000 
 25 C        3.0120    11.7360    -1.5940 C.3   1 <1>   0.0400 
 26 O        3.6330    11.2410     2.1370 O.3   1 <1>  -0.6800 
 27 H       -1.0510     2.0880    -1.8320 H     1 <1>   0.4200 
 28 H        1.5230     1.2730    -0.7470 H     1 <1>   0.0800 
 29 H        1.2180     2.0360    -2.2960 H     1 <1>   0.0800 
 30 H        1.4000    -2.0610    -1.7140 H     1 <1>   0.1500 
 31 H       -1.4640    -0.3980     0.9550 H     1 <1>   0.1500 
 32 H        0.3610     4.0360    -1.1600 H     1 <1>   0.0800 
 33 H        0.5840     3.2610     0.4010 H     1 <1>   0.0800 
 34 H        2.2500    -3.4870     0.0780 H     1 <1>   0.1500 
 35 H       -0.6200    -1.8240     2.7550 H     1 <1>   0.1500 
 36 H        2.8000     3.8910    -1.5680 H     1 <1>   0.0800 
 37 H        3.0200     3.1700     0.0080 H     1 <1>   0.0800 
 38 H        2.1210     5.2250     1.0260 H     1 <1>   0.3700 
 39 H        1.7930    -4.5600     2.2550 H     1 <1>   0.0800 
 40 H        0.6130    -3.8860     3.3470 H     1 <1>   0.0800 
 41 H        2.1830    -3.1330     3.1890 H     1 <1>   0.0800 
 42 H        1.9390     7.6480     0.7750 H     1 <1>   0.0800 
 43 H        2.1610     8.8260    -1.3870 H     1 <1>   0.0800 
 44 H        3.8870     8.8810    -1.1500 H     1 <1>   0.0800 
 45 H        3.7320     7.0180     2.1260 H     1 <1>   0.0800 
 46 H        4.9010     7.1820     0.8550 H     1 <1>   0.0800 
 47 H        1.7510    10.4930     0.1730 H     1 <1>   0.0800 
 48 H        5.2170     9.4080     1.1980 H     1 <1>   0.0800 
 49 H        4.7120     8.9870     2.8140 H     1 <1>   0.0800 
 50 H        2.4030     9.6790     2.2550 H     1 <1>   0.0800 
 51 H        3.6770    12.5070    -1.9400 H     1 <1>   0.0800 
 52 H        2.0500    12.1630    -1.3680 H     1 <1>   0.0800 
 53 H        2.9220    10.9750    -2.3500 H     1 <1>   0.0800 
 54 H        4.0030    11.7250     1.3620 H     1 <1>   0.4000 
@<TRIPOS>BOND
  1   1   2  2   
  2   1   3  2   
  3   1   4  am  
  4   1   5  1   
  5   4   6  1   
  6   4  27  1   
  7   5   7  ar  
  8   5   8  ar  
  9   6   9  1   
 10   6  28  1   
 11   6  29  1   
 12   7  10  ar  
 13   7  30  1   
 14   8  11  ar  
 15   8  31  1   
 16   9  12  1   
 17   9  32  1   
 18   9  33  1   
 19  10  13  ar  
 20  10  34  1   
 21  11  13  ar  
 22  11  35  1   
 23  12  14  1   
 24  12  36  1   
 25  12  37  1   
 26  13  15  1   
 27  14  16  am  
 28  14  38  1   
 29  15  39  1   
 30  15  40  1   
 31  15  41  1   
 32  16  17  2   
 33  16  18  1   
 34  18  19  1   
 35  18  20  1   
 36  18  42  1   
 37  19  21  1   
 38  19  43  1   
 39  19  44  1   
 40  20  22  1   
 41  20  45  1   
 42  20  46  1   
 43  21  23  1   
 44  21  24  1   
 45  21  47  1   
 46  22  24  1   
 47  22  48  1   
 48  22  49  1   
 49  23  25  1   
 50  24  26  1   
 51  24  50  1   
 52  25  51  1   
 53  25  52  1   
 54  25  53  1   
 55  26  54  1   
@<TRIPOS>SUBSTRUCTURE
  1 ****  12 GROUP 4 **** **** 0

# MOE 2024.06 (io_trps.svl 2023.06)
