@<TRIPOS>MOLECULE
NONAME
44 46 1 0 0 
SMALL
USER_CHARGES


@<TRIPOS>ATOM
  1 S       -2.5370    -0.1760    -0.6310 S.3   1 <1>  -0.0800 
  2 C       -2.3290    -1.5030     0.4670 C.2   1 <1>   0.4420 
  3 C       -2.0920     0.8710     0.6710 C.2   1 <1>   0.2280 
  4 N       -1.9720    -1.1120     1.6360 N.2   1 <1>  -0.3380 
  5 N       -2.5680    -2.7650    -0.0390 N.am  1 <1>  -0.4940 
  6 N       -1.8380     0.2450     1.7460 N.2   1 <1>  -0.3380 
  7 C       -2.4770    -3.9750     0.5850 C.2   1 <1>   0.5690 
  8 O       -2.1630    -4.1210     1.7360 O.2   1 <1>  -0.5700 
  9 C       -2.8110    -5.2120    -0.2210 C.3   1 <1>  -0.0990 
 10 C       -4.2190    -5.7270     0.1150 C.3   1 <1>  -0.0990 
 11 C       -4.5770    -6.9220    -0.7390 C.2   1 <1>   0.5690 
 12 O       -4.8490    -6.7420    -1.9000 O.2   1 <1>  -0.5700 
 13 N       -4.5820    -8.1530    -0.1800 N.am  1 <1>  -0.7300 
 14 C       -4.8870    -9.4120    -0.9010 C.3   1 <1>   0.2200 
 15 C       -6.2710    -9.9360    -0.5410 C.3   1 <1>  -0.0800 
 16 C       -4.0140   -10.5240    -0.3350 C.3   1 <1>   0.1200 
 17 C       -6.0210   -10.7190     0.7530 C.3   1 <1>   0.1200 
 18 C       -7.3860    -8.8790    -0.4390 C.3   1 <1>  -0.0170 
 19 O       -4.6370   -10.9010     0.8550 O.3   1 <1>  -0.5600 
 20 C       -8.7310    -9.5350    -0.1650 C.ar  1 <1>  -0.1430 
 21 C       -9.2700    -9.6030     1.1030 C.ar  1 <1>  -0.1500 
 22 C       -9.4820   -10.0970    -1.1780 C.ar  1 <1>  -0.1500 
 23 C      -10.4960   -10.2190     1.2940 C.ar  1 <1>   0.1600 
 24 C      -10.6980   -10.6900    -0.8800 C.ar  1 <1>   0.1600 
 25 N      -11.2220   -10.7660     0.3320 N.ar  1 <1>  -0.6200 
 26 H       -2.0640     1.9290     0.4850 H     1 <1>   0.1500 
 27 H       -2.8520    -2.7870    -1.0140 H     1 <1>   0.3700 
 28 H       -2.7400    -4.9980    -1.2720 H     1 <1>   0.0800 
 29 H       -2.0870    -5.9740     0.0090 H     1 <1>   0.0800 
 30 H       -4.9430    -4.9540    -0.0670 H     1 <1>   0.0800 
 31 H       -4.2710    -5.9920     1.1560 H     1 <1>   0.0800 
 32 H       -4.3570    -8.2880     0.8090 H     1 <1>   0.3700 
 33 H       -4.7520    -9.2860    -1.9620 H     1 <1>   0.0800 
 34 H       -6.5560   -10.6490    -1.2950 H     1 <1>   0.0800 
 35 H       -3.0060   -10.2070    -0.1350 H     1 <1>   0.0800 
 36 H       -4.0090   -11.3780    -0.9900 H     1 <1>   0.0800 
 37 H       -6.5010   -11.6830     0.7340 H     1 <1>   0.0800 
 38 H       -6.3410   -10.1700     1.6210 H     1 <1>   0.0800 
 39 H       -7.4400    -8.3270    -1.3610 H     1 <1>   0.0800 
 40 H       -7.1690    -8.1760     0.3460 H     1 <1>   0.0800 
 41 H       -8.7520    -9.1840     1.9460 H     1 <1>   0.1500 
 42 H       -9.1330   -10.0800    -2.1940 H     1 <1>   0.1500 
 43 H      -10.9020   -10.2640     2.2900 H     1 <1>   0.1500 
 44 H      -11.2700   -11.1230    -1.6830 H     1 <1>   0.1500 
@<TRIPOS>BOND
  1   1   2  1   
  2   1   3  1   
  3   2   4  2   
  4   2   5  1   
  5   3   6  2   
  6   3  26  1   
  7   4   6  1   
  8   5   7  am  
  9   5  27  1   
 10   7   8  2   
 11   7   9  1   
 12   9  10  1   
 13   9  28  1   
 14   9  29  1   
 15  10  11  1   
 16  10  30  1   
 17  10  31  1   
 18  11  12  2   
 19  11  13  am  
 20  13  14  1   
 21  13  32  1   
 22  14  15  1   
 23  14  16  1   
 24  14  33  1   
 25  15  17  1   
 26  15  18  1   
 27  15  34  1   
 28  16  19  1   
 29  16  35  1   
 30  16  36  1   
 31  17  19  1   
 32  17  37  1   
 33  17  38  1   
 34  18  20  1   
 35  18  39  1   
 36  18  40  1   
 37  20  21  ar  
 38  20  22  ar  
 39  21  23  ar  
 40  21  41  1   
 41  22  24  ar  
 42  22  42  1   
 43  23  25  ar  
 44  23  43  1   
 45  24  25  ar  
 46  24  44  1   
@<TRIPOS>SUBSTRUCTURE
  1 ****  11 GROUP 4 **** **** 0

# MOE 2024.06 (io_trps.svl 2023.06)
