@<TRIPOS>MOLECULE
NONAME
56 59 1 0 0 
SMALL
USER_CHARGES


@<TRIPOS>ATOM
  1 O        1.9160     0.1620    -3.0260 O.2   1 <1>  -0.5700 
  2 C        2.1170    -0.5240    -2.0520 C.2   1 <1>   0.5690 
  3 N        3.0200    -0.1110    -1.0920 N.am  1 <1>  -0.6600 
  4 C        1.3590    -1.8430    -1.9870 C.3   1 <1>   0.1570 
  5 C        3.5260    -0.9280     0.0630 C.3   1 <1>   0.1400 
  6 C        3.4090     1.3250    -1.0350 C.3   1 <1>   0.1400 
  7 N        0.6440    -2.0160    -0.7050 N.pl3 1 <1>   0.0480 
  8 C        5.0460    -1.2010     0.0070 C.3   1 <1>   0.3430 
  9 C        4.6890     1.5580    -1.8410 C.3   1 <1>  -0.1600 
 10 C        0.7640    -3.0940     0.1440 C.ar  1 <1>  -0.1520 
 11 C       -0.0970    -1.0630    -0.0620 C.2   1 <1>  -0.3020 
 12 N        5.8750     0.0100    -0.3110 N.4   1 <1>  -0.9590 
 13 C        5.7240     0.4400    -1.7280 C.3   1 <1>   0.3430 
 14 C        0.1060    -2.7910     1.3320 C.ar  1 <1>   0.0000 
 15 C        1.4040    -4.3300    -0.0130 C.ar  1 <1>  -0.1500 
 16 C       -0.4390    -1.5010     1.1710 C.2   1 <1>  -0.1500 
 17 C        7.3000    -0.1450     0.1370 C.3   1 <1>   0.3430 
 18 C        0.0970    -3.7130     2.3820 C.ar  1 <1>  -0.1500 
 19 C        1.3880    -5.2300     1.0270 C.ar  1 <1>  -0.1500 
 20 C        7.6520     0.9190     1.2010 C.3   1 <1>   0.2000 
 21 C        0.7370    -4.9210     2.2270 C.ar  1 <1>  -0.1500 
 22 O        6.4920     1.1070     1.9940 O.3   1 <1>  -0.2170 
 23 C        7.9110     2.3180     0.6330 C.3   1 <1>  -0.0990 
 24 N        5.8880     2.2460     1.7120 N.2   1 <1>  -0.5130 
 25 C        6.6200     2.9820     1.0050 C.2   1 <1>   0.3280 
 26 C        6.3310     4.3900     0.5030 C.3   1 <1>  -0.0990 
 27 C        4.9040     4.8680     0.8070 C.3   1 <1>  -0.2400 
 28 H        2.0480    -2.6500    -2.1300 H     1 <1>   0.0800 
 29 H        0.6340    -1.8700    -2.7800 H     1 <1>   0.0800 
 30 H        3.0370    -1.8800     0.1030 H     1 <1>   0.0800 
 31 H        3.2890    -0.4210     0.9830 H     1 <1>   0.0800 
 32 H        3.5540     1.6210    -0.0090 H     1 <1>   0.0800 
 33 H        2.6160     1.9390    -1.4310 H     1 <1>   0.0800 
 34 H        5.2330    -1.9670    -0.7270 H     1 <1>   0.0800 
 35 H        5.3410    -1.5940     0.9670 H     1 <1>   0.0800 
 36 H        5.1240     2.4940    -1.5460 H     1 <1>   0.0800 
 37 H        4.4180     1.6580    -2.8780 H     1 <1>   0.0800 
 38 H       -0.3360    -0.1190    -0.5220 H     1 <1>   0.1500 
 39 H        5.5040     0.7700     0.2980 H     1 <1>   0.4500 
 40 H        6.6640     0.7900    -2.1210 H     1 <1>   0.0800 
 41 H        5.4030    -0.3980    -2.3270 H     1 <1>   0.0800 
 42 H        1.8940    -4.5800    -0.9360 H     1 <1>   0.1500 
 43 H       -1.0180    -0.9930     1.9220 H     1 <1>   0.1500 
 44 H        7.9760    -0.0660    -0.6980 H     1 <1>   0.0800 
 45 H        7.4380    -1.1190     0.5750 H     1 <1>   0.0800 
 46 H       -0.4120    -3.4620     3.2950 H     1 <1>   0.1500 
 47 H        1.8710    -6.1870     0.9290 H     1 <1>   0.1500 
 48 H        8.4600     0.5940     1.8340 H     1 <1>   0.0800 
 49 H        0.7370    -5.6420     3.0260 H     1 <1>   0.1500 
 50 H        8.0790     2.3140    -0.4290 H     1 <1>   0.0800 
 51 H        8.7340     2.7930     1.1360 H     1 <1>   0.0800 
 52 H        6.4920     4.4280    -0.5590 H     1 <1>   0.0800 
 53 H        7.0300     5.0660     0.9650 H     1 <1>   0.0800 
 54 H        4.1790     4.2230     0.3440 H     1 <1>   0.0800 
 55 H        4.7600     5.8680     0.4380 H     1 <1>   0.0800 
 56 H        4.7300     4.8700     1.8700 H     1 <1>   0.0800 
@<TRIPOS>BOND
  1   1   2  2   
  2   2   3  am  
  3   2   4  1   
  4   3   5  1   
  5   3   6  1   
  6   4   7  1   
  7   4  28  1   
  8   4  29  1   
  9   5   8  1   
 10   5  30  1   
 11   5  31  1   
 12   6   9  1   
 13   6  32  1   
 14   6  33  1   
 15   7  10  1   
 16   7  11  1   
 17   8  12  1   
 18   8  34  1   
 19   8  35  1   
 20   9  13  1   
 21   9  36  1   
 22   9  37  1   
 23  10  14  ar  
 24  10  15  ar  
 25  11  16  2   
 26  11  38  1   
 27  12  13  1   
 28  12  17  1   
 29  12  39  1   
 30  13  40  1   
 31  13  41  1   
 32  14  16  1   
 33  14  18  ar  
 34  15  19  ar  
 35  15  42  1   
 36  16  43  1   
 37  17  20  1   
 38  17  44  1   
 39  17  45  1   
 40  18  21  ar  
 41  18  46  1   
 42  19  21  ar  
 43  19  47  1   
 44  20  22  1   
 45  20  23  1   
 46  20  48  1   
 47  21  49  1   
 48  22  24  1   
 49  23  25  1   
 50  23  50  1   
 51  23  51  1   
 52  24  25  2   
 53  25  26  1   
 54  26  27  1   
 55  26  52  1   
 56  26  53  1   
 57  27  54  1   
 58  27  55  1   
 59  27  56  1   
@<TRIPOS>SUBSTRUCTURE
  1 ****   5 GROUP 4 **** **** 0

# MOE 2024.06 (io_trps.svl 2023.06)
