@<TRIPOS>MOLECULE
NONAME
54 56 1 0 0 
SMALL
USER_CHARGES


@<TRIPOS>ATOM
  1 O       -0.0370     0.2630     1.3970 O.2   1 <1>  -0.5700 
  2 C       -0.9860     0.9360     1.0410 C.2   1 <1>   0.7150 
  3 N       -2.0920     0.3000     0.5300 N.am  1 <1>  -0.6600 
  4 C       -0.9360     2.3660     1.1330 C.2   1 <1>  -0.2370 
  5 C       -3.1510     0.9680    -0.2650 C.3   1 <1>   0.1400 
  6 C       -2.1520    -1.1720     0.3510 C.3   1 <1>   0.1400 
  7 N        0.1450     3.1180     0.7980 N.pl3 1 <1>   0.3140 
  8 C       -1.8820     3.2590     1.5360 C.2   1 <1>  -0.1500 
  9 C       -3.7940    -0.1500    -1.0850 C.3   1 <1>   0.2000 
 10 C       -3.5010    -1.4390    -0.3210 C.3   1 <1>  -0.0800 
 11 N       -0.0890     4.4320     0.9510 N.2   1 <1>  -0.7070 
 12 C        1.4550     2.6520     0.2850 C.3   1 <1>   0.0960 
 13 C       -1.3050     4.5070     1.3960 C.2   1 <1>   0.1080 
 14 O       -5.1630     0.0300    -1.2080 O.3   1 <1>  -0.6800 
 15 C       -3.5160    -2.6800    -1.2300 C.3   1 <1>  -0.0170 
 16 C        1.3570     2.2040    -1.1800 C.3   1 <1>  -0.2400 
 17 C       -1.9850     5.8270     1.7140 C.3   1 <1>   0.0210 
 18 C       -3.2670    -3.9580    -0.4460 C.ar  1 <1>   0.1670 
 19 C       -3.2070     6.1010     0.8150 C.3   1 <1>  -0.0800 
 20 N       -2.0020    -4.2570    -0.1960 N.ar  1 <1>  -0.6200 
 21 C       -4.3420    -4.7330    -0.0360 C.ar  1 <1>  -0.1500 
 22 C       -2.8110     6.1920    -0.6660 C.3   1 <1>  -0.2400 
 23 C       -3.9060     7.3970     1.2420 C.3   1 <1>  -0.2400 
 24 C       -1.7990    -5.3710     0.4890 C.ar  1 <1>   0.1600 
 25 C       -4.1170    -5.8910     0.6770 C.ar  1 <1>  -0.1500 
 26 C       -2.8030    -6.2100     0.9420 C.ar  1 <1>  -0.1500 
 27 H       -3.8680     1.4100     0.4050 H     1 <1>   0.0800 
 28 H       -2.7280     1.7210    -0.9080 H     1 <1>   0.0800 
 29 H       -1.3370    -1.4850    -0.2810 H     1 <1>   0.0800 
 30 H       -2.0740    -1.6780     1.2990 H     1 <1>   0.0800 
 31 H       -2.8740     3.0590     1.8950 H     1 <1>   0.1500 
 32 H       -3.3620    -0.1710    -2.0720 H     1 <1>   0.0800 
 33 H       -4.2250    -1.5650     0.4640 H     1 <1>   0.0800 
 34 H        2.1520     3.4660     0.3670 H     1 <1>   0.0800 
 35 H        1.8070     1.8480     0.9050 H     1 <1>   0.0800 
 36 H       -5.5890     0.0130    -0.3290 H     1 <1>   0.4000 
 37 H       -2.7650    -2.5880    -1.9940 H     1 <1>   0.0800 
 38 H       -4.4700    -2.7450    -1.7230 H     1 <1>   0.0800 
 39 H        0.9920     3.0120    -1.7890 H     1 <1>   0.0800 
 40 H        0.7000     1.3570    -1.2730 H     1 <1>   0.0800 
 41 H        2.3300     1.9180    -1.5350 H     1 <1>   0.0800 
 42 H       -2.2890     5.8060     2.7440 H     1 <1>   0.0800 
 43 H       -1.2670     6.6210     1.6020 H     1 <1>   0.0800 
 44 H       -3.9050     5.2890     0.9300 H     1 <1>   0.0800 
 45 H       -5.3480    -4.4360    -0.2710 H     1 <1>   0.1500 
 46 H       -2.0970     6.9820    -0.8180 H     1 <1>   0.0800 
 47 H       -3.6750     6.3860    -1.2760 H     1 <1>   0.0800 
 48 H       -2.3660     5.2690    -0.9960 H     1 <1>   0.0800 
 49 H       -3.2420     8.2380     1.1380 H     1 <1>   0.0800 
 50 H       -4.2210     7.3330     2.2690 H     1 <1>   0.0800 
 51 H       -4.7760     7.5700     0.6340 H     1 <1>   0.0800 
 52 H       -0.7760    -5.6300     0.7010 H     1 <1>   0.1500 
 53 H       -4.9270    -6.5160     1.0100 H     1 <1>   0.1500 
 54 H       -2.5550    -7.0980     1.4930 H     1 <1>   0.1500 
@<TRIPOS>BOND
  1   1   2  2   
  2   2   3  am  
  3   2   4  1   
  4   3   5  1   
  5   3   6  1   
  6   4   7  1   
  7   4   8  2   
  8   5   9  1   
  9   5  27  1   
 10   5  28  1   
 11   6  10  1   
 12   6  29  1   
 13   6  30  1   
 14   7  11  1   
 15   7  12  1   
 16   8  13  1   
 17   8  31  1   
 18   9  10  1   
 19   9  14  1   
 20   9  32  1   
 21  10  15  1   
 22  10  33  1   
 23  11  13  2   
 24  12  16  1   
 25  12  34  1   
 26  12  35  1   
 27  13  17  1   
 28  14  36  1   
 29  15  18  1   
 30  15  37  1   
 31  15  38  1   
 32  16  39  1   
 33  16  40  1   
 34  16  41  1   
 35  17  19  1   
 36  17  42  1   
 37  17  43  1   
 38  18  20  ar  
 39  18  21  ar  
 40  19  22  1   
 41  19  23  1   
 42  19  44  1   
 43  20  24  ar  
 44  21  25  ar  
 45  21  45  1   
 46  22  46  1   
 47  22  47  1   
 48  22  48  1   
 49  23  49  1   
 50  23  50  1   
 51  23  51  1   
 52  24  26  ar  
 53  24  52  1   
 54  25  26  ar  
 55  25  53  1   
 56  26  54  1   
@<TRIPOS>SUBSTRUCTURE
  1 ****   3 GROUP 4 **** **** 0

# MOE 2024.06 (io_trps.svl 2023.06)
