@<TRIPOS>MOLECULE
NONAME
52 53 1 0 0 
SMALL
USER_CHARGES


@<TRIPOS>ATOM
  1 O       -0.9380     0.6290     1.7860 O.2   1 <1>  -0.5700 
  2 C       -1.4890     0.8840     0.7410 C.2   1 <1>   0.5690 
  3 N       -2.0880    -0.0860    -0.0150 N.am  1 <1>  -0.6600 
  4 C       -1.5080     2.3270     0.2630 C.3   1 <1>  -0.0990 
  5 C       -2.0320    -1.5270     0.4180 C.3   1 <1>   0.3640 
  6 C       -2.8710     0.2060    -1.2580 C.3   1 <1>   0.1400 
  7 C       -0.6280     3.2400     1.1130 C.3   1 <1>   0.1200 
  8 C       -0.8690    -2.2810    -0.2490 C.ar  1 <1>  -0.1440 
  9 C       -3.3860    -2.2720     0.1800 C.3   1 <1>   0.2000 
 10 C       -3.5260    -1.0510    -1.8480 C.3   1 <1>   0.1200 
 11 O       -0.6770     4.5140     0.5570 O.3   1 <1>  -0.5600 
 12 C       -0.5300    -3.5290     0.2620 C.ar  1 <1>  -0.1500 
 13 C       -0.1330    -1.7860    -1.3220 C.ar  1 <1>  -0.1500 
 14 O       -4.1990    -1.7290    -0.8370 O.3   1 <1>  -0.5600 
 15 C       -4.2390    -2.3020     1.4530 C.3   1 <1>   0.1200 
 16 C        0.0800     5.4520     1.2430 C.3   1 <1>   0.1200 
 17 C        0.4920    -4.2810    -0.2900 C.ar  1 <1>   0.0820 
 18 C        0.9040    -2.5210    -1.8710 C.ar  1 <1>  -0.1500 
 19 O       -3.6810    -3.1730     2.3860 O.3   1 <1>  -0.6800 
 20 C       -0.0740     6.7840     0.5200 C.3   1 <1>  -0.2400 
 21 O        0.7180    -5.5080     0.2420 O.3   1 <1>  -0.3620 
 22 C        1.2350    -3.7600    -1.3550 C.ar  1 <1>   0.0820 
 23 C        0.5270    -6.6140    -0.6130 C.3   1 <1>   0.0400 
 24 O        2.2870    -4.4100    -1.9100 O.3   1 <1>  -0.3630 
 25 C        3.4250    -4.5580    -1.0890 C.3   1 <1>   0.0400 
 26 H       -1.1500     2.3620    -0.7480 H     1 <1>   0.0800 
 27 H       -2.5180     2.6870     0.2980 H     1 <1>   0.0800 
 28 H       -1.8310    -1.5610     1.4760 H     1 <1>   0.0800 
 29 H       -3.6460     0.9150    -1.0260 H     1 <1>   0.0800 
 30 H       -2.2260     0.6460    -1.9980 H     1 <1>   0.0800 
 31 H        0.3930     2.8940     1.1070 H     1 <1>   0.0800 
 32 H       -0.9930     3.2830     2.1250 H     1 <1>   0.0800 
 33 H       -3.1860    -3.2880    -0.1100 H     1 <1>   0.0800 
 34 H       -2.7970    -1.7090    -2.2880 H     1 <1>   0.0800 
 35 H       -4.2440    -0.7780    -2.6000 H     1 <1>   0.0800 
 36 H       -1.0630    -3.9360     1.1030 H     1 <1>   0.1500 
 37 H       -0.3460    -0.8210    -1.7410 H     1 <1>   0.1500 
 38 H       -5.2360    -2.6410     1.2350 H     1 <1>   0.0800 
 39 H       -4.2790    -1.3210     1.8960 H     1 <1>   0.0800 
 40 H       -0.2850     5.5230     2.2540 H     1 <1>   0.0800 
 41 H        1.1110     5.1370     1.2430 H     1 <1>   0.0800 
 42 H        1.4710    -2.1300    -2.6960 H     1 <1>   0.1500 
 43 H       -3.8900    -4.1020     2.1620 H     1 <1>   0.4000 
 44 H       -1.1070     7.0820     0.5130 H     1 <1>   0.0800 
 45 H        0.2810     6.6970    -0.4920 H     1 <1>   0.0800 
 46 H        0.5000     7.5400     1.0220 H     1 <1>   0.0800 
 47 H        0.5860    -7.5090    -0.0210 H     1 <1>   0.0800 
 48 H        1.2950    -6.6220    -1.3640 H     1 <1>   0.0800 
 49 H       -0.4430    -6.5360    -1.0700 H     1 <1>   0.0800 
 50 H        4.2040    -5.0130    -1.6730 H     1 <1>   0.0800 
 51 H        3.1810    -5.1840    -0.2500 H     1 <1>   0.0800 
 52 H        3.7360    -3.5850    -0.7500 H     1 <1>   0.0800 
@<TRIPOS>BOND
  1   1   2  2   
  2   2   3  am  
  3   2   4  1   
  4   3   5  1   
  5   3   6  1   
  6   4   7  1   
  7   4  26  1   
  8   4  27  1   
  9   5   8  1   
 10   5   9  1   
 11   5  28  1   
 12   6  10  1   
 13   6  29  1   
 14   6  30  1   
 15   7  11  1   
 16   7  31  1   
 17   7  32  1   
 18   8  12  ar  
 19   8  13  ar  
 20   9  14  1   
 21   9  15  1   
 22   9  33  1   
 23  10  14  1   
 24  10  34  1   
 25  10  35  1   
 26  11  16  1   
 27  12  17  ar  
 28  12  36  1   
 29  13  18  ar  
 30  13  37  1   
 31  15  19  1   
 32  15  38  1   
 33  15  39  1   
 34  16  20  1   
 35  16  40  1   
 36  16  41  1   
 37  17  21  1   
 38  17  22  ar  
 39  18  22  ar  
 40  18  42  1   
 41  19  43  1   
 42  20  44  1   
 43  20  45  1   
 44  20  46  1   
 45  21  23  1   
 46  22  24  1   
 47  23  47  1   
 48  23  48  1   
 49  23  49  1   
 50  24  25  1   
 51  25  50  1   
 52  25  51  1   
 53  25  52  1   
@<TRIPOS>SUBSTRUCTURE
  1 ****   8 GROUP 4 **** **** 0

# MOE 2024.06 (io_trps.svl 2023.06)
