@<TRIPOS>MOLECULE
NONAME
50 52 1 0 0 
SMALL
USER_CHARGES


@<TRIPOS>ATOM
  1 O        0.1480    -0.1220    -0.7400 O.3   1 <1>  -0.5600 
  2 C        1.3520    -0.8210    -0.9470 C.3   1 <1>   0.2000 
  3 C        0.2130     1.2600    -0.9290 C.3   1 <1>   0.1200 
  4 C        2.4940    -0.2500    -0.0610 C.3   1 <1>   0.5660 
  5 C        1.1150    -2.3050    -0.6210 C.3   1 <1>   0.1200 
  6 C        1.2180     1.8760     0.0590 C.3   1 <1>   0.3430 
  7 N        2.5740     1.2460    -0.0710 N.4   1 <1>  -0.9590 
  8 C        3.8530    -0.7820    -0.4940 C.ar  1 <1>  -0.1440 
  9 O        1.0570    -2.4890     0.7590 O.3   1 <1>  -0.6800 
 10 C        3.5230     1.7330     0.9660 C.3   1 <1>   0.4870 
 11 C        4.5880    -1.5480     0.4000 C.ar  1 <1>  -0.1500 
 12 C        4.3820    -0.5130    -1.7520 C.ar  1 <1>  -0.1500 
 13 C        3.8030     3.1970     0.6950 C.ar  1 <1>  -0.1440 
 14 C        5.8380    -2.0320     0.0580 C.ar  1 <1>   0.0820 
 15 C        5.6370    -0.9870    -2.0970 C.ar  1 <1>  -0.1500 
 16 C        3.2100     4.2060     1.4300 C.ar  1 <1>  -0.1500 
 17 C        4.6680     3.5930    -0.3080 C.ar  1 <1>  -0.1500 
 18 O        6.4760    -2.7890     0.9810 O.3   1 <1>  -0.3620 
 19 C        6.3800    -1.7290    -1.1960 C.ar  1 <1>   0.0820 
 20 C        3.4890     5.5270     1.1220 C.ar  1 <1>   0.1600 
 21 C        4.8770     4.9430    -0.5340 C.ar  1 <1>   0.1600 
 22 C        6.7150    -4.1390     0.6420 C.3   1 <1>   0.0400 
 23 O        7.6120    -2.1290    -1.5910 O.3   1 <1>  -0.3630 
 24 N        4.2990     5.9130     0.1520 N.ar  1 <1>  -0.6200 
 25 C        8.7150    -1.6230    -0.8690 C.3   1 <1>   0.0400 
 26 H        1.6000    -0.7320    -1.9890 H     1 <1>   0.0800 
 27 H        0.4860     1.4640    -1.9500 H     1 <1>   0.0800 
 28 H       -0.7710     1.6580    -0.7510 H     1 <1>   0.0800 
 29 H        2.3050    -0.5770     0.9490 H     1 <1>   0.0800 
 30 H        1.9220    -2.9110    -1.0000 H     1 <1>   0.0800 
 31 H        0.1880    -2.6380    -1.0580 H     1 <1>   0.0800 
 32 H        0.8400     1.7320     1.0580 H     1 <1>   0.0800 
 33 H        1.2870     2.9380    -0.1210 H     1 <1>   0.0800 
 34 H        2.9710     1.5140    -0.9750 H     1 <1>   0.4500 
 35 H        0.6740    -3.3660     0.9740 H     1 <1>   0.4000 
 36 H        3.1030     1.6060     1.9510 H     1 <1>   0.0800 
 37 H        4.4500     1.1830     0.9160 H     1 <1>   0.0800 
 38 H        4.2010    -1.7940     1.3750 H     1 <1>   0.1500 
 39 H        3.8370     0.0590    -2.4840 H     1 <1>   0.1500 
 40 H        6.0540    -0.7840    -3.0680 H     1 <1>   0.1500 
 41 H        2.5380     3.9930     2.2430 H     1 <1>   0.1500 
 42 H        5.1910     2.8760    -0.9170 H     1 <1>   0.1500 
 43 H        3.0230     6.3090     1.7000 H     1 <1>   0.1500 
 44 H        5.5550     5.2430    -1.3170 H     1 <1>   0.1500 
 45 H        7.1320    -4.6330     1.5010 H     1 <1>   0.0800 
 46 H        7.4090    -4.1860    -0.1780 H     1 <1>   0.0800 
 47 H        5.7820    -4.6000     0.3680 H     1 <1>   0.0800 
 48 H        9.6140    -1.9480    -1.3600 H     1 <1>   0.0800 
 49 H        8.6920    -2.0010     0.1360 H     1 <1>   0.0800 
 50 H        8.6660    -0.5480    -0.8660 H     1 <1>   0.0800 
@<TRIPOS>BOND
  1   1   2  1   
  2   1   3  1   
  3   2   4  1   
  4   2   5  1   
  5   2  26  1   
  6   3   6  1   
  7   3  27  1   
  8   3  28  1   
  9   4   7  1   
 10   4   8  1   
 11   4  29  1   
 12   5   9  1   
 13   5  30  1   
 14   5  31  1   
 15   6   7  1   
 16   6  32  1   
 17   6  33  1   
 18   7  10  1   
 19   7  34  1   
 20   8  11  ar  
 21   8  12  ar  
 22   9  35  1   
 23  10  13  1   
 24  10  36  1   
 25  10  37  1   
 26  11  14  ar  
 27  11  38  1   
 28  12  15  ar  
 29  12  39  1   
 30  13  16  ar  
 31  13  17  ar  
 32  14  18  1   
 33  14  19  ar  
 34  15  19  ar  
 35  15  40  1   
 36  16  20  ar  
 37  16  41  1   
 38  17  21  ar  
 39  17  42  1   
 40  18  22  1   
 41  19  23  1   
 42  20  24  ar  
 43  20  43  1   
 44  21  24  ar  
 45  21  44  1   
 46  22  45  1   
 47  22  46  1   
 48  22  47  1   
 49  23  25  1   
 50  25  48  1   
 51  25  49  1   
 52  25  50  1   
@<TRIPOS>SUBSTRUCTURE
  1 ****   8 GROUP 4 **** **** 0

# MOE 2024.06 (io_trps.svl 2023.06)
