@<TRIPOS>MOLECULE
NONAME
44 45 1 0 0 
SMALL
USER_CHARGES


@<TRIPOS>ATOM
  1 F        4.0370     0.5110    -1.0020 F     1 <1>  -0.1900 
  2 C        5.1710     1.1180    -0.7560 C.ar  1 <1>   0.1900 
  3 C        5.4800     1.5310     0.5430 C.ar  1 <1>   0.0830 
  4 C        6.0370     1.3080    -1.8150 C.ar  1 <1>  -0.1500 
  5 O        4.6470     1.3530     1.6010 O.3   1 <1>  -0.3630 
  6 C        6.7120     2.1290     0.7770 C.ar  1 <1>  -0.1500 
  7 C        7.2450     1.9190    -1.5420 C.ar  1 <1>   0.1900 
  8 C        3.3770     2.0000     1.5850 C.3   1 <1>   0.2610 
  9 C        7.5990     2.3330    -0.2690 C.ar  1 <1>  -0.1500 
 10 F        8.0870     2.1100    -2.5230 F     1 <1>  -0.1900 
 11 C        3.5290     3.5140     1.8000 C.2   1 <1>   0.5690 
 12 C        2.5280     1.3430     2.6770 C.3   1 <1>  -0.2400 
 13 O        2.7790     4.2690     1.2270 O.2   1 <1>  -0.5700 
 14 N        4.5040     3.9780     2.6240 N.am  1 <1>  -0.7300 
 15 C        4.8930     5.3970     2.7330 C.3   1 <1>   0.3200 
 16 C        6.1220     5.6290     1.8820 C.2   1 <1>  -0.0400 
 17 O        7.2710     5.1110     2.2270 O.3   1 <1>  -0.0190 
 18 C        6.2990     6.3020     0.7360 C.2   1 <1>  -0.1500 
 19 N        8.2070     5.3960     1.3690 N.2   1 <1>  -0.4100 
 20 C        7.6500     6.1130     0.4560 C.2   1 <1>   0.1080 
 21 C        8.3730     6.6750    -0.7550 C.3   1 <1>   0.0210 
 22 C        8.3810     5.7030    -1.9510 C.3   1 <1>  -0.0800 
 23 C        9.2240     6.2760    -3.0970 C.3   1 <1>  -0.2400 
 24 C        6.9650     5.3950    -2.4600 C.3   1 <1>  -0.2400 
 25 H        5.7850     0.9900    -2.8090 H     1 <1>   0.1500 
 26 H        6.9800     2.4400     1.7700 H     1 <1>   0.1500 
 27 H        2.9120     1.8350     0.6320 H     1 <1>   0.0800 
 28 H        8.5500     2.8070    -0.0960 H     1 <1>   0.1500 
 29 H        2.9810     1.4860     3.6420 H     1 <1>   0.0800 
 30 H        2.4240     0.2920     2.4790 H     1 <1>   0.0800 
 31 H        1.5490     1.7880     2.6890 H     1 <1>   0.0800 
 32 H        5.1910     3.3090     2.9780 H     1 <1>   0.3700 
 33 H        5.1030     5.6390     3.7600 H     1 <1>   0.0800 
 34 H        4.0890     6.0260     2.3900 H     1 <1>   0.0800 
 35 H        5.5920     6.8520     0.1440 H     1 <1>   0.1500 
 36 H        9.3860     6.8910    -0.4670 H     1 <1>   0.0800 
 37 H        7.9110     7.6030    -1.0420 H     1 <1>   0.0800 
 38 H        8.8360     4.7810    -1.6300 H     1 <1>   0.0800 
 39 H        8.8030     7.1980    -3.4570 H     1 <1>   0.0800 
 40 H        9.2640     5.5760    -3.9140 H     1 <1>   0.0800 
 41 H       10.2310     6.4610    -2.7660 H     1 <1>   0.0800 
 42 H        6.4570     6.2980    -2.7500 H     1 <1>   0.0800 
 43 H        6.3860     4.9010    -1.7000 H     1 <1>   0.0800 
 44 H        7.0120     4.7400    -3.3120 H     1 <1>   0.0800 
@<TRIPOS>BOND
  1   1   2  1   
  2   2   3  ar  
  3   2   4  ar  
  4   3   5  1   
  5   3   6  ar  
  6   4   7  ar  
  7   4  25  1   
  8   5   8  1   
  9   6   9  ar  
 10   6  26  1   
 11   7   9  ar  
 12   7  10  1   
 13   8  11  1   
 14   8  12  1   
 15   8  27  1   
 16   9  28  1   
 17  11  13  2   
 18  11  14  am  
 19  12  29  1   
 20  12  30  1   
 21  12  31  1   
 22  14  15  1   
 23  14  32  1   
 24  15  16  1   
 25  15  33  1   
 26  15  34  1   
 27  16  17  1   
 28  16  18  2   
 29  17  19  1   
 30  18  20  1   
 31  18  35  1   
 32  19  20  2   
 33  20  21  1   
 34  21  22  1   
 35  21  36  1   
 36  21  37  1   
 37  22  23  1   
 38  22  24  1   
 39  22  38  1   
 40  23  39  1   
 41  23  40  1   
 42  23  41  1   
 43  24  42  1   
 44  24  43  1   
 45  24  44  1   
@<TRIPOS>SUBSTRUCTURE
  1 ****   6 GROUP 4 **** **** 0

# MOE 2024.06 (io_trps.svl 2023.06)
