@<TRIPOS>MOLECULE
NONAME
48 51 1 0 0 
SMALL
USER_CHARGES


@<TRIPOS>ATOM
  1 O        1.0790     4.1800    -1.5420 O.3   1 <1>  -0.0190 
  2 N        2.1970     4.7310    -1.8960 N.2   1 <1>  -0.4100 
  3 C        1.2700     3.1240    -0.8000 C.2   1 <1>  -0.0400 
  4 C        3.1320     3.9840    -1.4280 C.2   1 <1>   0.1080 
  5 C        2.5940     2.9230    -0.7030 C.2   1 <1>  -0.1500 
  6 C        0.0750     2.4090    -0.1950 C.3   1 <1>   0.0200 
  7 C        4.6080     4.2410    -1.6380 C.3   1 <1>  -0.0590 
  8 C       -0.6920     3.2760     0.8370 C.3   1 <1>  -0.0800 
  9 C       -1.4520     4.4480     0.1990 C.3   1 <1>   0.2000 
 10 C        0.2460     3.9650     1.8320 C.3   1 <1>   0.3430 
 11 O       -2.6480     4.6270     0.8830 O.3   1 <1>  -0.6800 
 12 C       -0.5700     5.6960     0.3830 C.3   1 <1>   0.3430 
 13 N        0.6070     5.2550     1.1920 N.4   1 <1>  -0.9590 
 14 C        1.1700     6.2980     2.0790 C.3   1 <1>   0.4860 
 15 C        2.0390     7.1790     1.2110 C.ar  1 <1>  -0.1440 
 16 C        3.3440     6.7830     0.9230 C.ar  1 <1>  -0.1500 
 17 C        1.5450     8.3660     0.6840 C.ar  1 <1>  -0.1500 
 18 C        4.1740     7.5440     0.1090 C.ar  1 <1>   0.0820 
 19 C        2.3780     9.1120    -0.1270 C.ar  1 <1>   0.0820 
 20 O        5.4260     7.0530    -0.0990 O.3   1 <1>  -0.3630 
 21 C        3.6560     8.7280    -0.4180 C.ar  1 <1>   0.0820 
 22 O        2.0820    10.2660    -0.7310 O.3   1 <1>  -0.3620 
 23 C        6.3690     7.7760    -0.8600 C.3   1 <1>   0.0400 
 24 O        4.2170     9.6440    -1.2280 O.3   1 <1>  -0.3620 
 25 C        3.2390    10.6530    -1.4650 C.3   1 <1>   0.4000 
 26 H        3.1500     2.1560    -0.1950 H     1 <1>   0.1500 
 27 H       -0.5910     2.1000    -0.9830 H     1 <1>   0.0800 
 28 H        0.4270     1.5160     0.2910 H     1 <1>   0.0800 
 29 H        5.1150     4.2890    -0.6920 H     1 <1>   0.0800 
 30 H        4.7490     5.1760    -2.1510 H     1 <1>   0.0800 
 31 H        5.0360     3.4540    -2.2300 H     1 <1>   0.0800 
 32 H       -1.3720     2.6230     1.3570 H     1 <1>   0.0800 
 33 H       -1.6930     4.2820    -0.8380 H     1 <1>   0.0800 
 34 H        1.1200     3.3660     2.0370 H     1 <1>   0.0800 
 35 H       -0.2830     4.1520     2.7530 H     1 <1>   0.0800 
 36 H       -2.5440     4.6620     1.8530 H     1 <1>   0.4000 
 37 H       -1.1290     6.4670     0.8870 H     1 <1>   0.0800 
 38 H       -0.2370     6.0650    -0.5750 H     1 <1>   0.0800 
 39 H        1.3450     5.0620     0.4860 H     1 <1>   0.4500 
 40 H        0.3850     6.8710     2.5460 H     1 <1>   0.0800 
 41 H        1.7790     5.8480     2.8460 H     1 <1>   0.0800 
 42 H        3.7470     5.8710     1.3270 H     1 <1>   0.1500 
 43 H        0.5500     8.7230     0.8790 H     1 <1>   0.1500 
 44 H        7.2900     7.2230    -0.8680 H     1 <1>   0.0800 
 45 H        6.5240     8.7370    -0.4030 H     1 <1>   0.0800 
 46 H        5.9980     7.8860    -1.8630 H     1 <1>   0.0800 
 47 H        3.5990    11.5990    -1.1010 H     1 <1>   0.0800 
 48 H        3.0050    10.6910    -2.5140 H     1 <1>   0.0800 
@<TRIPOS>BOND
  1   1   2  1   
  2   1   3  1   
  3   2   4  2   
  4   3   5  2   
  5   3   6  1   
  6   4   5  1   
  7   4   7  1   
  8   5  26  1   
  9   6   8  1   
 10   6  27  1   
 11   6  28  1   
 12   7  29  1   
 13   7  30  1   
 14   7  31  1   
 15   8   9  1   
 16   8  10  1   
 17   8  32  1   
 18   9  11  1   
 19   9  12  1   
 20   9  33  1   
 21  10  13  1   
 22  10  34  1   
 23  10  35  1   
 24  11  36  1   
 25  12  13  1   
 26  12  37  1   
 27  12  38  1   
 28  13  14  1   
 29  13  39  1   
 30  14  15  1   
 31  14  40  1   
 32  14  41  1   
 33  15  16  ar  
 34  15  17  ar  
 35  16  18  ar  
 36  16  42  1   
 37  17  19  ar  
 38  17  43  1   
 39  18  20  1   
 40  18  21  ar  
 41  19  21  ar  
 42  19  22  1   
 43  20  23  1   
 44  21  24  1   
 45  22  25  1   
 46  23  44  1   
 47  23  45  1   
 48  23  46  1   
 49  24  25  1   
 50  25  47  1   
 51  25  48  1   
@<TRIPOS>SUBSTRUCTURE
  1 ****  15 GROUP 4 **** **** 0

# MOE 2024.06 (io_trps.svl 2023.06)
