@<TRIPOS>MOLECULE
NONAME
46 48 1 0 0 
SMALL
USER_CHARGES


@<TRIPOS>ATOM
  1 CL      -0.4450     0.1830    -0.1220 Cl    1 <1>  -0.1770 
  2 C       -1.9460    -0.7020    -0.3010 C.ar  1 <1>   0.1770 
  3 C       -1.9400    -2.0440    -0.6650 C.ar  1 <1>   0.0830 
  4 C       -3.1320    -0.0320    -0.0740 C.ar  1 <1>  -0.1500 
  5 O       -0.7900    -2.7210    -0.8950 O.3   1 <1>  -0.3630 
  6 C       -3.1470    -2.7070    -0.8160 C.ar  1 <1>  -0.1500 
  7 C       -4.3460    -0.6940    -0.2110 C.ar  1 <1>   0.1170 
  8 C       -0.1230    -3.2000     0.2500 C.3   1 <1>   0.0400 
  9 C       -4.3360    -2.0350    -0.5890 C.ar  1 <1>  -0.1500 
 10 N       -5.5350     0.0140     0.0140 N.am  1 <1>  -0.5470 
 11 C       -6.7600    -0.4140     0.4380 C.2   1 <1>   0.6900 
 12 O       -6.9190    -1.5530     0.8380 O.2   1 <1>  -0.5700 
 13 N       -7.8040     0.4760     0.4300 N.am  1 <1>  -0.6600 
 14 C       -9.1010     0.1260     1.0790 C.3   1 <1>   0.1400 
 15 C       -7.8490     1.6740    -0.4630 C.3   1 <1>   0.1400 
 16 C      -10.1670    -0.2300     0.0170 C.3   1 <1>   0.0000 
 17 C       -9.2780     1.9750    -0.9490 C.3   1 <1>  -0.1600 
 18 C      -11.5670    -0.1870     0.6580 C.3   1 <1>   0.2000 
 19 C      -10.0390     0.6750    -1.2510 C.3   1 <1>  -0.1600 
 20 C      -10.0900    -1.7060    -0.4040 C.3   1 <1>  -0.1600 
 21 O      -12.0930     1.0920     0.7030 O.3   1 <1>  -0.6800 
 22 C      -12.4540    -1.1080    -0.1800 C.3   1 <1>  -0.1600 
 23 C      -11.4920    -2.0510    -0.9180 C.3   1 <1>  -0.1600 
 24 H       -3.1030     1.0020     0.2110 H     1 <1>   0.1500 
 25 H       -3.1510    -3.7410    -1.1100 H     1 <1>   0.1500 
 26 H        0.7540    -3.7330    -0.0710 H     1 <1>   0.0800 
 27 H       -0.7820    -3.8610     0.7860 H     1 <1>   0.0800 
 28 H        0.1600    -2.3680     0.8690 H     1 <1>   0.0800 
 29 H       -5.2670    -2.5600    -0.7080 H     1 <1>   0.1500 
 30 H       -5.4690     1.0240    -0.0230 H     1 <1>   0.3700 
 31 H       -8.9740    -0.6860     1.7750 H     1 <1>   0.0800 
 32 H       -9.4330     0.9790     1.6470 H     1 <1>   0.0800 
 33 H       -7.4570     2.5280     0.0630 H     1 <1>   0.0800 
 34 H       -7.2310     1.4900    -1.3260 H     1 <1>   0.0800 
 35 H       -9.8010     2.5390    -0.1950 H     1 <1>   0.0800 
 36 H       -9.2290     2.5880    -1.8320 H     1 <1>   0.0800 
 37 H      -11.5220    -0.5610     1.6680 H     1 <1>   0.0800 
 38 H       -9.4810     0.1550    -2.0100 H     1 <1>   0.0800 
 39 H      -11.0020     0.8930    -1.6770 H     1 <1>   0.0800 
 40 H       -9.3230    -1.8990    -1.1340 H     1 <1>   0.0800 
 41 H       -9.8800    -2.3170     0.4580 H     1 <1>   0.0800 
 42 H      -12.1110     1.4640    -0.1980 H     1 <1>   0.4000 
 43 H      -13.1130    -1.6650     0.4620 H     1 <1>   0.0800 
 44 H      -13.0360    -0.5510    -0.8930 H     1 <1>   0.0800 
 45 H      -11.7280    -3.0860    -0.7350 H     1 <1>   0.0800 
 46 H      -11.5450    -1.8650    -1.9770 H     1 <1>   0.0800 
@<TRIPOS>BOND
  1   1   2  1   
  2   2   3  ar  
  3   2   4  ar  
  4   3   5  1   
  5   3   6  ar  
  6   4   7  ar  
  7   4  24  1   
  8   5   8  1   
  9   6   9  ar  
 10   6  25  1   
 11   7   9  ar  
 12   7  10  1   
 13   8  26  1   
 14   8  27  1   
 15   8  28  1   
 16   9  29  1   
 17  10  11  am  
 18  10  30  1   
 19  11  12  2   
 20  11  13  am  
 21  13  14  1   
 22  13  15  1   
 23  14  16  1   
 24  14  31  1   
 25  14  32  1   
 26  15  17  1   
 27  15  33  1   
 28  15  34  1   
 29  16  18  1   
 30  16  19  1   
 31  16  20  1   
 32  17  19  1   
 33  17  35  1   
 34  17  36  1   
 35  18  21  1   
 36  18  22  1   
 37  18  37  1   
 38  19  38  1   
 39  19  39  1   
 40  20  23  1   
 41  20  40  1   
 42  20  41  1   
 43  21  42  1   
 44  22  23  1   
 45  22  43  1   
 46  22  44  1   
 47  23  45  1   
 48  23  46  1   
@<TRIPOS>SUBSTRUCTURE
  1 ****  11 GROUP 4 **** **** 0

# MOE 2024.06 (io_trps.svl 2023.06)
