@<TRIPOS>MOLECULE
NONAME
43 45 1 0 0 
SMALL
USER_CHARGES


@<TRIPOS>ATOM
  1 O       -1.0770    -1.4520    -0.2990 O.2   1 <1>  -0.5700 
  2 C        0.0650    -1.7780    -0.0860 C.2   1 <1>   0.5690 
  3 N        0.7780    -2.6570    -0.8160 N.am  1 <1>  -0.6600 
  4 C        0.8700    -1.2740     1.0790 C.3   1 <1>  -0.0990 
  5 C        2.1080    -2.9360    -0.2530 C.3   1 <1>   0.1400 
  6 C        0.2670    -3.4310    -1.9880 C.3   1 <1>   0.2010 
  7 C        2.2670    -1.8800     0.8510 C.3   1 <1>  -0.1600 
  8 C        0.0440    -4.9140    -1.6800 C.2   1 <1>   0.5690 
  9 O        0.8830    -5.7030    -2.0530 O.2   1 <1>  -0.5700 
 10 N       -1.0700    -5.3340    -1.0020 N.am  1 <1>  -0.6600 
 11 C       -2.1570    -4.4700    -0.4740 C.3   1 <1>   0.1400 
 12 C       -1.3050    -6.7530    -0.6490 C.3   1 <1>   0.1400 
 13 C       -3.2220    -5.4510     0.0140 C.3   1 <1>   0.2000 
 14 C       -2.4590    -6.7290     0.3550 C.3   1 <1>  -0.0800 
 15 O       -3.8910    -4.9800     1.1310 O.3   1 <1>  -0.6800 
 16 C       -3.3410    -7.9860     0.3120 C.3   1 <1>   0.0200 
 17 C       -2.5200    -9.2330     0.5770 C.2   1 <1>  -0.0400 
 18 O       -1.9210    -9.3890     1.7270 O.3   1 <1>  -0.0190 
 19 C       -2.2440   -10.3050    -0.1810 C.2   1 <1>  -0.1500 
 20 N       -1.2550   -10.5050     1.7790 N.2   1 <1>  -0.4100 
 21 C       -1.4320   -11.0790     0.6430 C.2   1 <1>   0.1080 
 22 C       -0.8320   -12.4140     0.2620 C.3   1 <1>  -0.0590 
 23 H        0.8940    -0.2000     1.0820 H     1 <1>   0.0800 
 24 H        0.4310    -1.6360     1.9910 H     1 <1>   0.0800 
 25 H        2.1240    -3.9330     0.1570 H     1 <1>   0.0800 
 26 H        2.8700    -2.8380    -1.0080 H     1 <1>   0.0800 
 27 H       -0.6580    -3.0000    -2.3260 H     1 <1>   0.0800 
 28 H        0.9760    -3.3520    -2.7910 H     1 <1>   0.0800 
 29 H        2.6670    -2.3160     1.7500 H     1 <1>   0.0800 
 30 H        2.9430    -1.1170     0.5080 H     1 <1>   0.0800 
 31 H       -1.7760    -3.8860     0.3460 H     1 <1>   0.0800 
 32 H       -2.5480    -3.8240    -1.2410 H     1 <1>   0.0800 
 33 H       -1.5770    -7.2930    -1.5410 H     1 <1>   0.0800 
 34 H       -0.4200    -7.1960    -0.2220 H     1 <1>   0.0800 
 35 H       -3.9430    -5.6210    -0.7670 H     1 <1>   0.0800 
 36 H       -2.0240    -6.6340     1.3350 H     1 <1>   0.0800 
 37 H       -3.2590    -4.7700     1.8460 H     1 <1>   0.4000 
 38 H       -3.8130    -8.0710    -0.6510 H     1 <1>   0.0800 
 39 H       -4.1140    -7.9090     1.0570 H     1 <1>   0.0800 
 40 H       -2.5520   -10.5420    -1.1820 H     1 <1>   0.1500 
 41 H       -0.1870   -12.2950    -0.5890 H     1 <1>   0.0800 
 42 H       -1.6140   -13.1100     0.0220 H     1 <1>   0.0800 
 43 H       -0.2570   -12.8050     1.0830 H     1 <1>   0.0800 
@<TRIPOS>BOND
  1   1   2  2   
  2   2   3  am  
  3   2   4  1   
  4   3   5  1   
  5   3   6  1   
  6   4   7  1   
  7   4  23  1   
  8   4  24  1   
  9   5   7  1   
 10   5  25  1   
 11   5  26  1   
 12   6   8  1   
 13   6  27  1   
 14   6  28  1   
 15   7  29  1   
 16   7  30  1   
 17   8   9  2   
 18   8  10  am  
 19  10  11  1   
 20  10  12  1   
 21  11  13  1   
 22  11  31  1   
 23  11  32  1   
 24  12  14  1   
 25  12  33  1   
 26  12  34  1   
 27  13  14  1   
 28  13  15  1   
 29  13  35  1   
 30  14  16  1   
 31  14  36  1   
 32  15  37  1   
 33  16  17  1   
 34  16  38  1   
 35  16  39  1   
 36  17  18  1   
 37  17  19  2   
 38  18  20  1   
 39  19  21  1   
 40  19  40  1   
 41  20  21  2   
 42  21  22  1   
 43  22  41  1   
 44  22  42  1   
 45  22  43  1   
@<TRIPOS>SUBSTRUCTURE
  1 ****  12 GROUP 4 **** **** 0

# MOE 2024.06 (io_trps.svl 2023.06)
