@<TRIPOS>MOLECULE
NONAME
43 46 1 0 0 
SMALL
USER_CHARGES


@<TRIPOS>ATOM
  1 O        1.8790    -0.1750    -1.0010 O.2   1 <1>  -0.5700 
  2 C        1.8450    -0.6460     0.1180 C.2   1 <1>   0.7160 
  3 N        2.2710     0.1000     1.1790 N.am  1 <1>  -0.4940 
  4 C        1.3460    -1.9790     0.3430 C.2   1 <1>  -0.0860 
  5 C        2.7440     1.4150     1.2360 C.2   1 <1>   0.2500 
  6 C        1.3040    -2.7220     1.4830 C.2   1 <1>  -0.0100 
  7 C        0.7720    -2.8220    -0.6310 C.2   1 <1>  -0.1500 
  8 N        2.5120     2.1430     2.2810 N.2   1 <1>  -0.3380 
  9 N        3.4770     2.0800     0.3120 N.pl3 1 <1>   0.3340 
 10 O        0.7670    -3.8960     1.2680 O.3   1 <1>  -0.2800 
 11 C        0.4380    -3.9690    -0.0050 C.2   1 <1>  -0.0400 
 12 N        3.0700     3.3350     2.0740 N.2   1 <1>  -0.3380 
 13 C        3.6430     3.2970     0.9070 C.2   1 <1>   0.3120 
 14 C        4.1150     1.8240    -0.8970 C.2   1 <1>  -0.1810 
 15 C       -0.2130    -5.2360    -0.5440 C.3   1 <1>   0.2900 
 16 N        4.3490     4.3260     0.3240 N.2   1 <1>  -0.5760 
 17 C        4.8240     2.8290    -1.4670 C.2   1 <1>  -0.1360 
 18 N       -1.5770    -5.4240    -0.0190 N.3   1 <1>  -0.8100 
 19 C        4.9060     4.0910    -0.8130 C.2   1 <1>   0.3750 
 20 C       -2.1380    -6.7170    -0.4520 C.3   1 <1>   0.1100 
 21 C       -2.4840    -4.3270    -0.4150 C.3   1 <1>   0.1100 
 22 C        5.6880     5.1970    -1.4870 C.3   1 <1>  -0.1790 
 23 C       -3.5810    -6.8940     0.0540 C.3   1 <1>   0.1200 
 24 C       -3.9170    -4.5840     0.0840 C.3   1 <1>   0.1200 
 25 O       -4.3800    -5.8260    -0.3670 O.3   1 <1>  -0.5600 
 26 H        1.9890    -0.2520     2.0910 H     1 <1>   0.3700 
 27 H        1.6360    -2.4910     2.4810 H     1 <1>   0.1500 
 28 H        0.6420    -2.5560    -1.6660 H     1 <1>   0.1500 
 29 H        4.0160     0.8420    -1.3220 H     1 <1>   0.1500 
 30 H        0.3960    -6.0750    -0.2580 H     1 <1>   0.0800 
 31 H       -0.2440    -5.1920    -1.6190 H     1 <1>   0.0800 
 32 H        5.3350     2.7060    -2.4050 H     1 <1>   0.1500 
 33 H       -1.5320    -7.5170    -0.0640 H     1 <1>   0.0800 
 34 H       -2.1380    -6.7810    -1.5270 H     1 <1>   0.0800 
 35 H       -2.5010    -4.2260    -1.4860 H     1 <1>   0.0800 
 36 H       -2.1350    -3.4000     0.0070 H     1 <1>   0.0800 
 37 H        5.2600     5.4150    -2.4480 H     1 <1>   0.0800 
 38 H        6.7120     4.8970    -1.6120 H     1 <1>   0.0800 
 39 H        5.6620     6.0890    -0.8870 H     1 <1>   0.0800 
 40 H       -3.6000    -6.9380     1.1290 H     1 <1>   0.0800 
 41 H       -4.0080    -7.7990    -0.3390 H     1 <1>   0.0800 
 42 H       -4.5840    -3.8290    -0.2890 H     1 <1>   0.0800 
 43 H       -3.9470    -4.5750     1.1600 H     1 <1>   0.0800 
@<TRIPOS>BOND
  1   1   2  2   
  2   2   3  am  
  3   2   4  1   
  4   3   5  1   
  5   3  26  1   
  6   4   6  2   
  7   4   7  1   
  8   5   8  2   
  9   5   9  1   
 10   6  10  1   
 11   6  27  1   
 12   7  11  2   
 13   7  28  1   
 14   8  12  1   
 15   9  13  1   
 16   9  14  1   
 17  10  11  1   
 18  11  15  1   
 19  12  13  2   
 20  13  16  1   
 21  14  17  2   
 22  14  29  1   
 23  15  18  1   
 24  15  30  1   
 25  15  31  1   
 26  16  19  2   
 27  17  19  1   
 28  17  32  1   
 29  18  20  1   
 30  18  21  1   
 31  19  22  1   
 32  20  23  1   
 33  20  33  1   
 34  20  34  1   
 35  21  24  1   
 36  21  35  1   
 37  21  36  1   
 38  22  37  1   
 39  22  38  1   
 40  22  39  1   
 41  23  25  1   
 42  23  40  1   
 43  23  41  1   
 44  24  25  1   
 45  24  42  1   
 46  24  43  1   
@<TRIPOS>SUBSTRUCTURE
  1 ****   2 GROUP 4 **** **** 0

# MOE 2024.06 (io_trps.svl 2023.06)
