@<TRIPOS>MOLECULE
NONAME
58 60 1 0 0 
SMALL
USER_CHARGES


@<TRIPOS>ATOM
  1 O        5.0010    -2.3620     0.6560 O.2   1 <1>  -0.5700 
  2 C        3.9180    -2.0380     0.2240 C.2   1 <1>   0.5690 
  3 N        3.5000    -0.7320     0.3420 N.am  1 <1>  -0.6600 
  4 C        3.0840    -3.1150    -0.4650 C.3   1 <1>   0.0440 
  5 C        4.1980     0.1650     1.3060 C.3   1 <1>   0.1400 
  6 C        2.3970    -0.1210    -0.4460 C.3   1 <1>   0.1400 
  7 C        1.6090    -3.1070    -0.0710 C.ar  1 <1>  -0.1440 
  8 C        5.4580     0.7470     0.6570 C.3   1 <1>   0.3430 
  9 C        2.8160     1.2280    -1.0490 C.3   1 <1>  -0.1600 
 10 C        1.2400    -3.0690     1.2650 C.ar  1 <1>  -0.1500 
 11 C        0.6210    -3.1320    -1.0440 C.ar  1 <1>  -0.1500 
 12 N        5.1900     1.7170    -0.4620 N.4   1 <1>  -0.9590 
 13 C        4.2690     1.2580    -1.5380 C.3   1 <1>   0.3430 
 14 C       -0.0960    -3.0390     1.6220 C.ar  1 <1>  -0.1500 
 15 C       -0.7150    -3.1020    -0.6850 C.ar  1 <1>  -0.1500 
 16 C        6.4960     2.1710    -1.0020 C.3   1 <1>   0.5230 
 17 C       -1.0810    -3.0510     0.6490 C.ar  1 <1>  -0.1430 
 18 C        7.0940     3.1100     0.0340 C.2   1 <1>   0.0060 
 19 C       -2.5470    -3.0210     1.0410 C.3   1 <1>  -0.0970 
 20 N        6.3650     3.9530     0.7010 N.2   1 <1>  -0.5650 
 21 N        8.4090     3.1320     0.3710 N.pl3 1 <1>   0.0480 
 22 C        7.2480     4.5680     1.5090 C.2   1 <1>   0.0770 
 23 C        8.4920     4.0790     1.3230 C.2   1 <1>  -0.3020 
 24 C        9.5430     2.3260    -0.1410 C.3   1 <1>   0.0960 
 25 C        9.5990     0.9420     0.5140 C.3   1 <1>   0.1200 
 26 O        8.4460     0.2210     0.1990 O.3   1 <1>  -0.5600 
 27 C        8.4710    -1.0950     0.6690 C.3   1 <1>   0.0400 
 28 H        3.4930    -4.0760    -0.2110 H     1 <1>   0.0800 
 29 H        3.1890    -2.9940    -1.5260 H     1 <1>   0.0800 
 30 H        4.4910    -0.4100     2.1680 H     1 <1>   0.0800 
 31 H        3.5450     0.9490     1.6480 H     1 <1>   0.0800 
 32 H        1.5300     0.0020     0.1830 H     1 <1>   0.0800 
 33 H        2.1240    -0.7780    -1.2520 H     1 <1>   0.0800 
 34 H        6.0480    -0.0750     0.2890 H     1 <1>   0.0800 
 35 H        6.0370     1.2430     1.4200 H     1 <1>   0.0800 
 36 H        2.6360     2.0240    -0.3490 H     1 <1>   0.0800 
 37 H        2.1720     1.4110    -1.8900 H     1 <1>   0.0800 
 38 H        1.9900    -3.0620     2.0370 H     1 <1>   0.1500 
 39 H        0.8810    -3.1780    -2.0870 H     1 <1>   0.1500 
 40 H        4.8310     2.5820    -0.0220 H     1 <1>   0.4500 
 41 H        4.3300     1.9460    -2.3650 H     1 <1>   0.0800 
 42 H        4.5610     0.2810    -1.8890 H     1 <1>   0.0800 
 43 H       -0.3670    -3.0100     2.6630 H     1 <1>   0.1500 
 44 H       -1.4710    -3.1230    -1.4510 H     1 <1>   0.1500 
 45 H        6.3510     2.7190    -1.9170 H     1 <1>   0.0800 
 46 H        7.1410     1.3310    -1.1950 H     1 <1>   0.0800 
 47 H       -2.6780    -2.4960     1.9700 H     1 <1>   0.0800 
 48 H       -2.9120    -4.0260     1.1560 H     1 <1>   0.0800 
 49 H       -3.1290    -2.5240     0.2860 H     1 <1>   0.0800 
 50 H        6.9410     5.3430     2.1940 H     1 <1>   0.1500 
 51 H        9.4100     4.3570     1.8110 H     1 <1>   0.1500 
 52 H       10.4560     2.8540     0.0720 H     1 <1>   0.0800 
 53 H        9.4620     2.2240    -1.2070 H     1 <1>   0.0800 
 54 H        9.6740     1.0340     1.5850 H     1 <1>   0.0800 
 55 H       10.4540     0.4010     0.1440 H     1 <1>   0.0800 
 56 H        7.5620    -1.5870     0.3680 H     1 <1>   0.0800 
 57 H        8.5380    -1.0910     1.7430 H     1 <1>   0.0800 
 58 H        9.3130    -1.6130     0.2420 H     1 <1>   0.0800 
@<TRIPOS>BOND
  1   1   2  2   
  2   2   3  am  
  3   2   4  1   
  4   3   5  1   
  5   3   6  1   
  6   4   7  1   
  7   4  28  1   
  8   4  29  1   
  9   5   8  1   
 10   5  30  1   
 11   5  31  1   
 12   6   9  1   
 13   6  32  1   
 14   6  33  1   
 15   7  10  ar  
 16   7  11  ar  
 17   8  12  1   
 18   8  34  1   
 19   8  35  1   
 20   9  13  1   
 21   9  36  1   
 22   9  37  1   
 23  10  14  ar  
 24  10  38  1   
 25  11  15  ar  
 26  11  39  1   
 27  12  13  1   
 28  12  16  1   
 29  12  40  1   
 30  13  41  1   
 31  13  42  1   
 32  14  17  ar  
 33  14  43  1   
 34  15  17  ar  
 35  15  44  1   
 36  16  18  1   
 37  16  45  1   
 38  16  46  1   
 39  17  19  1   
 40  18  20  2   
 41  18  21  1   
 42  19  47  1   
 43  19  48  1   
 44  19  49  1   
 45  20  22  1   
 46  21  23  1   
 47  21  24  1   
 48  22  23  2   
 49  22  50  1   
 50  23  51  1   
 51  24  25  1   
 52  24  52  1   
 53  24  53  1   
 54  25  26  1   
 55  25  54  1   
 56  25  55  1   
 57  26  27  1   
 58  27  56  1   
 59  27  57  1   
 60  27  58  1   
@<TRIPOS>SUBSTRUCTURE
  1 ****   5 GROUP 4 **** **** 0

# MOE 2024.06 (io_trps.svl 2023.06)
