@<TRIPOS>MOLECULE
NONAME
51 54 1 0 0 
SMALL
USER_CHARGES


@<TRIPOS>ATOM
  1 O       -1.1350     1.6880     1.7350 O.2   1 <1>  -0.5700 
  2 C       -1.3290     1.2610     0.6100 C.2   1 <1>   0.7160 
  3 N       -1.4070    -0.1000     0.3770 N.am  1 <1>  -0.6600 
  4 C       -1.4650     2.1960    -0.4580 C.2   1 <1>  -0.0860 
  5 C       -0.9640    -1.1760     1.3090 C.3   1 <1>   0.2200 
  6 C       -2.3810    -0.6210    -0.6210 C.3   1 <1>   0.1400 
  7 C       -2.6570     2.7580    -0.9200 C.2   1 <1>   0.3720 
  8 C       -0.5230     2.7160    -1.2850 C.2   1 <1>   0.0870 
  9 C       -2.1760    -1.6220     2.1360 C.3   1 <1>  -0.1600 
 10 C        0.2460    -0.8130     2.1740 C.3   1 <1>  -0.2400 
 11 C       -3.6390    -1.0870     0.1250 C.3   1 <1>  -0.1600 
 12 N       -2.4430     3.5240    -1.9340 N.2   1 <1>  -0.4100 
 13 N       -3.9260     2.5020    -0.3850 N.pl3 1 <1>  -0.8210 
 14 O       -1.1510     3.4880    -2.1350 O.3   1 <1>  -0.0190 
 15 C        0.9060     2.5430    -1.3590 C.ar  1 <1>   0.0530 
 16 C       -3.3120    -2.1150     1.2220 C.3   1 <1>  -0.1600 
 17 C       -5.0840     2.8250    -1.2730 C.3   1 <1>   0.2090 
 18 C       -4.1480     3.0740     0.9790 C.3   1 <1>   0.2090 
 19 C        1.5730     2.6220    -2.5820 C.ar  1 <1>  -0.1500 
 20 C        1.6770     2.2900    -0.2230 C.ar  1 <1>  -0.1500 
 21 C       -6.4100     2.4000    -0.6180 C.3   1 <1>   0.1200 
 22 C       -5.5170     2.6450     1.5380 C.3   1 <1>   0.1200 
 23 C        2.9410     2.4460    -2.6710 C.ar  1 <1>  -0.1500 
 24 C        3.0450     2.1110    -0.3050 C.ar  1 <1>  -0.1500 
 25 O       -6.5510     2.9760     0.6510 O.3   1 <1>  -0.5600 
 26 C        3.6810     2.1880    -1.5310 C.ar  1 <1>  -0.1500 
 27 H       -0.6550    -2.0110     0.7020 H     1 <1>   0.0800 
 28 H       -1.9390    -1.4460    -1.1530 H     1 <1>   0.0800 
 29 H       -2.6470     0.1300    -1.3440 H     1 <1>   0.0800 
 30 H       -2.5160    -0.7930     2.7330 H     1 <1>   0.0800 
 31 H       -1.8860    -2.4130     2.8040 H     1 <1>   0.0800 
 32 H       -0.0240    -0.1280     2.9570 H     1 <1>   0.0800 
 33 H        1.0210    -0.3820     1.5660 H     1 <1>   0.0800 
 34 H        0.6330    -1.7010     2.6380 H     1 <1>   0.0800 
 35 H       -4.3320    -1.5140    -0.5780 H     1 <1>   0.0800 
 36 H       -4.1120    -0.2270     0.5660 H     1 <1>   0.0800 
 37 H       -4.1920    -2.3130     1.8100 H     1 <1>   0.0800 
 38 H       -3.0120    -3.0390     0.7580 H     1 <1>   0.0800 
 39 H       -4.9670     2.3140    -2.2130 H     1 <1>   0.0800 
 40 H       -5.1090     3.8840    -1.4700 H     1 <1>   0.0800 
 41 H       -4.1030     4.1490     0.9310 H     1 <1>   0.0800 
 42 H       -3.3810     2.7410     1.6520 H     1 <1>   0.0800 
 43 H        1.0090     2.8210    -3.4760 H     1 <1>   0.1500 
 44 H        1.2050     2.2390     0.7420 H     1 <1>   0.1500 
 45 H       -6.4500     1.3300    -0.5160 H     1 <1>   0.0800 
 46 H       -7.2410     2.7240    -1.2190 H     1 <1>   0.0800 
 47 H       -5.7090     3.1470     2.4690 H     1 <1>   0.0800 
 48 H       -5.5340     1.5830     1.7070 H     1 <1>   0.0800 
 49 H        3.4320     2.5090    -3.6270 H     1 <1>   0.1500 
 50 H        3.6160     1.9150     0.5860 H     1 <1>   0.1500 
 51 H        4.7470     2.0490    -1.5970 H     1 <1>   0.1500 
@<TRIPOS>BOND
  1   1   2  2   
  2   2   3  am  
  3   2   4  1   
  4   3   5  1   
  5   3   6  1   
  6   4   7  1   
  7   4   8  2   
  8   5   9  1   
  9   5  10  1   
 10   5  27  1   
 11   6  11  1   
 12   6  28  1   
 13   6  29  1   
 14   7  12  2   
 15   7  13  1   
 16   8  14  1   
 17   8  15  1   
 18   9  16  1   
 19   9  30  1   
 20   9  31  1   
 21  10  32  1   
 22  10  33  1   
 23  10  34  1   
 24  11  16  1   
 25  11  35  1   
 26  11  36  1   
 27  12  14  1   
 28  13  17  1   
 29  13  18  1   
 30  15  19  ar  
 31  15  20  ar  
 32  16  37  1   
 33  16  38  1   
 34  17  21  1   
 35  17  39  1   
 36  17  40  1   
 37  18  22  1   
 38  18  41  1   
 39  18  42  1   
 40  19  23  ar  
 41  19  43  1   
 42  20  24  ar  
 43  20  44  1   
 44  21  25  1   
 45  21  45  1   
 46  21  46  1   
 47  22  25  1   
 48  22  47  1   
 49  22  48  1   
 50  23  26  ar  
 51  23  49  1   
 52  24  26  ar  
 53  24  50  1   
 54  26  51  1   
@<TRIPOS>SUBSTRUCTURE
  1 ****   4 GROUP 4 **** **** 0

# MOE 2024.06 (io_trps.svl 2023.06)
