@<TRIPOS>MOLECULE
NONAME
50 53 1 0 0 
SMALL
USER_CHARGES


@<TRIPOS>ATOM
  1 S        2.4760    -0.6250     2.0790 S.3   1 <1>  -0.0800 
  2 C        1.0340    -0.6860     1.0950 C.2   1 <1>   0.1980 
  3 C        2.5470    -2.3550     2.0340 C.2   1 <1>  -0.1100 
  4 N        0.6720    -1.8660     0.7850 N.2   1 <1>  -0.5650 
  5 C        0.3900     0.6500     0.7300 C.3   1 <1>   0.1000 
  6 C        1.5240    -2.8590     1.3080 C.2   1 <1>   0.1410 
  7 C       -1.0850     0.4820     0.3370 C.3   1 <1>  -0.2400 
  8 C        1.1610     1.3250    -0.4130 C.3   1 <1>  -0.2400 
  9 C        1.3130    -4.2940     1.0930 C.2   1 <1>   0.7160 
 10 O        2.0230    -5.0830     1.6920 O.2   1 <1>  -0.5700 
 11 N        0.3620    -4.8300     0.2430 N.am  1 <1>  -0.6600 
 12 C       -0.4810    -4.0870    -0.7280 C.3   1 <1>   0.1400 
 13 C        0.1410    -6.2900     0.1140 C.3   1 <1>   0.1400 
 14 C       -1.1510    -5.1630    -1.5820 C.3   1 <1>   0.2000 
 15 C       -1.1220    -6.4330    -0.7350 C.3   1 <1>  -0.0800 
 16 O       -2.4610    -4.8310    -1.8890 O.3   1 <1>  -0.6800 
 17 C       -1.1500    -7.7170    -1.5810 C.3   1 <1>  -0.0170 
 18 C       -1.1340    -8.9570    -0.6930 C.ar  1 <1>  -0.1440 
 19 C       -2.2870    -9.4170    -0.0140 C.ar  1 <1>   0.0000 
 20 C        0.0220    -9.6610    -0.5210 C.ar  1 <1>  -0.1500 
 21 C       -2.1530   -10.5620     0.8090 C.ar  1 <1>   0.3100 
 22 C       -3.5630    -8.8130    -0.1040 C.ar  1 <1>  -0.1500 
 23 C        0.0450   -10.7870     0.3110 C.ar  1 <1>   0.1600 
 24 N       -0.9830   -11.2340     0.9590 N.ar  1 <1>  -0.6200 
 25 C       -3.2760   -11.0340     1.5060 C.ar  1 <1>  -0.1500 
 26 C       -4.6390    -9.3000     0.5870 C.ar  1 <1>  -0.1500 
 27 C       -4.4960   -10.4230     1.4050 C.ar  1 <1>  -0.1500 
 28 H        3.3480    -2.8470     2.5560 H     1 <1>   0.1500 
 29 H        0.4330     1.2860     1.5970 H     1 <1>   0.0800 
 30 H       -1.1710    -0.1380    -0.5380 H     1 <1>   0.0800 
 31 H       -1.5320     1.4380     0.1310 H     1 <1>   0.0800 
 32 H       -1.6260     0.0150     1.1400 H     1 <1>   0.0800 
 33 H        1.1480     0.7000    -1.2890 H     1 <1>   0.0800 
 34 H        2.1840     1.4890    -0.1260 H     1 <1>   0.0800 
 35 H        0.7190     2.2740    -0.6560 H     1 <1>   0.0800 
 36 H       -1.2120    -3.5090    -0.1900 H     1 <1>   0.0800 
 37 H        0.1280    -3.4400    -1.3360 H     1 <1>   0.0800 
 38 H        0.9920    -6.7270    -0.3790 H     1 <1>   0.0800 
 39 H        0.0180    -6.7470     1.0830 H     1 <1>   0.0800 
 40 H       -0.6070    -5.2900    -2.5020 H     1 <1>   0.0800 
 41 H       -1.9560    -6.4250    -0.0560 H     1 <1>   0.0800 
 42 H       -2.9650    -4.6510    -1.0720 H     1 <1>   0.4000 
 43 H       -0.2970    -7.7310    -2.2360 H     1 <1>   0.0800 
 44 H       -2.0230    -7.7270    -2.2090 H     1 <1>   0.0800 
 45 H        0.9370    -9.3750    -1.0070 H     1 <1>   0.1500 
 46 H       -3.6970    -7.9510    -0.7300 H     1 <1>   0.1500 
 47 H        0.9780   -11.3130     0.4200 H     1 <1>   0.1500 
 48 H       -3.1430   -11.9010     2.1270 H     1 <1>   0.1500 
 49 H       -5.6050    -8.8290     0.5110 H     1 <1>   0.1500 
 50 H       -5.3490   -10.7960     1.9450 H     1 <1>   0.1500 
@<TRIPOS>BOND
  1   1   2  1   
  2   1   3  1   
  3   2   4  2   
  4   2   5  1   
  5   3   6  2   
  6   3  28  1   
  7   4   6  1   
  8   5   7  1   
  9   5   8  1   
 10   5  29  1   
 11   6   9  1   
 12   7  30  1   
 13   7  31  1   
 14   7  32  1   
 15   8  33  1   
 16   8  34  1   
 17   8  35  1   
 18   9  10  2   
 19   9  11  am  
 20  11  12  1   
 21  11  13  1   
 22  12  14  1   
 23  12  36  1   
 24  12  37  1   
 25  13  15  1   
 26  13  38  1   
 27  13  39  1   
 28  14  15  1   
 29  14  16  1   
 30  14  40  1   
 31  15  17  1   
 32  15  41  1   
 33  16  42  1   
 34  17  18  1   
 35  17  43  1   
 36  17  44  1   
 37  18  19  ar  
 38  18  20  ar  
 39  19  21  ar  
 40  19  22  ar  
 41  20  23  ar  
 42  20  45  1   
 43  21  24  ar  
 44  21  25  ar  
 45  22  26  ar  
 46  22  46  1   
 47  23  24  ar  
 48  23  47  1   
 49  25  27  ar  
 50  25  48  1   
 51  26  27  ar  
 52  26  49  1   
 53  27  50  1   
@<TRIPOS>SUBSTRUCTURE
  1 ****  13 GROUP 4 **** **** 0

# MOE 2024.06 (io_trps.svl 2023.06)
