@<TRIPOS>MOLECULE
NONAME
48 49 1 0 0 
SMALL
USER_CHARGES


@<TRIPOS>ATOM
  1 S       -0.1690     0.8700    -0.8650 S.o2  1 <1>   1.3330 
  2 O       -0.5440    -0.4480    -1.3250 O.2   1 <1>  -0.6500 
  3 O       -0.4080     2.0010    -1.7340 O.2   1 <1>  -0.6500 
  4 N        1.4750     0.8170    -0.4380 N.am  1 <1>  -0.8490 
  5 C       -1.0090     1.1330     0.7060 C.3   1 <1>  -0.0550 
  6 C        2.0700    -0.5210    -0.4910 C.3   1 <1>   0.1160 
  7 C        2.3140     1.7870    -1.1500 C.3   1 <1>   0.1160 
  8 C       -0.9140     2.5070     1.4150 C.3   1 <1>  -0.0800 
  9 C       -1.4560     3.6850     0.5930 C.3   1 <1>   0.2000 
 10 C        0.4950     2.9250     1.8610 C.3   1 <1>   0.2090 
 11 O       -2.1840     4.4890     1.4560 O.3   1 <1>  -0.6800 
 12 C       -0.2320     4.4790     0.1360 C.3   1 <1>   0.2090 
 13 N        0.8180     4.1910     1.1460 N.pl3 1 <1>  -0.8380 
 14 C        2.1260     4.6280     1.0070 C.ar  1 <1>   0.4100 
 15 N        3.0590     3.9660     1.6690 N.ar  1 <1>  -0.6200 
 16 C        2.4620     5.7060     0.2190 C.ar  1 <1>  -0.1500 
 17 C        4.2920     4.4020     1.5090 C.ar  1 <1>   0.4700 
 18 C        3.7830     6.0700     0.1260 C.ar  1 <1>   0.4100 
 19 N        4.7200     5.4070     0.7750 N.ar  1 <1>  -0.6200 
 20 N        4.1540     7.1430    -0.6480 N.pl3 1 <1>  -0.8690 
 21 C        5.4890     7.7540    -0.6340 C.3   1 <1>   0.2890 
 22 C        5.4930     8.8650     0.4100 C.3   1 <1>  -0.2400 
 23 C        5.7640     8.3030    -2.0270 C.3   1 <1>  -0.2400 
 24 H       -2.0520     0.9390     0.5440 H     1 <1>   0.0800 
 25 H       -0.6660     0.3830     1.3910 H     1 <1>   0.0800 
 26 H        3.0800    -0.4940    -0.1200 H     1 <1>   0.0800 
 27 H        2.0750    -0.8870    -1.5050 H     1 <1>   0.0800 
 28 H        1.5020    -1.2020     0.1190 H     1 <1>   0.0800 
 29 H        3.3170     1.7700    -0.7600 H     1 <1>   0.0800 
 30 H        1.9250     2.7810    -1.0200 H     1 <1>   0.0800 
 31 H        2.3360     1.5610    -2.2030 H     1 <1>   0.0800 
 32 H       -1.5100     2.4020     2.3050 H     1 <1>   0.0800 
 33 H       -2.0980     3.3970    -0.2220 H     1 <1>   0.0800 
 34 H        1.2270     2.1670     1.6480 H     1 <1>   0.0800 
 35 H        0.5100     3.1170     2.9200 H     1 <1>   0.0800 
 36 H       -1.5610     4.8860     2.1000 H     1 <1>   0.4000 
 37 H       -0.4530     5.5310     0.0870 H     1 <1>   0.0800 
 38 H        0.1020     4.1490    -0.8300 H     1 <1>   0.0800 
 39 H        1.7190     6.2580    -0.3120 H     1 <1>   0.1500 
 40 H        5.0520     3.8630     2.0490 H     1 <1>   0.1500 
 41 H        3.4170     7.7810    -0.9460 H     1 <1>   0.4000 
 42 H        6.2360     7.0160    -0.3880 H     1 <1>   0.0800 
 43 H        4.7560     9.6110     0.1770 H     1 <1>   0.0800 
 44 H        6.4600     9.3310     0.4440 H     1 <1>   0.0800 
 45 H        5.2850     8.4480     1.3790 H     1 <1>   0.0800 
 46 H        5.0360     9.0460    -2.2970 H     1 <1>   0.0800 
 47 H        5.7390     7.5020    -2.7430 H     1 <1>   0.0800 
 48 H        6.7410     8.7510    -2.0560 H     1 <1>   0.0800 
@<TRIPOS>BOND
  1   1   2  2   
  2   1   3  2   
  3   1   4  am  
  4   1   5  1   
  5   4   6  1   
  6   4   7  1   
  7   5   8  1   
  8   5  24  1   
  9   5  25  1   
 10   6  26  1   
 11   6  27  1   
 12   6  28  1   
 13   7  29  1   
 14   7  30  1   
 15   7  31  1   
 16   8   9  1   
 17   8  10  1   
 18   8  32  1   
 19   9  11  1   
 20   9  12  1   
 21   9  33  1   
 22  10  13  1   
 23  10  34  1   
 24  10  35  1   
 25  11  36  1   
 26  12  13  1   
 27  12  37  1   
 28  12  38  1   
 29  13  14  1   
 30  14  15  ar  
 31  14  16  ar  
 32  15  17  ar  
 33  16  18  ar  
 34  16  39  1   
 35  17  19  ar  
 36  17  40  1   
 37  18  19  ar  
 38  18  20  1   
 39  20  21  1   
 40  20  41  1   
 41  21  22  1   
 42  21  23  1   
 43  21  42  1   
 44  22  43  1   
 45  22  44  1   
 46  22  45  1   
 47  23  46  1   
 48  23  47  1   
 49  23  48  1   
@<TRIPOS>SUBSTRUCTURE
  1 ****  14 GROUP 4 **** **** 0

# MOE 2024.06 (io_trps.svl 2023.06)
