@<TRIPOS>MOLECULE
NONAME
53 57 1 0 0 
SMALL
USER_CHARGES


@<TRIPOS>ATOM
  1 O        0.1490     0.4570    -0.2840 O.2   1 <1>  -0.5700 
  2 C       -0.4150     1.4960    -0.5680 C.2   1 <1>   0.5440 
  3 N       -1.7940     1.5300    -0.5710 N.am  1 <1>  -0.6600 
  4 C        0.3900     2.6600    -0.8800 C.ar  1 <1>   0.0860 
  5 C       -2.6040     2.7860    -0.6630 C.3   1 <1>   0.1400 
  6 C       -2.5870     0.2860    -0.3140 C.3   1 <1>   0.1400 
  7 C        1.2740     3.1880     0.0370 C.ar  1 <1>  -0.1500 
  8 C        0.3040     3.2840    -2.1400 C.ar  1 <1>  -0.1500 
  9 C       -3.3840     3.0430     0.6470 C.3   1 <1>   0.1440 
 10 C       -3.9910     0.5920     0.2370 C.3   1 <1>  -0.1600 
 11 C        2.0590     4.3150    -0.2350 C.ar  1 <1>   0.3100 
 12 C        1.0630     4.3850    -2.4410 C.ar  1 <1>  -0.1500 
 13 C       -4.4760     4.0490     0.3280 C.ar  1 <1>   0.1660 
 14 C       -3.9400     1.7330     1.2650 C.3   1 <1>  -0.1600 
 15 C       -2.5170     3.8230     1.6700 C.3   1 <1>  -0.1600 
 16 N        2.8930     4.7890     0.7290 N.ar  1 <1>  -0.6200 
 17 C        1.9550     4.9320    -1.5070 C.ar  1 <1>   0.3100 
 18 N       -5.5890     3.7870    -0.3130 N.ar  1 <1>  -0.6200 
 19 C       -4.1540     5.2950     0.7740 C.ar  1 <1>  -0.1430 
 20 C       -2.8120     5.3180     1.4610 C.3   1 <1>  -0.0170 
 21 C        3.5780     5.8290     0.3660 C.ar  1 <1>   0.1600 
 22 N        2.6850     6.0260    -1.8440 N.ar  1 <1>  -0.6200 
 23 C       -6.4070     4.8290    -0.4890 C.ar  1 <1>   0.7200 
 24 C       -5.0510     6.3070     0.5430 C.ar  1 <1>   0.1600 
 25 C        3.4760     6.4380    -0.9020 C.ar  1 <1>   0.1600 
 26 N       -6.1800     6.0840    -0.0880 N.ar  1 <1>  -0.6200 
 27 N       -7.5950     4.5860    -1.1510 N.pl3 1 <1>  -0.8380 
 28 C       -7.8590     3.3060    -1.8640 C.3   1 <1>   0.1290 
 29 C       -8.7070     5.5770    -1.1650 C.3   1 <1>   0.1290 
 30 H       -3.3040     2.6730    -1.4740 H     1 <1>   0.0800 
 31 H       -1.9920     3.6390    -0.8890 H     1 <1>   0.0800 
 32 H       -2.0610    -0.3190     0.4060 H     1 <1>   0.0800 
 33 H       -2.6650    -0.2810    -1.2260 H     1 <1>   0.0800 
 34 H        1.3800     2.7250     1.0020 H     1 <1>   0.1500 
 35 H       -0.3720     2.8690    -2.8690 H     1 <1>   0.1500 
 36 H       -4.3930    -0.2960     0.6930 H     1 <1>   0.0800 
 37 H       -4.6470     0.8630    -0.5720 H     1 <1>   0.0800 
 38 H        0.9980     4.8590    -3.4040 H     1 <1>   0.1500 
 39 H       -4.9200     1.9040     1.6760 H     1 <1>   0.0800 
 40 H       -3.3010     1.4120     2.0700 H     1 <1>   0.0800 
 41 H       -1.4690     3.5990     1.5750 H     1 <1>   0.0800 
 42 H       -2.8260     3.5680     2.6690 H     1 <1>   0.0800 
 43 H       -2.0790     5.7660     0.8130 H     1 <1>   0.0800 
 44 H       -2.8500     5.8490     2.3970 H     1 <1>   0.0800 
 45 H        4.2670     6.2600     1.0710 H     1 <1>   0.1500 
 46 H       -4.8420     7.3080     0.8770 H     1 <1>   0.1500 
 47 H        4.0930     7.2980    -1.0920 H     1 <1>   0.1500 
 48 H       -6.9420     2.8920    -2.2480 H     1 <1>   0.0800 
 49 H       -8.5270     3.4720    -2.6900 H     1 <1>   0.0800 
 50 H       -8.3020     2.6010    -1.1830 H     1 <1>   0.0800 
 51 H       -8.6930     6.1730    -0.2680 H     1 <1>   0.0800 
 52 H       -9.6550     5.0710    -1.2180 H     1 <1>   0.0800 
 53 H       -8.6000     6.2250    -2.0170 H     1 <1>   0.0800 
@<TRIPOS>BOND
  1   1   2  2   
  2   2   3  am  
  3   2   4  1   
  4   3   5  1   
  5   3   6  1   
  6   4   7  ar  
  7   4   8  ar  
  8   5   9  1   
  9   5  30  1   
 10   5  31  1   
 11   6  10  1   
 12   6  32  1   
 13   6  33  1   
 14   7  11  ar  
 15   7  34  1   
 16   8  12  ar  
 17   8  35  1   
 18   9  13  1   
 19   9  14  1   
 20   9  15  1   
 21  10  14  1   
 22  10  36  1   
 23  10  37  1   
 24  11  16  ar  
 25  11  17  ar  
 26  12  17  ar  
 27  12  38  1   
 28  13  18  ar  
 29  13  19  ar  
 30  14  39  1   
 31  14  40  1   
 32  15  20  1   
 33  15  41  1   
 34  15  42  1   
 35  16  21  ar  
 36  17  22  ar  
 37  18  23  ar  
 38  19  20  1   
 39  19  24  ar  
 40  20  43  1   
 41  20  44  1   
 42  21  25  ar  
 43  21  45  1   
 44  22  25  ar  
 45  23  26  ar  
 46  23  27  1   
 47  24  26  ar  
 48  24  46  1   
 49  25  47  1   
 50  27  28  1   
 51  27  29  1   
 52  28  48  1   
 53  28  49  1   
 54  28  50  1   
 55  29  51  1   
 56  29  52  1   
 57  29  53  1   
@<TRIPOS>SUBSTRUCTURE
  1 ****   5 GROUP 4 **** **** 0

# MOE 2024.06 (io_trps.svl 2023.06)
