@<TRIPOS>MOLECULE
NONAME
56 60 1 0 0 
SMALL
USER_CHARGES


@<TRIPOS>ATOM
  1 O       -1.0040     1.0320    -2.3340 O.2   1 <1>  -0.5700 
  2 C       -1.8340     1.3620    -1.5160 C.2   1 <1>   0.5690 
  3 N       -3.0540     0.7170    -1.4570 N.am  1 <1>  -0.6600 
  4 C       -1.4550     2.5710    -0.6430 C.3   1 <1>   0.1610 
  5 C       -4.0990     0.8920    -0.4060 C.3   1 <1>   0.1400 
  6 C       -3.4200    -0.3200    -2.4660 C.3   1 <1>   0.1400 
  7 C       -1.2720     2.2400     0.8360 C.2   1 <1>   0.0060 
  8 C       -2.4090     3.7660    -0.8790 C.3   1 <1>  -0.1600 
  9 C       -4.3380    -0.4400     0.3110 C.3   1 <1>  -0.1600 
 10 C       -3.6380    -1.6620    -1.7670 C.3   1 <1>  -0.1600 
 11 N       -1.4560     1.1030     1.3940 N.2   1 <1>  -0.3380 
 12 N       -0.8730     3.1120     1.7460 N.pl3 1 <1>   0.3140 
 13 C       -1.8230     5.1410    -0.5180 C.3   1 <1>  -0.1600 
 14 C       -4.7060    -1.5660    -0.6690 C.3   1 <1>   0.4240 
 15 N       -1.1810     1.2790     2.6790 N.2   1 <1>   0.0000 
 16 N       -0.8270     2.4910     2.9030 N.2   1 <1>  -0.4180 
 17 C       -0.4930     4.5300     1.6010 C.3   1 <1>   0.0960 
 18 C       -1.6170     5.3760     0.9860 C.3   1 <1>  -0.1600 
 19 O       -5.8920    -1.1960    -1.3340 O.3   1 <1>  -0.5600 
 20 C       -4.8540    -2.9210     0.0590 C.ar  1 <1>  -0.1440 
 21 C       -7.0990    -1.4730    -0.6960 C.3   1 <1>   0.1200 
 22 C       -6.0690    -3.5980     0.0820 C.ar  1 <1>  -0.1440 
 23 C       -3.7670    -3.4900     0.7140 C.ar  1 <1>  -0.1500 
 24 C       -7.2720    -2.9870    -0.6090 C.3   1 <1>  -0.0170 
 25 C       -6.1890    -4.8170     0.7290 C.ar  1 <1>  -0.1500 
 26 C       -3.8860    -4.7050     1.3640 C.ar  1 <1>  -0.1500 
 27 C       -5.0930    -5.3790     1.3750 C.ar  1 <1>   0.0820 
 28 O       -5.1260    -6.5670     2.0300 O.3   1 <1>  -0.3630 
 29 C       -6.3010    -7.3440     2.0810 C.3   1 <1>   0.0400 
 30 H       -0.4860     2.8780    -0.9960 H     1 <1>   0.0800 
 31 H       -5.0110     1.2250    -0.8700 H     1 <1>   0.0800 
 32 H       -3.8070     1.6230     0.3220 H     1 <1>   0.0800 
 33 H       -2.6480    -0.4270    -3.2090 H     1 <1>   0.0800 
 34 H       -4.3210    -0.0180    -2.9710 H     1 <1>   0.0800 
 35 H       -3.3300     3.6220    -0.3450 H     1 <1>   0.0800 
 36 H       -2.6540     3.7850    -1.9280 H     1 <1>   0.0800 
 37 H       -5.1060    -0.3280     1.0510 H     1 <1>   0.0800 
 38 H       -3.4390    -0.7040     0.8340 H     1 <1>   0.0800 
 39 H       -2.7000    -1.9760    -1.3490 H     1 <1>   0.0800 
 40 H       -3.9380    -2.4040    -2.4840 H     1 <1>   0.0800 
 41 H       -2.5090     5.8920    -0.8760 H     1 <1>   0.0800 
 42 H       -0.8950     5.2930    -1.0440 H     1 <1>   0.0800 
 43 H        0.3960     4.5880     1.0010 H     1 <1>   0.0800 
 44 H       -0.2600     4.9090     2.5810 H     1 <1>   0.0800 
 45 H       -2.5360     5.2090     1.5240 H     1 <1>   0.0800 
 46 H       -1.3560     6.4110     1.1230 H     1 <1>   0.0800 
 47 H       -7.8900    -1.0370    -1.2810 H     1 <1>   0.0800 
 48 H       -7.0960    -1.0260     0.2830 H     1 <1>   0.0800 
 49 H       -2.8140    -2.9900     0.7270 H     1 <1>   0.1500 
 50 H       -7.3680    -3.3940    -1.5990 H     1 <1>   0.0800 
 51 H       -8.1690    -3.2090    -0.0610 H     1 <1>   0.0800 
 52 H       -7.1380    -5.3170     0.7240 H     1 <1>   0.1500 
 53 H       -3.0410    -5.1370     1.8670 H     1 <1>   0.1500 
 54 H       -6.0860    -8.2380     2.6390 H     1 <1>   0.0800 
 55 H       -6.5930    -7.6010     1.0780 H     1 <1>   0.0800 
 56 H       -7.0710    -6.7800     2.5760 H     1 <1>   0.0800 
@<TRIPOS>BOND
  1   1   2  2   
  2   2   3  am  
  3   2   4  1   
  4   3   5  1   
  5   3   6  1   
  6   4   7  1   
  7   4   8  1   
  8   4  30  1   
  9   5   9  1   
 10   5  31  1   
 11   5  32  1   
 12   6  10  1   
 13   6  33  1   
 14   6  34  1   
 15   7  11  2   
 16   7  12  1   
 17   8  13  1   
 18   8  35  1   
 19   8  36  1   
 20   9  14  1   
 21   9  37  1   
 22   9  38  1   
 23  10  14  1   
 24  10  39  1   
 25  10  40  1   
 26  11  15  1   
 27  12  16  1   
 28  12  17  1   
 29  13  18  1   
 30  13  41  1   
 31  13  42  1   
 32  14  19  1   
 33  14  20  1   
 34  15  16  2   
 35  17  18  1   
 36  17  43  1   
 37  17  44  1   
 38  18  45  1   
 39  18  46  1   
 40  19  21  1   
 41  20  22  ar  
 42  20  23  ar  
 43  21  24  1   
 44  21  47  1   
 45  21  48  1   
 46  22  24  1   
 47  22  25  ar  
 48  23  26  ar  
 49  23  49  1   
 50  24  50  1   
 51  24  51  1   
 52  25  27  ar  
 53  25  52  1   
 54  26  27  ar  
 55  26  53  1   
 56  27  28  1   
 57  28  29  1   
 58  29  54  1   
 59  29  55  1   
 60  29  56  1   
@<TRIPOS>SUBSTRUCTURE
  1 ****   9 GROUP 4 **** **** 0

# MOE 2024.06 (io_trps.svl 2023.06)
