@<TRIPOS>MOLECULE
NONAME
42 43 1 0 0 
SMALL
USER_CHARGES


@<TRIPOS>ATOM
  1 S        1.1370     0.1680    -1.2390 S.o2  1 <1>   1.3330 
  2 O        2.0830     0.8410    -2.0940 O.2   1 <1>  -0.6500 
  3 O        1.4250    -1.1280    -0.6720 O.2   1 <1>  -0.6500 
  4 N        0.7410     1.2210     0.0840 N.am  1 <1>  -0.6930 
  5 C       -0.4180     0.0560    -2.0990 C.3   1 <1>  -0.1350 
  6 C        1.0790     2.5700     0.0880 C.ar  1 <1>   0.1990 
  7 C        0.2940     0.5600     1.3360 C.3   1 <1>   0.1160 
  8 C        1.7910     3.1300     1.1440 C.ar  1 <1>  -0.1500 
  9 C        0.7190     3.4120    -0.9600 C.ar  1 <1>  -0.1500 
 10 C        2.1160     4.4730     1.1610 C.ar  1 <1>  -0.1500 
 11 C        1.0430     4.7550    -0.9420 C.ar  1 <1>  -0.1500 
 12 C        1.7430     5.3300     0.1210 C.ar  1 <1>   0.0860 
 13 C        2.0630     6.7460     0.1250 C.2   1 <1>   0.5440 
 14 O        2.0720     7.3900    -0.9090 O.2   1 <1>  -0.5700 
 15 N        2.3610     7.4050     1.2880 N.am  1 <1>  -0.7300 
 16 C        2.6330     8.8600     1.3700 C.3   1 <1>   0.1400 
 17 C        4.0720     9.1560     0.9380 C.3   1 <1>   0.0200 
 18 C        4.1840    10.5890     0.4550 C.2   1 <1>   0.0060 
 19 N        4.6440    11.5550     1.1630 N.2   1 <1>  -0.5650 
 20 N        3.8050    11.0090    -0.7620 N.pl3 1 <1>   0.3140 
 21 C        4.5280    12.5840     0.3140 C.2   1 <1>   0.3660 
 22 N        4.0310    12.3110    -0.8460 N.2   1 <1>  -0.7070 
 23 C        3.2140    10.2440    -1.8720 C.3   1 <1>   0.0160 
 24 H       -0.3210    -0.6000    -2.9420 H     1 <1>   0.0800 
 25 H       -0.7230     1.0210    -2.4510 H     1 <1>   0.0800 
 26 H       -1.1750    -0.3320    -1.4480 H     1 <1>   0.0800 
 27 H       -0.4800    -0.1550     1.1180 H     1 <1>   0.0800 
 28 H       -0.0920     1.2880     2.0280 H     1 <1>   0.0800 
 29 H        1.1250     0.0430     1.7870 H     1 <1>   0.0800 
 30 H        2.1060     2.4990     1.9550 H     1 <1>   0.1500 
 31 H        0.1840     3.0140    -1.7990 H     1 <1>   0.1500 
 32 H        2.6800     4.8570     1.9910 H     1 <1>   0.1500 
 33 H        0.7520     5.3800    -1.7690 H     1 <1>   0.1500 
 34 H        2.2780     6.9150     2.1800 H     1 <1>   0.3700 
 35 H        2.4680     9.2170     2.3720 H     1 <1>   0.0800 
 36 H        1.9450     9.3730     0.7190 H     1 <1>   0.0800 
 37 H        4.3710     8.4970     0.1430 H     1 <1>   0.0800 
 38 H        4.7350     9.0040     1.7700 H     1 <1>   0.0800 
 39 H        4.8380    13.5750     0.6050 H     1 <1>   0.1500 
 40 H        3.7620     9.3310    -2.0150 H     1 <1>   0.0800 
 41 H        3.2560    10.8330    -2.7690 H     1 <1>   0.0800 
 42 H        2.1910    10.0150    -1.6400 H     1 <1>   0.0800 
@<TRIPOS>BOND
  1   1   2  2   
  2   1   3  2   
  3   1   4  am  
  4   1   5  1   
  5   4   6  1   
  6   4   7  1   
  7   5  24  1   
  8   5  25  1   
  9   5  26  1   
 10   6   8  ar  
 11   6   9  ar  
 12   7  27  1   
 13   7  28  1   
 14   7  29  1   
 15   8  10  ar  
 16   8  30  1   
 17   9  11  ar  
 18   9  31  1   
 19  10  12  ar  
 20  10  32  1   
 21  11  12  ar  
 22  11  33  1   
 23  12  13  1   
 24  13  14  2   
 25  13  15  am  
 26  15  16  1   
 27  15  34  1   
 28  16  17  1   
 29  16  35  1   
 30  16  36  1   
 31  17  18  1   
 32  17  37  1   
 33  17  38  1   
 34  18  19  2   
 35  18  20  1   
 36  19  21  1   
 37  20  22  1   
 38  20  23  1   
 39  21  22  2   
 40  21  39  1   
 41  23  40  1   
 42  23  41  1   
 43  23  42  1   
@<TRIPOS>SUBSTRUCTURE
  1 ****  12 GROUP 4 **** **** 0

# MOE 2024.06 (io_trps.svl 2023.06)
