@<TRIPOS>MOLECULE
NONAME
44 45 1 0 0 
SMALL
USER_CHARGES


@<TRIPOS>ATOM
  1 S        0.3410    -0.0530    -0.0370 S.o2  1 <1>   1.3330 
  2 O        0.0960    -1.0320    -1.0720 O.2   1 <1>  -0.6500 
  3 O        0.5370    -0.4960     1.3260 O.2   1 <1>  -0.6500 
  4 N       -0.9430     1.0560    -0.0390 N.am  1 <1>  -0.8490 
  5 C        1.7470     0.9360    -0.5380 C.3   1 <1>  -0.0550 
  6 C       -2.2400     0.3970    -0.2210 C.3   1 <1>   0.1160 
  7 C       -0.9790     1.9130     1.1500 C.3   1 <1>   0.1160 
  8 C        3.0250     0.1030    -0.7610 C.3   1 <1>  -0.0800 
  9 C        4.2280     0.8900    -1.2580 C.3   1 <1>   0.2200 
 10 C        3.5680    -0.5950     0.4930 C.3   1 <1>   0.1200 
 11 N        4.3620     2.1700    -0.5220 N.am  1 <1>  -0.7300 
 12 C        5.3560    -0.0360    -0.8270 C.3   1 <1>   0.1200 
 13 O        4.9640    -0.5190     0.4210 O.3   1 <1>  -0.5600 
 14 C        3.9660     3.3940    -0.9780 C.2   1 <1>   0.5440 
 15 O        3.4060     3.4410    -2.0550 O.2   1 <1>  -0.5700 
 16 C        4.1940     4.5990    -0.1950 C.ar  1 <1>   0.0860 
 17 C        4.1710     5.8570    -0.7980 C.ar  1 <1>  -0.1500 
 18 C        4.4410     4.5600     1.1790 C.ar  1 <1>  -0.1500 
 19 C        4.3900     7.0140    -0.0740 C.ar  1 <1>  -0.1500 
 20 C        4.6610     5.7150     1.9080 C.ar  1 <1>  -0.1500 
 21 C        4.6400     6.9500     1.2860 C.ar  1 <1>  -0.1440 
 22 C        4.8810     8.2200     2.0820 C.3   1 <1>  -0.0970 
 23 H        1.5060     1.4410    -1.4540 H     1 <1>   0.0800 
 24 H        1.9280     1.6860     0.2060 H     1 <1>   0.0800 
 25 H       -3.0300     1.1280    -0.2400 H     1 <1>   0.0800 
 26 H       -2.4200    -0.3020     0.5790 H     1 <1>   0.0800 
 27 H       -2.2540    -0.1370    -1.1560 H     1 <1>   0.0800 
 28 H       -1.7640     2.6440     1.0540 H     1 <1>   0.0800 
 29 H       -0.0440     2.4350     1.2600 H     1 <1>   0.0800 
 30 H       -1.1540     1.3230     2.0350 H     1 <1>   0.0800 
 31 H        2.8050    -0.6610    -1.4880 H     1 <1>   0.0800 
 32 H        4.2120     1.0570    -2.3220 H     1 <1>   0.0800 
 33 H        3.2740    -1.6300     0.5350 H     1 <1>   0.0800 
 34 H        3.2610    -0.0960     1.3960 H     1 <1>   0.0800 
 35 H        4.8510     2.0800     0.3710 H     1 <1>   0.3700 
 36 H        6.3030     0.4660    -0.7450 H     1 <1>   0.0800 
 37 H        5.4400    -0.8750    -1.4960 H     1 <1>   0.0800 
 38 H        3.9770     5.9250    -1.8550 H     1 <1>   0.1500 
 39 H        4.4560     3.6180     1.6950 H     1 <1>   0.1500 
 40 H        4.3640     7.9670    -0.5750 H     1 <1>   0.1500 
 41 H        4.8490     5.6500     2.9660 H     1 <1>   0.1500 
 42 H        5.3630     8.9610     1.4700 H     1 <1>   0.0800 
 43 H        5.5110     8.0200     2.9300 H     1 <1>   0.0800 
 44 H        3.9430     8.6140     2.4310 H     1 <1>   0.0800 
@<TRIPOS>BOND
  1   1   2  2   
  2   1   3  2   
  3   1   4  am  
  4   1   5  1   
  5   4   6  1   
  6   4   7  1   
  7   5   8  1   
  8   5  23  1   
  9   5  24  1   
 10   6  25  1   
 11   6  26  1   
 12   6  27  1   
 13   7  28  1   
 14   7  29  1   
 15   7  30  1   
 16   8   9  1   
 17   8  10  1   
 18   8  31  1   
 19   9  11  1   
 20   9  12  1   
 21   9  32  1   
 22  10  13  1   
 23  10  33  1   
 24  10  34  1   
 25  11  14  am  
 26  11  35  1   
 27  12  13  1   
 28  12  36  1   
 29  12  37  1   
 30  14  15  2   
 31  14  16  1   
 32  16  17  ar  
 33  16  18  ar  
 34  17  19  ar  
 35  17  38  1   
 36  18  20  ar  
 37  18  39  1   
 38  19  21  ar  
 39  19  40  1   
 40  20  21  ar  
 41  20  41  1   
 42  21  22  1   
 43  22  42  1   
 44  22  43  1   
 45  22  44  1   
@<TRIPOS>SUBSTRUCTURE
  1 ****  11 GROUP 4 **** **** 0

# MOE 2024.06 (io_trps.svl 2023.06)
