@<TRIPOS>MOLECULE
NONAME
54 56 1 0 0 
SMALL
USER_CHARGES


@<TRIPOS>ATOM
  1 O       -0.4350     0.1400     0.1000 O.2   1 <1>  -0.5700 
  2 C       -1.4100     0.8180    -0.1700 C.2   1 <1>   0.5440 
  3 N       -2.6410     0.2060    -0.2220 N.am  1 <1>  -0.6600 
  4 C       -1.2510     2.2390    -0.4150 C.ar  1 <1>   0.0860 
  5 C       -3.9450     0.9060    -0.1660 C.3   1 <1>   0.1400 
  6 C       -2.8170    -1.2450     0.0010 C.3   1 <1>   0.1400 
  7 C       -0.4940     3.0290     0.4480 C.ar  1 <1>  -0.1500 
  8 C       -1.8310     2.8660    -1.5190 C.ar  1 <1>  -0.1500 
  9 C       -4.9020    -0.0840     0.5110 C.3   1 <1>  -0.0800 
 10 C       -4.3240    -1.4690     0.1620 C.3   1 <1>  -0.0800 
 11 C       -0.3330     4.3860     0.2370 C.ar  1 <1>   0.0830 
 12 C       -1.6920     4.2260    -1.7330 C.ar  1 <1>  -0.1500 
 13 C       -6.4190     0.0980     0.1940 C.3   1 <1>   0.2800 
 14 C       -4.9750    -2.0310    -1.1110 C.3   1 <1>  -0.1600 
 15 O        0.4560     5.0640     1.1020 O.3   1 <1>  -0.3630 
 16 C       -0.9610     5.0040    -0.8510 C.ar  1 <1>   0.0830 
 17 O       -6.5850     0.6900    -1.0440 O.3   1 <1>  -0.6800 
 18 C       -7.1120    -1.2750     0.1160 C.3   1 <1>  -0.1600 
 19 C       -7.1420     0.9950     1.2230 C.3   1 <1>  -0.1600 
 20 C       -6.4930    -2.2220    -0.9360 C.3   1 <1>  -0.1600 
 21 C        1.7590     5.3370     0.6370 C.3   1 <1>   0.0400 
 22 O       -0.9060     6.3330    -1.1130 O.3   1 <1>  -0.3630 
 23 C       -6.6070     2.4330     1.3450 C.3   1 <1>  -0.2400 
 24 C       -1.1340     7.2480    -0.0640 C.3   1 <1>   0.1200 
 25 C       -1.5860     8.5680    -0.6790 C.3   1 <1>  -0.2400 
 26 H       -3.8710     1.8250     0.3870 H     1 <1>   0.0800 
 27 H       -4.2490     1.1190    -1.1750 H     1 <1>   0.0800 
 28 H       -2.4110    -1.8010    -0.8270 H     1 <1>   0.0800 
 29 H       -2.2980    -1.5260     0.9020 H     1 <1>   0.0800 
 30 H       -0.0170     2.5670     1.2940 H     1 <1>   0.1500 
 31 H       -2.3970     2.2750    -2.2170 H     1 <1>   0.1500 
 32 H       -4.7700     0.0310     1.5720 H     1 <1>   0.0800 
 33 H       -4.4930    -2.1640     0.9670 H     1 <1>   0.0800 
 34 H       -2.1530     4.6940    -2.5840 H     1 <1>   0.1500 
 35 H       -4.8010    -1.3410    -1.9200 H     1 <1>   0.0800 
 36 H       -4.5220    -2.9690    -1.3820 H     1 <1>   0.0800 
 37 H       -7.5340     0.7200    -1.2600 H     1 <1>   0.4000 
 38 H       -7.0250    -1.7430     1.0810 H     1 <1>   0.0800 
 39 H       -8.1640    -1.1580    -0.0780 H     1 <1>   0.0800 
 40 H       -8.1870     1.0400     0.9730 H     1 <1>   0.0800 
 41 H       -7.0770     0.5300     2.1910 H     1 <1>   0.0800 
 42 H       -6.6970    -3.2380    -0.6460 H     1 <1>   0.0800 
 43 H       -6.9670    -2.0570    -1.8890 H     1 <1>   0.0800 
 44 H        2.2850     5.8770     1.4030 H     1 <1>   0.0800 
 45 H        1.6950     5.9310    -0.2580 H     1 <1>   0.0800 
 46 H        2.2560     4.4050     0.4330 H     1 <1>   0.0800 
 47 H       -6.6020     2.9220     0.3860 H     1 <1>   0.0800 
 48 H       -5.6090     2.4390     1.7430 H     1 <1>   0.0800 
 49 H       -7.2330     3.0000     2.0110 H     1 <1>   0.0800 
 50 H       -1.8940     6.8460     0.5850 H     1 <1>   0.0800 
 51 H       -0.2190     7.3800     0.4840 H     1 <1>   0.0800 
 52 H       -2.4970     8.4240    -1.2330 H     1 <1>   0.0800 
 53 H       -0.8240     8.9510    -1.3340 H     1 <1>   0.0800 
 54 H       -1.7670     9.2890     0.0970 H     1 <1>   0.0800 
@<TRIPOS>BOND
  1   1   2  2   
  2   2   3  am  
  3   2   4  1   
  4   3   5  1   
  5   3   6  1   
  6   4   7  ar  
  7   4   8  ar  
  8   5   9  1   
  9   5  26  1   
 10   5  27  1   
 11   6  10  1   
 12   6  28  1   
 13   6  29  1   
 14   7  11  ar  
 15   7  30  1   
 16   8  12  ar  
 17   8  31  1   
 18   9  10  1   
 19   9  13  1   
 20   9  32  1   
 21  10  14  1   
 22  10  33  1   
 23  11  15  1   
 24  11  16  ar  
 25  12  16  ar  
 26  12  34  1   
 27  13  17  1   
 28  13  18  1   
 29  13  19  1   
 30  14  20  1   
 31  14  35  1   
 32  14  36  1   
 33  15  21  1   
 34  16  22  1   
 35  17  37  1   
 36  18  20  1   
 37  18  38  1   
 38  18  39  1   
 39  19  23  1   
 40  19  40  1   
 41  19  41  1   
 42  20  42  1   
 43  20  43  1   
 44  21  44  1   
 45  21  45  1   
 46  21  46  1   
 47  22  24  1   
 48  23  47  1   
 49  23  48  1   
 50  23  49  1   
 51  24  25  1   
 52  24  50  1   
 53  24  51  1   
 54  25  52  1   
 55  25  53  1   
 56  25  54  1   
@<TRIPOS>SUBSTRUCTURE
  1 ****   5 GROUP 4 **** **** 0

# MOE 2024.06 (io_trps.svl 2023.06)
