@<TRIPOS>MOLECULE
NONAME
49 51 1 0 0 
SMALL
USER_CHARGES


@<TRIPOS>ATOM
  1 S        0.4440    -0.5570     2.4290 S.3   1 <1>  -0.0800 
  2 C        1.2160    -1.4940     1.1800 C.2   1 <1>  -0.1400 
  3 C        1.2140     0.8760     1.7860 C.2   1 <1>   0.2280 
  4 C        1.9560    -0.6700     0.4200 C.2   1 <1>   0.0460 
  5 C        0.9580    -2.9890     1.1440 C.3   1 <1>   0.2900 
  6 N        1.9500     0.6710     0.7690 N.2   1 <1>  -0.5650 
  7 C        2.7900    -1.0580    -0.7810 C.3   1 <1>  -0.0590 
  8 N        0.0850    -3.3530     0.0090 N.3   1 <1>  -0.8100 
  9 C       -0.0520    -4.8300    -0.1170 C.3   1 <1>   0.3330 
 10 C       -1.2320    -2.6970     0.1110 C.3   1 <1>   0.1100 
 11 C        1.3170    -5.3960    -0.5080 C.ar  1 <1>  -0.1430 
 12 C       -1.1370    -5.2520    -1.1590 C.3   1 <1>   0.2000 
 13 C       -2.1430    -3.1270    -1.0410 C.3   1 <1>   0.1200 
 14 C        1.9150    -6.3800     0.2670 C.ar  1 <1>  -0.1500 
 15 C        1.9780    -4.9350    -1.6390 C.ar  1 <1>  -0.1500 
 16 O       -2.3210    -4.5090    -1.0050 O.3   1 <1>  -0.5600 
 17 C       -1.5750    -6.7270    -1.0690 C.3   1 <1>   0.1200 
 18 C        3.1450    -6.9090    -0.0850 C.ar  1 <1>   0.0830 
 19 C        3.2140    -5.4480    -1.9920 C.ar  1 <1>  -0.1500 
 20 O       -0.5130    -7.6230    -1.1280 O.3   1 <1>  -0.6800 
 21 O        3.6450    -7.8990     0.6900 O.3   1 <1>  -0.3630 
 22 C        3.8120    -6.4260    -1.2160 C.ar  1 <1>   0.0830 
 23 C        3.6220    -9.1880     0.1190 C.3   1 <1>   0.0400 
 24 O        5.0330    -6.8720    -1.6050 O.3   1 <1>  -0.3630 
 25 C        6.1010    -6.6660    -0.7060 C.3   1 <1>   0.0400 
 26 H        1.0130     1.8070     2.2870 H     1 <1>   0.1500 
 27 H        0.5170    -3.3100     2.0720 H     1 <1>   0.0800 
 28 H        1.9100    -3.4810     1.0420 H     1 <1>   0.0800 
 29 H        2.7190    -2.1130    -0.9670 H     1 <1>   0.0800 
 30 H        3.8180    -0.8010    -0.6040 H     1 <1>   0.0800 
 31 H        2.4410    -0.5270    -1.6470 H     1 <1>   0.0800 
 32 H       -0.3460    -5.2360     0.8370 H     1 <1>   0.0800 
 33 H       -1.7030    -2.9420     1.0480 H     1 <1>   0.0800 
 34 H       -1.1100    -1.6290     0.0630 H     1 <1>   0.0800 
 35 H       -0.7720    -5.0590    -2.1510 H     1 <1>   0.0800 
 36 H       -1.7180    -2.8500    -1.9900 H     1 <1>   0.0800 
 37 H       -3.1110    -2.6690    -0.9430 H     1 <1>   0.0800 
 38 H        1.4240    -6.7620     1.1440 H     1 <1>   0.1500 
 39 H        1.5290    -4.1640    -2.2430 H     1 <1>   0.1500 
 40 H       -2.2390    -6.9550    -1.8850 H     1 <1>   0.0800 
 41 H       -2.0900    -6.9020    -0.1400 H     1 <1>   0.0800 
 42 H        3.7240    -5.0880    -2.8670 H     1 <1>   0.1500 
 43 H        0.1430    -7.3530    -1.8030 H     1 <1>   0.4000 
 44 H        3.9960    -9.8860     0.8460 H     1 <1>   0.0800 
 45 H        4.2460    -9.1980    -0.7570 H     1 <1>   0.0800 
 46 H        2.6070    -9.4340    -0.1410 H     1 <1>   0.0800 
 47 H        7.0180    -6.8950    -1.2170 H     1 <1>   0.0800 
 48 H        5.9850    -7.3150     0.1420 H     1 <1>   0.0800 
 49 H        6.1000    -5.6370    -0.3930 H     1 <1>   0.0800 
@<TRIPOS>BOND
  1   1   2  1   
  2   1   3  1   
  3   2   4  2   
  4   2   5  1   
  5   3   6  2   
  6   3  26  1   
  7   4   6  1   
  8   4   7  1   
  9   5   8  1   
 10   5  27  1   
 11   5  28  1   
 12   7  29  1   
 13   7  30  1   
 14   7  31  1   
 15   8   9  1   
 16   8  10  1   
 17   9  11  1   
 18   9  12  1   
 19   9  32  1   
 20  10  13  1   
 21  10  33  1   
 22  10  34  1   
 23  11  14  ar  
 24  11  15  ar  
 25  12  16  1   
 26  12  17  1   
 27  12  35  1   
 28  13  16  1   
 29  13  36  1   
 30  13  37  1   
 31  14  18  ar  
 32  14  38  1   
 33  15  19  ar  
 34  15  39  1   
 35  17  20  1   
 36  17  40  1   
 37  17  41  1   
 38  18  21  1   
 39  18  22  ar  
 40  19  22  ar  
 41  19  42  1   
 42  20  43  1   
 43  21  23  1   
 44  22  24  1   
 45  23  44  1   
 46  23  45  1   
 47  23  46  1   
 48  24  25  1   
 49  25  47  1   
 50  25  48  1   
 51  25  49  1   
@<TRIPOS>SUBSTRUCTURE
  1 ****  11 GROUP 4 **** **** 0

# MOE 2024.06 (io_trps.svl 2023.06)
