@<TRIPOS>MOLECULE
NONAME
46 48 1 0 0 
SMALL
USER_CHARGES


@<TRIPOS>ATOM
  1 CL      -0.7950     0.7040    -0.3190 Cl    1 <1>  -0.1230 
  2 C        0.3480     2.0290    -0.1940 C.2   1 <1>   0.1230 
  3 C        0.1270     3.2350     0.4520 C.2   1 <1>   0.1390 
  4 C        1.5950     2.0860    -0.6940 C.2   1 <1>  -0.3020 
  5 N        1.1720     4.0100     0.3670 N.2   1 <1>  -0.7070 
  6 N        2.0770     3.2960    -0.3430 N.pl3 1 <1>   0.3140 
  7 C        3.4130     3.8310    -0.6600 C.3   1 <1>   0.0960 
  8 C        3.5790     5.2070     0.0020 C.3   1 <1>   0.3430 
  9 N        4.8960     5.8730    -0.2940 N.4   1 <1>  -0.9590 
 10 C        6.0540     5.1030     0.2910 C.3   1 <1>   0.3430 
 11 C        4.8660     7.2730     0.2290 C.3   1 <1>   0.3430 
 12 C        7.4060     5.7880     0.0540 C.3   1 <1>   0.2000 
 13 C        6.1700     7.9940    -0.1120 C.3   1 <1>  -0.1600 
 14 O        8.3380     5.0860     0.7940 O.3   1 <1>  -0.6800 
 15 C        7.3770     7.2690     0.4890 C.3   1 <1>   0.2200 
 16 N        8.6110     7.9880     0.0800 N.am  1 <1>  -0.7300 
 17 C        9.8170     7.9040     0.7190 C.2   1 <1>   0.5440 
 18 O        9.9210     7.0810     1.6060 O.2   1 <1>  -0.5700 
 19 C       10.9390     8.7390     0.3260 C.ar  1 <1>   0.0860 
 20 C       10.7580    10.0130    -0.2170 C.ar  1 <1>  -0.1500 
 21 C       12.2500     8.2880     0.4780 C.ar  1 <1>  -0.1500 
 22 C       11.8350    10.7910    -0.6040 C.ar  1 <1>  -0.1500 
 23 C       13.3310     9.0600     0.0930 C.ar  1 <1>  -0.1500 
 24 C       13.1240    10.3140    -0.4520 C.ar  1 <1>  -0.1500 
 25 H       -0.7890     3.4950     0.9580 H     1 <1>   0.1500 
 26 H        2.1360     1.3500    -1.2600 H     1 <1>   0.1500 
 27 H        4.1430     3.1350    -0.2900 H     1 <1>   0.0800 
 28 H        3.4920     3.9140    -1.7280 H     1 <1>   0.0800 
 29 H        3.4640     5.0910     1.0690 H     1 <1>   0.0800 
 30 H        2.7760     5.8390    -0.3430 H     1 <1>   0.0800 
 31 H        5.0160     5.9250    -1.3160 H     1 <1>   0.4500 
 32 H        5.9140     5.0050     1.3550 H     1 <1>   0.0800 
 33 H        6.0980     4.1150    -0.1370 H     1 <1>   0.0800 
 34 H        4.0360     7.8090    -0.2040 H     1 <1>   0.0800 
 35 H        4.7320     7.2600     1.3000 H     1 <1>   0.0800 
 36 H        7.6860     5.7090    -0.9830 H     1 <1>   0.0800 
 37 H        6.1240     8.9900     0.2920 H     1 <1>   0.0800 
 38 H        6.2670     8.0690    -1.1810 H     1 <1>   0.0800 
 39 H        9.0680     5.7020     1.0900 H     1 <1>   0.4000 
 40 H        7.2980     7.3060     1.5650 H     1 <1>   0.0800 
 41 H        8.5500     8.5860    -0.7460 H     1 <1>   0.3700 
 42 H        9.7670    10.4110    -0.3310 H     1 <1>   0.1500 
 43 H       12.4220     7.3140     0.9050 H     1 <1>   0.1500 
 44 H       11.6750    11.7710    -1.0220 H     1 <1>   0.1500 
 45 H       14.3330     8.6870     0.2190 H     1 <1>   0.1500 
 46 H       13.9640    10.9180    -0.7520 H     1 <1>   0.1500 
@<TRIPOS>BOND
  1   1   2  1   
  2   2   3  1   
  3   2   4  2   
  4   3   5  2   
  5   3  25  1   
  6   4   6  1   
  7   4  26  1   
  8   5   6  1   
  9   6   7  1   
 10   7   8  1   
 11   7  27  1   
 12   7  28  1   
 13   8   9  1   
 14   8  29  1   
 15   8  30  1   
 16   9  10  1   
 17   9  11  1   
 18   9  31  1   
 19  10  12  1   
 20  10  32  1   
 21  10  33  1   
 22  11  13  1   
 23  11  34  1   
 24  11  35  1   
 25  12  14  1   
 26  12  15  1   
 27  12  36  1   
 28  13  15  1   
 29  13  37  1   
 30  13  38  1   
 31  14  39  1   
 32  15  16  1   
 33  15  40  1   
 34  16  17  am  
 35  16  41  1   
 36  17  18  2   
 37  17  19  1   
 38  19  20  ar  
 39  19  21  ar  
 40  20  22  ar  
 41  20  42  1   
 42  21  23  ar  
 43  21  43  1   
 44  22  24  ar  
 45  22  44  1   
 46  23  24  ar  
 47  23  45  1   
 48  24  46  1   
@<TRIPOS>SUBSTRUCTURE
  1 ****  12 GROUP 4 **** **** 0

# MOE 2024.06 (io_trps.svl 2023.06)
