@<TRIPOS>MOLECULE
NONAME
54 57 1 0 0 
SMALL
USER_CHARGES


@<TRIPOS>ATOM
  1 O       -1.3050     0.2810     0.9250 O.2   1 <1>  -0.5700 
  2 C       -2.1840     1.1210     0.8480 C.2   1 <1>   0.7150 
  3 N       -3.4880     0.6960     0.9310 N.am  1 <1>  -0.6600 
  4 C       -1.8660     2.5170     0.6670 C.2   1 <1>  -0.2370 
  5 C       -3.8260    -0.6430     1.4900 C.3   1 <1>   0.1400 
  6 C       -4.5800     1.2960     0.1120 C.3   1 <1>   0.1400 
  7 N       -0.8040     3.0060    -0.0720 N.pl3 1 <1>   0.0480 
  8 C       -2.5310     3.5840     1.1950 C.2   1 <1>  -0.1500 
  9 C       -4.0980    -1.6080     0.3150 C.3   1 <1>   0.4230 
 10 C       -4.9410     0.3300    -1.0300 C.3   1 <1>  -0.1600 
 11 C       -0.7940     4.3880     0.0190 C.ar  1 <1>  -0.1520 
 12 C        0.0850     2.1870    -0.9260 C.3   1 <1>   0.0160 
 13 C       -1.8870     4.7620     0.7970 C.ar  1 <1>   0.0000 
 14 N       -4.3240    -3.0400     0.7090 N.4   1 <1>  -0.9590 
 15 C       -5.2940    -1.1010    -0.5250 C.3   1 <1>  -0.1060 
 16 C        0.0640     5.3840    -0.4900 C.ar  1 <1>  -0.1440 
 17 C       -2.1650     6.1080     1.0540 C.ar  1 <1>  -0.1500 
 18 C       -4.5100    -3.9680    -0.4460 C.3   1 <1>   0.3430 
 19 C       -3.4030    -3.5820     1.7420 C.3   1 <1>   0.2630 
 20 C       -6.5350    -1.0760     0.3870 C.2   1 <1>   0.9060 
 21 C       -5.5620    -2.0360    -1.7410 C.3   1 <1>  -0.1600 
 22 C       -0.2250     6.7060    -0.2270 C.ar  1 <1>  -0.1500 
 23 C        1.3060     5.0630    -1.3060 C.3   1 <1>  -0.0970 
 24 C       -1.3370     7.0710     0.5390 C.ar  1 <1>  -0.1500 
 25 C       -4.6020    -3.2360    -1.7920 C.3   1 <1>  -0.1600 
 26 O       -6.7000    -2.0170     1.1810 O.co2 1 <1>  -0.9000 
 27 O       -7.3240    -0.1350     0.3310 O.co2 1 <1>  -0.9000 
 28 H       -3.0030    -0.9940     2.0850 H     1 <1>   0.0800 
 29 H       -4.6900    -0.5540     2.1270 H     1 <1>   0.0800 
 30 H       -5.4390     1.4760     0.7380 H     1 <1>   0.0800 
 31 H       -4.2740     2.2390    -0.3060 H     1 <1>   0.0800 
 32 H       -3.4030     3.5610     1.8240 H     1 <1>   0.1500 
 33 H       -3.2180    -1.5760    -0.3050 H     1 <1>   0.0800 
 34 H       -5.7830     0.7390    -1.5630 H     1 <1>   0.0800 
 35 H       -4.1140     0.2890    -1.7170 H     1 <1>   0.0800 
 36 H       -0.3490     1.2240    -1.1070 H     1 <1>   0.0800 
 37 H        1.0320     2.0650    -0.4340 H     1 <1>   0.0800 
 38 H        0.2200     2.6720    -1.8730 H     1 <1>   0.0800 
 39 H       -5.2890    -2.9550     1.1320 H     1 <1>   0.4500 
 40 H       -3.0210     6.3640     1.6510 H     1 <1>   0.1500 
 41 H       -3.6940    -4.6700    -0.4870 H     1 <1>   0.0800 
 42 H       -5.4200    -4.5250    -0.2920 H     1 <1>   0.0800 
 43 H       -2.3890    -3.5760     1.3780 H     1 <1>   0.0800 
 44 H       -3.6820    -4.5930     1.9920 H     1 <1>   0.0800 
 45 H       -3.4580    -2.9860     2.6390 H     1 <1>   0.0800 
 46 H       -6.5720    -2.4090    -1.6800 H     1 <1>   0.0800 
 47 H       -5.4960    -1.4900    -2.6670 H     1 <1>   0.0800 
 48 H        0.4060     7.4900    -0.6050 H     1 <1>   0.1500 
 49 H        1.9160     5.9390    -1.4330 H     1 <1>   0.0800 
 50 H        1.0270     4.7080    -2.2800 H     1 <1>   0.0800 
 51 H        1.8990     4.3210    -0.8030 H     1 <1>   0.0800 
 52 H       -1.5300     8.1140     0.7220 H     1 <1>   0.1500 
 53 H       -3.6200    -2.9050    -2.0820 H     1 <1>   0.0800 
 54 H       -4.9360    -3.9280    -2.5450 H     1 <1>   0.0800 
@<TRIPOS>BOND
  1   1   2  2   
  2   2   3  am  
  3   2   4  1   
  4   3   5  1   
  5   3   6  1   
  6   4   7  1   
  7   4   8  2   
  8   5   9  1   
  9   5  28  1   
 10   5  29  1   
 11   6  10  1   
 12   6  30  1   
 13   6  31  1   
 14   7  11  1   
 15   7  12  1   
 16   8  13  1   
 17   8  32  1   
 18   9  14  1   
 19   9  15  1   
 20   9  33  1   
 21  10  15  1   
 22  10  34  1   
 23  10  35  1   
 24  11  13  ar  
 25  11  16  ar  
 26  12  36  1   
 27  12  37  1   
 28  12  38  1   
 29  13  17  ar  
 30  14  18  1   
 31  14  19  1   
 32  14  39  1   
 33  15  20  1   
 34  15  21  1   
 35  16  22  ar  
 36  16  23  1   
 37  17  24  ar  
 38  17  40  1   
 39  18  25  1   
 40  18  41  1   
 41  18  42  1   
 42  19  43  1   
 43  19  44  1   
 44  19  45  1   
 45  20  26  ar  
 46  20  27  ar  
 47  21  25  1   
 48  21  46  1   
 49  21  47  1   
 50  22  24  ar  
 51  22  48  1   
 52  23  49  1   
 53  23  50  1   
 54  23  51  1   
 55  24  52  1   
 56  25  53  1   
 57  25  54  1   
@<TRIPOS>SUBSTRUCTURE
  1 ****   3 GROUP 4 **** **** 0

# MOE 2024.06 (io_trps.svl 2023.06)
