@<TRIPOS>MOLECULE
NONAME
47 48 1 0 0 
SMALL
USER_CHARGES


@<TRIPOS>ATOM
  1 S        1.0050     1.3690    -0.5570 S.o2  1 <1>   1.3330 
  2 O        2.3080     1.9600    -0.3480 O.2   1 <1>  -0.6500 
  3 O        0.0490     2.0940    -1.3600 O.2   1 <1>  -0.6500 
  4 N        1.1840    -0.2000    -1.1620 N.am  1 <1>  -0.8490 
  5 C        0.2930     1.1240     1.0740 C.3   1 <1>  -0.0550 
  6 C        2.3070    -0.3240    -2.0980 C.3   1 <1>   0.1160 
  7 C       -0.0360    -0.7360    -1.7790 C.3   1 <1>   0.1160 
  8 C        0.0630     2.4030     1.9210 C.3   1 <1>  -0.0800 
  9 C       -0.8940     3.4050     1.2640 C.3   1 <1>   0.2000 
 10 C        1.3390     3.2190     2.1620 C.3   1 <1>   0.3430 
 11 O       -1.6190     4.0350     2.2680 O.3   1 <1>  -0.6800 
 12 C       -0.0070     4.4380     0.5520 C.3   1 <1>   0.3430 
 13 N        1.3790     4.2440     1.0880 N.4   1 <1>  -0.9590 
 14 C        2.0830     5.5040     1.4400 C.3   1 <1>   0.4860 
 15 C        2.1280     6.4020     0.2170 C.ar  1 <1>  -0.1430 
 16 C        2.8500     5.9950    -0.9030 C.ar  1 <1>   0.0820 
 17 C        1.4520     7.6170     0.2140 C.ar  1 <1>  -0.1500 
 18 O        3.4790     4.7950    -0.8290 O.3   1 <1>  -0.3630 
 19 C        2.8940     6.8060    -2.0330 C.ar  1 <1>  -0.1500 
 20 C        1.4920     8.4290    -0.9070 C.ar  1 <1>  -0.1500 
 21 C        4.1310     4.2300    -1.9480 C.3   1 <1>   0.0400 
 22 C        2.2120     8.0050    -2.0080 C.ar  1 <1>   0.1900 
 23 F        2.2480     8.7690    -3.0650 F     1 <1>  -0.1900 
 24 H       -0.6480     0.6190     0.9640 H     1 <1>   0.0800 
 25 H        0.9360     0.4640     1.6240 H     1 <1>   0.0800 
 26 H        2.4050    -1.3440    -2.4310 H     1 <1>   0.0800 
 27 H        3.2270    -0.0420    -1.6130 H     1 <1>   0.0800 
 28 H        2.1560     0.3130    -2.9540 H     1 <1>   0.0800 
 29 H        0.1150    -1.7630    -2.0660 H     1 <1>   0.0800 
 30 H       -0.2990    -0.1650    -2.6550 H     1 <1>   0.0800 
 31 H       -0.8560    -0.6980    -1.0830 H     1 <1>   0.0800 
 32 H       -0.3340     2.0750     2.8670 H     1 <1>   0.0800 
 33 H       -1.6010     2.9500     0.5900 H     1 <1>   0.0800 
 34 H        2.2210     2.5970     2.1410 H     1 <1>   0.0800 
 35 H        1.2730     3.7040     3.1220 H     1 <1>   0.0800 
 36 H       -1.0580     4.4430     2.9540 H     1 <1>   0.4000 
 37 H       -0.3740     5.4340     0.7360 H     1 <1>   0.0800 
 38 H       -0.0090     4.2580    -0.5110 H     1 <1>   0.0800 
 39 H        1.9520     3.8480     0.3080 H     1 <1>   0.4500 
 40 H        1.5740     6.0050     2.2460 H     1 <1>   0.0800 
 41 H        3.0920     5.2840     1.7490 H     1 <1>   0.0800 
 42 H        0.8950     7.9470     1.0750 H     1 <1>   0.1500 
 43 H        3.4360     6.5390    -2.9200 H     1 <1>   0.1500 
 44 H        0.9780     9.3740    -0.9350 H     1 <1>   0.1500 
 45 H        4.5040     3.2620    -1.6650 H     1 <1>   0.0800 
 46 H        4.9490     4.8660    -2.2370 H     1 <1>   0.0800 
 47 H        3.4230     4.1240    -2.7520 H     1 <1>   0.0800 
@<TRIPOS>BOND
  1   1   2  2   
  2   1   3  2   
  3   1   4  am  
  4   1   5  1   
  5   4   6  1   
  6   4   7  1   
  7   5   8  1   
  8   5  24  1   
  9   5  25  1   
 10   6  26  1   
 11   6  27  1   
 12   6  28  1   
 13   7  29  1   
 14   7  30  1   
 15   7  31  1   
 16   8   9  1   
 17   8  10  1   
 18   8  32  1   
 19   9  11  1   
 20   9  12  1   
 21   9  33  1   
 22  10  13  1   
 23  10  34  1   
 24  10  35  1   
 25  11  36  1   
 26  12  13  1   
 27  12  37  1   
 28  12  38  1   
 29  13  14  1   
 30  13  39  1   
 31  14  15  1   
 32  14  40  1   
 33  14  41  1   
 34  15  16  ar  
 35  15  17  ar  
 36  16  18  1   
 37  16  19  ar  
 38  17  20  ar  
 39  17  42  1   
 40  18  21  1   
 41  19  22  ar  
 42  19  43  1   
 43  20  22  ar  
 44  20  44  1   
 45  21  45  1   
 46  21  46  1   
 47  21  47  1   
 48  22  23  1   
@<TRIPOS>SUBSTRUCTURE
  1 ****  13 GROUP 4 **** **** 0

# MOE 2024.06 (io_trps.svl 2023.06)
