@<TRIPOS>MOLECULE
NONAME
47 48 1 0 0 
SMALL
USER_CHARGES


@<TRIPOS>ATOM
  1 S        0.4480     0.3840    -1.1180 S.o2  1 <1>   1.3330 
  2 O        0.6580    -0.9240    -1.6970 O.2   1 <1>  -0.6500 
  3 O       -0.4090     1.3340    -1.7890 O.2   1 <1>  -0.6500 
  4 N       -0.1790     0.1630     0.4470 N.am  1 <1>  -0.8490 
  5 C        2.0550     1.1310    -0.8340 C.3   1 <1>  -0.0550 
  6 C       -1.1520    -0.9330     0.5000 C.3   1 <1>   0.1160 
  7 C       -0.7740     1.3800     1.0100 C.3   1 <1>   0.1160 
  8 C        3.0890     0.1800    -0.1900 C.3   1 <1>  -0.0800 
  9 C        4.5030     0.7340    -0.1010 C.3   1 <1>   0.2200 
 10 C        2.7930    -0.2270     1.2590 C.3   1 <1>   0.1200 
 11 N        4.4900     2.1420     0.3620 N.am  1 <1>  -0.7300 
 12 C        5.0680    -0.1360     1.0120 C.3   1 <1>   0.1200 
 13 O        4.0240    -0.2660     1.9260 O.3   1 <1>  -0.5600 
 14 C        4.7000     3.2380    -0.4210 C.2   1 <1>   0.7160 
 15 O        4.8150     3.0650    -1.6190 O.2   1 <1>  -0.5700 
 16 C        4.7610     4.5530     0.1740 C.2   1 <1>  -0.0860 
 17 C        5.2410     5.7520    -0.2760 C.2   1 <1>  -0.3320 
 18 C        4.2840     4.8680     1.4500 C.2   1 <1>   0.1390 
 19 N        5.0360     6.6640     0.6960 N.pl3 1 <1>   0.3140 
 20 C        5.8980     6.0740    -1.6130 C.3   1 <1>  -0.0600 
 21 N        4.4450     6.1110     1.7670 N.2   1 <1>  -0.7070 
 22 C        5.3810     8.1030     0.6860 C.3   1 <1>   0.0960 
 23 C        4.2440     8.9430     0.0900 C.3   1 <1>  -0.2400 
 24 H        2.4470     1.4510    -1.7800 H     1 <1>   0.0800 
 25 H        1.9370     2.0060    -0.2280 H     1 <1>   0.0800 
 26 H       -1.5230    -1.0560     1.5030 H     1 <1>   0.0800 
 27 H       -0.6860    -1.8560     0.1990 H     1 <1>   0.0800 
 28 H       -1.9780    -0.7320    -0.1620 H     1 <1>   0.0800 
 29 H       -1.0730     1.2080     2.0300 H     1 <1>   0.0800 
 30 H       -1.6380     1.6770     0.4370 H     1 <1>   0.0800 
 31 H       -0.0600     2.1850     0.9980 H     1 <1>   0.0800 
 32 H        3.1280    -0.7220    -0.7770 H     1 <1>   0.0800 
 33 H        5.0530     0.6340    -1.0220 H     1 <1>   0.0800 
 34 H        2.3310    -1.1980     1.3150 H     1 <1>   0.0800 
 35 H        2.1770     0.4970     1.7620 H     1 <1>   0.0800 
 36 H        4.4360     2.2420     1.3760 H     1 <1>   0.3700 
 37 H        5.9250     0.3010     1.4940 H     1 <1>   0.0800 
 38 H        5.3130    -1.1180     0.6450 H     1 <1>   0.0800 
 39 H        3.8210     4.1610     2.1170 H     1 <1>   0.1500 
 40 H        5.9960     5.1930    -2.2200 H     1 <1>   0.0800 
 41 H        6.8820     6.4800    -1.4570 H     1 <1>   0.0800 
 42 H        5.3060     6.7890    -2.1550 H     1 <1>   0.0800 
 43 H        5.5660     8.4070     1.7000 H     1 <1>   0.0800 
 44 H        6.2840     8.2400     0.1210 H     1 <1>   0.0800 
 45 H        3.3480     8.8100     0.6710 H     1 <1>   0.0800 
 46 H        4.0540     8.6530    -0.9270 H     1 <1>   0.0800 
 47 H        4.5120     9.9840     0.1070 H     1 <1>   0.0800 
@<TRIPOS>BOND
  1   1   2  2   
  2   1   3  2   
  3   1   4  am  
  4   1   5  1   
  5   4   6  1   
  6   4   7  1   
  7   5   8  1   
  8   5  24  1   
  9   5  25  1   
 10   6  26  1   
 11   6  27  1   
 12   6  28  1   
 13   7  29  1   
 14   7  30  1   
 15   7  31  1   
 16   8   9  1   
 17   8  10  1   
 18   8  32  1   
 19   9  11  1   
 20   9  12  1   
 21   9  33  1   
 22  10  13  1   
 23  10  34  1   
 24  10  35  1   
 25  11  14  am  
 26  11  36  1   
 27  12  13  1   
 28  12  37  1   
 29  12  38  1   
 30  14  15  2   
 31  14  16  1   
 32  16  17  2   
 33  16  18  1   
 34  17  19  1   
 35  17  20  1   
 36  18  21  2   
 37  18  39  1   
 38  19  21  1   
 39  19  22  1   
 40  20  40  1   
 41  20  41  1   
 42  20  42  1   
 43  22  23  1   
 44  22  43  1   
 45  22  44  1   
 46  23  45  1   
 47  23  46  1   
 48  23  47  1   
@<TRIPOS>SUBSTRUCTURE
  1 ****  11 GROUP 4 **** **** 0

# MOE 2024.06 (io_trps.svl 2023.06)
