@<TRIPOS>MOLECULE
NONAME
47 49 1 0 0 
SMALL
USER_CHARGES


@<TRIPOS>ATOM
  1 F       -1.0000    -1.4080    -2.8820 F     1 <1>  -0.1900 
  2 C       -1.7910    -1.5520    -1.8540 C.ar  1 <1>   0.1900 
  3 C       -2.1400    -2.8260    -1.4590 C.ar  1 <1>  -0.1500 
  4 C       -2.2450    -0.4210    -1.2040 C.ar  1 <1>  -0.1500 
  5 C       -2.9890    -3.0030    -0.3680 C.ar  1 <1>   0.0860 
  6 C       -3.0830    -0.5770    -0.1130 C.ar  1 <1>  -0.1440 
  7 C       -3.3780    -4.3340     0.0640 C.2   1 <1>   0.5440 
  8 C       -3.4390    -1.8550     0.2930 C.ar  1 <1>  -0.1500 
  9 C       -3.5980     0.6420     0.6320 C.3   1 <1>  -0.0960 
 10 O       -2.5860    -5.2570    -0.0070 O.2   1 <1>  -0.5700 
 11 N       -4.6430    -4.6100     0.5340 N.am  1 <1>  -0.6600 
 12 C       -4.9090    -5.8790     1.2700 C.3   1 <1>   0.1400 
 13 C       -5.8640    -4.0340    -0.0980 C.3   1 <1>   0.1400 
 14 C       -5.4230    -6.9340     0.2620 C.3   1 <1>   0.4230 
 15 C       -6.4430    -5.0670    -1.0780 C.3   1 <1>  -0.1600 
 16 N       -5.6180    -8.3070     0.8420 N.4   1 <1>  -0.9590 
 17 C       -6.7310    -6.4350    -0.3930 C.3   1 <1>  -0.1060 
 18 C       -5.9920    -9.2990    -0.1970 C.3   1 <1>   0.3430 
 19 C       -4.5110    -8.7850     1.7110 C.3   1 <1>   0.2630 
 20 C       -7.8020    -6.2810     0.7050 C.2   1 <1>   0.9060 
 21 C       -7.1890    -7.4450    -1.4720 C.3   1 <1>  -0.1600 
 22 C       -7.2790    -8.8710    -0.9070 C.3   1 <1>  -0.1600 
 23 O       -7.7890    -7.0630     1.6700 O.co2 1 <1>  -0.9000 
 24 O       -8.6350    -5.3800     0.6180 O.co2 1 <1>  -0.9000 
 25 H       -1.7570    -3.6780    -1.9900 H     1 <1>   0.1500 
 26 H       -1.9440     0.5520    -1.5490 H     1 <1>   0.1500 
 27 H       -4.0820    -1.9770     1.1480 H     1 <1>   0.1500 
 28 H       -4.5140     0.4140     1.1480 H     1 <1>   0.0800 
 29 H       -3.7890     1.4480    -0.0550 H     1 <1>   0.0800 
 30 H       -2.8680     0.9660     1.3510 H     1 <1>   0.0800 
 31 H       -3.9980    -6.2100     1.7330 H     1 <1>   0.0800 
 32 H       -5.6350    -5.6960     2.0430 H     1 <1>   0.0800 
 33 H       -6.5870    -3.7950     0.6650 H     1 <1>   0.0800 
 34 H       -5.6320    -3.1280    -0.6310 H     1 <1>   0.0800 
 35 H       -4.6730    -7.0070    -0.5060 H     1 <1>   0.0800 
 36 H       -7.3560    -4.6720    -1.4910 H     1 <1>   0.0800 
 37 H       -5.7500    -5.1920    -1.8910 H     1 <1>   0.0800 
 38 H       -6.4840    -8.1510     1.4270 H     1 <1>   0.4500 
 39 H       -5.1950    -9.3840    -0.9160 H     1 <1>   0.0800 
 40 H       -6.1470   -10.2630     0.2600 H     1 <1>   0.0800 
 41 H       -3.5900    -8.8260     1.1530 H     1 <1>   0.0800 
 42 H       -4.7370    -9.7680     2.0910 H     1 <1>   0.0800 
 43 H       -4.3830    -8.1200     2.5490 H     1 <1>   0.0800 
 44 H       -8.1540    -7.1480    -1.8510 H     1 <1>   0.0800 
 45 H       -6.4950    -7.4390    -2.2960 H     1 <1>   0.0800 
 46 H       -7.4860    -9.5600    -1.7070 H     1 <1>   0.0800 
 47 H       -8.1000    -8.9360    -0.2130 H     1 <1>   0.0800 
@<TRIPOS>BOND
  1   1   2  1   
  2   2   3  ar  
  3   2   4  ar  
  4   3   5  ar  
  5   3  25  1   
  6   4   6  ar  
  7   4  26  1   
  8   5   7  1   
  9   5   8  ar  
 10   6   8  ar  
 11   6   9  1   
 12   7  10  2   
 13   7  11  am  
 14   8  27  1   
 15   9  28  1   
 16   9  29  1   
 17   9  30  1   
 18  11  12  1   
 19  11  13  1   
 20  12  14  1   
 21  12  31  1   
 22  12  32  1   
 23  13  15  1   
 24  13  33  1   
 25  13  34  1   
 26  14  16  1   
 27  14  17  1   
 28  14  35  1   
 29  15  17  1   
 30  15  36  1   
 31  15  37  1   
 32  16  18  1   
 33  16  19  1   
 34  16  38  1   
 35  17  20  1   
 36  17  21  1   
 37  18  22  1   
 38  18  39  1   
 39  18  40  1   
 40  19  41  1   
 41  19  42  1   
 42  19  43  1   
 43  20  23  ar  
 44  20  24  ar  
 45  21  22  1   
 46  21  44  1   
 47  21  45  1   
 48  22  46  1   
 49  22  47  1   
@<TRIPOS>SUBSTRUCTURE
  1 ****  11 GROUP 4 **** **** 0

# MOE 2024.06 (io_trps.svl 2023.06)
