@<TRIPOS>MOLECULE
NONAME
42 44 1 0 0 
SMALL
USER_CHARGES


@<TRIPOS>ATOM
  1 CL      -0.2230    -4.3240    -2.8050 Cl    1 <1>  -0.1230 
  2 C       -1.4460    -4.0710    -1.5740 C.2   1 <1>   0.1230 
  3 C       -1.3480    -4.4470    -0.2440 C.2   1 <1>   0.1390 
  4 C       -2.6480    -3.4850    -1.7180 C.2   1 <1>  -0.3020 
  5 N       -2.4300    -4.1290     0.4130 N.2   1 <1>  -0.7070 
  6 N       -3.2250    -3.5210    -0.4990 N.pl3 1 <1>   0.3140 
  7 C       -4.5450    -2.9790    -0.1350 C.3   1 <1>   0.0960 
  8 C       -5.2160    -3.8020     0.9790 C.3   1 <1>   0.3430 
  9 N       -5.7430    -5.1440     0.5340 N.4   1 <1>  -0.9590 
 10 C       -6.7720    -5.6620     1.4820 C.3   1 <1>   0.3430 
 11 C       -4.6350    -6.1440     0.3340 C.3   1 <1>   0.3430 
 12 C       -7.4580    -6.9170     0.9200 C.3   1 <1>  -0.1600 
 13 C       -5.1540    -7.5900     0.2670 C.3   1 <1>  -0.1600 
 14 C       -6.6390    -7.6820    -0.1470 C.3   1 <1>   0.3430 
 15 C       -6.7920    -6.9790    -1.4690 C.1   1 <1>   0.3570 
 16 C       -7.1780    -9.1200    -0.2540 C.ar  1 <1>  -0.1430 
 17 N       -6.8350    -6.2320    -2.3270 N.1   1 <1>  -0.5570 
 18 C       -6.4430   -10.2380     0.1360 C.ar  1 <1>  -0.1500 
 19 C       -8.4620    -9.3250    -0.7520 C.ar  1 <1>  -0.1500 
 20 C       -6.9750   -11.5110     0.0320 C.ar  1 <1>  -0.1500 
 21 C       -8.9950   -10.5970    -0.8570 C.ar  1 <1>  -0.1500 
 22 C       -8.2510   -11.6930    -0.4650 C.ar  1 <1>  -0.1500 
 23 H       -0.4910    -4.9370     0.1880 H     1 <1>   0.1500 
 24 H       -3.0960    -3.0560    -2.5960 H     1 <1>   0.1500 
 25 H       -5.1710    -2.9370    -1.0080 H     1 <1>   0.0800 
 26 H       -4.3890    -1.9760     0.2180 H     1 <1>   0.0800 
 27 H       -6.0420    -3.2200     1.3520 H     1 <1>   0.0800 
 28 H       -4.5190    -3.9290     1.7930 H     1 <1>   0.0800 
 29 H       -6.2030    -5.0120    -0.3860 H     1 <1>   0.4500 
 30 H       -7.5160    -4.9060     1.6800 H     1 <1>   0.0800 
 31 H       -6.2940    -5.9090     2.4170 H     1 <1>   0.0800 
 32 H       -3.9150    -6.0640     1.1340 H     1 <1>   0.0800 
 33 H       -4.1180    -5.9150    -0.5850 H     1 <1>   0.0800 
 34 H       -8.4170    -6.6420     0.5160 H     1 <1>   0.0800 
 35 H       -7.6580    -7.5740     1.7480 H     1 <1>   0.0800 
 36 H       -5.0220    -8.0360     1.2360 H     1 <1>   0.0800 
 37 H       -4.5400    -8.1400    -0.4260 H     1 <1>   0.0800 
 38 H       -5.4460   -10.1610     0.5300 H     1 <1>   0.1500 
 39 H       -9.0760    -8.4990    -1.0710 H     1 <1>   0.1500 
 40 H       -6.3960   -12.3660     0.3360 H     1 <1>   0.1500 
 41 H       -9.9890   -10.7370    -1.2470 H     1 <1>   0.1500 
 42 H       -8.6640   -12.6840    -0.5470 H     1 <1>   0.1500 
@<TRIPOS>BOND
  1   1   2  1   
  2   2   3  1   
  3   2   4  2   
  4   3   5  2   
  5   3  23  1   
  6   4   6  1   
  7   4  24  1   
  8   5   6  1   
  9   6   7  1   
 10   7   8  1   
 11   7  25  1   
 12   7  26  1   
 13   8   9  1   
 14   8  27  1   
 15   8  28  1   
 16   9  10  1   
 17   9  11  1   
 18   9  29  1   
 19  10  12  1   
 20  10  30  1   
 21  10  31  1   
 22  11  13  1   
 23  11  32  1   
 24  11  33  1   
 25  12  14  1   
 26  12  34  1   
 27  12  35  1   
 28  13  14  1   
 29  13  36  1   
 30  13  37  1   
 31  14  15  1   
 32  14  16  1   
 33  15  17  3   
 34  16  18  ar  
 35  16  19  ar  
 36  18  20  ar  
 37  18  38  1   
 38  19  21  ar  
 39  19  39  1   
 40  20  22  ar  
 41  20  40  1   
 42  21  22  ar  
 43  21  41  1   
 44  22  42  1   
@<TRIPOS>SUBSTRUCTURE
  1 ****  11 GROUP 4 **** **** 0

# MOE 2024.06 (io_trps.svl 2023.06)
