@<TRIPOS>MOLECULE
NONAME
48 50 1 0 0 
SMALL
USER_CHARGES


@<TRIPOS>ATOM
  1 CL      -0.2290    -1.4710     0.4000 Cl    1 <1>  -0.1770 
  2 C       -1.9040    -1.9500     0.4960 C.ar  1 <1>   0.1770 
  3 C       -2.7950    -1.4900    -0.4540 C.ar  1 <1>  -0.1500 
  4 C       -2.3130    -2.7820     1.5200 C.ar  1 <1>  -0.1500 
  5 C       -4.1240    -1.8740    -0.3760 C.ar  1 <1>  -0.1500 
  6 C       -3.6430    -3.1620     1.5930 C.ar  1 <1>  -0.1500 
  7 C       -4.5520    -2.7090     0.6460 C.ar  1 <1>  -0.1430 
  8 C       -6.0110    -3.1310     0.7230 C.3   1 <1>  -0.0160 
  9 C       -6.2520    -4.3660    -0.1520 C.3   1 <1>  -0.1600 
 10 C       -7.7160    -4.8300    -0.0950 C.3   1 <1>  -0.0990 
 11 C       -7.9630    -6.0210    -0.9970 C.2   1 <1>   0.5690 
 12 O       -8.5260    -5.8580    -2.0510 O.2   1 <1>  -0.5700 
 13 N       -7.5470    -7.2420    -0.5890 N.am  1 <1>  -0.7300 
 14 C       -7.6500    -8.4840    -1.3900 C.3   1 <1>   0.2200 
 15 C       -8.7470    -9.3980    -0.8600 C.3   1 <1>  -0.0800 
 16 C       -6.4210    -9.3410    -1.1210 C.3   1 <1>   0.1200 
 17 C       -8.0450   -10.1650     0.2670 C.3   1 <1>   0.1200 
 18 C      -10.0550    -8.7040    -0.4380 C.3   1 <1>  -0.0170 
 19 O       -6.6710    -9.9530     0.1070 O.3   1 <1>  -0.5600 
 20 C      -11.1040    -9.7270    -0.0300 C.ar  1 <1>  -0.1430 
 21 C      -11.3420   -10.0490     1.2910 C.ar  1 <1>  -0.1500 
 22 C      -11.8720   -10.3890    -0.9660 C.ar  1 <1>  -0.1500 
 23 C      -12.3050   -10.9960     1.6020 C.ar  1 <1>   0.1600 
 24 C      -12.8100   -11.3190    -0.5490 C.ar  1 <1>   0.1600 
 25 N      -13.0430   -11.6400     0.7130 N.ar  1 <1>  -0.6200 
 26 H       -2.4520    -0.8440    -1.2420 H     1 <1>   0.1500 
 27 H       -1.6000    -3.1260     2.2470 H     1 <1>   0.1500 
 28 H       -4.8220    -1.5210    -1.1150 H     1 <1>   0.1500 
 29 H       -3.9650    -3.8120     2.3880 H     1 <1>   0.1500 
 30 H       -6.2720    -3.3470     1.7440 H     1 <1>   0.0800 
 31 H       -6.6350    -2.3190     0.3900 H     1 <1>   0.0800 
 32 H       -5.6060    -5.1630     0.1750 H     1 <1>   0.0800 
 33 H       -5.9950    -4.1330    -1.1720 H     1 <1>   0.0800 
 34 H       -8.3610    -4.0290    -0.4110 H     1 <1>   0.0800 
 35 H       -7.9840    -5.0940     0.9110 H     1 <1>   0.0800 
 36 H       -7.0810    -7.3680     0.3120 H     1 <1>   0.3700 
 37 H       -7.7680    -8.2530    -2.4360 H     1 <1>   0.0800 
 38 H       -8.9800   -10.1080    -1.6330 H     1 <1>   0.0800 
 39 H       -5.5130    -8.7670    -1.0660 H     1 <1>   0.0800 
 40 H       -6.3240   -10.1140    -1.8640 H     1 <1>   0.0800 
 41 H       -8.2460   -11.2220     0.2140 H     1 <1>   0.0800 
 42 H       -8.3200    -9.7910     1.2380 H     1 <1>   0.0800 
 43 H      -10.4290    -8.1190    -1.2610 H     1 <1>   0.0800 
 44 H       -9.8780    -8.0300     0.3810 H     1 <1>   0.0800 
 45 H      -10.7910    -9.5760     2.0820 H     1 <1>   0.1500 
 46 H      -11.7500   -10.1900    -2.0150 H     1 <1>   0.1500 
 47 H      -12.4770   -11.2350     2.6370 H     1 <1>   0.1500 
 48 H      -13.4000   -11.8250    -1.2940 H     1 <1>   0.1500 
@<TRIPOS>BOND
  1   1   2  1   
  2   2   3  ar  
  3   2   4  ar  
  4   3   5  ar  
  5   3  26  1   
  6   4   6  ar  
  7   4  27  1   
  8   5   7  ar  
  9   5  28  1   
 10   6   7  ar  
 11   6  29  1   
 12   7   8  1   
 13   8   9  1   
 14   8  30  1   
 15   8  31  1   
 16   9  10  1   
 17   9  32  1   
 18   9  33  1   
 19  10  11  1   
 20  10  34  1   
 21  10  35  1   
 22  11  12  2   
 23  11  13  am  
 24  13  14  1   
 25  13  36  1   
 26  14  15  1   
 27  14  16  1   
 28  14  37  1   
 29  15  17  1   
 30  15  18  1   
 31  15  38  1   
 32  16  19  1   
 33  16  39  1   
 34  16  40  1   
 35  17  19  1   
 36  17  41  1   
 37  17  42  1   
 38  18  20  1   
 39  18  43  1   
 40  18  44  1   
 41  20  21  ar  
 42  20  22  ar  
 43  21  23  ar  
 44  21  45  1   
 45  22  24  ar  
 46  22  46  1   
 47  23  25  ar  
 48  23  47  1   
 49  24  25  ar  
 50  24  48  1   
@<TRIPOS>SUBSTRUCTURE
  1 ****  13 GROUP 4 **** **** 0

# MOE 2024.06 (io_trps.svl 2023.06)
