@<TRIPOS>MOLECULE
NONAME
37 38 1 0 0 
SMALL
USER_CHARGES


@<TRIPOS>ATOM
  1 O        0.7410    -0.2920    -2.0620 O.2   1 <1>  -0.5700 
  2 C        1.4240    -0.7210    -1.1500 C.2   1 <1>   0.5440 
  3 N        2.2300     0.1570    -0.4480 N.am  1 <1>  -0.6600 
  4 C        1.3740    -2.1330    -0.8170 C.ar  1 <1>   0.0860 
  5 C        2.4330     1.5610    -0.9680 C.3   1 <1>   0.2200 
  6 C        2.7790    -0.1890     0.9000 C.3   1 <1>   0.0600 
  7 C        0.2500    -2.7320    -0.2360 C.ar  1 <1>  -0.1440 
  8 C        2.4870    -2.9350    -1.0620 C.ar  1 <1>  -0.1500 
  9 C        3.8660     2.0730    -0.8310 C.3   1 <1>   0.2000 
 10 C        1.6260     2.5820    -0.1560 C.3   1 <1>   0.1200 
 11 C        0.2640    -4.0790     0.0860 C.ar  1 <1>  -0.1500 
 12 C       -1.0020    -1.9120     0.0470 C.3   1 <1>  -0.0960 
 13 C        2.4960    -4.2780    -0.7380 C.ar  1 <1>  -0.1500 
 14 O        4.1390     2.9760    -1.8550 O.3   1 <1>  -0.6800 
 15 C        3.8270     2.8530     0.4780 C.3   1 <1>   0.1200 
 16 O        2.5310     3.3630     0.5820 O.3   1 <1>  -0.5600 
 17 C        1.3820    -4.8590    -0.1580 C.ar  1 <1>  -0.1440 
 18 C        1.3790    -6.3340     0.1990 C.3   1 <1>  -0.0970 
 19 H        2.1410     1.6010    -2.0030 H     1 <1>   0.0800 
 20 H        2.4860     0.5560     1.6180 H     1 <1>   0.0800 
 21 H        3.8520    -0.2430     0.8560 H     1 <1>   0.0800 
 22 H        2.4050    -1.1370     1.2440 H     1 <1>   0.0800 
 23 H        3.3550    -2.4910    -1.5160 H     1 <1>   0.1500 
 24 H        4.6060     1.2940    -0.8600 H     1 <1>   0.0800 
 25 H        0.9400     2.1040     0.5200 H     1 <1>   0.0800 
 26 H        1.0860     3.2420    -0.8120 H     1 <1>   0.0800 
 27 H       -0.6050    -4.5330     0.5290 H     1 <1>   0.1500 
 28 H       -1.7470    -2.4990     0.5530 H     1 <1>   0.0800 
 29 H       -1.4210    -1.5560    -0.8780 H     1 <1>   0.0800 
 30 H       -0.7600    -1.0650     0.6640 H     1 <1>   0.0800 
 31 H        3.3710    -4.8710    -0.9420 H     1 <1>   0.1500 
 32 H        3.5730     3.7670    -1.7410 H     1 <1>   0.4000 
 33 H        4.5370     3.6620     0.4990 H     1 <1>   0.0800 
 34 H        3.9960     2.2080     1.3210 H     1 <1>   0.0800 
 35 H        2.3810    -6.6870     0.3620 H     1 <1>   0.0800 
 36 H        0.9390    -6.9000    -0.6030 H     1 <1>   0.0800 
 37 H        0.8100    -6.5010     1.0960 H     1 <1>   0.0800 
@<TRIPOS>BOND
  1   1   2  2   
  2   2   3  am  
  3   2   4  1   
  4   3   5  1   
  5   3   6  1   
  6   4   7  ar  
  7   4   8  ar  
  8   5   9  1   
  9   5  10  1   
 10   5  19  1   
 11   6  20  1   
 12   6  21  1   
 13   6  22  1   
 14   7  11  ar  
 15   7  12  1   
 16   8  13  ar  
 17   8  23  1   
 18   9  14  1   
 19   9  15  1   
 20   9  24  1   
 21  10  16  1   
 22  10  25  1   
 23  10  26  1   
 24  11  17  ar  
 25  11  27  1   
 26  12  28  1   
 27  12  29  1   
 28  12  30  1   
 29  13  17  ar  
 30  13  31  1   
 31  14  32  1   
 32  15  16  1   
 33  15  33  1   
 34  15  34  1   
 35  17  18  1   
 36  18  35  1   
 37  18  36  1   
 38  18  37  1   
@<TRIPOS>SUBSTRUCTURE
  1 ****   2 GROUP 4 **** **** 0

# MOE 2024.06 (io_trps.svl 2023.06)
