@<TRIPOS>MOLECULE
NONAME
47 49 1 0 0 
SMALL
USER_CHARGES


@<TRIPOS>ATOM
  1 F        0.4580     1.2650    -1.1810 F     1 <1>  -0.3400 
  2 C        1.2320     1.6180    -0.1600 C.3   1 <1>   1.1640 
  3 F        0.9410     0.7880     0.8330 F     1 <1>  -0.3400 
  4 F        0.8110     2.8190     0.2210 F     1 <1>  -0.3400 
  5 C        2.7300     1.5960    -0.5070 C.ar  1 <1>  -0.1440 
  6 C        3.6300     2.4090     0.1780 C.ar  1 <1>  -0.1500 
  7 C        3.2200     0.7610    -1.5020 C.ar  1 <1>  -0.1500 
  8 C        4.9930     2.4090    -0.1060 C.ar  1 <1>  -0.1440 
  9 C        4.5690     0.7490    -1.8040 C.ar  1 <1>  -0.1500 
 10 C        5.4460     1.5660    -1.1150 C.ar  1 <1>  -0.1500 
 11 C        5.9320     3.3360     0.6930 C.3   1 <1>   0.4240 
 12 O        5.6020     3.1630     2.0230 O.3   1 <1>  -0.6800 
 13 C        7.4270     3.0000     0.5640 C.3   1 <1>  -0.1600 
 14 C        5.6840     4.8060     0.3360 C.3   1 <1>  -0.1600 
 15 C        8.3020     3.9690     1.3600 C.3   1 <1>   0.2090 
 16 C        6.6000     5.7580     1.1090 C.3   1 <1>   0.2090 
 17 N        8.0190     5.3550     0.8980 N.pl3 1 <1>  -0.8380 
 18 C        8.9910     6.2090     0.4330 C.ar  1 <1>   0.7200 
 19 N        8.6640     7.4920     0.2700 N.ar  1 <1>  -0.6200 
 20 N       10.1950     5.7000     0.1810 N.ar  1 <1>  -0.6200 
 21 C        9.5850     8.3060    -0.1770 C.ar  1 <1>   0.1670 
 22 C       11.0980     6.5280    -0.2740 C.ar  1 <1>   0.1600 
 23 C       10.8640     7.8710    -0.5150 C.ar  1 <1>   0.0860 
 24 C        9.1580     9.7610    -0.2690 C.3   1 <1>  -0.0970 
 25 C       11.9190     8.6710    -1.0720 C.2   1 <1>   0.4230 
 26 O       13.0610     8.5780    -0.7060 O.2   1 <1>  -0.5700 
 27 C       11.6480     9.6340    -2.2120 C.3   1 <1>  -0.1790 
 28 H        3.2610     3.0600     0.9550 H     1 <1>   0.1500 
 29 H        2.5570     0.1130    -2.0520 H     1 <1>   0.1500 
 30 H        4.9390     0.1020    -2.5810 H     1 <1>   0.1500 
 31 H        6.4840     1.5240    -1.3900 H     1 <1>   0.1500 
 32 H        5.4910     2.2080     2.1810 H     1 <1>   0.4000 
 33 H        7.7290     3.0820    -0.4630 H     1 <1>   0.0800 
 34 H        7.6100     1.9920     0.8860 H     1 <1>   0.0800 
 35 H        4.6590     5.0630     0.5290 H     1 <1>   0.0800 
 36 H        5.8600     4.9460    -0.7150 H     1 <1>   0.0800 
 37 H        9.3370     3.7070     1.2290 H     1 <1>   0.0800 
 38 H        8.0780     3.8960     2.4110 H     1 <1>   0.0800 
 39 H        6.3740     5.7110     2.1610 H     1 <1>   0.0800 
 40 H        6.4180     6.7650     0.7770 H     1 <1>   0.0800 
 41 H       12.0800     6.1340    -0.4790 H     1 <1>   0.1500 
 42 H        8.3630     9.9550     0.4300 H     1 <1>   0.0800 
 43 H        8.7950     9.9770    -1.2570 H     1 <1>   0.0800 
 44 H        9.9720    10.4180    -0.0280 H     1 <1>   0.0800 
 45 H       10.7300     9.3900    -2.7110 H     1 <1>   0.0800 
 46 H       12.4500     9.5710    -2.9250 H     1 <1>   0.0800 
 47 H       11.6050    10.6400    -1.8380 H     1 <1>   0.0800 
@<TRIPOS>BOND
  1   1   2  1   
  2   2   3  1   
  3   2   4  1   
  4   2   5  1   
  5   5   6  ar  
  6   5   7  ar  
  7   6   8  ar  
  8   6  28  1   
  9   7   9  ar  
 10   7  29  1   
 11   8  10  ar  
 12   8  11  1   
 13   9  10  ar  
 14   9  30  1   
 15  10  31  1   
 16  11  12  1   
 17  11  13  1   
 18  11  14  1   
 19  12  32  1   
 20  13  15  1   
 21  13  33  1   
 22  13  34  1   
 23  14  16  1   
 24  14  35  1   
 25  14  36  1   
 26  15  17  1   
 27  15  37  1   
 28  15  38  1   
 29  16  17  1   
 30  16  39  1   
 31  16  40  1   
 32  17  18  1   
 33  18  19  ar  
 34  18  20  ar  
 35  19  21  ar  
 36  20  22  ar  
 37  21  23  ar  
 38  21  24  1   
 39  22  23  ar  
 40  22  41  1   
 41  23  25  1   
 42  24  42  1   
 43  24  43  1   
 44  24  44  1   
 45  25  26  2   
 46  25  27  1   
 47  27  45  1   
 48  27  46  1   
 49  27  47  1   
@<TRIPOS>SUBSTRUCTURE
  1 ****  14 GROUP 4 **** **** 0

# MOE 2024.06 (io_trps.svl 2023.06)
