@<TRIPOS>MOLECULE
NONAME
56 59 1 0 0 
SMALL
USER_CHARGES


@<TRIPOS>ATOM
  1 O       -2.2810    -2.6310    -1.2710 O.2   1 <1>  -0.5700 
  2 C       -2.4600    -1.4790    -0.9580 C.2   1 <1>   0.5690 
  3 N       -2.8660    -0.5930    -1.9010 N.am  1 <1>  -0.7300 
  4 C       -2.2280    -1.0130     0.4720 C.3   1 <1>   0.0420 
  5 C       -3.1380     0.8490    -1.7040 C.3   1 <1>   0.1400 
  6 C       -2.7150    -2.0290     1.5010 C.2   1 <1>   0.5690 
  7 C       -2.7610     0.4090     0.7660 C.3   1 <1>  -0.1600 
  8 C       -2.4780     1.3490    -0.4140 C.3   1 <1>  -0.1600 
  9 O       -1.9150    -2.3160     2.3620 O.2   1 <1>  -0.5700 
 10 N       -3.9800    -2.5890     1.5000 N.am  1 <1>  -0.6600 
 11 C       -4.2080    -3.7630     2.4070 C.3   1 <1>   0.1400 
 12 C       -4.9930    -2.3190     0.4280 C.3   1 <1>   0.1400 
 13 C       -5.6770    -4.0220     2.7410 C.3   1 <1>  -0.1600 
 14 C       -6.4320    -2.5550     0.8780 C.3   1 <1>  -0.1600 
 15 C       -6.6520    -3.9060     1.5680 C.3   1 <1>   0.4240 
 16 O       -7.9050    -3.8200     2.2020 O.3   1 <1>  -0.5600 
 17 C       -6.6020    -5.1190     0.5920 C.ar  1 <1>  -0.1430 
 18 C       -9.0420    -4.0620     1.4360 C.3   1 <1>   0.1200 
 19 C       -7.7430    -5.8780     0.3500 C.ar  1 <1>  -0.1430 
 20 C       -5.4390    -5.4830    -0.0830 C.ar  1 <1>  -0.1500 
 21 C       -9.0470    -5.5310     1.0370 C.3   1 <1>  -0.0170 
 22 C       -7.7070    -6.9570    -0.5170 C.ar  1 <1>  -0.1500 
 23 C       -5.3890    -6.5490    -0.9770 C.ar  1 <1>   0.0820 
 24 C       -6.5470    -7.3130    -1.1810 C.ar  1 <1>   0.0820 
 25 O       -4.2380    -6.8320    -1.6570 O.3   1 <1>  -0.3630 
 26 O       -6.6670    -8.4030    -1.9930 O.3   1 <1>  -0.3620 
 27 C       -3.1960    -5.8840    -1.7940 C.3   1 <1>   0.0400 
 28 C       -5.5560    -9.1980    -2.3410 C.3   1 <1>   0.0400 
 29 H       -2.9900    -0.9650    -2.8460 H     1 <1>   0.3700 
 30 H       -1.1590    -0.9670     0.5700 H     1 <1>   0.0800 
 31 H       -4.2030     0.9980    -1.6510 H     1 <1>   0.0800 
 32 H       -2.7580     1.4050    -2.5450 H     1 <1>   0.0800 
 33 H       -2.2880     0.7850     1.6570 H     1 <1>   0.0800 
 34 H       -3.8200     0.3810     0.9510 H     1 <1>   0.0800 
 35 H       -2.8430     2.3360    -0.1900 H     1 <1>   0.0800 
 36 H       -1.4150     1.4250    -0.5700 H     1 <1>   0.0800 
 37 H       -3.6890    -3.5990     3.3370 H     1 <1>   0.0800 
 38 H       -3.7670    -4.6380     1.9670 H     1 <1>   0.0800 
 39 H       -4.7770    -2.9280    -0.4300 H     1 <1>   0.0800 
 40 H       -4.9210    -1.2970     0.1070 H     1 <1>   0.0800 
 41 H       -5.9580    -3.3070     3.4930 H     1 <1>   0.0800 
 42 H       -5.7670    -5.0010     3.1760 H     1 <1>   0.0800 
 43 H       -7.0680    -2.4840     0.0160 H     1 <1>   0.0800 
 44 H       -6.6990    -1.7670     1.5600 H     1 <1>   0.0800 
 45 H       -9.0350    -3.4230     0.5710 H     1 <1>   0.0800 
 46 H       -9.9020    -3.8320     2.0390 H     1 <1>   0.0800 
 47 H       -4.5450    -4.9300     0.0810 H     1 <1>   0.1500 
 48 H       -9.8770    -5.7170     0.3790 H     1 <1>   0.0800 
 49 H       -9.1680    -6.1410     1.9150 H     1 <1>   0.0800 
 50 H       -8.5910    -7.5430    -0.6890 H     1 <1>   0.1500 
 51 H       -2.4890    -6.2620    -2.5090 H     1 <1>   0.0800 
 52 H       -2.7110    -5.7500    -0.8430 H     1 <1>   0.0800 
 53 H       -3.6080    -4.9540    -2.1460 H     1 <1>   0.0800 
 54 H       -5.9190   -10.1320    -2.7280 H     1 <1>   0.0800 
 55 H       -4.9570    -9.3680    -1.4640 H     1 <1>   0.0800 
 56 H       -4.9880    -8.6870    -3.0980 H     1 <1>   0.0800 
@<TRIPOS>BOND
  1   1   2  2   
  2   2   3  am  
  3   2   4  1   
  4   3   5  1   
  5   3  29  1   
  6   4   6  1   
  7   4   7  1   
  8   4  30  1   
  9   5   8  1   
 10   5  31  1   
 11   5  32  1   
 12   6   9  2   
 13   6  10  am  
 14   7   8  1   
 15   7  33  1   
 16   7  34  1   
 17   8  35  1   
 18   8  36  1   
 19  10  11  1   
 20  10  12  1   
 21  11  13  1   
 22  11  37  1   
 23  11  38  1   
 24  12  14  1   
 25  12  39  1   
 26  12  40  1   
 27  13  15  1   
 28  13  41  1   
 29  13  42  1   
 30  14  15  1   
 31  14  43  1   
 32  14  44  1   
 33  15  16  1   
 34  15  17  1   
 35  16  18  1   
 36  17  19  ar  
 37  17  20  ar  
 38  18  21  1   
 39  18  45  1   
 40  18  46  1   
 41  19  21  1   
 42  19  22  ar  
 43  20  23  ar  
 44  20  47  1   
 45  21  48  1   
 46  21  49  1   
 47  22  24  ar  
 48  22  50  1   
 49  23  24  ar  
 50  23  25  1   
 51  24  26  1   
 52  25  27  1   
 53  26  28  1   
 54  27  51  1   
 55  27  52  1   
 56  27  53  1   
 57  28  54  1   
 58  28  55  1   
 59  28  56  1   
@<TRIPOS>SUBSTRUCTURE
  1 ****  12 GROUP 4 **** **** 0

# MOE 2024.06 (io_trps.svl 2023.06)
