@<TRIPOS>MOLECULE
NONAME
52 55 1 0 0 
SMALL
USER_CHARGES


@<TRIPOS>ATOM
  1 O       -1.4540    -3.6520     0.6640 O.2   1 <1>  -0.5700 
  2 C       -0.3760    -3.1040     0.6430 C.2   1 <1>   0.5690 
  3 N        0.3660    -3.0300    -0.5060 N.am  1 <1>  -0.6600 
  4 C        0.1540    -2.5440     1.9520 C.3   1 <1>  -0.0990 
  5 C        1.7350    -2.4490    -0.5810 C.3   1 <1>   0.1400 
  6 C       -0.1730    -3.5650    -1.8060 C.3   1 <1>   0.2010 
  7 C        1.3760    -1.6300     1.7810 C.3   1 <1>  -0.1600 
  8 C        2.3620    -2.2770     0.8050 C.3   1 <1>  -0.1600 
  9 C       -0.0560    -5.0850    -1.9340 C.2   1 <1>   0.5690 
 10 O        0.3820    -5.5690    -2.9500 O.2   1 <1>  -0.5700 
 11 N       -0.4600    -5.8490    -0.8920 N.am  1 <1>  -0.7300 
 12 C       -0.4450    -7.3220    -0.8060 C.3   1 <1>   0.2200 
 13 C       -1.6760    -7.8360    -0.0710 C.3   1 <1>  -0.0800 
 14 C        0.6690    -7.7650     0.1370 C.3   1 <1>   0.1200 
 15 C       -1.2610    -7.7000     1.3970 C.3   1 <1>   0.1200 
 16 C       -2.9990    -7.1130    -0.4070 C.3   1 <1>  -0.0170 
 17 O        0.1360    -7.7230     1.4290 O.3   1 <1>  -0.5600 
 18 C       -4.2690    -7.6750     0.2430 C.ar  1 <1>  -0.1440 
 19 C       -5.4680    -6.9190     0.2130 C.ar  1 <1>   0.0000 
 20 C       -4.3230    -8.8950     0.8600 C.ar  1 <1>  -0.1500 
 21 C       -6.6150    -7.4660     0.8390 C.ar  1 <1>   0.3100 
 22 C       -5.6000    -5.6520    -0.4050 C.ar  1 <1>  -0.1500 
 23 C       -5.5120    -9.3450     1.4440 C.ar  1 <1>   0.1600 
 24 N       -6.6200    -8.6770     1.4490 N.ar  1 <1>  -0.6200 
 25 C       -7.8130    -6.7340     0.8310 C.ar  1 <1>  -0.1500 
 26 C       -6.7840    -4.9650    -0.3970 C.ar  1 <1>  -0.1500 
 27 C       -7.9070    -5.5100     0.2290 C.ar  1 <1>  -0.1500 
 28 H       -0.6340    -2.0060     2.4450 H     1 <1>   0.0800 
 29 H        0.4200    -3.3790     2.5730 H     1 <1>   0.0800 
 30 H        2.3650    -3.0870    -1.1790 H     1 <1>   0.0800 
 31 H        1.6710    -1.4890    -1.0660 H     1 <1>   0.0800 
 32 H       -1.2120    -3.3040    -1.8880 H     1 <1>   0.0800 
 33 H        0.3440    -3.1080    -2.6310 H     1 <1>   0.0800 
 34 H        1.0610    -0.6760     1.3930 H     1 <1>   0.0800 
 35 H        1.8460    -1.4670     2.7350 H     1 <1>   0.0800 
 36 H        2.6680    -3.2400     1.1770 H     1 <1>   0.0800 
 37 H        3.2450    -1.6670     0.7200 H     1 <1>   0.0800 
 38 H       -0.7780    -5.3550    -0.0450 H     1 <1>   0.3700 
 39 H       -0.3340    -7.7510    -1.7880 H     1 <1>   0.0800 
 40 H       -1.7700    -8.8810    -0.3060 H     1 <1>   0.0800 
 41 H        1.5330    -7.1270     0.0810 H     1 <1>   0.0800 
 42 H        0.9510    -8.7830    -0.0650 H     1 <1>   0.0800 
 43 H       -1.6370    -8.5010     2.0080 H     1 <1>   0.0800 
 44 H       -1.5760    -6.7550     1.8060 H     1 <1>   0.0800 
 45 H       -3.1350    -7.1200    -1.4750 H     1 <1>   0.0800 
 46 H       -2.9010    -6.0870    -0.0980 H     1 <1>   0.0800 
 47 H       -3.4790    -9.5520     0.9250 H     1 <1>   0.1500 
 48 H       -4.7560    -5.2090    -0.8980 H     1 <1>   0.1500 
 49 H       -5.5040   -10.3100     1.9200 H     1 <1>   0.1500 
 50 H       -8.6630    -7.1750     1.3180 H     1 <1>   0.1500 
 51 H       -6.8650    -4.0010    -0.8700 H     1 <1>   0.1500 
 52 H       -8.8320    -4.9600     0.2310 H     1 <1>   0.1500 
@<TRIPOS>BOND
  1   1   2  2   
  2   2   3  am  
  3   2   4  1   
  4   3   5  1   
  5   3   6  1   
  6   4   7  1   
  7   4  28  1   
  8   4  29  1   
  9   5   8  1   
 10   5  30  1   
 11   5  31  1   
 12   6   9  1   
 13   6  32  1   
 14   6  33  1   
 15   7   8  1   
 16   7  34  1   
 17   7  35  1   
 18   8  36  1   
 19   8  37  1   
 20   9  10  2   
 21   9  11  am  
 22  11  12  1   
 23  11  38  1   
 24  12  13  1   
 25  12  14  1   
 26  12  39  1   
 27  13  15  1   
 28  13  16  1   
 29  13  40  1   
 30  14  17  1   
 31  14  41  1   
 32  14  42  1   
 33  15  17  1   
 34  15  43  1   
 35  15  44  1   
 36  16  18  1   
 37  16  45  1   
 38  16  46  1   
 39  18  19  ar  
 40  18  20  ar  
 41  19  21  ar  
 42  19  22  ar  
 43  20  23  ar  
 44  20  47  1   
 45  21  24  ar  
 46  21  25  ar  
 47  22  26  ar  
 48  22  48  1   
 49  23  24  ar  
 50  23  49  1   
 51  25  27  ar  
 52  25  50  1   
 53  26  27  ar  
 54  26  51  1   
 55  27  52  1   
@<TRIPOS>SUBSTRUCTURE
  1 ****  16 GROUP 4 **** **** 0

# MOE 2024.06 (io_trps.svl 2023.06)
