@<TRIPOS>MOLECULE
NONAME
48 52 1 0 0 
SMALL
USER_CHARGES


@<TRIPOS>ATOM
  1 CL      -1.0580     0.2290    -1.4720 Cl    1 <1>  -0.1770 
  2 C       -2.1050    -1.1160    -1.1300 C.ar  1 <1>   0.1770 
  3 C       -1.7760    -2.3670    -1.5730 C.ar  1 <1>  -0.1500 
  4 C       -3.2610    -0.9000    -0.3910 C.ar  1 <1>  -0.1500 
  5 C       -2.6190    -3.4500    -1.2940 C.ar  1 <1>   0.3610 
  6 C       -4.0990    -1.9550    -0.1350 C.ar  1 <1>  -0.1500 
  7 N       -2.2330    -4.7250    -1.6390 N.ar  1 <1>  -0.1790 
  8 C       -3.8470    -3.2560    -0.6200 C.ar  1 <1>   0.0000 
  9 C       -2.9920    -5.7950    -1.3540 C.ar  1 <1>   0.2110 
 10 C       -4.7290    -4.3770    -0.4250 C.ar  1 <1>   0.1000 
 11 C       -4.2120    -5.6360    -0.7580 C.ar  1 <1>  -0.1500 
 12 N       -6.0250    -4.2790    -0.0040 N.pl3 1 <1>  -0.8380 
 13 C       -6.9790    -3.2420    -0.5600 C.3   1 <1>   0.2090 
 14 C       -6.7590    -5.4350     0.6200 C.3   1 <1>   0.2090 
 15 C       -8.0570    -2.7710     0.4440 C.3   1 <1>   0.1440 
 16 C       -7.8290    -4.9850     1.6200 C.3   1 <1>  -0.1600 
 17 C       -8.9560    -1.7930    -0.2870 C.ar  1 <1>   0.1670 
 18 C       -8.8160    -3.9930     0.9890 C.3   1 <1>  -0.1600 
 19 C       -7.5060    -1.8960     1.6020 C.3   1 <1>  -0.1600 
 20 N       -9.8340    -2.1100    -1.2130 N.ar  1 <1>  -0.6200 
 21 C       -8.7250    -0.5080     0.1080 C.ar  1 <1>  -0.1430 
 22 C       -7.6520    -0.4290     1.1640 C.3   1 <1>  -0.0170 
 23 C      -10.4910    -1.0760    -1.7190 C.ar  1 <1>   0.4770 
 24 C       -9.4610     0.4860    -0.4880 C.ar  1 <1>   0.1600 
 25 N      -10.3570     0.2080    -1.4130 N.ar  1 <1>  -0.6200 
 26 C      -11.5150    -1.3930    -2.7810 C.3   1 <1>  -0.0970 
 27 H       -0.8620    -2.4980    -2.1230 H     1 <1>   0.1500 
 28 H       -3.4740     0.0920    -0.0280 H     1 <1>   0.1500 
 29 H       -4.9690    -1.7850     0.4620 H     1 <1>   0.1500 
 30 H       -1.3280    -4.8410    -2.1030 H     1 <1>   0.4570 
 31 H       -2.6310    -6.7780    -1.6150 H     1 <1>   0.1500 
 32 H       -4.7980    -6.5180    -0.5810 H     1 <1>   0.1500 
 33 H       -7.4920    -3.6900    -1.3940 H     1 <1>   0.0800 
 34 H       -6.4550    -2.3940    -0.9560 H     1 <1>   0.0800 
 35 H       -6.0640    -6.0700     1.1430 H     1 <1>   0.0800 
 36 H       -7.2270    -6.0120    -0.1600 H     1 <1>   0.0800 
 37 H       -7.3470    -4.5450     2.4750 H     1 <1>   0.0800 
 38 H       -8.3690    -5.8490     1.9650 H     1 <1>   0.0800 
 39 H       -9.3370    -4.4770     0.1800 H     1 <1>   0.0800 
 40 H       -9.5550    -3.6870     1.7090 H     1 <1>   0.0800 
 41 H       -6.5060    -2.1600     1.8900 H     1 <1>   0.0800 
 42 H       -8.1320    -2.0300     2.4680 H     1 <1>   0.0800 
 43 H       -6.7400    -0.0610     0.7280 H     1 <1>   0.0800 
 44 H       -7.9460     0.2020     1.9850 H     1 <1>   0.0800 
 45 H       -9.3180     1.5150    -0.2090 H     1 <1>   0.1500 
 46 H      -11.7690    -2.4370    -2.7580 H     1 <1>   0.0800 
 47 H      -11.1120    -1.1490    -3.7460 H     1 <1>   0.0800 
 48 H      -12.4040    -0.8140    -2.6130 H     1 <1>   0.0800 
@<TRIPOS>BOND
  1   1   2  1   
  2   2   3  ar  
  3   2   4  ar  
  4   3   5  ar  
  5   3  27  1   
  6   4   6  ar  
  7   4  28  1   
  8   5   7  ar  
  9   5   8  ar  
 10   6   8  ar  
 11   6  29  1   
 12   7   9  ar  
 13   7  30  1   
 14   8  10  ar  
 15   9  11  ar  
 16   9  31  1   
 17  10  11  ar  
 18  10  12  1   
 19  11  32  1   
 20  12  13  1   
 21  12  14  1   
 22  13  15  1   
 23  13  33  1   
 24  13  34  1   
 25  14  16  1   
 26  14  35  1   
 27  14  36  1   
 28  15  17  1   
 29  15  18  1   
 30  15  19  1   
 31  16  18  1   
 32  16  37  1   
 33  16  38  1   
 34  17  20  ar  
 35  17  21  ar  
 36  18  39  1   
 37  18  40  1   
 38  19  22  1   
 39  19  41  1   
 40  19  42  1   
 41  20  23  ar  
 42  21  22  1   
 43  21  24  ar  
 44  22  43  1   
 45  22  44  1   
 46  23  25  ar  
 47  23  26  1   
 48  24  25  ar  
 49  24  45  1   
 50  26  46  1   
 51  26  47  1   
 52  26  48  1   
@<TRIPOS>SUBSTRUCTURE
  1 ****  13 GROUP 4 **** **** 0

# MOE 2024.06 (io_trps.svl 2023.06)
