@<TRIPOS>MOLECULE
NONAME
38 40 1 0 0 
SMALL
USER_CHARGES


@<TRIPOS>ATOM
  1 F       -0.5280    -0.1890     0.0840 F     1 <1>  -0.1900 
  2 C       -1.6440    -0.8840     0.1130 C.ar  1 <1>   0.1900 
  3 C       -1.6380    -2.2640     0.0640 C.ar  1 <1>   0.3920 
  4 C       -2.8470    -0.2370     0.1920 C.ar  1 <1>   0.1600 
  5 O       -0.4620    -2.9270    -0.0180 O.3   1 <1>  -0.3630 
  6 N       -2.7640    -2.9510     0.0940 N.ar  1 <1>  -0.6200 
  7 N       -3.9820    -0.9040     0.2220 N.ar  1 <1>  -0.6200 
  8 C       -0.4240    -4.3400    -0.0690 C.3   1 <1>   0.0400 
  9 C       -3.8830    -2.2350     0.1740 C.ar  1 <1>   0.7200 
 10 N       -5.0620    -2.9390     0.2150 N.pl3 1 <1>  -0.8380 
 11 C       -6.3860    -2.3070    -0.0120 C.3   1 <1>   0.2090 
 12 C       -5.1350    -4.4020    -0.0200 C.3   1 <1>   0.2090 
 13 C       -7.3160    -3.4560    -0.4120 C.3   1 <1>   0.2000 
 14 C       -6.6240    -4.7360     0.0560 C.3   1 <1>  -0.0800 
 15 O       -8.5620    -3.3520     0.1900 O.3   1 <1>  -0.6800 
 16 C       -7.0380    -5.9660    -0.7690 C.3   1 <1>  -0.0170 
 17 C       -6.3900    -7.2410    -0.2520 C.ar  1 <1>   0.1670 
 18 N       -5.1480    -7.4760    -0.6450 N.ar  1 <1>  -0.6200 
 19 C       -7.1040    -8.0910     0.5910 C.ar  1 <1>   0.1600 
 20 C       -4.6750    -8.6060    -0.1460 C.ar  1 <1>   0.1600 
 21 N       -6.6310    -9.2200     1.0930 N.ar  1 <1>  -0.6200 
 22 C       -5.3920    -9.4490     0.6950 C.ar  1 <1>   0.1600 
 23 H       -2.8770     0.8370     0.2320 H     1 <1>   0.1500 
 24 H        0.6030    -4.6480    -0.1310 H     1 <1>   0.0800 
 25 H       -0.9630    -4.6710    -0.9400 H     1 <1>   0.0800 
 26 H       -0.8770    -4.7330     0.8240 H     1 <1>   0.0800 
 27 H       -6.7120    -1.8370     0.9000 H     1 <1>   0.0800 
 28 H       -6.3260    -1.5770    -0.8000 H     1 <1>   0.0800 
 29 H       -4.7380    -4.6250    -0.9960 H     1 <1>   0.0800 
 30 H       -4.5710    -4.9400     0.7240 H     1 <1>   0.0800 
 31 H       -7.4530    -3.4530    -1.4800 H     1 <1>   0.0800 
 32 H       -6.8540    -4.9050     1.0940 H     1 <1>   0.0800 
 33 H       -8.4620    -3.2940     1.1610 H     1 <1>   0.4000 
 34 H       -6.7640    -5.8270    -1.8000 H     1 <1>   0.0800 
 35 H       -8.1080    -6.0690    -0.7320 H     1 <1>   0.0800 
 36 H       -8.1100    -7.8260     0.8630 H     1 <1>   0.1500 
 37 H       -3.6700    -8.8800    -0.4150 H     1 <1>   0.1500 
 38 H       -4.9200   -10.3480     1.0500 H     1 <1>   0.1500 
@<TRIPOS>BOND
  1   1   2  1   
  2   2   3  ar  
  3   2   4  ar  
  4   3   5  1   
  5   3   6  ar  
  6   4   7  ar  
  7   4  23  1   
  8   5   8  1   
  9   6   9  ar  
 10   7   9  ar  
 11   8  24  1   
 12   8  25  1   
 13   8  26  1   
 14   9  10  1   
 15  10  11  1   
 16  10  12  1   
 17  11  13  1   
 18  11  27  1   
 19  11  28  1   
 20  12  14  1   
 21  12  29  1   
 22  12  30  1   
 23  13  14  1   
 24  13  15  1   
 25  13  31  1   
 26  14  16  1   
 27  14  32  1   
 28  15  33  1   
 29  16  17  1   
 30  16  34  1   
 31  16  35  1   
 32  17  18  ar  
 33  17  19  ar  
 34  18  20  ar  
 35  19  21  ar  
 36  19  36  1   
 37  20  22  ar  
 38  20  37  1   
 39  21  22  ar  
 40  22  38  1   
@<TRIPOS>SUBSTRUCTURE
  1 ****  12 GROUP 4 **** **** 0

# MOE 2024.06 (io_trps.svl 2023.06)
