@<TRIPOS>MOLECULE
NONAME
45 46 1 0 0 
SMALL
USER_CHARGES


@<TRIPOS>ATOM
  1 O        0.8010    -1.8850     1.3400 O.3   1 <1>  -0.3630 
  2 C        0.0710    -2.8060     0.6580 C.ar  1 <1>   0.0830 
  3 C        1.6600    -2.2500     2.3970 C.3   1 <1>   0.0400 
  4 C       -0.6730    -2.3610    -0.4310 C.ar  1 <1>  -0.1440 
  5 C        0.0430    -4.1540     1.0030 C.ar  1 <1>  -0.1500 
  6 C       -1.4380    -3.2600    -1.1550 C.ar  1 <1>  -0.1500 
  7 C       -0.6440    -0.8920    -0.8340 C.3   1 <1>  -0.0960 
  8 C       -0.7250    -5.0450     0.2770 C.ar  1 <1>  -0.1500 
  9 C       -1.4770    -4.6010    -0.8000 C.ar  1 <1>  -0.1440 
 10 C       -2.3420    -5.5790    -1.5670 C.3   1 <1>   0.4860 
 11 N       -3.5200    -5.8990    -0.7240 N.4   1 <1>  -0.9590 
 12 C       -4.2280    -7.1140    -1.2150 C.3   1 <1>   0.5240 
 13 C       -4.4150    -4.7290    -0.4550 C.3   1 <1>   0.3430 
 14 C       -3.5580    -8.3400    -0.6020 C.2   1 <1>   0.0460 
 15 C       -5.1280    -4.8260     0.9090 C.3   1 <1>   0.1200 
 16 N       -2.2130    -8.4290    -0.4950 N.2   1 <1>  -0.5650 
 17 C       -4.1490    -9.4400    -0.0870 C.2   1 <1>  -0.3020 
 18 O       -5.7910    -6.0430     1.0390 O.3   1 <1>  -0.6800 
 19 C       -2.0180    -9.5750     0.0700 C.2   1 <1>   0.0060 
 20 N       -3.1600   -10.2420     0.3450 N.pl3 1 <1>   0.0330 
 21 C       -0.6490   -10.1330     0.3980 C.3   1 <1>  -0.0600 
 22 H        2.1520    -1.3610     2.7490 H     1 <1>   0.0800 
 23 H        2.3900    -2.9490     2.0290 H     1 <1>   0.0800 
 24 H        1.0760    -2.6810     3.1910 H     1 <1>   0.0800 
 25 H        0.6140    -4.5270     1.8330 H     1 <1>   0.1500 
 26 H       -2.0030    -2.9060    -2.0000 H     1 <1>   0.1500 
 27 H       -0.9930    -0.2840    -0.0190 H     1 <1>   0.0800 
 28 H       -1.2610    -0.7050    -1.6940 H     1 <1>   0.0800 
 29 H        0.3650    -0.6020    -1.0680 H     1 <1>   0.0800 
 30 H       -0.7290    -6.0870     0.5560 H     1 <1>   0.1500 
 31 H       -1.7700    -6.4700    -1.7700 H     1 <1>   0.0800 
 32 H       -2.6530    -5.1490    -2.5050 H     1 <1>   0.0800 
 33 H       -3.1230    -6.2170     0.1710 H     1 <1>   0.4500 
 34 H       -4.1790    -7.1690    -2.2890 H     1 <1>   0.0800 
 35 H       -5.2630    -7.1000    -0.9180 H     1 <1>   0.0800 
 36 H       -5.1500    -4.6390    -1.2370 H     1 <1>   0.0800 
 37 H       -3.8320    -3.8230    -0.4500 H     1 <1>   0.0800 
 38 H       -5.8520    -4.0350     1.0040 H     1 <1>   0.0800 
 39 H       -4.4130    -4.7410     1.7100 H     1 <1>   0.0800 
 40 H       -5.1910    -9.6970     0.0000 H     1 <1>   0.1500 
 41 H       -6.2590    -6.0960     1.9020 H     1 <1>   0.4000 
 42 H       -3.2440   -11.1640     0.7870 H     1 <1>   0.2700 
 43 H        0.1140    -9.4460     0.0800 H     1 <1>   0.0800 
 44 H       -0.4990   -11.0690    -0.1090 H     1 <1>   0.0800 
 45 H       -0.5540   -10.2850     1.4580 H     1 <1>   0.0800 
@<TRIPOS>BOND
  1   1   2  1   
  2   1   3  1   
  3   2   4  ar  
  4   2   5  ar  
  5   3  22  1   
  6   3  23  1   
  7   3  24  1   
  8   4   6  ar  
  9   4   7  1   
 10   5   8  ar  
 11   5  25  1   
 12   6   9  ar  
 13   6  26  1   
 14   7  27  1   
 15   7  28  1   
 16   7  29  1   
 17   8   9  ar  
 18   8  30  1   
 19   9  10  1   
 20  10  11  1   
 21  10  31  1   
 22  10  32  1   
 23  11  12  1   
 24  11  13  1   
 25  11  33  1   
 26  12  14  1   
 27  12  34  1   
 28  12  35  1   
 29  13  15  1   
 30  13  36  1   
 31  13  37  1   
 32  14  16  1   
 33  14  17  2   
 34  15  18  1   
 35  15  38  1   
 36  15  39  1   
 37  16  19  2   
 38  17  20  1   
 39  17  40  1   
 40  18  41  1   
 41  19  20  1   
 42  19  21  1   
 43  20  42  1   
 44  21  43  1   
 45  21  44  1   
 46  21  45  1   
@<TRIPOS>SUBSTRUCTURE
  1 ****   9 GROUP 4 **** **** 0

# MOE 2024.06 (io_trps.svl 2023.06)
