@<TRIPOS>MOLECULE
NONAME
36 38 1 0 0 
SMALL
USER_CHARGES


@<TRIPOS>ATOM
  1 O       -0.4680     0.1950    -0.0500 O.2   1 <1>  -0.5700 
  2 C       -1.5180     0.8100     0.0370 C.2   1 <1>   0.5440 
  3 N       -2.6820     0.0630    -0.0430 N.am  1 <1>  -0.6600 
  4 C       -1.4740     2.2680     0.1950 C.ar  1 <1>   0.3960 
  5 C       -4.0720     0.5850    -0.0560 C.3   1 <1>   0.1400 
  6 C       -2.6820    -1.4150    -0.1840 C.3   1 <1>   0.1400 
  7 N       -2.4920     2.9500     0.7550 N.ar  1 <1>  -0.6200 
  8 C       -0.3280     2.9420    -0.2510 C.ar  1 <1>   0.1600 
  9 C       -4.9530    -0.6350    -0.3250 C.3   1 <1>   0.2000 
 10 C       -4.1220    -1.8410     0.1050 C.3   1 <1>  -0.0800 
 11 C       -2.2830     4.2520     0.8240 C.ar  1 <1>   0.1600 
 12 N       -0.1190     4.2490    -0.1900 N.ar  1 <1>  -0.6200 
 13 O       -6.1310    -0.5880     0.4050 O.3   1 <1>  -0.6800 
 14 C       -4.5510    -3.1380    -0.6020 C.3   1 <1>  -0.0170 
 15 C       -1.1350     4.8830     0.3660 C.ar  1 <1>   0.1600 
 16 C       -3.7320    -4.3290    -0.1340 C.ar  1 <1>   0.1670 
 17 N       -2.5790    -4.5340    -0.7500 N.ar  1 <1>  -0.6200 
 18 C       -4.2080    -5.1370     0.8980 C.ar  1 <1>   0.1600 
 19 C       -1.9380    -5.5860    -0.2680 C.ar  1 <1>   0.1600 
 20 N       -3.5690    -6.1890     1.3810 N.ar  1 <1>  -0.6200 
 21 C       -2.4170    -6.3860     0.7630 C.ar  1 <1>   0.1600 
 22 H       -4.2980     1.0150     0.9040 H     1 <1>   0.0800 
 23 H       -4.1900     1.3230    -0.8310 H     1 <1>   0.0800 
 24 H       -2.3970    -1.6710    -1.1900 H     1 <1>   0.0800 
 25 H       -1.9890    -1.8700     0.5050 H     1 <1>   0.0800 
 26 H        0.4610     2.3530    -0.6870 H     1 <1>   0.1500 
 27 H       -5.2010    -0.6820    -1.3720 H     1 <1>   0.0800 
 28 H       -4.2050    -1.9700     1.1700 H     1 <1>   0.0800 
 29 H       -3.0580     4.8550     1.2640 H     1 <1>   0.1500 
 30 H       -5.9360    -0.4910     1.3570 H     1 <1>   0.4000 
 31 H       -4.4390    -3.0310    -1.6670 H     1 <1>   0.0800 
 32 H       -5.5930    -3.3200    -0.4050 H     1 <1>   0.0800 
 33 H       -1.0550     5.9510     0.4630 H     1 <1>   0.1500 
 34 H       -5.1570    -4.9010     1.3440 H     1 <1>   0.1500 
 35 H       -0.9880    -5.8270    -0.7100 H     1 <1>   0.1500 
 36 H       -1.8220    -7.2210     1.0860 H     1 <1>   0.1500 
@<TRIPOS>BOND
  1   1   2  2   
  2   2   3  am  
  3   2   4  1   
  4   3   5  1   
  5   3   6  1   
  6   4   7  ar  
  7   4   8  ar  
  8   5   9  1   
  9   5  22  1   
 10   5  23  1   
 11   6  10  1   
 12   6  24  1   
 13   6  25  1   
 14   7  11  ar  
 15   8  12  ar  
 16   8  26  1   
 17   9  10  1   
 18   9  13  1   
 19   9  27  1   
 20  10  14  1   
 21  10  28  1   
 22  11  15  ar  
 23  11  29  1   
 24  12  15  ar  
 25  13  30  1   
 26  14  16  1   
 27  14  31  1   
 28  14  32  1   
 29  15  33  1   
 30  16  17  ar  
 31  16  18  ar  
 32  17  19  ar  
 33  18  20  ar  
 34  18  34  1   
 35  19  21  ar  
 36  19  35  1   
 37  20  21  ar  
 38  21  36  1   
@<TRIPOS>SUBSTRUCTURE
  1 ****   6 GROUP 4 **** **** 0

# MOE 2024.06 (io_trps.svl 2023.06)
