@<TRIPOS>MOLECULE
NONAME
51 53 1 0 0 
SMALL
USER_CHARGES


@<TRIPOS>ATOM
  1 F       -2.2160    -0.7890     0.7460 F     1 <1>  -0.3400 
  2 C       -2.3990     0.0740    -0.2430 C.3   1 <1>   1.1640 
  3 F       -1.2010     0.2320    -0.7960 F     1 <1>  -0.3400 
  4 F       -3.1310    -0.5440    -1.1600 F     1 <1>  -0.3400 
  5 C       -3.0220     1.4100     0.1980 C.ar  1 <1>  -0.1440 
  6 C       -4.0710     1.4490     1.1310 C.ar  1 <1>   0.0860 
  7 C       -2.5290     2.6030    -0.3260 C.ar  1 <1>  -0.1500 
  8 C       -4.7010     0.2710     1.7020 C.2   1 <1>   0.5440 
  9 C       -4.5360     2.6990     1.5440 C.ar  1 <1>  -0.1500 
 10 C       -3.0300     3.8260     0.0790 C.ar  1 <1>  -0.1500 
 11 O       -4.6430     0.1010     2.9030 O.2   1 <1>  -0.5700 
 12 N       -5.3650    -0.6700     0.9410 N.am  1 <1>  -0.6600 
 13 C       -4.0330     3.8740     1.0250 C.ar  1 <1>  -0.1500 
 14 C       -6.1820    -0.3980    -0.2840 C.3   1 <1>   0.2200 
 15 C       -5.2070    -2.1090     1.3170 C.3   1 <1>   0.0600 
 16 C       -6.7080     1.0340    -0.3800 C.3   1 <1>  -0.1600 
 17 C       -7.4680    -1.2240    -0.2930 C.3   1 <1>  -0.1600 
 18 C       -7.9520     0.9680    -1.2760 C.3   1 <1>  -0.0800 
 19 C       -8.4360    -0.4880    -1.2280 C.3   1 <1>  -0.0800 
 20 C       -9.1140     1.8290    -0.7620 C.3   1 <1>  -0.1600 
 21 C       -9.8750    -0.4530    -0.7000 C.3   1 <1>  -0.1600 
 22 C       -9.9540     0.8610     0.0690 C.3   1 <1>   0.4230 
 23 N      -11.3570     1.3070     0.3270 N.4   1 <1>  -0.9590 
 24 C      -12.1640     1.6270    -0.8960 C.3   1 <1>   0.2630 
 25 C      -11.3690     2.4660     1.2720 C.3   1 <1>   0.2630 
 26 H       -1.7360     2.6000    -1.0570 H     1 <1>   0.1500 
 27 H       -5.3100     2.7390     2.2920 H     1 <1>   0.1500 
 28 H       -2.6340     4.7380    -0.3350 H     1 <1>   0.1500 
 29 H       -4.4140     4.8240     1.3590 H     1 <1>   0.1500 
 30 H       -5.6120    -0.6330    -1.1670 H     1 <1>   0.0800 
 31 H       -5.0170    -2.7030     0.4400 H     1 <1>   0.0800 
 32 H       -6.0960    -2.4610     1.8090 H     1 <1>   0.0800 
 33 H       -4.3760    -2.2290     1.9930 H     1 <1>   0.0800 
 34 H       -6.9800     1.3750     0.6040 H     1 <1>   0.0800 
 35 H       -5.9750     1.6960    -0.8060 H     1 <1>   0.0800 
 36 H       -7.2890    -2.2270    -0.6380 H     1 <1>   0.0800 
 37 H       -7.8680    -1.2550     0.7060 H     1 <1>   0.0800 
 38 H       -7.6870     1.2410    -2.2850 H     1 <1>   0.0800 
 39 H       -8.3940    -0.9290    -2.2120 H     1 <1>   0.0800 
 40 H       -9.6610     2.1860    -1.6150 H     1 <1>   0.0800 
 41 H       -8.7670     2.6680    -0.1850 H     1 <1>   0.0800 
 42 H      -10.0970    -1.3010    -0.0770 H     1 <1>   0.0800 
 43 H      -10.5380    -0.4490    -1.5450 H     1 <1>   0.0800 
 44 H       -9.4490     0.7130     1.0110 H     1 <1>   0.0800 
 45 H      -11.8180     0.5160     0.8020 H     1 <1>   0.4500 
 46 H      -11.7360     2.4640    -1.4220 H     1 <1>   0.0800 
 47 H      -13.1750     1.8800    -0.6190 H     1 <1>   0.0800 
 48 H      -12.1980     0.7800    -1.5620 H     1 <1>   0.0800 
 49 H      -10.8960     3.3230     0.8190 H     1 <1>   0.0800 
 50 H      -10.8380     2.2180     2.1770 H     1 <1>   0.0800 
 51 H      -12.3830     2.7290     1.5300 H     1 <1>   0.0800 
@<TRIPOS>BOND
  1   1   2  1   
  2   2   3  1   
  3   2   4  1   
  4   2   5  1   
  5   5   6  ar  
  6   5   7  ar  
  7   6   8  1   
  8   6   9  ar  
  9   7  10  ar  
 10   7  26  1   
 11   8  11  2   
 12   8  12  am  
 13   9  13  ar  
 14   9  27  1   
 15  10  13  ar  
 16  10  28  1   
 17  12  14  1   
 18  12  15  1   
 19  13  29  1   
 20  14  16  1   
 21  14  17  1   
 22  14  30  1   
 23  15  31  1   
 24  15  32  1   
 25  15  33  1   
 26  16  18  1   
 27  16  34  1   
 28  16  35  1   
 29  17  19  1   
 30  17  36  1   
 31  17  37  1   
 32  18  19  1   
 33  18  20  1   
 34  18  38  1   
 35  19  21  1   
 36  19  39  1   
 37  20  22  1   
 38  20  40  1   
 39  20  41  1   
 40  21  22  1   
 41  21  42  1   
 42  21  43  1   
 43  22  23  1   
 44  22  44  1   
 45  23  24  1   
 46  23  25  1   
 47  23  45  1   
 48  24  46  1   
 49  24  47  1   
 50  24  48  1   
 51  25  49  1   
 52  25  50  1   
 53  25  51  1   
@<TRIPOS>SUBSTRUCTURE
  1 ****  16 GROUP 4 **** **** 0

# MOE 2024.06 (io_trps.svl 2023.06)
