@<TRIPOS>MOLECULE
NONAME
41 42 1 0 0 
SMALL
USER_CHARGES


@<TRIPOS>ATOM
  1 CL       0.3850    -0.3460    -1.1600 Cl    1 <1>  -0.1770 
  2 C        0.1220    -1.9580    -0.5400 C.ar  1 <1>   0.1770 
  3 C        1.1110    -2.9240    -0.6060 C.ar  1 <1>   0.1900 
  4 C       -1.0980    -2.2740     0.0280 C.ar  1 <1>  -0.1500 
  5 F        2.2690    -2.6340    -1.1390 F     1 <1>  -0.1900 
  6 C        0.9100    -4.2000    -0.1210 C.ar  1 <1>  -0.1500 
  7 C       -1.3070    -3.5550     0.5170 C.ar  1 <1>  -0.1500 
  8 C       -0.3180    -4.5430     0.4450 C.ar  1 <1>   0.0860 
  9 C       -0.5430    -5.8830     0.9520 C.2   1 <1>   0.5440 
 10 O        0.2170    -6.3410     1.7810 O.2   1 <1>  -0.5700 
 11 N       -1.5880    -6.6610     0.5100 N.am  1 <1>  -0.6600 
 12 C       -2.3910    -6.4100    -0.7140 C.3   1 <1>   0.1400 
 13 C       -1.8070    -8.0520     0.9890 C.3   1 <1>   0.1400 
 14 C       -3.4620    -7.4970    -0.6890 C.3   1 <1>   0.2000 
 15 C       -2.7590    -8.6880    -0.0340 C.3   1 <1>  -0.0800 
 16 O       -4.4920    -7.0660     0.1340 O.3   1 <1>  -0.6800 
 17 C       -3.7220    -9.7430     0.5560 C.3   1 <1>  -0.0550 
 18 S       -2.9180   -11.2320     1.1480 S.o2  1 <1>   1.3330 
 19 O       -3.9260   -12.2180     1.4660 O.2   1 <1>  -0.6500 
 20 O       -1.9510   -10.8520     2.1520 O.2   1 <1>  -0.6500 
 21 N       -2.0700   -11.7840    -0.2170 N.am  1 <1>  -0.8490 
 22 C       -2.8950   -12.5850    -1.1280 C.3   1 <1>   0.1160 
 23 C       -0.8610   -12.5300     0.1450 C.3   1 <1>   0.1160 
 24 H       -1.8680    -1.5250     0.0890 H     1 <1>   0.1500 
 25 H        1.6980    -4.9300    -0.1760 H     1 <1>   0.1500 
 26 H       -2.2530    -3.8010     0.9720 H     1 <1>   0.1500 
 27 H       -2.8290    -5.4280    -0.7260 H     1 <1>   0.0800 
 28 H       -1.7610    -6.5370    -1.5780 H     1 <1>   0.0800 
 29 H       -0.8740    -8.5900     1.0460 H     1 <1>   0.0800 
 30 H       -2.2500    -8.0190     1.9700 H     1 <1>   0.0800 
 31 H       -3.8680    -7.7170    -1.6620 H     1 <1>   0.0800 
 32 H       -2.1510    -9.1580    -0.7870 H     1 <1>   0.0800 
 33 H       -4.1060    -6.7410     0.9730 H     1 <1>   0.4000 
 34 H       -4.4310   -10.0140    -0.2010 H     1 <1>   0.0800 
 35 H       -4.2760    -9.3080     1.3660 H     1 <1>   0.0800 
 36 H       -2.3370   -12.8300    -2.0150 H     1 <1>   0.0800 
 37 H       -3.7710   -12.0320    -1.4190 H     1 <1>   0.0800 
 38 H       -3.2080   -13.4980    -0.6480 H     1 <1>   0.0800 
 39 H       -0.3430   -12.8570    -0.7400 H     1 <1>   0.0800 
 40 H       -1.1170   -13.3890     0.7450 H     1 <1>   0.0800 
 41 H       -0.1940   -11.9010     0.7110 H     1 <1>   0.0800 
@<TRIPOS>BOND
  1   1   2  1   
  2   2   3  ar  
  3   2   4  ar  
  4   3   5  1   
  5   3   6  ar  
  6   4   7  ar  
  7   4  24  1   
  8   6   8  ar  
  9   6  25  1   
 10   7   8  ar  
 11   7  26  1   
 12   8   9  1   
 13   9  10  2   
 14   9  11  am  
 15  11  12  1   
 16  11  13  1   
 17  12  14  1   
 18  12  27  1   
 19  12  28  1   
 20  13  15  1   
 21  13  29  1   
 22  13  30  1   
 23  14  15  1   
 24  14  16  1   
 25  14  31  1   
 26  15  17  1   
 27  15  32  1   
 28  16  33  1   
 29  17  18  1   
 30  17  34  1   
 31  17  35  1   
 32  18  19  2   
 33  18  20  2   
 34  18  21  am  
 35  21  22  1   
 36  21  23  1   
 37  22  36  1   
 38  22  37  1   
 39  22  38  1   
 40  23  39  1   
 41  23  40  1   
 42  23  41  1   
@<TRIPOS>SUBSTRUCTURE
  1 ****  11 GROUP 4 **** **** 0

# MOE 2024.06 (io_trps.svl 2023.06)
