@<TRIPOS>MOLECULE
NONAME
51 53 1 0 0 
SMALL
USER_CHARGES


@<TRIPOS>ATOM
  1 CL       2.3770     1.5920     3.5050 Cl    1 <1>  -0.1770 
  2 C        2.5930     2.1190     1.8560 C.ar  1 <1>   0.1770 
  3 C        2.9240     3.4350     1.6040 C.ar  1 <1>  -0.1500 
  4 C        2.4300     1.2090     0.8280 C.ar  1 <1>  -0.1500 
  5 C        3.1020     3.8570     0.2970 C.ar  1 <1>   0.0830 
  6 C        2.6010     1.6290    -0.4800 C.ar  1 <1>  -0.1500 
  7 O        3.4380     5.1580     0.1200 O.3   1 <1>  -0.3630 
  8 C        2.9360     2.9480    -0.7480 C.ar  1 <1>  -0.1500 
  9 C        3.7230     5.6780    -1.1700 C.3   1 <1>   0.1810 
 10 C        4.1170     7.1540    -1.1090 C.2   1 <1>   0.5690 
 11 O        3.5950     7.8900    -1.9120 O.2   1 <1>  -0.5700 
 12 N        5.0560     7.6470    -0.2260 N.am  1 <1>  -0.6600 
 13 C        5.9770     6.8240     0.6220 C.3   1 <1>   0.1400 
 14 C        5.1200     9.1120     0.0330 C.3   1 <1>   0.1400 
 15 C        7.4520     6.9130     0.1700 C.3   1 <1>   0.3430 
 16 C        6.1130     9.7840    -0.9170 C.3   1 <1>  -0.1600 
 17 N        7.9360     8.3100    -0.0910 N.4   1 <1>  -0.9590 
 18 C        7.3160     8.9250    -1.3010 C.3   1 <1>   0.3430 
 19 C        9.4210     8.4350    -0.1130 C.3   1 <1>   0.5230 
 20 C        9.7760     9.8350     0.3640 C.2   1 <1>   0.0060 
 21 N        8.9660    10.5760     1.0400 N.2   1 <1>  -0.3380 
 22 N       10.9400    10.4590     0.1520 N.pl3 1 <1>   0.0330 
 23 N        9.5930    11.7240     1.2770 N.2   1 <1>  -0.3380 
 24 C       10.7630    11.6390     0.7460 C.2   1 <1>   0.0060 
 25 C       11.8130    12.7360     0.7880 C.3   1 <1>   0.0200 
 26 C       12.1360    13.2630    -0.6150 C.3   1 <1>  -0.2400 
 27 H        3.0400     4.1260     2.4190 H     1 <1>   0.1500 
 28 H        2.1700     0.1900     1.0530 H     1 <1>   0.1500 
 29 H        2.4730     0.9290    -1.2890 H     1 <1>   0.1500 
 30 H        3.0550     3.2410    -1.7740 H     1 <1>   0.1500 
 31 H        2.8370     5.5770    -1.7710 H     1 <1>   0.0800 
 32 H        4.5230     5.1080    -1.6020 H     1 <1>   0.0800 
 33 H        5.6900     5.7900     0.6050 H     1 <1>   0.0800 
 34 H        5.8960     7.1490     1.6450 H     1 <1>   0.0800 
 35 H        5.4100     9.2870     1.0550 H     1 <1>   0.0800 
 36 H        4.1430     9.5520    -0.0990 H     1 <1>   0.0800 
 37 H        7.5710     6.3230    -0.7230 H     1 <1>   0.0800 
 38 H        8.0590     6.4600     0.9380 H     1 <1>   0.0800 
 39 H        6.4480    10.7100    -0.4840 H     1 <1>   0.0800 
 40 H        5.5890    10.0400    -1.8210 H     1 <1>   0.0800 
 41 H        7.6650     8.9270     0.6960 H     1 <1>   0.4500 
 42 H        8.0300     9.5500    -1.8130 H     1 <1>   0.0800 
 43 H        6.9960     8.1510    -1.9810 H     1 <1>   0.0800 
 44 H        9.7990     8.2610    -1.1060 H     1 <1>   0.0800 
 45 H        9.8620     7.7210     0.5620 H     1 <1>   0.0800 
 46 H       11.7830    10.1510    -0.3390 H     1 <1>   0.2700 
 47 H       12.7070    12.3620     1.2560 H     1 <1>   0.0800 
 48 H       11.4440    13.5470     1.3920 H     1 <1>   0.0800 
 49 H       12.5580    12.4890    -1.2300 H     1 <1>   0.0800 
 50 H       12.8430    14.0700    -0.5470 H     1 <1>   0.0800 
 51 H       11.2400    13.6330    -1.0820 H     1 <1>   0.0800 
@<TRIPOS>BOND
  1   1   2  1   
  2   2   3  ar  
  3   2   4  ar  
  4   3   5  ar  
  5   3  27  1   
  6   4   6  ar  
  7   4  28  1   
  8   5   7  1   
  9   5   8  ar  
 10   6   8  ar  
 11   6  29  1   
 12   7   9  1   
 13   8  30  1   
 14   9  10  1   
 15   9  31  1   
 16   9  32  1   
 17  10  11  2   
 18  10  12  am  
 19  12  13  1   
 20  12  14  1   
 21  13  15  1   
 22  13  33  1   
 23  13  34  1   
 24  14  16  1   
 25  14  35  1   
 26  14  36  1   
 27  15  17  1   
 28  15  37  1   
 29  15  38  1   
 30  16  18  1   
 31  16  39  1   
 32  16  40  1   
 33  17  18  1   
 34  17  19  1   
 35  17  41  1   
 36  18  42  1   
 37  18  43  1   
 38  19  20  1   
 39  19  44  1   
 40  19  45  1   
 41  20  21  2   
 42  20  22  1   
 43  21  23  1   
 44  22  24  1   
 45  22  46  1   
 46  23  24  2   
 47  24  25  1   
 48  25  26  1   
 49  25  47  1   
 50  25  48  1   
 51  26  49  1   
 52  26  50  1   
 53  26  51  1   
@<TRIPOS>SUBSTRUCTURE
  1 ****  13 GROUP 4 **** **** 0

# MOE 2024.06 (io_trps.svl 2023.06)
