@<TRIPOS>MOLECULE
NONAME
45 46 1 0 0 
SMALL
USER_CHARGES


@<TRIPOS>ATOM
  1 F        0.0020    -1.6570     0.3760 F     1 <1>  -0.1900 
  2 C       -1.2800    -1.6760     0.1120 C.ar  1 <1>   0.1900 
  3 C       -2.1050    -0.5830     0.4060 C.ar  1 <1>   0.0820 
  4 C       -1.7680    -2.8300    -0.4650 C.ar  1 <1>  -0.1500 
  5 O       -1.7390     0.5970     0.9710 O.3   1 <1>  -0.3630 
  6 C       -3.4500    -0.7010     0.0880 C.ar  1 <1>  -0.1500 
  7 C       -3.1220    -2.9470    -0.7740 C.ar  1 <1>   0.0860 
  8 C       -0.4080     0.9170     1.3100 C.3   1 <1>   0.0400 
  9 C       -3.9460    -1.8560    -0.4910 C.ar  1 <1>  -0.1500 
 10 C       -3.6410    -4.1540    -1.3830 C.2   1 <1>   0.5440 
 11 O       -3.1830    -4.5110    -2.4520 O.2   1 <1>  -0.5700 
 12 N       -4.6350    -4.9060    -0.7950 N.am  1 <1>  -0.6600 
 13 C       -5.3180    -5.9960    -1.5770 C.3   1 <1>   0.1400 
 14 C       -5.0960    -4.7310     0.6210 C.3   1 <1>   0.1400 
 15 C       -6.1580    -6.9060    -0.6680 C.3   1 <1>   0.2000 
 16 C       -6.6250    -4.7660     0.6440 C.3   1 <1>  -0.1600 
 17 O       -6.7820    -7.9050    -1.3950 O.3   1 <1>  -0.6800 
 18 C       -7.1920    -6.1600     0.2200 C.3   1 <1>  -0.1060 
 19 C       -7.3420    -7.1080     1.4240 C.2   1 <1>   0.9060 
 20 C       -8.6020    -5.9450    -0.4230 C.3   1 <1>  -0.1600 
 21 O       -6.9480    -6.7650     2.5450 O.co2 1 <1>  -0.9000 
 22 O       -7.8020    -8.2420     1.2170 O.co2 1 <1>  -0.9000 
 23 C       -8.6460    -5.2730    -1.8100 C.3   1 <1>  -0.1600 
 24 C      -10.0920    -5.0240    -2.2480 C.3   1 <1>  -0.2400 
 25 H       -1.1050    -3.6470    -0.6830 H     1 <1>   0.1500 
 26 H       -4.1080     0.1250     0.2980 H     1 <1>   0.1500 
 27 H       -0.3950     1.9140     1.7110 H     1 <1>   0.0800 
 28 H        0.2000     0.8720     0.4240 H     1 <1>   0.0800 
 29 H       -0.0590     0.2210     2.0530 H     1 <1>   0.0800 
 30 H       -4.9920    -1.9250    -0.7350 H     1 <1>   0.1500 
 31 H       -5.9440    -5.5440    -2.3220 H     1 <1>   0.0800 
 32 H       -4.5740    -6.5950    -2.0730 H     1 <1>   0.0800 
 33 H       -4.7070    -5.5300     1.2320 H     1 <1>   0.0800 
 34 H       -4.7510    -3.8030     1.0370 H     1 <1>   0.0800 
 35 H       -5.4570    -7.4140    -0.0250 H     1 <1>   0.0800 
 36 H       -6.9720    -4.5110     1.6300 H     1 <1>   0.0800 
 37 H       -6.9700    -3.9850    -0.0040 H     1 <1>   0.0800 
 38 H       -7.3250    -8.4050    -0.7300 H     1 <1>   0.4000 
 39 H       -9.0900    -6.9010    -0.5130 H     1 <1>   0.0800 
 40 H       -9.1950    -5.3700     0.2680 H     1 <1>   0.0800 
 41 H       -8.1200    -4.3370    -1.8050 H     1 <1>   0.0800 
 42 H       -8.1760    -5.9170    -2.5330 H     1 <1>   0.0800 
 43 H      -10.5860    -4.3660    -1.5560 H     1 <1>   0.0800 
 44 H      -10.6320    -5.9540    -2.2890 H     1 <1>   0.0800 
 45 H      -10.1080    -4.5740    -3.2250 H     1 <1>   0.0800 
@<TRIPOS>BOND
  1   1   2  1   
  2   2   3  ar  
  3   2   4  ar  
  4   3   5  1   
  5   3   6  ar  
  6   4   7  ar  
  7   4  25  1   
  8   5   8  1   
  9   6   9  ar  
 10   6  26  1   
 11   7   9  ar  
 12   7  10  1   
 13   8  27  1   
 14   8  28  1   
 15   8  29  1   
 16   9  30  1   
 17  10  11  2   
 18  10  12  am  
 19  12  13  1   
 20  12  14  1   
 21  13  15  1   
 22  13  31  1   
 23  13  32  1   
 24  14  16  1   
 25  14  33  1   
 26  14  34  1   
 27  15  17  1   
 28  15  18  1   
 29  15  35  1   
 30  16  18  1   
 31  16  36  1   
 32  16  37  1   
 33  17  38  1   
 34  18  19  1   
 35  18  20  1   
 36  19  21  ar  
 37  19  22  ar  
 38  20  23  1   
 39  20  39  1   
 40  20  40  1   
 41  23  24  1   
 42  23  41  1   
 43  23  42  1   
 44  24  43  1   
 45  24  44  1   
 46  24  45  1   
@<TRIPOS>SUBSTRUCTURE
  1 ****  12 GROUP 4 **** **** 0

# MOE 2024.06 (io_trps.svl 2023.06)
