@<TRIPOS>MOLECULE
NONAME
18 19 1 0 0 
SMALL
USER_CHARGES


@<TRIPOS>ATOM
  1 N        3.5590    -0.1390    -0.9200 N.2   1 <1>  -0.2110 
  2 N        3.0390     0.1390     0.1720 N.2   1 <1>  -0.2110 
  3 C        4.4420     0.1550     0.1340 C.3   1 <1>   0.2320 
  4 C        5.2370    -1.0000     0.7570 C.3   1 <1>   0.4380 
  5 C        5.2050     1.4840     0.1180 C.3   1 <1>  -0.0650 
  6 N        6.5890    -1.1200     0.1150 N.4   1 <1>  -0.9060 
  7 C        6.6160     1.2900    -0.4660 C.3   1 <1>  -0.1600 
  8 C        7.3830     0.1400     0.2010 C.3   1 <1>   0.3430 
  9 H        4.6820    -1.9150     0.6260 H     1 <1>   0.0800 
 10 H        5.3450    -0.8200     1.8140 H     1 <1>   0.0800 
 11 H        5.2720     1.8620     1.1230 H     1 <1>   0.0800 
 12 H        4.6650     2.2100    -0.4670 H     1 <1>   0.0800 
 13 H        6.4470    -1.3560    -0.8770 H     1 <1>   0.4500 
 14 H        7.1100    -1.9000     0.5370 H     1 <1>   0.4500 
 15 H        7.1760     2.2020    -0.3450 H     1 <1>   0.0800 
 16 H        6.5450     1.1020    -1.5240 H     1 <1>   0.0800 
 17 H        8.3360     0.0110    -0.2900 H     1 <1>   0.0800 
 18 H        7.5700     0.3850     1.2350 H     1 <1>   0.0800 
@<TRIPOS>BOND
  1   1   2  2   
  2   1   3  1   
  3   2   3  1   
  4   3   4  1   
  5   3   5  1   
  6   4   6  1   
  7   4   9  1   
  8   4  10  1   
  9   5   7  1   
 10   5  11  1   
 11   5  12  1   
 12   6   8  1   
 13   6  13  1   
 14   6  14  1   
 15   7   8  1   
 16   7  15  1   
 17   7  16  1   
 18   8  17  1   
 19   8  18  1   
@<TRIPOS>SUBSTRUCTURE
  1 ****   3 GROUP 4 **** **** 0

# MOE 2024.06 (io_trps.svl 2023.06)
