@<TRIPOS>MOLECULE
NONAME
56 58 1 0 0 
SMALL
USER_CHARGES


@<TRIPOS>ATOM
  1 S       -0.3550    -0.0310    -0.5350 S.o2  1 <1>   1.0900 
  2 O       -0.2200    -1.4260    -0.2040 O.2   1 <1>  -0.6500 
  3 O       -0.8820     0.4130    -1.8030 O.2   1 <1>  -0.6500 
  4 C        1.2250     0.7780    -0.3000 C.3   1 <1>  -0.0550 
  5 C       -1.2960     0.7850     0.7510 C.3   1 <1>  -0.0550 
  6 C        1.1120     2.3130    -0.3880 C.3   1 <1>  -0.1600 
  7 C       -1.2690     2.3200     0.6080 C.3   1 <1>  -0.1600 
  8 C        0.1560     2.9020     0.6750 C.3   1 <1>   0.4230 
  9 N        0.0770     4.3900     0.5830 N.4   1 <1>  -0.9590 
 10 C       -0.3280     4.9100    -0.7670 C.3   1 <1>   0.3430 
 11 C        1.3380     5.0370     1.0660 C.3   1 <1>   0.3430 
 12 C       -0.5380     6.4200    -0.7060 C.3   1 <1>  -0.1600 
 13 C        1.1450     6.5440     1.1520 C.3   1 <1>  -0.1600 
 14 C        0.7300     7.1000    -0.2060 C.3   1 <1>   0.2890 
 15 N        0.4860     8.5380    -0.0640 N.pl3 1 <1>  -0.8690 
 16 C        1.4550     9.5020    -0.2240 C.ar  1 <1>   0.4100 
 17 N        2.6960     9.0820    -0.3600 N.ar  1 <1>  -0.6200 
 18 C        1.1360    10.8550    -0.2370 C.ar  1 <1>  -0.1430 
 19 C        3.6090    10.0180    -0.5120 C.ar  1 <1>   0.4770 
 20 C        2.1860    11.7260    -0.4030 C.ar  1 <1>   0.1600 
 21 C       -0.3180    11.3110    -0.0700 C.3   1 <1>  -0.0170 
 22 N        3.4320    11.3230    -0.5430 N.ar  1 <1>  -0.6200 
 23 C        5.0360     9.5510    -0.6700 C.3   1 <1>  -0.0970 
 24 C       -0.5360    12.8320    -0.0650 C.3   1 <1>  -0.1600 
 25 C       -2.0170    13.1810     0.1190 C.3   1 <1>  -0.2400 
 26 H        1.9060     0.4340    -1.0570 H     1 <1>   0.0800 
 27 H        1.6360     0.4980     0.6510 H     1 <1>   0.0800 
 28 H       -0.9120     0.5030     1.7140 H     1 <1>   0.0800 
 29 H       -2.3150     0.4470     0.7030 H     1 <1>   0.0800 
 30 H        0.7660     2.5530    -1.3790 H     1 <1>   0.0800 
 31 H        2.0980     2.7230    -0.2660 H     1 <1>   0.0800 
 32 H       -1.8670     2.7400     1.3980 H     1 <1>   0.0800 
 33 H       -1.7310     2.5660    -0.3330 H     1 <1>   0.0800 
 34 H        0.5560     2.6490     1.6450 H     1 <1>   0.0800 
 35 H       -0.6590     4.6870     1.2380 H     1 <1>   0.4500 
 36 H       -1.2410     4.4400    -1.0940 H     1 <1>   0.0800 
 37 H        0.4410     4.6900    -1.4910 H     1 <1>   0.0800 
 38 H        2.1480     4.8220     0.3870 H     1 <1>   0.0800 
 39 H        1.6030     4.6580     2.0410 H     1 <1>   0.0800 
 40 H       -1.3690     6.6430    -0.0610 H     1 <1>   0.0800 
 41 H       -0.7660     6.7800    -1.6930 H     1 <1>   0.0800 
 42 H        2.0750     6.9980     1.4460 H     1 <1>   0.0800 
 43 H        0.4090     6.7810     1.8980 H     1 <1>   0.0800 
 44 H        1.5220     6.9400    -0.9210 H     1 <1>   0.0800 
 45 H       -0.4860     8.8480    -0.0600 H     1 <1>   0.4000 
 46 H        2.0290    12.7890    -0.4260 H     1 <1>   0.1500 
 47 H       -0.6910    10.9130     0.8580 H     1 <1>   0.0800 
 48 H       -0.8990    10.8870    -0.8700 H     1 <1>   0.0800 
 49 H        5.0840     8.4790    -0.7010 H     1 <1>   0.0800 
 50 H        5.6190     9.9060     0.1580 H     1 <1>   0.0800 
 51 H        5.4420     9.9470    -1.5820 H     1 <1>   0.0800 
 52 H       -0.1930    13.2510    -0.9960 H     1 <1>   0.0800 
 53 H        0.0280    13.2760     0.7390 H     1 <1>   0.0800 
 54 H       -2.6050    12.7700    -0.6830 H     1 <1>   0.0800 
 55 H       -2.1440    14.2490     0.1190 H     1 <1>   0.0800 
 56 H       -2.3840    12.7950     1.0540 H     1 <1>   0.0800 
@<TRIPOS>BOND
  1   1   2  2   
  2   1   3  2   
  3   1   4  1   
  4   1   5  1   
  5   4   6  1   
  6   4  26  1   
  7   4  27  1   
  8   5   7  1   
  9   5  28  1   
 10   5  29  1   
 11   6   8  1   
 12   6  30  1   
 13   6  31  1   
 14   7   8  1   
 15   7  32  1   
 16   7  33  1   
 17   8   9  1   
 18   8  34  1   
 19   9  10  1   
 20   9  11  1   
 21   9  35  1   
 22  10  12  1   
 23  10  36  1   
 24  10  37  1   
 25  11  13  1   
 26  11  38  1   
 27  11  39  1   
 28  12  14  1   
 29  12  40  1   
 30  12  41  1   
 31  13  14  1   
 32  13  42  1   
 33  13  43  1   
 34  14  15  1   
 35  14  44  1   
 36  15  16  1   
 37  15  45  1   
 38  16  17  ar  
 39  16  18  ar  
 40  17  19  ar  
 41  18  20  ar  
 42  18  21  1   
 43  19  22  ar  
 44  19  23  1   
 45  20  22  ar  
 46  20  46  1   
 47  21  24  1   
 48  21  47  1   
 49  21  48  1   
 50  23  49  1   
 51  23  50  1   
 52  23  51  1   
 53  24  25  1   
 54  24  52  1   
 55  24  53  1   
 56  25  54  1   
 57  25  55  1   
 58  25  56  1   
@<TRIPOS>SUBSTRUCTURE
  1 ****  14 GROUP 4 **** **** 0

# MOE 2024.06 (io_trps.svl 2023.06)
