@<TRIPOS>MOLECULE
NONAME
51 53 1 0 0 
SMALL
USER_CHARGES


@<TRIPOS>ATOM
  1 O        1.3480     0.9450    -0.8360 O.3   1 <1>  -0.6800 
  2 C        1.5860     0.2540     0.3360 C.3   1 <1>   0.2800 
  3 C        3.1180     0.1220     0.5330 C.3   1 <1>  -0.0800 
  4 C        0.9600    -1.1440     0.1900 C.3   1 <1>  -0.1600 
  5 C        0.8840     1.0260     1.4750 C.3   1 <1>  -0.1600 
  6 C        3.7890    -1.0590    -0.2040 C.3   1 <1>  -0.0800 
  7 C        3.8990     1.3420     0.0670 C.3   1 <1>   0.3430 
  8 C        1.5360    -1.9910    -0.9630 C.3   1 <1>  -0.1600 
  9 C        1.3430     2.4770     1.7070 C.3   1 <1>  -0.2400 
 10 C        2.9560    -1.5820    -1.3850 C.3   1 <1>  -0.1600 
 11 C        5.1440    -0.5350    -0.6940 C.3   1 <1>   0.3430 
 12 N        5.2750     0.8430    -0.1600 N.4   1 <1>  -0.9590 
 13 C        6.0750     1.7630    -1.0080 C.3   1 <1>   0.4860 
 14 C        6.2650     3.0620    -0.2410 C.ar  1 <1>  -0.1440 
 15 C        7.1510     3.1130     0.8370 C.ar  1 <1>  -0.1440 
 16 C        5.5450     4.2010    -0.6040 C.ar  1 <1>  -0.1440 
 17 C        7.2780     4.2880     1.5590 C.ar  1 <1>  -0.1500 
 18 C        8.0110     1.9290     1.2680 C.3   1 <1>  -0.0970 
 19 C        5.6920     5.3640     0.1350 C.ar  1 <1>  -0.1500 
 20 C        4.5960     4.2400    -1.7990 C.3   1 <1>  -0.0970 
 21 C        6.5500     5.4080     1.2140 C.ar  1 <1>  -0.1500 
 22 H        0.3860     0.9570    -1.0110 H     1 <1>   0.4000 
 23 H        3.3070    -0.0080     1.5840 H     1 <1>   0.0800 
 24 H        1.1340    -1.6770     1.1090 H     1 <1>   0.0800 
 25 H       -0.1080    -1.0690     0.0800 H     1 <1>   0.0800 
 26 H       -0.1750     1.0370     1.2800 H     1 <1>   0.0800 
 27 H        1.0160     0.4830     2.3950 H     1 <1>   0.0800 
 28 H        3.9470    -1.8710     0.4860 H     1 <1>   0.0800 
 29 H        3.8800     2.1430     0.7880 H     1 <1>   0.0800 
 30 H        3.4870     1.6950    -0.8640 H     1 <1>   0.0800 
 31 H        1.5330    -3.0260    -0.6640 H     1 <1>   0.0800 
 32 H        0.8910    -1.9080    -1.8220 H     1 <1>   0.0800 
 33 H        1.3070     3.0450     0.7940 H     1 <1>   0.0800 
 34 H        2.3370     2.5120     2.1110 H     1 <1>   0.0800 
 35 H        0.6870     2.9510     2.4180 H     1 <1>   0.0800 
 36 H        2.8760    -0.8080    -2.1310 H     1 <1>   0.0800 
 37 H        3.4440    -2.4240    -1.8480 H     1 <1>   0.0800 
 38 H        5.1460    -0.5120    -1.7720 H     1 <1>   0.0800 
 39 H        5.9510    -1.1630    -0.3530 H     1 <1>   0.0800 
 40 H        5.7300     0.8210     0.7590 H     1 <1>   0.4500 
 41 H        7.0380     1.3300    -1.2230 H     1 <1>   0.0800 
 42 H        5.5690     1.9410    -1.9410 H     1 <1>   0.0800 
 43 H        7.9510     4.3460     2.3980 H     1 <1>   0.1500 
 44 H        8.8380     2.2670     1.8670 H     1 <1>   0.0800 
 45 H        8.4240     1.4170     0.4190 H     1 <1>   0.0800 
 46 H        7.4360     1.2410     1.8610 H     1 <1>   0.0800 
 47 H        5.1400     6.2520    -0.1240 H     1 <1>   0.1500 
 48 H        4.2930     5.2500    -2.0090 H     1 <1>   0.0800 
 49 H        3.7090     3.6680    -1.6020 H     1 <1>   0.0800 
 50 H        5.0800     3.8620    -2.6810 H     1 <1>   0.0800 
 51 H        6.6570     6.3170     1.7820 H     1 <1>   0.1500 
@<TRIPOS>BOND
  1   1   2  1   
  2   1  22  1   
  3   2   3  1   
  4   2   4  1   
  5   2   5  1   
  6   3   6  1   
  7   3   7  1   
  8   3  23  1   
  9   4   8  1   
 10   4  24  1   
 11   4  25  1   
 12   5   9  1   
 13   5  26  1   
 14   5  27  1   
 15   6  10  1   
 16   6  11  1   
 17   6  28  1   
 18   7  12  1   
 19   7  29  1   
 20   7  30  1   
 21   8  10  1   
 22   8  31  1   
 23   8  32  1   
 24   9  33  1   
 25   9  34  1   
 26   9  35  1   
 27  10  36  1   
 28  10  37  1   
 29  11  12  1   
 30  11  38  1   
 31  11  39  1   
 32  12  13  1   
 33  12  40  1   
 34  13  14  1   
 35  13  41  1   
 36  13  42  1   
 37  14  15  ar  
 38  14  16  ar  
 39  15  17  ar  
 40  15  18  1   
 41  16  19  ar  
 42  16  20  1   
 43  17  21  ar  
 44  17  43  1   
 45  18  44  1   
 46  18  45  1   
 47  18  46  1   
 48  19  21  ar  
 49  19  47  1   
 50  20  48  1   
 51  20  49  1   
 52  20  50  1   
 53  21  51  1   
@<TRIPOS>SUBSTRUCTURE
  1 ****   7 GROUP 4 **** **** 0

# MOE 2024.06 (io_trps.svl 2023.06)
