@<TRIPOS>MOLECULE
NONAME
41 42 1 0 0 
SMALL
USER_CHARGES


@<TRIPOS>ATOM
  1 O        3.0090    -0.7820    -1.5090 O.2   1 <1>  -0.5700 
  2 C        2.3390    -0.9090    -0.5150 C.2   1 <1>   0.5690 
  3 N        1.8590     0.1390     0.2180 N.am  1 <1>  -0.4940 
  4 C        1.9850    -2.3070    -0.0620 C.3   1 <1>  -0.0990 
  5 C        1.9730     1.5360     0.0200 C.2   1 <1>  -0.0880 
  6 C        0.8000    -2.8610    -0.8600 C.3   1 <1>  -0.0160 
  7 N        3.0790     2.2480    -0.3580 N.pl3 1 <1>   0.3140 
  8 C        0.9840     2.4430     0.2100 C.2   1 <1>  -0.1810 
  9 C        0.4100    -4.2380    -0.3360 C.ar  1 <1>  -0.1440 
 10 N        2.8090     3.5750    -0.4020 N.2   1 <1>  -0.7070 
 11 C        4.4650     1.7880    -0.6100 C.3   1 <1>   0.0960 
 12 C        1.5620     3.6750    -0.0680 C.2   1 <1>   0.1390 
 13 C       -0.4590     2.2280     0.6270 C.3   1 <1>  -0.0590 
 14 C       -0.5790    -4.4260     0.6280 C.ar  1 <1>  -0.1440 
 15 C        1.0830    -5.3390    -0.8460 C.ar  1 <1>  -0.1500 
 16 C        5.1210     1.2140     0.6540 C.3   1 <1>  -0.2400 
 17 C       -0.8720    -5.7120     1.0590 C.ar  1 <1>  -0.1500 
 18 C       -1.3590    -3.2660     1.2290 C.3   1 <1>  -0.0970 
 19 C        0.7840    -6.6160    -0.4100 C.ar  1 <1>  -0.1500 
 20 C       -0.1960    -6.8030     0.5450 C.ar  1 <1>  -0.1500 
 21 H        1.2320    -0.1190     0.9780 H     1 <1>   0.3700 
 22 H        1.7540    -2.3060     0.9870 H     1 <1>   0.0800 
 23 H        2.8410    -2.9420    -0.2070 H     1 <1>   0.0800 
 24 H        1.0780    -2.9360    -1.8980 H     1 <1>   0.0800 
 25 H       -0.0320    -2.1830    -0.8100 H     1 <1>   0.0800 
 26 H        5.0340     2.6360    -0.9480 H     1 <1>   0.0800 
 27 H        4.4610     1.0690    -1.4040 H     1 <1>   0.0800 
 28 H        1.0430     4.6170    -0.0150 H     1 <1>   0.1500 
 29 H       -0.7040     1.1830     0.6310 H     1 <1>   0.0800 
 30 H       -1.1140     2.7300    -0.0630 H     1 <1>   0.0800 
 31 H       -0.6180     2.6290     1.6120 H     1 <1>   0.0800 
 32 H        1.8480    -5.2060    -1.5910 H     1 <1>   0.1500 
 33 H        5.1200     1.9520     1.4370 H     1 <1>   0.0800 
 34 H        6.1380     0.9420     0.4390 H     1 <1>   0.0800 
 35 H        4.5980     0.3370     0.9860 H     1 <1>   0.0800 
 36 H       -1.6340    -5.8760     1.8010 H     1 <1>   0.1500 
 37 H       -0.6860    -2.5300     1.6280 H     1 <1>   0.0800 
 38 H       -1.9960    -3.6030     2.0270 H     1 <1>   0.0800 
 39 H       -1.9770    -2.8120     0.4760 H     1 <1>   0.0800 
 40 H        1.3130    -7.4620    -0.8140 H     1 <1>   0.1500 
 41 H       -0.4330    -7.7950     0.8870 H     1 <1>   0.1500 
@<TRIPOS>BOND
  1   1   2  2   
  2   2   3  am  
  3   2   4  1   
  4   3   5  1   
  5   3  21  1   
  6   4   6  1   
  7   4  22  1   
  8   4  23  1   
  9   5   7  1   
 10   5   8  2   
 11   6   9  1   
 12   6  24  1   
 13   6  25  1   
 14   7  10  1   
 15   7  11  1   
 16   8  12  1   
 17   8  13  1   
 18   9  14  ar  
 19   9  15  ar  
 20  10  12  2   
 21  11  16  1   
 22  11  26  1   
 23  11  27  1   
 24  12  28  1   
 25  13  29  1   
 26  13  30  1   
 27  13  31  1   
 28  14  17  ar  
 29  14  18  1   
 30  15  19  ar  
 31  15  32  1   
 32  16  33  1   
 33  16  34  1   
 34  16  35  1   
 35  17  20  ar  
 36  17  36  1   
 37  18  37  1   
 38  18  38  1   
 39  18  39  1   
 40  19  20  ar  
 41  19  40  1   
 42  20  41  1   
@<TRIPOS>SUBSTRUCTURE
  1 ****   2 GROUP 4 **** **** 0

# MOE 2024.06 (io_trps.svl 2023.06)
