@<TRIPOS>MOLECULE
NONAME
50 53 1 0 0 
SMALL
USER_CHARGES


@<TRIPOS>ATOM
  1 O       -1.0900     0.6320     0.4870 O.2   1 <1>  -0.5700 
  2 C       -0.7890     1.7870     0.6420 C.2   1 <1>   0.5690 
  3 N       -1.7410     2.7430     0.7010 N.am  1 <1>  -0.7300 
  4 C        0.6850     2.1910     0.7370 C.3   1 <1>   0.1810 
  5 C       -1.4560     4.1730     0.9590 C.3   1 <1>   0.3640 
  6 O        0.8850     3.4730     1.3000 O.3   1 <1>  -0.5600 
  7 C       -2.2890     5.0140    -0.0010 C.ar  1 <1>  -0.1440 
  8 C        0.0530     4.5020     0.7860 C.3   1 <1>   0.2610 
  9 C       -2.3140     4.7330    -1.3610 C.ar  1 <1>   0.1600 
 10 C       -3.0200     6.0910     0.4620 C.ar  1 <1>  -0.1500 
 11 C        0.4240     5.8580     1.4210 C.2   1 <1>   0.5690 
 12 N       -2.9680     5.4340    -2.2710 N.ar  1 <1>  -0.6200 
 13 C       -3.7230     6.8230    -0.4700 C.ar  1 <1>  -0.1500 
 14 O       -0.3850     6.4100     2.1310 O.2   1 <1>  -0.5700 
 15 N        1.6460     6.4560     1.1840 N.am  1 <1>  -0.6600 
 16 C       -3.6630     6.4590    -1.8040 C.ar  1 <1>   0.1600 
 17 C        2.7600     5.8530     0.3870 C.3   1 <1>   0.1400 
 18 C        2.0030     7.7520     1.8470 C.3   1 <1>   0.1400 
 19 C        3.3430     6.8750    -0.6110 C.3   1 <1>   0.3430 
 20 C        2.5800     8.7540     0.8310 C.3   1 <1>   0.3430 
 21 N        3.7290     8.1710     0.0490 N.4   1 <1>  -0.9590 
 22 C        4.2630     9.1360    -0.9490 C.3   1 <1>   0.4380 
 23 C        4.9390    10.3000    -0.2230 C.3   1 <1>  -0.1950 
 24 C        4.1950    11.5230     0.2250 C.3   1 <1>  -0.2000 
 25 C        5.1460    11.6010    -0.9340 C.3   1 <1>  -0.2000 
 26 H       -2.7210     2.4570     0.6660 H     1 <1>   0.3700 
 27 H        1.1180     2.1790    -0.2460 H     1 <1>   0.0800 
 28 H        1.2050     1.4790     1.3520 H     1 <1>   0.0800 
 29 H       -1.7520     4.3860     1.9730 H     1 <1>   0.0800 
 30 H        0.2540     4.5730    -0.2660 H     1 <1>   0.0800 
 31 H       -1.7630     3.8830    -1.7290 H     1 <1>   0.1500 
 32 H       -3.0410     6.3600     1.5060 H     1 <1>   0.1500 
 33 H       -4.3130     7.6700    -0.1690 H     1 <1>   0.1500 
 34 H       -4.2140     7.0400    -2.5240 H     1 <1>   0.1500 
 35 H        3.5320     5.5220     1.0610 H     1 <1>   0.0800 
 36 H        2.4220     4.9910    -0.1590 H     1 <1>   0.0800 
 37 H        1.1390     8.1970     2.3100 H     1 <1>   0.0800 
 38 H        2.7220     7.5650     2.6250 H     1 <1>   0.0800 
 39 H        2.6020     7.0660    -1.3700 H     1 <1>   0.0800 
 40 H        4.2030     6.4400    -1.0940 H     1 <1>   0.0800 
 41 H        2.9040     9.6340     1.3620 H     1 <1>   0.0800 
 42 H        1.7910     9.0470     0.1580 H     1 <1>   0.0800 
 43 H        4.4860     7.9790     0.7180 H     1 <1>   0.4500 
 44 H        4.9910     8.6500    -1.5790 H     1 <1>   0.0800 
 45 H        3.4670     9.5070    -1.5740 H     1 <1>   0.0800 
 46 H        5.7770     9.9730     0.3710 H     1 <1>   0.1000 
 47 H        3.1490    11.6530     0.0070 H     1 <1>   0.1000 
 48 H        4.4830    12.0110     1.1430 H     1 <1>   0.1000 
 49 H        6.0730    12.1330    -0.7960 H     1 <1>   0.1000 
 50 H        4.7320    11.7580    -1.9160 H     1 <1>   0.1000 
@<TRIPOS>BOND
  1   1   2  2   
  2   2   3  am  
  3   2   4  1   
  4   3   5  1   
  5   3  26  1   
  6   4   6  1   
  7   4  27  1   
  8   4  28  1   
  9   5   7  1   
 10   5   8  1   
 11   5  29  1   
 12   6   8  1   
 13   7   9  ar  
 14   7  10  ar  
 15   8  11  1   
 16   8  30  1   
 17   9  12  ar  
 18   9  31  1   
 19  10  13  ar  
 20  10  32  1   
 21  11  14  2   
 22  11  15  am  
 23  12  16  ar  
 24  13  16  ar  
 25  13  33  1   
 26  15  17  1   
 27  15  18  1   
 28  16  34  1   
 29  17  19  1   
 30  17  35  1   
 31  17  36  1   
 32  18  20  1   
 33  18  37  1   
 34  18  38  1   
 35  19  21  1   
 36  19  39  1   
 37  19  40  1   
 38  20  21  1   
 39  20  41  1   
 40  20  42  1   
 41  21  22  1   
 42  21  43  1   
 43  22  23  1   
 44  22  44  1   
 45  22  45  1   
 46  23  24  1   
 47  23  25  1   
 48  23  46  1   
 49  24  25  1   
 50  24  47  1   
 51  24  48  1   
 52  25  49  1   
 53  25  50  1   
@<TRIPOS>SUBSTRUCTURE
  1 ****  11 GROUP 4 **** **** 0

# MOE 2024.06 (io_trps.svl 2023.06)
