@<TRIPOS>MOLECULE
NONAME
56 58 1 0 0 
SMALL
USER_CHARGES


@<TRIPOS>ATOM
  1 F       -0.1980     0.6900     1.4040 F     1 <1>  -0.1900 
  2 C       -1.4480     0.8330     1.0440 C.ar  1 <1>   0.1900 
  3 C       -2.2550     1.8570     1.5530 C.ar  1 <1>   0.0830 
  4 C       -1.9310    -0.0830     0.1280 C.ar  1 <1>  -0.1500 
  5 O       -1.8960     2.8150     2.4540 O.3   1 <1>  -0.3630 
  6 C       -3.5650     1.9230     1.1070 C.ar  1 <1>  -0.1500 
  7 C       -3.2440     0.0120    -0.2950 C.ar  1 <1>  -0.1500 
  8 C       -0.6170     2.8740     3.0460 C.3   1 <1>   0.0400 
  9 C       -4.0890     1.0110     0.1890 C.ar  1 <1>   0.0530 
 10 C       -5.4570     1.1220    -0.2450 C.2   1 <1>   0.0870 
 11 O       -5.9070     2.2800    -0.6550 O.3   1 <1>  -0.0190 
 12 C       -6.4910     0.2400    -0.3270 C.2   1 <1>  -0.0860 
 13 N       -7.1600     2.2410    -1.0180 N.2   1 <1>  -0.4100 
 14 C       -7.5370     1.0240    -0.8350 C.2   1 <1>   0.3720 
 15 C       -6.5730    -1.1450     0.0310 C.2   1 <1>   0.7160 
 16 N       -8.8330     0.5680    -1.1280 N.pl3 1 <1>  -0.8210 
 17 O       -5.5780    -1.8280     0.1930 O.2   1 <1>  -0.5700 
 18 N       -7.7820    -1.7370     0.1740 N.am  1 <1>  -0.7300 
 19 C       -9.9160     1.5760    -0.9540 C.3   1 <1>   0.1290 
 20 C       -8.9470    -0.1440    -2.4340 C.3   1 <1>   0.1290 
 21 C       -8.0210    -3.1860     0.1590 C.3   1 <1>   0.4000 
 22 C       -8.1990    -3.6100    -1.3030 C.2   1 <1>   0.0060 
 23 C       -9.2430    -3.5330     1.0460 C.3   1 <1>  -0.0800 
 24 N       -9.2790    -3.4100    -2.0000 N.2   1 <1>  -0.5650 
 25 N       -7.2130    -4.2230    -2.0080 N.pl3 1 <1>   0.0480 
 26 C       -9.0760    -3.0360     2.4950 C.3   1 <1>  -0.2400 
 27 C       -9.5070    -5.0500     1.0730 C.3   1 <1>  -0.2400 
 28 C       -8.9890    -3.9240    -3.2070 C.2   1 <1>   0.0770 
 29 C       -7.7340    -4.4200    -3.2310 C.2   1 <1>  -0.3020 
 30 C       -5.8460    -4.5900    -1.5880 C.3   1 <1>   0.0160 
 31 H       -1.2870    -0.8580    -0.2450 H     1 <1>   0.1500 
 32 H       -4.1980     2.7050     1.4860 H     1 <1>   0.1500 
 33 H       -3.6230    -0.6970    -1.0090 H     1 <1>   0.1500 
 34 H       -0.6030     3.7020     3.7300 H     1 <1>   0.0800 
 35 H        0.1180     3.0260     2.2760 H     1 <1>   0.0800 
 36 H       -0.4350     1.9580     3.5790 H     1 <1>   0.0800 
 37 H       -8.5750    -1.1820    -0.1770 H     1 <1>   0.3700 
 38 H       -9.7950     2.0820    -0.0110 H     1 <1>   0.0800 
 39 H      -10.8760     1.0890    -0.9640 H     1 <1>   0.0800 
 40 H       -9.8770     2.3040    -1.7460 H     1 <1>   0.0800 
 41 H       -8.1220    -0.8250    -2.5640 H     1 <1>   0.0800 
 42 H       -8.9410     0.5640    -3.2450 H     1 <1>   0.0800 
 43 H       -9.8610    -0.7120    -2.4640 H     1 <1>   0.0800 
 44 H       -7.1640    -3.6840     0.5780 H     1 <1>   0.0800 
 45 H      -10.1090    -3.0570     0.6200 H     1 <1>   0.0800 
 46 H       -8.1970    -3.4650     2.9440 H     1 <1>   0.0800 
 47 H       -9.9330    -3.3100     3.0850 H     1 <1>   0.0800 
 48 H       -8.9850    -1.9650     2.5230 H     1 <1>   0.0800 
 49 H       -8.6600    -5.5780     1.4750 H     1 <1>   0.0800 
 50 H       -9.7040    -5.4160     0.0810 H     1 <1>   0.0800 
 51 H      -10.3680    -5.2670     1.6800 H     1 <1>   0.0800 
 52 H       -9.7080    -3.9110    -4.0090 H     1 <1>   0.1500 
 53 H       -7.2010    -4.8920    -4.0350 H     1 <1>   0.1500 
 54 H       -5.8800    -5.0930    -0.6400 H     1 <1>   0.0800 
 55 H       -5.2490    -3.7010    -1.5050 H     1 <1>   0.0800 
 56 H       -5.4100    -5.2450    -2.3200 H     1 <1>   0.0800 
@<TRIPOS>BOND
  1   1   2  1   
  2   2   3  ar  
  3   2   4  ar  
  4   3   5  1   
  5   3   6  ar  
  6   4   7  ar  
  7   4  31  1   
  8   5   8  1   
  9   6   9  ar  
 10   6  32  1   
 11   7   9  ar  
 12   7  33  1   
 13   8  34  1   
 14   8  35  1   
 15   8  36  1   
 16   9  10  1   
 17  10  11  1   
 18  10  12  2   
 19  11  13  1   
 20  12  14  1   
 21  12  15  1   
 22  13  14  2   
 23  14  16  1   
 24  15  17  2   
 25  15  18  am  
 26  16  19  1   
 27  16  20  1   
 28  18  21  1   
 29  18  37  1   
 30  19  38  1   
 31  19  39  1   
 32  19  40  1   
 33  20  41  1   
 34  20  42  1   
 35  20  43  1   
 36  21  22  1   
 37  21  23  1   
 38  21  44  1   
 39  22  24  2   
 40  22  25  1   
 41  23  26  1   
 42  23  27  1   
 43  23  45  1   
 44  24  28  1   
 45  25  29  1   
 46  25  30  1   
 47  26  46  1   
 48  26  47  1   
 49  26  48  1   
 50  27  49  1   
 51  27  50  1   
 52  27  51  1   
 53  28  29  2   
 54  28  52  1   
 55  29  53  1   
 56  30  54  1   
 57  30  55  1   
 58  30  56  1   
@<TRIPOS>SUBSTRUCTURE
  1 ****  15 GROUP 4 **** **** 0

# MOE 2024.06 (io_trps.svl 2023.06)
