@<TRIPOS>MOLECULE
NONAME
32 31 1 0 0 
SMALL
USER_CHARGES


@<TRIPOS>ATOM
  1 O       -0.2070    -0.4520     1.2540 O.2   1 <1>  -0.5700 
  2 C       -0.1230    -1.1590     0.2710 C.2   1 <1>   0.7800 
  3 O        1.0290    -1.6940    -0.1250 O.3   1 <1>  -0.4300 
  4 N       -1.1920    -1.4680    -0.4950 N.am  1 <1>  -0.7300 
  5 C        2.2910    -1.5430     0.4900 C.3   1 <1>   0.2800 
  6 C       -2.5730    -0.9910    -0.2840 C.3   1 <1>   0.1400 
  7 C        2.2630    -2.1250     1.9080 C.3   1 <1>  -0.2400 
  8 C        3.2550    -2.3620    -0.3710 C.3   1 <1>  -0.2400 
  9 C        2.7210    -0.0720     0.4690 C.3   1 <1>  -0.2400 
 10 C       -3.4050    -2.1230     0.3210 C.3   1 <1>  -0.1600 
 11 C       -4.8410    -1.6800     0.6090 C.3   1 <1>   0.2000 
 12 O       -5.4430    -1.3310    -0.5790 O.3   1 <1>  -0.6800 
 13 C       -5.6780    -2.7910     1.2330 C.3   1 <1>  -0.2400 
 14 H       -1.0230    -2.0790    -1.2910 H     1 <1>   0.3700 
 15 H       -2.5680    -0.1440     0.3830 H     1 <1>   0.0800 
 16 H       -2.9900    -0.6760    -1.2260 H     1 <1>   0.0800 
 17 H        3.2550    -2.1340     2.3200 H     1 <1>   0.0800 
 18 H        1.8910    -3.1330     1.8920 H     1 <1>   0.0800 
 19 H        1.6480    -1.5310     2.5590 H     1 <1>   0.0800 
 20 H        4.2520    -2.3050     0.0270 H     1 <1>   0.0800 
 21 H        3.2700    -1.9830    -1.3770 H     1 <1>   0.0800 
 22 H        2.9550    -3.3940    -0.3880 H     1 <1>   0.0800 
 23 H        3.7350     0.0190     0.8100 H     1 <1>   0.0800 
 24 H        2.1060     0.5210     1.1200 H     1 <1>   0.0800 
 25 H        2.6600     0.3220    -0.5300 H     1 <1>   0.0800 
 26 H       -2.9490    -2.4180     1.2500 H     1 <1>   0.0800 
 27 H       -3.4090    -2.9720    -0.3380 H     1 <1>   0.0800 
 28 H       -4.8430    -0.8100     1.2450 H     1 <1>   0.0800 
 29 H       -5.5910    -2.1290    -1.1210 H     1 <1>   0.4000 
 30 H       -5.6960    -3.6630     0.6040 H     1 <1>   0.0800 
 31 H       -6.6830    -2.4450     1.3990 H     1 <1>   0.0800 
 32 H       -5.2600    -3.0680     2.1840 H     1 <1>   0.0800 
@<TRIPOS>BOND
  1   1   2  2   
  2   2   3  1   
  3   2   4  am  
  4   3   5  1   
  5   4   6  1   
  6   4  14  1   
  7   5   7  1   
  8   5   8  1   
  9   5   9  1   
 10   6  10  1   
 11   6  15  1   
 12   6  16  1   
 13   7  17  1   
 14   7  18  1   
 15   7  19  1   
 16   8  20  1   
 17   8  21  1   
 18   8  22  1   
 19   9  23  1   
 20   9  24  1   
 21   9  25  1   
 22  10  11  1   
 23  10  26  1   
 24  10  27  1   
 25  11  12  1   
 26  11  13  1   
 27  11  28  1   
 28  12  29  1   
 29  13  30  1   
 30  13  31  1   
 31  13  32  1   
@<TRIPOS>SUBSTRUCTURE
  1 ****   2 GROUP 4 **** **** 0

# MOE 2024.06 (io_trps.svl 2023.06)
