@<TRIPOS>MOLECULE
NONAME
38 40 1 0 0 
SMALL
USER_CHARGES


@<TRIPOS>ATOM
  1 F       -0.3180     1.4650    -1.8820 F     1 <1>  -0.3400 
  2 C        0.1470     1.8590    -0.7010 C.3   1 <1>   1.1640 
  3 F       -0.5250     1.1490     0.2040 F     1 <1>  -0.3400 
  4 F        1.4030     1.4270    -0.6310 F     1 <1>  -0.3400 
  5 C        0.0280     3.3990    -0.4840 C.ar  1 <1>   0.1660 
  6 N        0.6690     4.2240    -1.3230 N.ar  1 <1>  -0.6200 
  7 C       -0.7410     3.8900     0.5700 C.ar  1 <1>  -0.1500 
  8 C        0.5370     5.5230    -1.1100 C.ar  1 <1>   0.1600 
  9 C       -0.8550     5.2480     0.7800 C.ar  1 <1>  -0.1500 
 10 C       -0.1880     6.1090    -0.0770 C.ar  1 <1>   0.0860 
 11 C       -0.2430     7.5450     0.0880 C.2   1 <1>   0.5440 
 12 O       -1.2860     8.0700     0.4220 O.2   1 <1>  -0.5700 
 13 N        0.8910     8.3020    -0.1100 N.am  1 <1>  -0.4940 
 14 C        1.0430     9.7140    -0.1160 C.2   1 <1>  -0.0880 
 15 N        2.2310    10.3780    -0.2160 N.pl3 1 <1>   0.3140 
 16 C        0.0860    10.6680    -0.0290 C.2   1 <1>  -0.1500 
 17 N        2.0440    11.7220    -0.1930 N.2   1 <1>  -0.7070 
 18 C        3.5780     9.7420    -0.3270 C.3   1 <1>   0.1760 
 19 C        0.7620    11.8780    -0.0800 C.2   1 <1>   0.1390 
 20 C        4.0850     9.2110     1.0170 C.3   1 <1>  -0.1600 
 21 C        4.7000    10.6700    -0.7980 C.3   1 <1>  -0.1600 
 22 C        5.6150     9.1880     0.9100 C.3   1 <1>  -0.1600 
 23 C        5.9790     9.9540    -0.3670 C.3   1 <1>  -0.1600 
 24 H       -1.2600     3.2210     1.2360 H     1 <1>   0.1500 
 25 H        1.0350     6.1700    -1.8120 H     1 <1>   0.1500 
 26 H       -1.4490     5.6420     1.5880 H     1 <1>   0.1500 
 27 H        1.7530     7.7660    -0.2070 H     1 <1>   0.3700 
 28 H       -0.9780    10.5440     0.0640 H     1 <1>   0.1500 
 29 H        3.5080     8.9270    -1.0230 H     1 <1>   0.0800 
 30 H        0.2840    12.8420    -0.0330 H     1 <1>   0.1500 
 31 H        3.6900     8.2350     1.2380 H     1 <1>   0.0800 
 32 H        3.8010     9.8960     1.8000 H     1 <1>   0.0800 
 33 H        4.6430    11.6140    -0.2830 H     1 <1>   0.0800 
 34 H        4.6660    10.8360    -1.8600 H     1 <1>   0.0800 
 35 H        5.9840     8.1780     0.8550 H     1 <1>   0.0800 
 36 H        6.0500     9.6660     1.7710 H     1 <1>   0.0800 
 37 H        6.7840    10.6500    -0.2020 H     1 <1>   0.0800 
 38 H        6.2750     9.2560    -1.1330 H     1 <1>   0.0800 
@<TRIPOS>BOND
  1   1   2  1   
  2   2   3  1   
  3   2   4  1   
  4   2   5  1   
  5   5   6  ar  
  6   5   7  ar  
  7   6   8  ar  
  8   7   9  ar  
  9   7  24  1   
 10   8  10  ar  
 11   8  25  1   
 12   9  10  ar  
 13   9  26  1   
 14  10  11  1   
 15  11  12  2   
 16  11  13  am  
 17  13  14  1   
 18  13  27  1   
 19  14  15  1   
 20  14  16  2   
 21  15  17  1   
 22  15  18  1   
 23  16  19  1   
 24  16  28  1   
 25  17  19  2   
 26  18  20  1   
 27  18  21  1   
 28  18  29  1   
 29  19  30  1   
 30  20  22  1   
 31  20  31  1   
 32  20  32  1   
 33  21  23  1   
 34  21  33  1   
 35  21  34  1   
 36  22  23  1   
 37  22  35  1   
 38  22  36  1   
 39  23  37  1   
 40  23  38  1   
@<TRIPOS>SUBSTRUCTURE
  1 ****  13 GROUP 4 **** **** 0

# MOE 2024.06 (io_trps.svl 2023.06)
