@<TRIPOS>MOLECULE
NONAME
42 44 1 0 0 
SMALL
USER_CHARGES


@<TRIPOS>ATOM
  1 O       -0.7390     0.0630    -0.0440 O.3   1 <1>  -0.2800 
  2 C       -1.1540    -0.9150     0.7400 C.2   1 <1>  -0.0400 
  3 C       -0.2030     0.9890     0.7230 C.2   1 <1>  -0.0400 
  4 C       -0.8940    -0.6280     2.0340 C.2   1 <1>  -0.1500 
  5 C       -1.8300    -2.1050     0.0930 C.3   1 <1>   0.5230 
  6 C       -0.2670     0.6240     2.0210 C.2   1 <1>  -0.1500 
  7 C        0.3700     2.2340     0.0790 C.3   1 <1>  -0.0600 
  8 N       -2.8750    -1.5900    -0.8370 N.4   1 <1>  -0.9590 
  9 C       -3.9570    -0.8700    -0.0930 C.3   1 <1>   0.4230 
 10 C       -3.3100    -2.6360    -1.8110 C.3   1 <1>   0.2630 
 11 C       -4.9270    -1.8120     0.6250 C.3   1 <1>  -0.1600 
 12 C       -4.8350    -0.0590    -1.0460 C.3   1 <1>  -0.1600 
 13 C       -6.1090    -2.0450    -0.3290 C.3   1 <1>  -0.0800 
 14 C       -6.0580    -0.9290    -1.3790 C.3   1 <1>  -0.0800 
 15 C       -7.5000    -1.9800     0.3190 C.3   1 <1>  -0.1600 
 16 C       -7.4120    -0.2070    -1.3190 C.3   1 <1>  -0.1600 
 17 C       -8.3530    -1.2290    -0.6940 C.3   1 <1>   0.2000 
 18 O       -9.3960    -0.5930    -0.0630 O.3   1 <1>  -0.6800 
 19 H       -1.0990    -1.1990     2.9240 H     1 <1>   0.1500 
 20 H       -2.2630    -2.7460     0.8430 H     1 <1>   0.0800 
 21 H       -1.0910    -2.6630    -0.4580 H     1 <1>   0.0800 
 22 H        0.0830     1.1580     2.8880 H     1 <1>   0.1500 
 23 H        0.7740     2.8890     0.8300 H     1 <1>   0.0800 
 24 H       -0.3980     2.7550    -0.4610 H     1 <1>   0.0800 
 25 H        1.1560     1.9630    -0.6030 H     1 <1>   0.0800 
 26 H       -2.3720    -0.8480    -1.3490 H     1 <1>   0.4500 
 27 H       -3.5040    -0.1980     0.6200 H     1 <1>   0.0800 
 28 H       -3.8250    -3.4330    -1.3020 H     1 <1>   0.0800 
 29 H       -2.4560    -3.0480    -2.3260 H     1 <1>   0.0800 
 30 H       -3.9730    -2.2090    -2.5450 H     1 <1>   0.0800 
 31 H       -4.4760    -2.7330     0.9430 H     1 <1>   0.0800 
 32 H       -5.2730    -1.2960     1.5040 H     1 <1>   0.0800 
 33 H       -5.1520     0.8210    -0.5140 H     1 <1>   0.0800 
 34 H       -4.3100     0.2620    -1.9280 H     1 <1>   0.0800 
 35 H       -6.0030    -2.9940    -0.8290 H     1 <1>   0.0800 
 36 H       -5.9450    -1.3730    -2.3540 H     1 <1>   0.0800 
 37 H       -7.4680    -1.4270     1.2420 H     1 <1>   0.0800 
 38 H       -7.8970    -2.9620     0.5050 H     1 <1>   0.0800 
 39 H       -7.7500     0.0820    -2.2980 H     1 <1>   0.0800 
 40 H       -7.3560     0.6620    -0.6870 H     1 <1>   0.0800 
 41 H       -8.7510    -1.8980    -1.4400 H     1 <1>   0.0800 
 42 H       -9.0630     0.0270     0.6110 H     1 <1>   0.4000 
@<TRIPOS>BOND
  1   1   2  1   
  2   1   3  1   
  3   2   4  2   
  4   2   5  1   
  5   3   6  2   
  6   3   7  1   
  7   4   6  1   
  8   4  19  1   
  9   5   8  1   
 10   5  20  1   
 11   5  21  1   
 12   6  22  1   
 13   7  23  1   
 14   7  24  1   
 15   7  25  1   
 16   8   9  1   
 17   8  10  1   
 18   8  26  1   
 19   9  11  1   
 20   9  12  1   
 21   9  27  1   
 22  10  28  1   
 23  10  29  1   
 24  10  30  1   
 25  11  13  1   
 26  11  31  1   
 27  11  32  1   
 28  12  14  1   
 29  12  33  1   
 30  12  34  1   
 31  13  14  1   
 32  13  15  1   
 33  13  35  1   
 34  14  16  1   
 35  14  36  1   
 36  15  17  1   
 37  15  37  1   
 38  15  38  1   
 39  16  17  1   
 40  16  39  1   
 41  16  40  1   
 42  17  18  1   
 43  17  41  1   
 44  18  42  1   
@<TRIPOS>SUBSTRUCTURE
  1 ****   9 GROUP 4 **** **** 0

# MOE 2024.06 (io_trps.svl 2023.06)
