@<TRIPOS>MOLECULE
NONAME
51 53 1 0 0 
SMALL
USER_CHARGES


@<TRIPOS>ATOM
  1 S       -1.3100     1.3470    -1.5280 S.3   1 <1>  -0.0800 
  2 C       -2.1220     0.9830    -0.0120 C.2   1 <1>  -0.1400 
  3 C       -0.0460     2.2300    -0.6900 C.2   1 <1>  -0.1100 
  4 C       -1.4460     1.5160     1.0230 C.2   1 <1>  -0.1500 
  5 C       -3.4040     0.1740    -0.0740 C.3   1 <1>   0.0200 
  6 C       -0.2630     2.2250     0.6380 C.2   1 <1>  -0.1500 
  7 C       -3.1240    -1.2850    -0.4550 C.3   1 <1>  -0.1600 
  8 C       -4.4180    -2.1220    -0.4890 C.3   1 <1>  -0.0990 
  9 C       -4.2160    -3.5960    -0.8280 C.2   1 <1>   0.5690 
 10 O       -3.1040    -3.9720    -1.1220 O.2   1 <1>  -0.5700 
 11 N       -5.2800    -4.4590    -0.7810 N.am  1 <1>  -0.6600 
 12 C       -5.0990    -5.9300    -1.0510 C.3   1 <1>   0.1400 
 13 C       -6.6850    -4.0830    -0.4620 C.3   1 <1>   0.1400 
 14 C       -6.0670    -6.8340    -0.2290 C.3   1 <1>  -0.1060 
 15 C       -7.1260    -4.7610     0.8440 C.3   1 <1>  -0.1600 
 16 C       -7.3760    -7.0650    -0.9930 C.2   1 <1>   0.9060 
 17 C       -6.4410    -6.1180     1.0950 C.3   1 <1>   0.2000 
 18 C       -5.4920    -8.2630    -0.0120 C.3   1 <1>  -0.0160 
 19 O       -7.4140    -6.9240    -2.2200 O.co2 1 <1>  -0.9000 
 20 O       -8.3810    -7.4180    -0.3640 O.co2 1 <1>  -0.9000 
 21 O       -5.2990    -5.8510     1.8330 O.3   1 <1>  -0.6800 
 22 C       -4.0380    -8.3940     0.4420 C.ar  1 <1>  -0.1440 
 23 C       -3.0230    -8.5220    -0.4960 C.ar  1 <1>  -0.1500 
 24 C       -3.7140    -8.4120     1.7890 C.ar  1 <1>  -0.1500 
 25 C       -1.7060    -8.6560    -0.0930 C.ar  1 <1>  -0.1500 
 26 C       -2.3980    -8.5470     2.1960 C.ar  1 <1>  -0.1500 
 27 C       -1.3920    -8.6690     1.2540 C.ar  1 <1>  -0.1500 
 28 H        0.7350     2.6620    -1.2890 H     1 <1>   0.1500 
 29 H       -1.7280     1.4420     2.0580 H     1 <1>   0.1500 
 30 H       -3.8800     0.2060     0.8890 H     1 <1>   0.0800 
 31 H       -4.0670     0.6230    -0.7920 H     1 <1>   0.0800 
 32 H        0.3640     2.6940     1.3750 H     1 <1>   0.1500 
 33 H       -2.6530    -1.3230    -1.4230 H     1 <1>   0.0800 
 34 H       -2.4400    -1.7140     0.2580 H     1 <1>   0.0800 
 35 H       -5.0840    -1.7050    -1.2200 H     1 <1>   0.0800 
 36 H       -4.8880    -2.0680     0.4760 H     1 <1>   0.0800 
 37 H       -5.2030    -6.1120    -2.1070 H     1 <1>   0.0800 
 38 H       -4.0870    -6.1780    -0.7960 H     1 <1>   0.0800 
 39 H       -6.8130    -3.0200    -0.3850 H     1 <1>   0.0800 
 40 H       -7.3130    -4.4200    -1.2710 H     1 <1>   0.0800 
 41 H       -8.1870    -4.9270     0.7760 H     1 <1>   0.0800 
 42 H       -6.9660    -4.1050     1.6810 H     1 <1>   0.0800 
 43 H       -7.0770    -6.7410     1.7020 H     1 <1>   0.0800 
 44 H       -6.1230    -8.7800     0.6910 H     1 <1>   0.0800 
 45 H       -5.5850    -8.8020    -0.9400 H     1 <1>   0.0800 
 46 H       -4.6410    -5.4690     1.2160 H     1 <1>   0.4000 
 47 H       -3.2600    -8.5140    -1.5460 H     1 <1>   0.1500 
 48 H       -4.4930    -8.3120     2.5250 H     1 <1>   0.1500 
 49 H       -0.9280    -8.7480    -0.8300 H     1 <1>   0.1500 
 50 H       -2.1620    -8.5530     3.2450 H     1 <1>   0.1500 
 51 H       -0.3680    -8.7700     1.5680 H     1 <1>   0.1500 
@<TRIPOS>BOND
  1   1   2  1   
  2   1   3  1   
  3   2   4  2   
  4   2   5  1   
  5   3   6  2   
  6   3  28  1   
  7   4   6  1   
  8   4  29  1   
  9   5   7  1   
 10   5  30  1   
 11   5  31  1   
 12   6  32  1   
 13   7   8  1   
 14   7  33  1   
 15   7  34  1   
 16   8   9  1   
 17   8  35  1   
 18   8  36  1   
 19   9  10  2   
 20   9  11  am  
 21  11  12  1   
 22  11  13  1   
 23  12  14  1   
 24  12  37  1   
 25  12  38  1   
 26  13  15  1   
 27  13  39  1   
 28  13  40  1   
 29  14  16  1   
 30  14  17  1   
 31  14  18  1   
 32  15  17  1   
 33  15  41  1   
 34  15  42  1   
 35  16  19  ar  
 36  16  20  ar  
 37  17  21  1   
 38  17  43  1   
 39  18  22  1   
 40  18  44  1   
 41  18  45  1   
 42  21  46  1   
 43  22  23  ar  
 44  22  24  ar  
 45  23  25  ar  
 46  23  47  1   
 47  24  26  ar  
 48  24  48  1   
 49  25  27  ar  
 50  25  49  1   
 51  26  27  ar  
 52  26  50  1   
 53  27  51  1   
@<TRIPOS>SUBSTRUCTURE
  1 ****   9 GROUP 4 **** **** 0

# MOE 2024.06 (io_trps.svl 2023.06)
