@<TRIPOS>MOLECULE
NONAME
47 48 1 0 0 
SMALL
USER_CHARGES


@<TRIPOS>ATOM
  1 O       -2.2420    -1.8110    -1.2250 O.co2 1 <1>  -0.9000 
  2 C       -3.3040    -1.4540    -0.6810 C.2   1 <1>   0.9790 
  3 O       -4.0850    -2.3160    -0.2460 O.co2 1 <1>  -0.9000 
  4 C       -3.6000    -0.0350    -0.5410 C.ar  1 <1>  -0.1790 
  5 C       -2.7950     0.9210    -1.1570 C.ar  1 <1>  -0.1500 
  6 C       -4.6750     0.4310     0.2180 C.ar  1 <1>  -0.1500 
  7 C       -3.0220     2.2740    -0.9970 C.ar  1 <1>  -0.1430 
  8 C       -4.9220     1.7820     0.3760 C.ar  1 <1>  -0.1500 
  9 C       -4.0870     2.7190    -0.2260 C.ar  1 <1>   0.0830 
 10 C       -2.0840     3.2650    -1.6410 C.3   1 <1>   0.4870 
 11 O       -4.2390     4.0600    -0.0950 O.3   1 <1>  -0.3620 
 12 N       -1.1860     3.8270    -0.5980 N.4   1 <1>  -0.9590 
 13 C       -5.2960     4.6080     0.6610 C.3   1 <1>   0.0400 
 14 C       -0.3700     4.9610    -1.1260 C.3   1 <1>   0.3430 
 15 C       -0.4400     2.7620     0.1340 C.3   1 <1>   0.3430 
 16 C       -0.4620     6.1950    -0.2020 C.3   1 <1>   0.2000 
 17 C        0.2640     3.3370     1.3570 C.3   1 <1>  -0.2400 
 18 O       -1.6940     6.1630     0.4730 O.3   1 <1>  -0.5600 
 19 C       -0.3520     7.5080    -0.9940 C.3   1 <1>  -0.1600 
 20 C       -1.8770     7.1740     1.4220 C.3   1 <1>   0.1200 
 21 C       -0.5610     8.7200    -0.0790 C.3   1 <1>  -0.1600 
 22 C       -1.8510     8.5390     0.7280 C.3   1 <1>  -0.1600 
 23 H       -1.9740     0.5660    -1.7590 H     1 <1>   0.1500 
 24 H       -5.3160    -0.2980     0.6890 H     1 <1>   0.1500 
 25 H       -5.7630     2.0780     0.9720 H     1 <1>   0.1500 
 26 H       -2.6640     4.0540    -2.0910 H     1 <1>   0.0800 
 27 H       -1.5070     2.7750    -2.4080 H     1 <1>   0.0800 
 28 H       -1.8420     4.2770     0.0740 H     1 <1>   0.4500 
 29 H       -5.2160     5.6800     0.6220 H     1 <1>   0.0800 
 30 H       -5.2100     4.2720     1.6790 H     1 <1>   0.0800 
 31 H       -6.2320     4.2950     0.2320 H     1 <1>   0.0800 
 32 H       -0.7480     5.2490    -2.0930 H     1 <1>   0.0800 
 33 H        0.6580     4.6670    -1.2530 H     1 <1>   0.0800 
 34 H        0.2770     2.2920    -0.5200 H     1 <1>   0.0800 
 35 H       -1.1290     2.0020     0.4680 H     1 <1>   0.0800 
 36 H        0.3190     6.1490     0.5370 H     1 <1>   0.0800 
 37 H        1.0790     3.9770     1.0760 H     1 <1>   0.0800 
 38 H        0.6690     2.5260     1.9360 H     1 <1>   0.0800 
 39 H       -0.4330     3.8730     1.9770 H     1 <1>   0.0800 
 40 H       -1.0960     7.5190    -1.7720 H     1 <1>   0.0800 
 41 H        0.6150     7.5770    -1.4600 H     1 <1>   0.0800 
 42 H       -1.0980     7.1000     2.1630 H     1 <1>   0.0800 
 43 H       -2.8280     7.0130     1.8990 H     1 <1>   0.0800 
 44 H       -0.6140     9.6230    -0.6630 H     1 <1>   0.0800 
 45 H        0.2720     8.8090     0.5980 H     1 <1>   0.0800 
 46 H       -1.9330     9.3190     1.4650 H     1 <1>   0.0800 
 47 H       -2.7060     8.6140     0.0770 H     1 <1>   0.0800 
@<TRIPOS>BOND
  1   1   2  ar  
  2   2   3  ar  
  3   2   4  1   
  4   4   5  ar  
  5   4   6  ar  
  6   5   7  ar  
  7   5  23  1   
  8   6   8  ar  
  9   6  24  1   
 10   7   9  ar  
 11   7  10  1   
 12   8   9  ar  
 13   8  25  1   
 14   9  11  1   
 15  10  12  1   
 16  10  26  1   
 17  10  27  1   
 18  11  13  1   
 19  12  14  1   
 20  12  15  1   
 21  12  28  1   
 22  13  29  1   
 23  13  30  1   
 24  13  31  1   
 25  14  16  1   
 26  14  32  1   
 27  14  33  1   
 28  15  17  1   
 29  15  34  1   
 30  15  35  1   
 31  16  18  1   
 32  16  19  1   
 33  16  36  1   
 34  17  37  1   
 35  17  38  1   
 36  17  39  1   
 37  18  20  1   
 38  19  21  1   
 39  19  40  1   
 40  19  41  1   
 41  20  22  1   
 42  20  42  1   
 43  20  43  1   
 44  21  22  1   
 45  21  44  1   
 46  21  45  1   
 47  22  46  1   
 48  22  47  1   
@<TRIPOS>SUBSTRUCTURE
  1 ****  12 GROUP 4 **** **** 0

# MOE 2024.06 (io_trps.svl 2023.06)
