@<TRIPOS>MOLECULE
NONAME
53 54 1 0 0 
SMALL
USER_CHARGES


@<TRIPOS>ATOM
  1 O       -0.4440     0.1850    -0.0570 O.2   1 <1>  -0.5700 
  2 C       -1.4550     0.8190    -0.2940 C.2   1 <1>   0.5440 
  3 N       -2.6140     0.1370    -0.5990 N.am  1 <1>  -0.6600 
  4 C       -1.4140     2.2670    -0.2300 C.ar  1 <1>   0.0860 
  5 C       -3.9840     0.6860    -0.3590 C.3   1 <1>   0.1400 
  6 C       -2.6160    -1.3270    -0.9060 C.3   1 <1>   0.1400 
  7 C       -1.9750     3.0810    -1.2020 C.ar  1 <1>  -0.1500 
  8 C       -0.8020     2.9400     0.8150 C.ar  1 <1>  -0.1500 
  9 C       -4.7770    -0.2030     0.6250 C.3   1 <1>   0.2000 
 10 C       -3.4790    -2.1020     0.1100 C.3   1 <1>   0.2000 
 11 C       -1.9240     4.4570    -1.0790 C.ar  1 <1>   0.1660 
 12 C       -0.8000     4.3210     0.8540 C.ar  1 <1>   0.1660 
 13 O       -4.7540    -1.5310     0.1770 O.3   1 <1>  -0.5600 
 14 C       -6.2550     0.2280     0.7820 C.3   1 <1>  -0.0800 
 15 C       -3.6740    -3.5770    -0.2610 C.3   1 <1>  -0.1600 
 16 N       -1.3560     5.0870    -0.0670 N.ar  1 <1>  -0.6200 
 17 C       -2.5410     5.3430    -2.1400 C.3   1 <1>  -0.0970 
 18 C       -0.1320     5.0510     2.0000 C.3   1 <1>  -0.0970 
 19 C       -6.3900     1.6740     1.2890 C.3   1 <1>  -0.2400 
 20 C       -7.0120    -0.7030     1.7460 C.3   1 <1>  -0.2400 
 21 C       -2.3660    -4.3840    -0.2330 C.3   1 <1>  -0.1600 
 22 C       -2.6290    -5.8670    -0.5190 C.3   1 <1>  -0.1600 
 23 C       -1.3270    -6.6720    -0.4940 C.3   1 <1>  -0.2400 
 24 H       -3.9180     1.6780     0.0470 H     1 <1>   0.0800 
 25 H       -4.5130     0.7390    -1.2940 H     1 <1>   0.0800 
 26 H       -3.0110    -1.4780    -1.8940 H     1 <1>   0.0800 
 27 H       -1.6120    -1.7130    -0.8930 H     1 <1>   0.0800 
 28 H       -2.4470     2.6290    -2.0550 H     1 <1>   0.1500 
 29 H       -0.3280     2.3690     1.5930 H     1 <1>   0.1500 
 30 H       -4.3020    -0.1720     1.5900 H     1 <1>   0.0800 
 31 H       -3.0310    -2.0370     1.0880 H     1 <1>   0.0800 
 32 H       -6.7250     0.1670    -0.1850 H     1 <1>   0.0800 
 33 H       -4.3620    -4.0100     0.4450 H     1 <1>   0.0800 
 34 H       -4.1150    -3.6390    -1.2410 H     1 <1>   0.0800 
 35 H       -2.9830     4.7610    -2.9270 H     1 <1>   0.0800 
 36 H       -1.7820     5.9770    -2.5600 H     1 <1>   0.0800 
 37 H       -3.2980     5.9620    -1.6950 H     1 <1>   0.0800 
 38 H        0.3000     4.3620     2.7020 H     1 <1>   0.0800 
 39 H       -0.8570     5.6600     2.5090 H     1 <1>   0.0800 
 40 H        0.6430     5.6880     1.6150 H     1 <1>   0.0800 
 41 H       -5.8720     1.7980     2.2240 H     1 <1>   0.0800 
 42 H       -7.4270     1.9180     1.4420 H     1 <1>   0.0800 
 43 H       -5.9950     2.3750     0.5770 H     1 <1>   0.0800 
 44 H       -6.5590    -0.6900     2.7210 H     1 <1>   0.0800 
 45 H       -7.0010    -1.7140     1.3780 H     1 <1>   0.0800 
 46 H       -8.0390    -0.3960     1.8370 H     1 <1>   0.0800 
 47 H       -1.6820    -4.0030    -0.9720 H     1 <1>   0.0800 
 48 H       -1.9040    -4.2840     0.7350 H     1 <1>   0.0800 
 49 H       -3.3040    -6.2640     0.2210 H     1 <1>   0.0800 
 50 H       -3.0930    -5.9730    -1.4850 H     1 <1>   0.0800 
 51 H       -0.8570    -6.5970     0.4710 H     1 <1>   0.0800 
 52 H       -0.6450    -6.3080    -1.2420 H     1 <1>   0.0800 
 53 H       -1.5320    -7.7090    -0.6950 H     1 <1>   0.0800 
@<TRIPOS>BOND
  1   1   2  2   
  2   2   3  am  
  3   2   4  1   
  4   3   5  1   
  5   3   6  1   
  6   4   7  ar  
  7   4   8  ar  
  8   5   9  1   
  9   5  24  1   
 10   5  25  1   
 11   6  10  1   
 12   6  26  1   
 13   6  27  1   
 14   7  11  ar  
 15   7  28  1   
 16   8  12  ar  
 17   8  29  1   
 18   9  13  1   
 19   9  14  1   
 20   9  30  1   
 21  10  13  1   
 22  10  15  1   
 23  10  31  1   
 24  11  16  ar  
 25  11  17  1   
 26  12  16  ar  
 27  12  18  1   
 28  14  19  1   
 29  14  20  1   
 30  14  32  1   
 31  15  21  1   
 32  15  33  1   
 33  15  34  1   
 34  17  35  1   
 35  17  36  1   
 36  17  37  1   
 37  18  38  1   
 38  18  39  1   
 39  18  40  1   
 40  19  41  1   
 41  19  42  1   
 42  19  43  1   
 43  20  44  1   
 44  20  45  1   
 45  20  46  1   
 46  21  22  1   
 47  21  47  1   
 48  21  48  1   
 49  22  23  1   
 50  22  49  1   
 51  22  50  1   
 52  23  51  1   
 53  23  52  1   
 54  23  53  1   
@<TRIPOS>SUBSTRUCTURE
  1 ****   3 GROUP 4 **** **** 0

# MOE 2024.06 (io_trps.svl 2023.06)
