@<TRIPOS>MOLECULE
NONAME
53 55 1 0 0 
SMALL
USER_CHARGES


@<TRIPOS>ATOM
  1 N       -0.5510    -0.1210     0.5140 N.ar  1 <1>  -0.6200 
  2 C        0.5420     0.3440    -0.0700 C.ar  1 <1>   0.7710 
  3 C       -1.5840     0.6890     0.6170 C.ar  1 <1>   0.4100 
  4 N        0.6060     1.5870    -0.5670 N.ar  1 <1>  -0.1790 
  5 N        1.6340    -0.4530    -0.1690 N.pl3 1 <1>  -0.8380 
  6 N       -2.6780     0.2170     1.2570 N.pl3 1 <1>  -0.8690 
  7 C       -1.5780     2.0080     0.0920 C.ar  1 <1>  -0.1430 
  8 C       -0.4320     2.4530    -0.4980 C.ar  1 <1>   0.2170 
  9 C        1.6400    -1.8420     0.3680 C.3   1 <1>   0.2090 
 10 C        2.9730    -0.1260    -0.7350 C.3   1 <1>   0.2090 
 11 C       -2.8390    -1.0970     1.9150 C.3   1 <1>   0.2090 
 12 C       -2.8520     2.8550     0.2090 C.3   1 <1>  -0.0970 
 13 C       -0.2010     3.8370    -1.0930 C.3   1 <1>  -0.0970 
 14 C        2.9520    -2.4510    -0.1070 C.3   1 <1>  -0.1600 
 15 C        3.8830    -1.2590    -0.2840 C.3   1 <1>  -0.1600 
 16 C       -3.7680    -1.9490     1.0540 C.3   1 <1>  -0.1600 
 17 C       -3.8920    -3.3660     1.6140 C.3   1 <1>   0.3540 
 18 N       -4.8500    -4.1460     0.7920 N.pl3 1 <1>  -0.4570 
 19 N       -6.1810    -4.1120     1.0630 N.2   1 <1>  -0.2600 
 20 C       -4.6200    -4.9330    -0.2430 C.cat 1 <1>   0.6560 
 21 C       -6.7060    -4.8830     0.1790 C.2   1 <1>   0.4850 
 22 N       -5.7700    -5.4100    -0.6470 N.pl3 1 <1>  -0.7000 
 23 C       -3.2790    -5.2440    -0.8690 C.3   1 <1>  -0.0960 
 24 C       -8.1790    -5.1910     0.0420 C.3   1 <1>  -0.0720 
 25 H        1.4860     1.8320    -0.9990 H     1 <1>   0.4570 
 26 H       -3.4860     0.8360     1.3690 H     1 <1>   0.4000 
 27 H        0.7960    -2.4060     0.0070 H     1 <1>   0.0800 
 28 H        1.6150    -1.8060     1.4450 H     1 <1>   0.0800 
 29 H        3.3440     0.8190    -0.3720 H     1 <1>   0.0800 
 30 H        2.9170    -0.1170    -1.8120 H     1 <1>   0.0800 
 31 H       -3.2580    -0.9520     2.8980 H     1 <1>   0.0800 
 32 H       -1.8820    -1.5790     2.0270 H     1 <1>   0.0800 
 33 H       -3.7050     2.2890    -0.1250 H     1 <1>   0.0800 
 34 H       -2.8200     3.7440    -0.3910 H     1 <1>   0.0800 
 35 H       -3.0100     3.1420     1.2340 H     1 <1>   0.0800 
 36 H        0.8180     4.1500    -0.9500 H     1 <1>   0.0800 
 37 H       -0.8230     4.5770    -0.6250 H     1 <1>   0.0800 
 38 H       -0.4140     3.8260    -2.1480 H     1 <1>   0.0800 
 39 H        2.7920    -2.9380    -1.0530 H     1 <1>   0.0800 
 40 H        3.3360    -3.1710     0.5950 H     1 <1>   0.0800 
 41 H        4.3290    -1.0010     0.6620 H     1 <1>   0.0800 
 42 H        4.6670    -1.4550    -0.9950 H     1 <1>   0.0800 
 43 H       -3.3700    -1.9940     0.0560 H     1 <1>   0.0800 
 44 H       -4.7400    -1.4890     1.0300 H     1 <1>   0.0800 
 45 H       -4.2540    -3.3310     2.6290 H     1 <1>   0.0800 
 46 H       -2.9320    -3.8520     1.6160 H     1 <1>   0.0800 
 47 H       -5.9510    -6.0480    -1.4220 H     1 <1>   0.4500 
 48 H       -2.7680    -4.3310    -1.1130 H     1 <1>   0.0800 
 49 H       -3.4100    -5.8160    -1.7690 H     1 <1>   0.0800 
 50 H       -2.6790    -5.8130    -0.1820 H     1 <1>   0.0800 
 51 H       -8.7360    -4.6680     0.7980 H     1 <1>   0.0800 
 52 H       -8.3470    -6.2460     0.1580 H     1 <1>   0.0800 
 53 H       -8.5330    -4.8790    -0.9240 H     1 <1>   0.0800 
@<TRIPOS>BOND
  1   1   2  ar  
  2   1   3  ar  
  3   2   4  ar  
  4   2   5  1   
  5   3   6  1   
  6   3   7  ar  
  7   4   8  ar  
  8   4  25  1   
  9   5   9  1   
 10   5  10  1   
 11   6  11  1   
 12   6  26  1   
 13   7   8  ar  
 14   7  12  1   
 15   8  13  1   
 16   9  14  1   
 17   9  27  1   
 18   9  28  1   
 19  10  15  1   
 20  10  29  1   
 21  10  30  1   
 22  11  16  1   
 23  11  31  1   
 24  11  32  1   
 25  12  33  1   
 26  12  34  1   
 27  12  35  1   
 28  13  36  1   
 29  13  37  1   
 30  13  38  1   
 31  14  15  1   
 32  14  39  1   
 33  14  40  1   
 34  15  41  1   
 35  15  42  1   
 36  16  17  1   
 37  16  43  1   
 38  16  44  1   
 39  17  18  1   
 40  17  45  1   
 41  17  46  1   
 42  18  19  1   
 43  18  20  ar  
 44  19  21  2   
 45  20  22  ar  
 46  20  23  1   
 47  21  22  1   
 48  21  24  1   
 49  22  47  1   
 50  23  48  1   
 51  23  49  1   
 52  23  50  1   
 53  24  51  1   
 54  24  52  1   
 55  24  53  1   
@<TRIPOS>SUBSTRUCTURE
  1 ****   1 GROUP 4 **** **** 0

# MOE 2024.06 (io_trps.svl 2023.06)
