@<TRIPOS>MOLECULE
NONAME
56 59 1 0 0 
SMALL
USER_CHARGES


@<TRIPOS>ATOM
  1 S       -0.4370     0.1390     1.7190 S.o2  1 <1>   1.3330 
  2 O       -1.0680    -1.0890     2.1460 O.2   1 <1>  -0.6500 
  3 O       -0.3610     1.2530     2.6380 O.2   1 <1>  -0.6500 
  4 N       -1.2620     0.6590     0.3320 N.am  1 <1>  -0.8490 
  5 C        1.2310    -0.2480     1.1650 C.3   1 <1>  -0.0550 
  6 C       -2.4750     1.4230     0.6970 C.3   1 <1>   0.1960 
  7 C       -1.6180    -0.4510    -0.5600 C.3   1 <1>   0.1960 
  8 C        2.0870     0.9590     0.7390 C.3   1 <1>  -0.0800 
  9 C       -3.1710     2.0350    -0.5360 C.3   1 <1>   0.1440 
 10 C       -2.2360     0.0850    -1.8560 C.3   1 <1>  -0.1600 
 11 C        1.6330     1.6400    -0.5540 C.3   1 <1>  -0.1600 
 12 C        3.5340     0.5660     0.4520 C.3   1 <1>  -0.1600 
 13 C       -4.4180     2.7630    -0.0720 C.ar  1 <1>   0.1660 
 14 C       -3.4860     0.9280    -1.5630 C.3   1 <1>  -0.1600 
 15 C       -2.3270     3.1810    -1.1570 C.3   1 <1>  -0.1600 
 16 C        2.8890     2.2660    -1.1690 C.3   1 <1>  -0.1600 
 17 C        4.0810     1.7260    -0.3750 C.3   1 <1>  -0.1600 
 18 N       -5.5230     2.1890     0.3340 N.ar  1 <1>  -0.6200 
 19 C       -4.2530     4.1140    -0.1080 C.ar  1 <1>  -0.1440 
 20 C       -2.8800     4.5020    -0.5940 C.3   1 <1>  -0.0170 
 21 C       -6.4960     3.0240     0.7040 C.ar  1 <1>   0.7200 
 22 C       -5.3080     4.8950     0.2910 C.ar  1 <1>   0.1600 
 23 N       -6.4360     4.3600     0.6960 N.ar  1 <1>  -0.6200 
 24 N       -7.6770     2.4520     1.1380 N.pl3 1 <1>  -0.8380 
 25 C       -8.9270     3.2440     1.2930 C.3   1 <1>   0.1290 
 26 C       -7.7650     1.0160     1.5190 C.3   1 <1>   0.1290 
 27 H        1.1900    -0.9560     0.3620 H     1 <1>   0.0800 
 28 H        1.7360    -0.7280     1.9800 H     1 <1>   0.0800 
 29 H       -2.2140     2.2230     1.3700 H     1 <1>   0.0800 
 30 H       -3.1660     0.7770     1.2140 H     1 <1>   0.0800 
 31 H       -2.3190    -1.1080    -0.0690 H     1 <1>   0.0800 
 32 H       -0.7390    -1.0220    -0.8030 H     1 <1>   0.0800 
 33 H        2.0890     1.6930     1.5300 H     1 <1>   0.0800 
 34 H       -2.5040    -0.7420    -2.4890 H     1 <1>   0.0800 
 35 H       -1.5020     0.6740    -2.3780 H     1 <1>   0.0800 
 36 H        0.8820     2.3830    -0.3550 H     1 <1>   0.0800 
 37 H        1.2320     0.9120    -1.2370 H     1 <1>   0.0800 
 38 H        3.5630    -0.3330    -0.1400 H     1 <1>   0.0800 
 39 H        4.1010     0.4170     1.3540 H     1 <1>   0.0800 
 40 H       -3.8780     1.3540    -2.4690 H     1 <1>   0.0800 
 41 H       -4.2470     0.2840    -1.1550 H     1 <1>   0.0800 
 42 H       -2.4620     3.1910    -2.2240 H     1 <1>   0.0800 
 43 H       -1.2780     3.0740    -0.9530 H     1 <1>   0.0800 
 44 H        2.8530     3.3400    -1.1000 H     1 <1>   0.0800 
 45 H        2.9680     1.9890    -2.2070 H     1 <1>   0.0800 
 46 H        4.8850     1.4120    -1.0190 H     1 <1>   0.0800 
 47 H        4.4440     2.4940     0.2860 H     1 <1>   0.0800 
 48 H       -2.9240     5.2680    -1.3480 H     1 <1>   0.0800 
 49 H       -2.2840     4.8380     0.2380 H     1 <1>   0.0800 
 50 H       -5.2270     5.9670     0.2790 H     1 <1>   0.1500 
 51 H       -8.9440     4.0640     0.5940 H     1 <1>   0.0800 
 52 H       -8.9820     3.6370     2.2930 H     1 <1>   0.0800 
 53 H       -9.7850     2.6230     1.1050 H     1 <1>   0.0800 
 54 H       -6.8130     0.6600     1.8730 H     1 <1>   0.0800 
 55 H       -8.0590     0.4350     0.6620 H     1 <1>   0.0800 
 56 H       -8.4880     0.8850     2.3050 H     1 <1>   0.0800 
@<TRIPOS>BOND
  1   1   2  2   
  2   1   3  2   
  3   1   4  am  
  4   1   5  1   
  5   4   6  1   
  6   4   7  1   
  7   5   8  1   
  8   5  27  1   
  9   5  28  1   
 10   6   9  1   
 11   6  29  1   
 12   6  30  1   
 13   7  10  1   
 14   7  31  1   
 15   7  32  1   
 16   8  11  1   
 17   8  12  1   
 18   8  33  1   
 19   9  13  1   
 20   9  14  1   
 21   9  15  1   
 22  10  14  1   
 23  10  34  1   
 24  10  35  1   
 25  11  16  1   
 26  11  36  1   
 27  11  37  1   
 28  12  17  1   
 29  12  38  1   
 30  12  39  1   
 31  13  18  ar  
 32  13  19  ar  
 33  14  40  1   
 34  14  41  1   
 35  15  20  1   
 36  15  42  1   
 37  15  43  1   
 38  16  17  1   
 39  16  44  1   
 40  16  45  1   
 41  17  46  1   
 42  17  47  1   
 43  18  21  ar  
 44  19  20  1   
 45  19  22  ar  
 46  20  48  1   
 47  20  49  1   
 48  21  23  ar  
 49  21  24  1   
 50  22  23  ar  
 51  22  50  1   
 52  24  25  1   
 53  24  26  1   
 54  25  51  1   
 55  25  52  1   
 56  25  53  1   
 57  26  54  1   
 58  26  55  1   
 59  26  56  1   
@<TRIPOS>SUBSTRUCTURE
  1 ****   6 GROUP 4 **** **** 0

# MOE 2024.06 (io_trps.svl 2023.06)
