@<TRIPOS>MOLECULE
NONAME
49 52 1 0 0 
SMALL
USER_CHARGES


@<TRIPOS>ATOM
  1 S       -1.0350    -0.8220     1.0670 S.3   1 <1>  -0.0880 
  2 C       -2.2510    -0.9560    -0.1970 C.2   1 <1>  -0.1480 
  3 C       -1.4490     0.8580     1.3530 C.2   1 <1>  -0.1180 
  4 C       -2.8960     0.2190    -0.3490 C.2   1 <1>  -0.1580 
  5 C       -2.3760    -2.3080    -0.8810 C.3   1 <1>   0.3740 
  6 C       -2.4390     1.2500     0.5320 C.2   1 <1>  -0.1580 
  7 O       -3.1500    -2.1400    -2.0170 O.3   1 <1>  -0.6840 
  8 C       -3.0200    -3.3820     0.0260 C.3   1 <1>  -0.0880 
  9 C       -3.0630    -4.7610    -0.6680 C.3   1 <1>  -0.1680 
 10 C       -4.4260    -2.9720     0.5200 C.3   1 <1>  -0.1680 
 11 C       -3.7690    -5.8270     0.1750 C.3   1 <1>   0.1600 
 12 C       -5.0830    -4.0810     1.3410 C.3   1 <1>   0.1600 
 13 N       -5.1240    -5.3330     0.5390 N.pl3 1 <1>  -0.5970 
 14 C       -6.2390    -5.7570    -0.0780 C.cat 1 <1>   1.0690 
 15 N       -7.1810    -4.9190    -0.5010 N.pl3 1 <1>  -0.7040 
 16 N       -6.5740    -7.0240    -0.3680 N.pl3 1 <1>  -0.7680 
 17 C       -8.1580    -5.6560    -1.1320 C.ar  1 <1>   0.3020 
 18 C       -7.7710    -6.9800    -1.0450 C.ar  1 <1>   0.6150 
 19 C       -6.0410    -8.2960     0.1630 C.3   1 <1>   0.3480 
 20 C       -9.3320    -5.3330    -1.7720 C.ar  1 <1>  -0.1170 
 21 N       -8.4320    -8.0240    -1.5210 N.ar  1 <1>  -0.5840 
 22 C       -6.6340    -8.5430     1.5470 C.3   1 <1>  -0.2470 
 23 C      -10.0590    -6.3930    -2.2930 C.ar  1 <1>  -0.1860 
 24 C       -9.5580    -7.6970    -2.1340 C.ar  1 <1>   0.1520 
 25 C      -11.3070    -6.1780    -2.9860 C.2   1 <1>   0.9770 
 26 O      -11.7550    -5.0270    -3.0930 O.co2 1 <1>  -0.9030 
 27 O      -11.9250    -7.1360    -3.4690 O.co2 1 <1>  -0.9030 
 28 H       -0.8990     1.3810     2.1160 H     1 <1>   0.1420 
 29 H       -3.6880     0.4130    -1.0500 H     1 <1>   0.1420 
 30 H       -1.4010    -2.6330    -1.2030 H     1 <1>   0.0720 
 31 H       -2.8760     2.2330     0.5050 H     1 <1>   0.1420 
 32 H       -2.8070    -1.3670    -2.5040 H     1 <1>   0.3940 
 33 H       -2.3890    -3.4810     0.8930 H     1 <1>   0.0720 
 34 H       -2.0580    -5.0870    -0.8750 H     1 <1>   0.0720 
 35 H       -3.5720    -4.6800    -1.6130 H     1 <1>   0.0720 
 36 H       -5.0540    -2.7270    -0.3170 H     1 <1>   0.0720 
 37 H       -4.3480    -2.0900     1.1330 H     1 <1>   0.0720 
 38 H       -3.2050    -6.0300     1.0700 H     1 <1>   0.0720 
 39 H       -3.8260    -6.7250    -0.4110 H     1 <1>   0.0720 
 40 H       -6.0740    -3.7840     1.6390 H     1 <1>   0.0720 
 41 H       -4.5100    -4.2540     2.2370 H     1 <1>   0.0720 
 42 H       -7.1210    -3.9050    -0.4670 H     1 <1>   0.4440 
 43 H       -4.9710    -8.2720     0.2340 H     1 <1>   0.0720 
 44 H       -6.3060    -9.1080    -0.4960 H     1 <1>   0.0720 
 45 H       -9.6780    -4.3170    -1.8700 H     1 <1>   0.1420 
 46 H       -6.3550    -7.7600     2.2280 H     1 <1>   0.0720 
 47 H       -6.2640    -9.4760     1.9330 H     1 <1>   0.0720 
 48 H       -7.7070    -8.6080     1.4880 H     1 <1>   0.0720 
 49 H      -10.1470    -8.5030    -2.5490 H     1 <1>   0.1420 
@<TRIPOS>BOND
  1   1   2  1   
  2   1   3  1   
  3   2   4  2   
  4   2   5  1   
  5   3   6  2   
  6   3  28  1   
  7   4   6  1   
  8   4  29  1   
  9   5   7  1   
 10   5   8  1   
 11   5  30  1   
 12   6  31  1   
 13   7  32  1   
 14   8   9  1   
 15   8  10  1   
 16   8  33  1   
 17   9  11  1   
 18   9  34  1   
 19   9  35  1   
 20  10  12  1   
 21  10  36  1   
 22  10  37  1   
 23  11  13  1   
 24  11  38  1   
 25  11  39  1   
 26  12  13  1   
 27  12  40  1   
 28  12  41  1   
 29  13  14  ar  
 30  14  15  ar  
 31  14  16  ar  
 32  15  17  1   
 33  15  42  1   
 34  16  18  1   
 35  16  19  1   
 36  17  18  ar  
 37  17  20  ar  
 38  18  21  ar  
 39  19  22  1   
 40  19  43  1   
 41  19  44  1   
 42  20  23  ar  
 43  20  45  1   
 44  21  24  ar  
 45  22  46  1   
 46  22  47  1   
 47  22  48  1   
 48  23  24  ar  
 49  23  25  1   
 50  24  49  1   
 51  25  26  ar  
 52  25  27  ar  
@<TRIPOS>SUBSTRUCTURE
  1 ****  15 GROUP 4 **** **** 0

# MOE 2024.06 (io_trps.svl 2023.06)
