@<TRIPOS>MOLECULE
NONAME
53 54 1 0 0 
SMALL
USER_CHARGES


@<TRIPOS>ATOM
  1 O       -0.1560     0.1190    -0.3290 O.2   1 <1>  -0.5700 
  2 C       -1.0890     0.8190    -0.6500 C.2   1 <1>   0.5690 
  3 N       -2.1770     0.2860    -1.3120 N.am  1 <1>  -0.6600 
  4 C       -0.9740     2.2990    -0.2550 C.3   1 <1>  -0.0190 
  5 C       -2.2240    -1.1760    -1.6000 C.3   1 <1>   0.1400 
  6 C       -3.3850     1.0260    -1.7800 C.3   1 <1>   0.0600 
  7 C       -2.0640     2.7610     0.7370 C.3   1 <1>  -0.1600 
  8 C       -0.8000     3.2480    -1.4670 C.3   1 <1>  -0.1600 
  9 C       -3.0490    -1.8910    -0.5300 C.3   1 <1>  -0.1600 
 10 C       -1.8100     4.1890     1.2630 C.3   1 <1>   0.2000 
 11 C       -1.3130     4.6750    -1.2020 C.3   1 <1>  -0.1600 
 12 C       -3.0290    -3.4020    -0.7540 C.3   1 <1>   0.1200 
 13 O       -3.0590     4.7680     1.5560 O.3   1 <1>  -0.5600 
 14 C       -1.0520     5.0880     0.2480 C.3   1 <1>   0.2000 
 15 O       -3.8820    -3.9980     0.1950 O.3   1 <1>  -0.3630 
 16 C       -3.5980     4.4180     2.7920 C.3   1 <1>   0.0400 
 17 O       -1.4670     6.3950     0.3990 O.3   1 <1>  -0.6800 
 18 C       -4.0920    -5.3420     0.2230 C.ar  1 <1>   0.0820 
 19 C       -4.9970    -5.8340     1.1600 C.ar  1 <1>  -0.1440 
 20 C       -3.4460    -6.2260    -0.6390 C.ar  1 <1>  -0.1500 
 21 C       -5.2470    -7.1960     1.2240 C.ar  1 <1>  -0.1500 
 22 C       -5.7120    -4.8890     2.1150 C.3   1 <1>  -0.0970 
 23 C       -3.7040    -7.5830    -0.5670 C.ar  1 <1>  -0.1500 
 24 C       -4.6040    -8.0690     0.3640 C.ar  1 <1>  -0.1500 
 25 H       -0.0530     2.3700     0.2990 H     1 <1>   0.0800 
 26 H       -2.6530    -1.3400    -2.5740 H     1 <1>   0.0800 
 27 H       -1.2250    -1.5800    -1.6150 H     1 <1>   0.0800 
 28 H       -3.6370     0.7190    -2.7810 H     1 <1>   0.0800 
 29 H       -3.2270     2.0870    -1.7920 H     1 <1>   0.0800 
 30 H       -4.2150     0.8100    -1.1310 H     1 <1>   0.0800 
 31 H       -2.0920     2.0790     1.5680 H     1 <1>   0.0800 
 32 H       -3.0240     2.7390     0.2590 H     1 <1>   0.0800 
 33 H        0.2500     3.2920    -1.7040 H     1 <1>   0.0800 
 34 H       -1.2890     2.8580    -2.3410 H     1 <1>   0.0800 
 35 H       -4.0660    -1.5460    -0.5660 H     1 <1>   0.0800 
 36 H       -2.6320    -1.6780     0.4390 H     1 <1>   0.0800 
 37 H       -1.2230     4.1520     2.1650 H     1 <1>   0.0800 
 38 H       -2.3730     4.7130    -1.3870 H     1 <1>   0.0800 
 39 H       -0.8260     5.3630    -1.8720 H     1 <1>   0.0800 
 40 H       -2.0360    -3.7940    -0.6130 H     1 <1>   0.0800 
 41 H       -3.3950    -3.6480    -1.7350 H     1 <1>   0.0800 
 42 H        0.0070     5.0540     0.4400 H     1 <1>   0.0800 
 43 H       -4.5410     4.9260     2.9020 H     1 <1>   0.0800 
 44 H       -2.9280     4.7310     3.5740 H     1 <1>   0.0800 
 45 H       -3.7560     3.3540     2.8300 H     1 <1>   0.0800 
 46 H       -2.3810     6.3410     0.7610 H     1 <1>   0.4000 
 47 H       -2.7420    -5.8810    -1.3700 H     1 <1>   0.1500 
 48 H       -5.9440    -7.5850     1.9450 H     1 <1>   0.1500 
 49 H       -6.3700    -5.4240     2.7750 H     1 <1>   0.0800 
 50 H       -6.2910    -4.1770     1.5540 H     1 <1>   0.0800 
 51 H       -4.9890    -4.3560     2.7060 H     1 <1>   0.0800 
 52 H       -3.2030    -8.2630    -1.2340 H     1 <1>   0.1500 
 53 H       -4.8040    -9.1240     0.4210 H     1 <1>   0.1500 
@<TRIPOS>BOND
  1   1   2  2   
  2   2   3  am  
  3   2   4  1   
  4   3   5  1   
  5   3   6  1   
  6   4   7  1   
  7   4   8  1   
  8   4  25  1   
  9   5   9  1   
 10   5  26  1   
 11   5  27  1   
 12   6  28  1   
 13   6  29  1   
 14   6  30  1   
 15   7  10  1   
 16   7  31  1   
 17   7  32  1   
 18   8  11  1   
 19   8  33  1   
 20   8  34  1   
 21   9  12  1   
 22   9  35  1   
 23   9  36  1   
 24  10  13  1   
 25  10  14  1   
 26  10  37  1   
 27  11  14  1   
 28  11  38  1   
 29  11  39  1   
 30  12  15  1   
 31  12  40  1   
 32  12  41  1   
 33  13  16  1   
 34  14  17  1   
 35  14  42  1   
 36  15  18  1   
 37  16  43  1   
 38  16  44  1   
 39  16  45  1   
 40  17  46  1   
 41  18  19  ar  
 42  18  20  ar  
 43  19  21  ar  
 44  19  22  1   
 45  20  23  ar  
 46  20  47  1   
 47  21  24  ar  
 48  21  48  1   
 49  22  49  1   
 50  22  50  1   
 51  22  51  1   
 52  23  24  ar  
 53  23  52  1   
 54  24  53  1   
@<TRIPOS>SUBSTRUCTURE
  1 ****   9 GROUP 4 **** **** 0

# MOE 2024.06 (io_trps.svl 2023.06)
