@<TRIPOS>MOLECULE
NONAME
48 50 1 0 0 
SMALL
USER_CHARGES


@<TRIPOS>ATOM
  1 O        3.8310    -1.4880     2.7020 O.2   1 <1>  -0.5700 
  2 C        2.7110    -1.3290     2.2770 C.2   1 <1>   0.5690 
  3 N        2.1830    -0.1010     2.0640 N.am  1 <1>  -0.7300 
  4 C        1.8570    -2.5480     1.9120 C.3   1 <1>   0.1710 
  5 C        2.9720     1.1340     1.9470 C.3   1 <1>   0.2840 
  6 N        0.8780    -2.3080     0.8090 N.3   1 <1>  -0.8100 
  7 C        3.2120     1.3740     0.4680 C.ar  1 <1>  -0.1430 
  8 C        1.5310    -1.9620    -0.4700 C.3   1 <1>   0.1100 
  9 C        0.0290    -3.4880     0.5460 C.3   1 <1>   0.1100 
 10 C        4.3070     0.7950    -0.1540 C.ar  1 <1>  -0.1500 
 11 C        2.3340     2.1470    -0.2780 C.ar  1 <1>  -0.1500 
 12 C        0.5250    -2.3710    -1.5390 C.3   1 <1>   0.2000 
 13 C       -0.0450    -3.6710    -0.9810 C.3   1 <1>  -0.0800 
 14 C        4.5270     0.9890    -1.5070 C.ar  1 <1>  -0.1500 
 15 C        2.5510     2.3390    -1.6310 C.ar  1 <1>  -0.1500 
 16 O       -0.4860    -1.4280    -1.5450 O.3   1 <1>  -0.6800 
 17 C        0.7770    -4.8840    -1.4580 C.3   1 <1>   0.0210 
 18 C        3.6480     1.7600    -2.2460 C.ar  1 <1>  -0.1500 
 19 C        0.2670    -6.1860    -0.8680 C.2   1 <1>   0.1080 
 20 N       -0.9370    -6.6240    -1.0610 N.2   1 <1>  -0.7070 
 21 C        1.0160    -7.0440    -0.0680 C.2   1 <1>  -0.1500 
 22 N       -0.9900    -7.7870    -0.3850 N.pl3 1 <1>   0.3000 
 23 C        0.1810    -8.0620     0.2270 C.2   1 <1>  -0.3320 
 24 C        0.4340    -9.3020     1.0640 C.3   1 <1>  -0.0600 
 25 H        1.2920    -0.0990     1.5590 H     1 <1>   0.3700 
 26 H        1.3220    -2.8430     2.7960 H     1 <1>   0.0800 
 27 H        2.5180    -3.3530     1.6410 H     1 <1>   0.0800 
 28 H        2.4290     1.9540     2.3840 H     1 <1>   0.0800 
 29 H        3.9090     1.0280     2.4670 H     1 <1>   0.0800 
 30 H        1.7680    -0.9130    -0.5340 H     1 <1>   0.0800 
 31 H        2.4350    -2.5320    -0.5930 H     1 <1>   0.0800 
 32 H        0.4220    -4.3700     1.0260 H     1 <1>   0.0800 
 33 H       -0.9560    -3.3030     0.9390 H     1 <1>   0.0800 
 34 H        4.9890     0.1860     0.4170 H     1 <1>   0.1500 
 35 H        1.4760     2.5990     0.1890 H     1 <1>   0.1500 
 36 H        0.9380    -2.4480    -2.5300 H     1 <1>   0.0800 
 37 H       -1.0640    -3.8130    -1.2980 H     1 <1>   0.0800 
 38 H        5.3810     0.5390    -1.9830 H     1 <1>   0.1500 
 39 H        1.8660     2.9370    -2.2060 H     1 <1>   0.1500 
 40 H       -0.7280    -1.2750    -0.6080 H     1 <1>   0.4000 
 41 H        1.8120    -4.7620    -1.1950 H     1 <1>   0.0800 
 42 H        0.7110    -4.9570    -2.5280 H     1 <1>   0.0800 
 43 H        3.8160     1.9120    -3.2980 H     1 <1>   0.1500 
 44 H        2.0380    -6.9020     0.2330 H     1 <1>   0.1500 
 45 H       -1.8370    -8.3690    -0.3660 H     1 <1>   0.2700 
 46 H        1.4400    -9.2930     1.4450 H     1 <1>   0.0800 
 47 H        0.3020   -10.1880     0.4670 H     1 <1>   0.0800 
 48 H       -0.2470    -9.3350     1.8960 H     1 <1>   0.0800 
@<TRIPOS>BOND
  1   1   2  2   
  2   2   3  am  
  3   2   4  1   
  4   3   5  1   
  5   3  25  1   
  6   4   6  1   
  7   4  26  1   
  8   4  27  1   
  9   5   7  1   
 10   5  28  1   
 11   5  29  1   
 12   6   8  1   
 13   6   9  1   
 14   7  10  ar  
 15   7  11  ar  
 16   8  12  1   
 17   8  30  1   
 18   8  31  1   
 19   9  13  1   
 20   9  32  1   
 21   9  33  1   
 22  10  14  ar  
 23  10  34  1   
 24  11  15  ar  
 25  11  35  1   
 26  12  13  1   
 27  12  16  1   
 28  12  36  1   
 29  13  17  1   
 30  13  37  1   
 31  14  18  ar  
 32  14  38  1   
 33  15  18  ar  
 34  15  39  1   
 35  16  40  1   
 36  17  19  1   
 37  17  41  1   
 38  17  42  1   
 39  18  43  1   
 40  19  20  2   
 41  19  21  1   
 42  20  22  1   
 43  21  23  2   
 44  21  44  1   
 45  22  23  1   
 46  22  45  1   
 47  23  24  1   
 48  24  46  1   
 49  24  47  1   
 50  24  48  1   
@<TRIPOS>SUBSTRUCTURE
  1 ****   8 GROUP 4 **** **** 0

# MOE 2024.06 (io_trps.svl 2023.06)
