@<TRIPOS>MOLECULE
NONAME
51 55 1 0 0 
SMALL
USER_CHARGES


@<TRIPOS>ATOM
  1 O       -0.3470     0.2030     0.2320 O.2   1 <1>  -0.5700 
  2 C       -1.3710     0.8380     0.4100 C.2   1 <1>   0.7160 
  3 N       -2.5270     0.1480     0.7140 N.am  1 <1>  -0.6600 
  4 C       -1.3460     2.2750     0.2840 C.2   1 <1>  -0.0860 
  5 C       -3.8860     0.6850     0.4020 C.3   1 <1>   0.1400 
  6 C       -2.4360    -1.2800     1.1380 C.3   1 <1>   0.1400 
  7 C       -2.0820     3.1960     1.0340 C.2   1 <1>   0.1390 
  8 C       -0.6170     3.0730    -0.5440 C.2   1 <1>  -0.3020 
  9 C       -4.7400    -0.4220    -0.2100 C.3   1 <1>  -0.1600 
 10 C       -3.7570    -1.7600     1.7400 C.3   1 <1>  -0.1600 
 11 N       -1.8560     4.4250     0.6960 N.2   1 <1>  -0.7070 
 12 N       -0.9370     4.3490    -0.2820 N.pl3 1 <1>   0.3140 
 13 C       -4.9480    -1.5790     0.7820 C.3   1 <1>   0.4600 
 14 C       -0.3860     5.5540    -0.9340 C.3   1 <1>   0.0960 
 15 O       -6.0410    -1.2600     1.6150 O.3   1 <1>  -0.5600 
 16 C       -5.2330    -2.8810     0.0400 C.2   1 <1>  -0.3320 
 17 C        0.9650     5.9440    -0.3210 C.3   1 <1>  -0.2400 
 18 C       -7.3440    -1.5370     1.1550 C.3   1 <1>   0.1200 
 19 N       -4.3700    -3.5550    -0.7810 N.pl3 1 <1>   0.0330 
 20 C       -6.3980    -3.5560     0.1070 C.2   1 <1>  -0.1810 
 21 C       -7.5500    -3.0450     0.9330 C.3   1 <1>   0.0210 
 22 C       -5.0090    -4.6820    -1.2350 C.ar  1 <1>  -0.1520 
 23 C       -6.2900    -4.7140    -0.6900 C.ar  1 <1>   0.0000 
 24 C       -4.5700    -5.6960    -2.0910 C.ar  1 <1>  -0.1500 
 25 C       -7.1490    -5.7730    -1.0000 C.ar  1 <1>  -0.1500 
 26 C       -5.4260    -6.7320    -2.3880 C.ar  1 <1>  -0.1500 
 27 C       -6.7150    -6.7710    -1.8420 C.ar  1 <1>  -0.1500 
 28 H       -3.8140     1.5020    -0.2960 H     1 <1>   0.0800 
 29 H       -4.3480     1.0440     1.3070 H     1 <1>   0.0800 
 30 H       -1.6490    -1.3850     1.8660 H     1 <1>   0.0800 
 31 H       -2.1780    -1.8810     0.2830 H     1 <1>   0.0800 
 32 H       -2.7660     2.9190     1.8190 H     1 <1>   0.1500 
 33 H        0.1030     2.7800    -1.2850 H     1 <1>   0.1500 
 34 H       -4.2350    -0.7780    -1.0890 H     1 <1>   0.0800 
 35 H       -5.6840    -0.0250    -0.5290 H     1 <1>   0.0800 
 36 H       -3.9270    -1.1980     2.6410 H     1 <1>   0.0800 
 37 H       -3.6710    -2.7940     2.0180 H     1 <1>   0.0800 
 38 H       -1.0920     6.3550    -0.8080 H     1 <1>   0.0800 
 39 H       -0.2770     5.3550    -1.9840 H     1 <1>   0.0800 
 40 H        0.8470     6.1460     0.7290 H     1 <1>   0.0800 
 41 H        1.3420     6.8290    -0.8000 H     1 <1>   0.0800 
 42 H        1.6790     5.1500    -0.4520 H     1 <1>   0.0800 
 43 H       -7.5060    -1.0030     0.2350 H     1 <1>   0.0800 
 44 H       -8.0370    -1.1730     1.8920 H     1 <1>   0.0800 
 45 H       -3.4150    -3.2810    -1.0290 H     1 <1>   0.2700 
 46 H       -8.4790    -3.2120     0.4190 H     1 <1>   0.0800 
 47 H       -7.5790    -3.5570     1.8770 H     1 <1>   0.0800 
 48 H       -3.5790    -5.6590    -2.5050 H     1 <1>   0.1500 
 49 H       -8.1340    -5.7900    -0.5730 H     1 <1>   0.1500 
 50 H       -5.1120    -7.5250    -3.0440 H     1 <1>   0.1500 
 51 H       -7.3640    -7.5930    -2.0900 H     1 <1>   0.1500 
@<TRIPOS>BOND
  1   1   2  2   
  2   2   3  am  
  3   2   4  1   
  4   3   5  1   
  5   3   6  1   
  6   4   7  1   
  7   4   8  2   
  8   5   9  1   
  9   5  28  1   
 10   5  29  1   
 11   6  10  1   
 12   6  30  1   
 13   6  31  1   
 14   7  11  2   
 15   7  32  1   
 16   8  12  1   
 17   8  33  1   
 18   9  13  1   
 19   9  34  1   
 20   9  35  1   
 21  10  13  1   
 22  10  36  1   
 23  10  37  1   
 24  11  12  1   
 25  12  14  1   
 26  13  15  1   
 27  13  16  1   
 28  14  17  1   
 29  14  38  1   
 30  14  39  1   
 31  15  18  1   
 32  16  19  1   
 33  16  20  2   
 34  17  40  1   
 35  17  41  1   
 36  17  42  1   
 37  18  21  1   
 38  18  43  1   
 39  18  44  1   
 40  19  22  1   
 41  19  45  1   
 42  20  21  1   
 43  20  23  1   
 44  21  46  1   
 45  21  47  1   
 46  22  23  ar  
 47  22  24  ar  
 48  23  25  ar  
 49  24  26  ar  
 50  24  48  1   
 51  25  27  ar  
 52  25  49  1   
 53  26  27  ar  
 54  26  50  1   
 55  27  51  1   
@<TRIPOS>SUBSTRUCTURE
  1 ****   9 GROUP 4 **** **** 0

# MOE 2024.06 (io_trps.svl 2023.06)
