@<TRIPOS>MOLECULE
NONAME
53 56 1 0 0 
SMALL
USER_CHARGES


@<TRIPOS>ATOM
  1 O       -0.7140     0.2280    -1.0300 O.2   1 <1>  -0.5700 
  2 C       -1.7050     0.8560    -0.7070 C.2   1 <1>   0.5440 
  3 N       -1.5750     2.1910    -0.3760 N.am  1 <1>  -0.6600 
  4 C       -2.9770     0.1740    -0.6760 C.ar  1 <1>   0.0860 
  5 C       -0.3280     2.9500    -0.6790 C.3   1 <1>   0.1400 
  6 C       -2.5500     2.9310     0.4750 C.3   1 <1>   0.1400 
  7 C       -3.0960    -1.0640    -0.0520 C.ar  1 <1>   0.1600 
  8 C       -4.1270     0.6910    -1.2620 C.ar  1 <1>  -0.1500 
  9 C        0.3590     3.3630     0.6270 C.3   1 <1>  -0.1600 
 10 C       -1.8790     3.3540     1.7860 C.3   1 <1>  -0.1600 
 11 N       -4.2040    -1.7760     0.0560 N.ar  1 <1>  -0.6200 
 12 C       -5.2870    -0.0380    -1.1640 C.ar  1 <1>  -0.1500 
 13 C       -0.5910     4.1520     1.5380 C.3   1 <1>  -0.1600 
 14 C       -5.3000    -1.2650    -0.4980 C.ar  1 <1>   0.4100 
 15 N       -6.4570    -2.0100    -0.3740 N.pl3 1 <1>  -0.8380 
 16 C       -7.7080    -1.7860    -1.1440 C.3   1 <1>   0.2090 
 17 C       -6.4540    -3.3900     0.1870 C.3   1 <1>   0.2090 
 18 C       -8.6700    -2.8420    -0.6040 C.3   1 <1>   0.2000 
 19 C       -7.7560    -4.0340    -0.3060 C.3   1 <1>  -0.0800 
 20 O       -9.1990    -2.3630     0.5850 O.3   1 <1>  -0.6800 
 21 C       -8.3430    -5.0770     0.6640 C.3   1 <1>   0.0200 
 22 C       -7.4670    -6.3100     0.8170 C.2   1 <1>  -0.0400 
 23 O       -7.8040    -7.2120     1.7000 O.3   1 <1>  -0.0190 
 24 C       -6.3430    -6.7310     0.2140 C.2   1 <1>  -0.1500 
 25 N       -6.9680    -8.2090     1.7230 N.2   1 <1>  -0.4100 
 26 C       -6.0760    -7.9460     0.8380 C.2   1 <1>   0.1080 
 27 C       -4.8990    -8.8420     0.5250 C.3   1 <1>  -0.0590 
 28 H        0.3460     2.3560    -1.2710 H     1 <1>   0.0800 
 29 H       -0.5840     3.8260    -1.2500 H     1 <1>   0.0800 
 30 H       -2.8900     3.8020    -0.0590 H     1 <1>   0.0800 
 31 H       -3.4050     2.3200     0.7040 H     1 <1>   0.0800 
 32 H       -2.2060    -1.4830     0.3860 H     1 <1>   0.1500 
 33 H       -4.0950     1.6340    -1.7780 H     1 <1>   0.1500 
 34 H        0.6970     2.4750     1.1320 H     1 <1>   0.0800 
 35 H        1.2240     3.9600     0.4000 H     1 <1>   0.0800 
 36 H       -2.5660     3.9480     2.3630 H     1 <1>   0.0800 
 37 H       -1.6510     2.4710     2.3580 H     1 <1>   0.0800 
 38 H       -6.1890     0.3410    -1.6010 H     1 <1>   0.1500 
 39 H       -0.8360     5.0910     1.0720 H     1 <1>   0.0800 
 40 H       -0.1050     4.3610     2.4760 H     1 <1>   0.0800 
 41 H       -8.0970    -0.7930    -1.0010 H     1 <1>   0.0800 
 42 H       -7.5160    -1.9580    -2.1890 H     1 <1>   0.0800 
 43 H       -5.5930    -3.9410    -0.1500 H     1 <1>   0.0800 
 44 H       -6.4330    -3.3290     1.2620 H     1 <1>   0.0800 
 45 H       -9.4780    -3.0720    -1.2770 H     1 <1>   0.0800 
 46 H       -7.5440    -4.5200    -1.2420 H     1 <1>   0.0800 
 47 H       -8.4600    -1.9760     1.1020 H     1 <1>   0.4000 
 48 H       -9.3090    -5.3890     0.3090 H     1 <1>   0.0800 
 49 H       -8.4830    -4.6370     1.6360 H     1 <1>   0.0800 
 50 H       -5.7550    -6.2820    -0.5640 H     1 <1>   0.1500 
 51 H       -3.9810    -8.3010     0.6650 H     1 <1>   0.0800 
 52 H       -4.9600    -9.1810    -0.4930 H     1 <1>   0.0800 
 53 H       -4.9040    -9.6960     1.1780 H     1 <1>   0.0800 
@<TRIPOS>BOND
  1   1   2  2   
  2   2   3  am  
  3   2   4  1   
  4   3   5  1   
  5   3   6  1   
  6   4   7  ar  
  7   4   8  ar  
  8   5   9  1   
  9   5  28  1   
 10   5  29  1   
 11   6  10  1   
 12   6  30  1   
 13   6  31  1   
 14   7  11  ar  
 15   7  32  1   
 16   8  12  ar  
 17   8  33  1   
 18   9  13  1   
 19   9  34  1   
 20   9  35  1   
 21  10  13  1   
 22  10  36  1   
 23  10  37  1   
 24  11  14  ar  
 25  12  14  ar  
 26  12  38  1   
 27  13  39  1   
 28  13  40  1   
 29  14  15  1   
 30  15  16  1   
 31  15  17  1   
 32  16  18  1   
 33  16  41  1   
 34  16  42  1   
 35  17  19  1   
 36  17  43  1   
 37  17  44  1   
 38  18  19  1   
 39  18  20  1   
 40  18  45  1   
 41  19  21  1   
 42  19  46  1   
 43  20  47  1   
 44  21  22  1   
 45  21  48  1   
 46  21  49  1   
 47  22  23  1   
 48  22  24  2   
 49  23  25  1   
 50  24  26  1   
 51  24  50  1   
 52  25  26  2   
 53  26  27  1   
 54  27  51  1   
 55  27  52  1   
 56  27  53  1   
@<TRIPOS>SUBSTRUCTURE
  1 ****  11 GROUP 4 **** **** 0

# MOE 2024.06 (io_trps.svl 2023.06)
