@<TRIPOS>MOLECULE
NONAME
48 50 1 0 0 
SMALL
USER_CHARGES


@<TRIPOS>ATOM
  1 O       -0.3710    -0.4360    -1.9950 O.2   1 <1>  -0.5700 
  2 C       -0.1240     0.7300    -1.7820 C.2   1 <1>   0.5690 
  3 N       -1.0970     1.6000    -1.3520 N.am  1 <1>  -0.6600 
  4 C        1.3120     1.1880    -2.0150 C.3   1 <1>   0.0440 
  5 C       -0.8420     3.0530    -1.1030 C.3   1 <1>   0.1400 
  6 C       -2.4580     1.0930    -1.0070 C.3   1 <1>   0.1400 
  7 C        2.0160     1.5990    -0.7200 C.ar  1 <1>  -0.1440 
  8 C       -2.1510     3.8360    -1.1910 C.3   1 <1>  -0.1600 
  9 C       -3.0220     1.8750     0.1810 C.3   1 <1>  -0.1600 
 10 C        2.5530     2.8690    -0.5290 C.ar  1 <1>   0.0820 
 11 C        2.1240     0.6690     0.3030 C.ar  1 <1>  -0.1500 
 12 C       -3.1590     3.3910    -0.1150 C.3   1 <1>   0.2800 
 13 O        2.4720     3.8020    -1.4930 O.3   1 <1>  -0.5330 
 14 C        3.1820     3.2000     0.6610 C.ar  1 <1>  -0.1500 
 15 C        2.7520     0.9960     1.4930 C.ar  1 <1>  -0.1500 
 16 O       -2.8010     4.0970     1.0440 O.3   1 <1>  -0.5600 
 17 C       -4.5950     3.7970    -0.5470 C.3   1 <1>  -0.1600 
 18 C        3.2810     2.2620     1.6730 C.ar  1 <1>  -0.1500 
 19 C       -3.5750     3.9180     2.2030 C.3   1 <1>   0.1200 
 20 C       -5.3740     4.5650     0.5260 C.3   1 <1>   0.2800 
 21 C       -5.0820     3.9700     1.9010 C.3   1 <1>  -0.1600 
 22 O       -4.9020     5.8520     0.5310 O.3   1 <1>  -0.6800 
 23 C       -6.8670     4.6430     0.2230 C.3   1 <1>  -0.2400 
 24 H        1.3070     1.9780    -2.7390 H     1 <1>   0.0800 
 25 H        1.8610     0.3740    -2.4510 H     1 <1>   0.0800 
 26 H       -0.1550     3.4400    -1.8340 H     1 <1>   0.0800 
 27 H       -0.4070     3.1770    -0.1250 H     1 <1>   0.0800 
 28 H       -2.4070     0.0470    -0.7530 H     1 <1>   0.0800 
 29 H       -3.1020     1.1980    -1.8640 H     1 <1>   0.0800 
 30 H       -2.5540     3.6730    -2.1750 H     1 <1>   0.0800 
 31 H       -1.9590     4.8890    -1.0940 H     1 <1>   0.0800 
 32 H       -2.3390     1.7210     0.9990 H     1 <1>   0.0800 
 33 H       -3.9680     1.4530     0.4640 H     1 <1>   0.0800 
 34 H        1.7160    -0.3200     0.1760 H     1 <1>   0.1500 
 35 H        2.9280     4.6290    -1.2550 H     1 <1>   0.4500 
 36 H        3.5940     4.1810     0.8070 H     1 <1>   0.1500 
 37 H        2.8270     0.2640     2.2780 H     1 <1>   0.1500 
 38 H       -5.1410     2.9090    -0.8060 H     1 <1>   0.0800 
 39 H       -4.5780     4.3940    -1.4410 H     1 <1>   0.0800 
 40 H        3.7690     2.5130     2.5990 H     1 <1>   0.1500 
 41 H       -3.3110     4.7150     2.8770 H     1 <1>   0.0800 
 42 H       -3.3050     2.9850     2.6650 H     1 <1>   0.0800 
 43 H       -5.5880     4.5300     2.6670 H     1 <1>   0.0800 
 44 H       -5.4720     2.9690     1.9380 H     1 <1>   0.0800 
 45 H       -3.9380     5.7910     0.7050 H     1 <1>   0.4000 
 46 H       -7.2990     3.6590     0.2180 H     1 <1>   0.0800 
 47 H       -7.0270     5.0910    -0.7410 H     1 <1>   0.0800 
 48 H       -7.3680     5.2310     0.9710 H     1 <1>   0.0800 
@<TRIPOS>BOND
  1   1   2  2   
  2   2   3  am  
  3   2   4  1   
  4   3   5  1   
  5   3   6  1   
  6   4   7  1   
  7   4  24  1   
  8   4  25  1   
  9   5   8  1   
 10   5  26  1   
 11   5  27  1   
 12   6   9  1   
 13   6  28  1   
 14   6  29  1   
 15   7  10  ar  
 16   7  11  ar  
 17   8  12  1   
 18   8  30  1   
 19   8  31  1   
 20   9  12  1   
 21   9  32  1   
 22   9  33  1   
 23  10  13  1   
 24  10  14  ar  
 25  11  15  ar  
 26  11  34  1   
 27  12  16  1   
 28  12  17  1   
 29  13  35  1   
 30  14  18  ar  
 31  14  36  1   
 32  15  18  ar  
 33  15  37  1   
 34  16  19  1   
 35  17  20  1   
 36  17  38  1   
 37  17  39  1   
 38  18  40  1   
 39  19  21  1   
 40  19  41  1   
 41  19  42  1   
 42  20  21  1   
 43  20  22  1   
 44  20  23  1   
 45  21  43  1   
 46  21  44  1   
 47  22  45  1   
 48  23  46  1   
 49  23  47  1   
 50  23  48  1   
@<TRIPOS>SUBSTRUCTURE
  1 ****   5 GROUP 4 **** **** 0

# MOE 2024.06 (io_trps.svl 2023.06)
