@<TRIPOS>MOLECULE
NONAME
58 61 1 0 0 
SMALL
USER_CHARGES


@<TRIPOS>ATOM
  1 O        1.7400    -0.1900     0.5500 O.3   1 <1>  -0.5600 
  2 C        2.5990    -1.1590    -0.0170 C.3   1 <1>   0.4240 
  3 C        0.4000    -0.1970     0.1480 C.3   1 <1>   0.1200 
  4 C        1.8880    -2.5060    -0.2530 C.ar  1 <1>  -0.1440 
  5 C        3.7410    -1.3340     0.9940 C.3   1 <1>  -0.1600 
  6 C        3.1670    -0.5640    -1.3200 C.3   1 <1>  -0.1600 
  7 C       -0.2500    -1.5050     0.5880 C.3   1 <1>  -0.0160 
  8 C        0.5430    -2.6730     0.0380 C.ar  1 <1>  -0.1440 
  9 C        2.5880    -3.5920    -0.7630 C.ar  1 <1>  -0.1500 
 10 C        4.4880    -0.0320     1.3000 C.3   1 <1>   0.3430 
 11 C        4.2320     0.5160    -1.0940 C.3   1 <1>   0.3430 
 12 C       -0.0770    -3.8940    -0.1700 C.ar  1 <1>  -0.1500 
 13 C        1.9880    -4.8200    -0.9840 C.ar  1 <1>   0.0830 
 14 N        4.1610     1.0260     0.3020 N.4   1 <1>  -0.9590 
 15 C        0.6250    -4.9840    -0.6800 C.ar  1 <1>   0.0830 
 16 O        2.8410    -5.7580    -1.4920 O.3   1 <1>  -0.3630 
 17 C        4.9310     2.2900     0.5440 C.3   1 <1>   0.3430 
 18 O        0.0080    -6.1860    -0.8800 O.3   1 <1>  -0.3620 
 19 C        2.4470    -7.0670    -1.8360 C.3   1 <1>   0.0400 
 20 C        4.3680     3.5080    -0.2110 C.3   1 <1>   0.2000 
 21 C       -1.3390    -6.4180    -0.5290 C.3   1 <1>   0.0400 
 22 O        5.1200     4.6050     0.1990 O.3   1 <1>  -0.5600 
 23 C        2.8810     3.7740     0.0960 C.3   1 <1>  -0.1600 
 24 C        4.8340     5.8090    -0.4520 C.3   1 <1>   0.1200 
 25 C        2.4160     5.0890    -0.5410 C.3   1 <1>  -0.1600 
 26 C        3.3850     6.2140    -0.1640 C.3   1 <1>  -0.1600 
 27 H        0.3470    -0.0870    -0.9210 H     1 <1>   0.0800 
 28 H       -0.0930     0.6390     0.6130 H     1 <1>   0.0800 
 29 H        4.4510    -2.0450     0.6150 H     1 <1>   0.0800 
 30 H        3.3490    -1.7490     1.9060 H     1 <1>   0.0800 
 31 H        2.3700    -0.1720    -1.9220 H     1 <1>   0.0800 
 32 H        3.6240    -1.3410    -1.9040 H     1 <1>   0.0800 
 33 H       -1.2610    -1.5370     0.2240 H     1 <1>   0.0800 
 34 H       -0.2760    -1.5540     1.6620 H     1 <1>   0.0800 
 35 H        3.6310    -3.5130    -1.0040 H     1 <1>   0.1500 
 36 H        5.5500    -0.2200     1.3100 H     1 <1>   0.0800 
 37 H        4.2000     0.3110     2.2810 H     1 <1>   0.0800 
 38 H        4.0760     1.3180    -1.7970 H     1 <1>   0.0800 
 39 H        5.2110     0.1000    -1.2710 H     1 <1>   0.0800 
 40 H       -1.1180    -3.9770     0.0730 H     1 <1>   0.1500 
 41 H        3.1530     1.2110     0.4740 H     1 <1>   0.4500 
 42 H        5.9600     2.1490     0.2580 H     1 <1>   0.0800 
 43 H        4.9030     2.5220     1.5960 H     1 <1>   0.0800 
 44 H        3.3020    -7.5820    -2.2340 H     1 <1>   0.0800 
 45 H        1.6730    -7.0130    -2.5810 H     1 <1>   0.0800 
 46 H        2.0960    -7.5690    -0.9530 H     1 <1>   0.0800 
 47 H        4.5230     3.3880    -1.2700 H     1 <1>   0.0800 
 48 H       -1.5710    -7.4420    -0.7580 H     1 <1>   0.0800 
 49 H       -1.9690    -5.7650    -1.1060 H     1 <1>   0.0800 
 50 H       -1.4600    -6.2440     0.5260 H     1 <1>   0.0800 
 51 H        2.7440     3.8290     1.1620 H     1 <1>   0.0800 
 52 H        2.2690     2.9720    -0.2770 H     1 <1>   0.0800 
 53 H        5.0020     5.6810    -1.5080 H     1 <1>   0.0800 
 54 H        5.5140     6.5560    -0.0780 H     1 <1>   0.0800 
 55 H        1.4210     5.3340    -0.2100 H     1 <1>   0.0800 
 56 H        2.3950     4.9840    -1.6130 H     1 <1>   0.0800 
 57 H        3.1440     7.1050    -0.7160 H     1 <1>   0.0800 
 58 H        3.2920     6.4440     0.8840 H     1 <1>   0.0800 
@<TRIPOS>BOND
  1   1   2  1   
  2   1   3  1   
  3   2   4  1   
  4   2   5  1   
  5   2   6  1   
  6   3   7  1   
  7   3  27  1   
  8   3  28  1   
  9   4   8  ar  
 10   4   9  ar  
 11   5  10  1   
 12   5  29  1   
 13   5  30  1   
 14   6  11  1   
 15   6  31  1   
 16   6  32  1   
 17   7   8  1   
 18   7  33  1   
 19   7  34  1   
 20   8  12  ar  
 21   9  13  ar  
 22   9  35  1   
 23  10  14  1   
 24  10  36  1   
 25  10  37  1   
 26  11  14  1   
 27  11  38  1   
 28  11  39  1   
 29  12  15  ar  
 30  12  40  1   
 31  13  15  ar  
 32  13  16  1   
 33  14  17  1   
 34  14  41  1   
 35  15  18  1   
 36  16  19  1   
 37  17  20  1   
 38  17  42  1   
 39  17  43  1   
 40  18  21  1   
 41  19  44  1   
 42  19  45  1   
 43  19  46  1   
 44  20  22  1   
 45  20  23  1   
 46  20  47  1   
 47  21  48  1   
 48  21  49  1   
 49  21  50  1   
 50  22  24  1   
 51  23  25  1   
 52  23  51  1   
 53  23  52  1   
 54  24  26  1   
 55  24  53  1   
 56  24  54  1   
 57  25  26  1   
 58  25  55  1   
 59  25  56  1   
 60  26  57  1   
 61  26  58  1   
@<TRIPOS>SUBSTRUCTURE
  1 ****   2 GROUP 4 **** **** 0

# MOE 2024.06 (io_trps.svl 2023.06)
