@<TRIPOS>MOLECULE
NONAME
45 47 1 0 0 
SMALL
USER_CHARGES


@<TRIPOS>ATOM
  1 S        0.2620    -1.0530     0.5740 S.o2  1 <1>   1.0900 
  2 O        1.6300    -0.8320     0.1680 O.2   1 <1>  -0.6500 
  3 O       -0.3650    -0.1370     1.4980 O.2   1 <1>  -0.6500 
  4 C       -0.7380    -1.1590    -0.9150 C.3   1 <1>   0.0890 
  5 C        0.1700    -2.6880     1.2840 C.3   1 <1>  -0.1350 
  6 C       -2.0970    -1.8130    -0.6990 C.ar  1 <1>  -0.1440 
  7 C       -2.3990    -3.0380    -1.2760 C.ar  1 <1>   0.1600 
  8 C       -3.0530    -1.1990     0.0870 C.ar  1 <1>  -0.1500 
  9 N       -3.5390    -3.6880    -1.1280 N.ar  1 <1>  -0.6200 
 10 C       -4.2470    -1.8600     0.2450 C.ar  1 <1>  -0.1500 
 11 C       -4.4510    -3.0900    -0.3700 C.ar  1 <1>   0.4100 
 12 N       -5.6570    -3.7330    -0.2080 N.pl3 1 <1>  -0.8380 
 13 C       -6.5400    -3.7450    -1.4110 C.3   1 <1>   0.2090 
 14 C       -5.6030    -5.1170     0.3460 C.3   1 <1>   0.2090 
 15 C       -7.3360    -5.0450    -1.3170 C.3   1 <1>   0.2000 
 16 C       -6.3480    -6.0030    -0.6560 C.3   1 <1>  -0.0800 
 17 O       -8.4150    -4.8340    -0.4680 O.3   1 <1>  -0.6800 
 18 C       -6.9770    -7.2610    -0.0290 C.3   1 <1>   0.0200 
 19 C       -5.9390    -8.2420     0.4890 C.2   1 <1>  -0.0400 
 20 O       -6.3380    -9.2600     1.2050 O.3   1 <1>  -0.0190 
 21 C       -4.6030    -8.3240     0.3730 C.2   1 <1>  -0.1500 
 22 N       -5.3440   -10.0140     1.5770 N.2   1 <1>  -0.4100 
 23 C       -4.2860    -9.4750     1.0890 C.2   1 <1>   0.1080 
 24 C       -2.8910   -10.0270     1.2760 C.3   1 <1>  -0.0590 
 25 H       -0.8880    -0.1720    -1.3070 H     1 <1>   0.0800 
 26 H       -0.1980    -1.7130    -1.6590 H     1 <1>   0.0800 
 27 H        0.5410    -3.4220     0.5950 H     1 <1>   0.0800 
 28 H       -0.8430    -2.9330     1.5420 H     1 <1>   0.0800 
 29 H        0.7640    -2.7310     2.1760 H     1 <1>   0.0800 
 30 H       -1.6610    -3.5190    -1.8970 H     1 <1>   0.1500 
 31 H       -2.8790    -0.2460     0.5630 H     1 <1>   0.1500 
 32 H       -5.0370    -1.4470     0.8420 H     1 <1>   0.1500 
 33 H       -7.1860    -2.8850    -1.4320 H     1 <1>   0.0800 
 34 H       -5.9360    -3.7560    -2.3030 H     1 <1>   0.0800 
 35 H       -4.5880    -5.4490     0.4850 H     1 <1>   0.0800 
 36 H       -6.1010    -5.1250     1.3010 H     1 <1>   0.0800 
 37 H       -7.7040    -5.3900    -2.2680 H     1 <1>   0.0800 
 38 H       -5.6430    -6.3080    -1.4090 H     1 <1>   0.0800 
 39 H       -8.1000    -4.3030     0.2920 H     1 <1>   0.4000 
 40 H       -7.5830    -7.7620    -0.7630 H     1 <1>   0.0800 
 41 H       -7.6200    -6.9820     0.7870 H     1 <1>   0.0800 
 42 H       -3.9080    -7.6860    -0.1390 H     1 <1>   0.1500 
 43 H       -2.3480    -9.9780     0.3500 H     1 <1>   0.0800 
 44 H       -2.9440   -11.0530     1.5940 H     1 <1>   0.0800 
 45 H       -2.3720    -9.4570     2.0240 H     1 <1>   0.0800 
@<TRIPOS>BOND
  1   1   2  2   
  2   1   3  2   
  3   1   4  1   
  4   1   5  1   
  5   4   6  1   
  6   4  25  1   
  7   4  26  1   
  8   5  27  1   
  9   5  28  1   
 10   5  29  1   
 11   6   7  ar  
 12   6   8  ar  
 13   7   9  ar  
 14   7  30  1   
 15   8  10  ar  
 16   8  31  1   
 17   9  11  ar  
 18  10  11  ar  
 19  10  32  1   
 20  11  12  1   
 21  12  13  1   
 22  12  14  1   
 23  13  15  1   
 24  13  33  1   
 25  13  34  1   
 26  14  16  1   
 27  14  35  1   
 28  14  36  1   
 29  15  16  1   
 30  15  17  1   
 31  15  37  1   
 32  16  18  1   
 33  16  38  1   
 34  17  39  1   
 35  18  19  1   
 36  18  40  1   
 37  18  41  1   
 38  19  20  1   
 39  19  21  2   
 40  20  22  1   
 41  21  23  1   
 42  21  42  1   
 43  22  23  2   
 44  23  24  1   
 45  24  43  1   
 46  24  44  1   
 47  24  45  1   
@<TRIPOS>SUBSTRUCTURE
  1 ****   9 GROUP 4 **** **** 0

# MOE 2024.06 (io_trps.svl 2023.06)
