@<TRIPOS>MOLECULE
NONAME
57 58 1 0 0 
SMALL
USER_CHARGES


@<TRIPOS>ATOM
  1 O       -1.6300     1.8570    -1.9500 O.co2 1 <1>  -0.9000 
  2 C       -0.9770     1.9010    -0.9020 C.2   1 <1>   0.9060 
  3 O       -1.1800     1.0740     0.0010 O.co2 1 <1>  -0.9000 
  4 C        0.0820     2.9950    -0.6660 C.3   1 <1>  -0.1060 
  5 C       -0.2680     3.7070     0.6690 C.3   1 <1>   0.2000 
  6 C        0.0520     4.0470    -1.8200 C.3   1 <1>   0.1400 
  7 C        1.4870     2.3200    -0.6170 C.3   1 <1>  -0.1600 
  8 O       -0.2570     2.8110     1.7190 O.3   1 <1>  -0.6800 
  9 C       -1.6500     4.3790     0.6310 C.3   1 <1>  -0.1600 
 10 N       -0.6540     5.3120    -1.4270 N.am  1 <1>  -0.6600 
 11 C        2.6560     3.2220    -0.1700 C.3   1 <1>  -0.1600 
 12 C       -1.9350     5.0240    -0.7330 C.3   1 <1>   0.1400 
 13 C       -0.1390     6.5390    -1.7860 C.2   1 <1>   0.5690 
 14 C        3.9880     2.4740    -0.2670 C.3   1 <1>  -0.2400 
 15 O        0.6020     6.6060    -2.7450 O.2   1 <1>  -0.5700 
 16 C       -0.4380     7.8660    -1.0090 C.3   1 <1>   0.3410 
 17 O        0.6890     8.7410    -1.0510 O.3   1 <1>  -0.3630 
 18 C       -1.5470     8.6370    -1.7390 C.3   1 <1>  -0.2400 
 19 C       -0.8280     7.7530     0.4820 C.3   1 <1>  -0.2400 
 20 C        1.8840     8.5460    -0.4190 C.ar  1 <1>   0.0820 
 21 C        2.6880     9.6690    -0.2090 C.ar  1 <1>  -0.1440 
 22 C        2.3180     7.2980     0.0200 C.ar  1 <1>  -0.1500 
 23 C        3.9020     9.5340     0.4630 C.ar  1 <1>  -0.1440 
 24 C        2.1980    11.0220    -0.7250 C.3   1 <1>  -0.0970 
 25 C        3.5250     7.1680     0.6770 C.ar  1 <1>  -0.1500 
 26 C        4.3100     8.2820     0.9000 C.ar  1 <1>  -0.1500 
 27 C        4.8140    10.7200     0.7450 C.3   1 <1>  -0.0970 
 28 H        0.4700     4.4590     0.8850 H     1 <1>   0.0800 
 29 H       -0.4120     3.6530    -2.7070 H     1 <1>   0.0800 
 30 H        1.0560     4.2950    -2.1080 H     1 <1>   0.0800 
 31 H        1.4380     1.4820     0.0590 H     1 <1>   0.0800 
 32 H        1.6990     1.9170    -1.5920 H     1 <1>   0.0800 
 33 H       -0.6490     1.9640     1.3460 H     1 <1>   0.4000 
 34 H       -2.4180     3.6490     0.8200 H     1 <1>   0.0800 
 35 H       -1.7010     5.1170     1.4080 H     1 <1>   0.0800 
 36 H        2.7120     4.1080    -0.7750 H     1 <1>   0.0800 
 37 H        2.5070     3.5230     0.8530 H     1 <1>   0.0800 
 38 H       -2.5470     5.9000    -0.6420 H     1 <1>   0.0800 
 39 H       -2.4840     4.3190    -1.3380 H     1 <1>   0.0800 
 40 H        4.1770     2.1780    -1.2840 H     1 <1>   0.0800 
 41 H        3.9670     1.5950     0.3530 H     1 <1>   0.0800 
 42 H        4.7910     3.1090     0.0610 H     1 <1>   0.0800 
 43 H       -2.4550     8.0620    -1.7500 H     1 <1>   0.0800 
 44 H       -1.2500     8.8150    -2.7580 H     1 <1>   0.0800 
 45 H       -1.7350     9.5780    -1.2550 H     1 <1>   0.0800 
 46 H       -1.8500     7.4550     0.6000 H     1 <1>   0.0800 
 47 H       -0.7160     8.7080     0.9640 H     1 <1>   0.0800 
 48 H       -0.2080     7.0370     0.9860 H     1 <1>   0.0800 
 49 H        1.7420     6.4110    -0.1420 H     1 <1>   0.1500 
 50 H        2.9760    11.7590    -0.7640 H     1 <1>   0.0800 
 51 H        1.4100    11.3830    -0.0890 H     1 <1>   0.0800 
 52 H        1.8100    10.9150    -1.7220 H     1 <1>   0.0800 
 53 H        3.8520     6.2000     1.0130 H     1 <1>   0.1500 
 54 H        5.2460     8.1650     1.4160 H     1 <1>   0.1500 
 55 H        5.6430    10.4340     1.3670 H     1 <1>   0.0800 
 56 H        4.2680    11.4940     1.2520 H     1 <1>   0.0800 
 57 H        5.2040    11.1080    -0.1790 H     1 <1>   0.0800 
@<TRIPOS>BOND
  1   1   2  ar  
  2   2   3  ar  
  3   2   4  1   
  4   4   5  1   
  5   4   6  1   
  6   4   7  1   
  7   5   8  1   
  8   5   9  1   
  9   5  28  1   
 10   6  10  1   
 11   6  29  1   
 12   6  30  1   
 13   7  11  1   
 14   7  31  1   
 15   7  32  1   
 16   8  33  1   
 17   9  12  1   
 18   9  34  1   
 19   9  35  1   
 20  10  12  1   
 21  10  13  am  
 22  11  14  1   
 23  11  36  1   
 24  11  37  1   
 25  12  38  1   
 26  12  39  1   
 27  13  15  2   
 28  13  16  1   
 29  14  40  1   
 30  14  41  1   
 31  14  42  1   
 32  16  17  1   
 33  16  18  1   
 34  16  19  1   
 35  17  20  1   
 36  18  43  1   
 37  18  44  1   
 38  18  45  1   
 39  19  46  1   
 40  19  47  1   
 41  19  48  1   
 42  20  21  ar  
 43  20  22  ar  
 44  21  23  ar  
 45  21  24  1   
 46  22  25  ar  
 47  22  49  1   
 48  23  26  ar  
 49  23  27  1   
 50  24  50  1   
 51  24  51  1   
 52  24  52  1   
 53  25  26  ar  
 54  25  53  1   
 55  26  54  1   
 56  27  55  1   
 57  27  56  1   
 58  27  57  1   
@<TRIPOS>SUBSTRUCTURE
  1 ****  13 GROUP 4 **** **** 0

# MOE 2024.06 (io_trps.svl 2023.06)
