@<TRIPOS>MOLECULE
NONAME
53 55 1 0 0 
SMALL
USER_CHARGES


@<TRIPOS>ATOM
  1 O        0.5960    -1.2710     3.4010 O.2   1 <1>  -0.5700 
  2 C        1.4040    -0.9760     2.5450 C.2   1 <1>   0.7150 
  3 N        1.5150     0.3330     2.2310 N.am  1 <1>  -0.8000 
  4 C        2.2070    -1.9810     1.8900 C.2   1 <1>   0.0550 
  5 O        3.0690    -1.6680     0.9310 O.3   1 <1>  -0.2800 
  6 C        2.2600    -3.3250     2.0790 C.2   1 <1>  -0.1500 
  7 C        3.6780    -2.7530     0.4970 C.2   1 <1>  -0.0400 
  8 C        3.2030    -3.8300     1.1780 C.2   1 <1>  -0.1810 
  9 C        4.7200    -2.5490    -0.6180 C.3   1 <1>   0.1800 
 10 C        3.5160    -5.3070     1.0840 C.3   1 <1>   0.5240 
 11 C        5.4300    -3.8480    -1.0250 C.3   1 <1>  -0.2400 
 12 C        5.7860    -1.5570    -0.1330 C.3   1 <1>  -0.2400 
 13 C        4.0210    -1.9720    -1.8560 C.3   1 <1>  -0.2400 
 14 N        2.3080    -5.9980     0.5680 N.4   1 <1>  -0.9590 
 15 C        2.3880    -7.4860     0.6690 C.3   1 <1>   0.5240 
 16 C        1.9030    -5.5380    -0.7980 C.3   1 <1>   0.2630 
 17 C        0.9790    -8.0630     0.6840 C.2   1 <1>   0.1080 
 18 N       -0.0250    -7.4360     1.1880 N.2   1 <1>  -0.4100 
 19 C        0.5820    -9.2930     0.1730 C.2   1 <1>  -0.1500 
 20 O       -1.0510    -8.2170     1.0200 O.3   1 <1>  -0.0190 
 21 C       -0.7470    -9.3450     0.4160 C.2   1 <1>   0.0870 
 22 C       -1.7540   -10.3440     0.1380 C.ar  1 <1>   0.0530 
 23 C       -1.4270   -11.5450    -0.4940 C.ar  1 <1>  -0.1500 
 24 C       -3.0900   -10.1480     0.4870 C.ar  1 <1>  -0.1500 
 25 C       -2.3870   -12.5030    -0.7650 C.ar  1 <1>  -0.1500 
 26 C       -4.0550   -11.1020     0.2190 C.ar  1 <1>  -0.1500 
 27 C       -3.7050   -12.2830    -0.4090 C.ar  1 <1>  -0.1500 
 28 H        0.9430     1.0200     2.7190 H     1 <1>   0.3700 
 29 H        2.1830     0.6660     1.5370 H     1 <1>   0.3700 
 30 H        1.6790    -3.8770     2.7990 H     1 <1>   0.1500 
 31 H        3.7650    -5.6740     2.0670 H     1 <1>   0.0800 
 32 H        4.3530    -5.4830     0.4330 H     1 <1>   0.0800 
 33 H        5.9510    -4.2710    -0.1860 H     1 <1>   0.0800 
 34 H        6.1580    -3.6430    -1.7920 H     1 <1>   0.0800 
 35 H        4.7310    -4.5590    -1.4220 H     1 <1>   0.0800 
 36 H        6.2710    -1.9300     0.7510 H     1 <1>   0.0800 
 37 H        5.3390    -0.6080     0.1060 H     1 <1>   0.0800 
 38 H        6.5320    -1.3940    -0.8910 H     1 <1>   0.0800 
 39 H        3.2580    -2.6420    -2.2070 H     1 <1>   0.0800 
 40 H        4.7270    -1.8080    -2.6510 H     1 <1>   0.0800 
 41 H        3.5580    -1.0300    -1.6200 H     1 <1>   0.0800 
 42 H        1.5240    -5.7420     1.1940 H     1 <1>   0.4500 
 43 H        2.8760    -7.7670     1.5880 H     1 <1>   0.0800 
 44 H        2.9470    -7.8910    -0.1580 H     1 <1>   0.0800 
 45 H        2.6570    -5.7920    -1.5250 H     1 <1>   0.0800 
 46 H        1.7640    -4.4670    -0.8050 H     1 <1>   0.0800 
 47 H        0.9710    -5.9990    -1.0860 H     1 <1>   0.0800 
 48 H        1.2000   -10.0320    -0.3050 H     1 <1>   0.1500 
 49 H       -0.4100   -11.7410    -0.7800 H     1 <1>   0.1500 
 50 H       -3.3850    -9.2360     0.9770 H     1 <1>   0.1500 
 51 H       -2.1120   -13.4220    -1.2530 H     1 <1>   0.1500 
 52 H       -5.0790   -10.9260     0.4990 H     1 <1>   0.1500 
 53 H       -4.4540   -13.0270    -0.6180 H     1 <1>   0.1500 
@<TRIPOS>BOND
  1   1   2  2   
  2   2   3  am  
  3   2   4  1   
  4   3  28  1   
  5   3  29  1   
  6   4   5  1   
  7   4   6  2   
  8   5   7  1   
  9   6   8  1   
 10   6  30  1   
 11   7   8  2   
 12   7   9  1   
 13   8  10  1   
 14   9  11  1   
 15   9  12  1   
 16   9  13  1   
 17  10  14  1   
 18  10  31  1   
 19  10  32  1   
 20  11  33  1   
 21  11  34  1   
 22  11  35  1   
 23  12  36  1   
 24  12  37  1   
 25  12  38  1   
 26  13  39  1   
 27  13  40  1   
 28  13  41  1   
 29  14  15  1   
 30  14  16  1   
 31  14  42  1   
 32  15  17  1   
 33  15  43  1   
 34  15  44  1   
 35  16  45  1   
 36  16  46  1   
 37  16  47  1   
 38  17  18  2   
 39  17  19  1   
 40  18  20  1   
 41  19  21  2   
 42  19  48  1   
 43  20  21  1   
 44  21  22  1   
 45  22  23  ar  
 46  22  24  ar  
 47  23  25  ar  
 48  23  49  1   
 49  24  26  ar  
 50  24  50  1   
 51  25  27  ar  
 52  25  51  1   
 53  26  27  ar  
 54  26  52  1   
 55  27  53  1   
@<TRIPOS>SUBSTRUCTURE
  1 ****  14 GROUP 4 **** **** 0

# MOE 2024.06 (io_trps.svl 2023.06)
