@<TRIPOS>MOLECULE
NONAME
53 57 1 0 0 
SMALL
USER_CHARGES


@<TRIPOS>ATOM
  1 O        1.5060    -0.4190     1.3630 O.3   1 <1>  -0.6800 
  2 C        1.7770    -0.8000     0.0680 C.3   1 <1>   0.2000 
  3 C        1.9880    -2.3070     0.0160 C.3   1 <1>  -0.1600 
  4 C        3.1010    -0.1940    -0.3650 C.3   1 <1>  -0.1600 
  5 C        3.0030    -2.5400    -1.1130 C.3   1 <1>  -0.0800 
  6 C        3.7010    -1.1930    -1.3650 C.3   1 <1>  -0.0800 
  7 C        4.1170    -3.5220    -0.7270 C.3   1 <1>  -0.1600 
  8 C        5.1940    -1.4380    -1.1250 C.3   1 <1>  -0.1600 
  9 C        5.2230    -2.6260    -0.1690 C.3   1 <1>   0.4230 
 10 N        6.5900    -3.2350    -0.1040 N.4   1 <1>  -0.9590 
 11 C        7.3110    -2.7910     1.1280 C.3   1 <1>   0.4860 
 12 C        6.6340    -4.7290    -0.1940 C.3   1 <1>   0.2630 
 13 C        7.5040    -1.2890     1.1020 C.ar  1 <1>  -0.1440 
 14 C        8.4660    -0.7200     0.2750 C.ar  1 <1>  -0.1500 
 15 C        6.7030    -0.4720     1.8960 C.ar  1 <1>  -0.1500 
 16 C        8.5950     0.6540     0.2420 C.ar  1 <1>  -0.1440 
 17 C        6.8420     0.9040     1.8530 C.ar  1 <1>  -0.1500 
 18 C        7.7910     1.4700     1.0160 C.ar  1 <1>   0.0000 
 19 C        9.5630     1.4980    -0.5780 C.3   1 <1>   0.1270 
 20 C        8.1330     2.8420     0.7760 C.ar  1 <1>   0.0000 
 21 C        9.1610     2.9000    -0.1480 C.ar  1 <1>  -0.1440 
 22 C        7.6130     4.0180     1.3000 C.ar  1 <1>  -0.1500 
 23 C        9.6850     4.1090    -0.5630 C.ar  1 <1>  -0.1500 
 24 C        8.1320     5.2350     0.8900 C.ar  1 <1>  -0.1500 
 25 C        9.1640     5.2810    -0.0380 C.ar  1 <1>  -0.1500 
 26 H        0.6160    -0.7230     1.6270 H     1 <1>   0.4000 
 27 H        0.9750    -0.4850    -0.5810 H     1 <1>   0.0800 
 28 H        2.3860    -2.6420     0.9580 H     1 <1>   0.0800 
 29 H        1.0630    -2.8190    -0.1830 H     1 <1>   0.0800 
 30 H        2.9530     0.7700    -0.8180 H     1 <1>   0.0800 
 31 H        3.7400    -0.0840     0.4940 H     1 <1>   0.0800 
 32 H        2.4900    -2.8690    -2.0020 H     1 <1>   0.0800 
 33 H        3.5200    -0.8540    -2.3730 H     1 <1>   0.0800 
 34 H        4.4460    -4.0120    -1.6260 H     1 <1>   0.0800 
 35 H        3.7780    -4.2530    -0.0140 H     1 <1>   0.0800 
 36 H        5.6750    -0.5600    -0.7330 H     1 <1>   0.0800 
 37 H        5.6530    -1.7050    -2.0610 H     1 <1>   0.0800 
 38 H        4.9180    -2.2880     0.8090 H     1 <1>   0.0800 
 39 H        7.1070    -2.8330    -0.8950 H     1 <1>   0.4500 
 40 H        6.7510    -3.0700     2.0050 H     1 <1>   0.0800 
 41 H        8.2780    -3.2640     1.1800 H     1 <1>   0.0800 
 42 H        6.0580    -5.1700     0.6040 H     1 <1>   0.0800 
 43 H        7.6500    -5.0810    -0.1230 H     1 <1>   0.0800 
 44 H        6.2270    -5.0620    -1.1350 H     1 <1>   0.0800 
 45 H        9.1120    -1.3250    -0.3370 H     1 <1>   0.1500 
 46 H        5.9610    -0.8930     2.5530 H     1 <1>   0.1500 
 47 H        6.2220     1.5390     2.4620 H     1 <1>   0.1500 
 48 H       10.5840     1.2930    -0.3100 H     1 <1>   0.0800 
 49 H        9.4070     1.3600    -1.6320 H     1 <1>   0.0800 
 50 H        6.8150     3.9790     2.0180 H     1 <1>   0.1500 
 51 H       10.4850     4.1440    -1.2820 H     1 <1>   0.1500 
 52 H        7.7340     6.1500     1.2920 H     1 <1>   0.1500 
 53 H        9.5600     6.2310    -0.3510 H     1 <1>   0.1500 
@<TRIPOS>BOND
  1   1   2  1   
  2   1  26  1   
  3   2   3  1   
  4   2   4  1   
  5   2  27  1   
  6   3   5  1   
  7   3  28  1   
  8   3  29  1   
  9   4   6  1   
 10   4  30  1   
 11   4  31  1   
 12   5   6  1   
 13   5   7  1   
 14   5  32  1   
 15   6   8  1   
 16   6  33  1   
 17   7   9  1   
 18   7  34  1   
 19   7  35  1   
 20   8   9  1   
 21   8  36  1   
 22   8  37  1   
 23   9  10  1   
 24   9  38  1   
 25  10  11  1   
 26  10  12  1   
 27  10  39  1   
 28  11  13  1   
 29  11  40  1   
 30  11  41  1   
 31  12  42  1   
 32  12  43  1   
 33  12  44  1   
 34  13  14  ar  
 35  13  15  ar  
 36  14  16  ar  
 37  14  45  1   
 38  15  17  ar  
 39  15  46  1   
 40  16  18  ar  
 41  16  19  1   
 42  17  18  ar  
 43  17  47  1   
 44  18  20  1   
 45  19  21  1   
 46  19  48  1   
 47  19  49  1   
 48  20  21  ar  
 49  20  22  ar  
 50  21  23  ar  
 51  22  24  ar  
 52  22  50  1   
 53  23  25  ar  
 54  23  51  1   
 55  24  25  ar  
 56  24  52  1   
 57  25  53  1   
@<TRIPOS>SUBSTRUCTURE
  1 ****  15 GROUP 4 **** **** 0

# MOE 2024.06 (io_trps.svl 2023.06)
