@<TRIPOS>MOLECULE
NONAME
52 54 1 0 0 
SMALL
USER_CHARGES


@<TRIPOS>ATOM
  1 O        3.3670    -1.7730     1.9970 O.2   1 <1>  -0.5700 
  2 C        2.6370    -1.9710     1.0550 C.2   1 <1>   0.5690 
  3 N        1.8510    -1.0250     0.4620 N.am  1 <1>  -0.5470 
  4 C        2.5540    -3.3770     0.4590 C.3   1 <1>   0.1710 
  5 C        1.6140     0.3350     0.7100 C.ar  1 <1>   0.1170 
  6 N        1.9090    -3.4100    -0.8960 N.3   1 <1>  -0.8100 
  7 C        0.8500     1.0500    -0.2060 C.ar  1 <1>  -0.1500 
  8 C        2.0990     1.0020     1.8290 C.ar  1 <1>  -0.1500 
  9 C        1.2390    -4.6900    -1.1770 C.3   1 <1>   0.1100 
 10 C        2.8940    -3.0950    -1.9420 C.3   1 <1>   0.0300 
 11 C        0.5730     2.3940    -0.0190 C.ar  1 <1>  -0.1430 
 12 C        1.8300     2.3440     2.0240 C.ar  1 <1>  -0.1500 
 13 C       -0.0920    -4.8050    -0.4160 C.3   1 <1>  -0.0800 
 14 C        1.0680     3.0400     1.1020 C.ar  1 <1>  -0.1500 
 15 C       -0.2600     3.1650    -1.0270 C.3   1 <1>  -0.0970 
 16 C       -0.9000    -6.0320    -0.8350 C.3   1 <1>   0.2090 
 17 C       -1.0470    -3.6370    -0.6570 C.3   1 <1>  -0.1600 
 18 N       -2.3270    -5.6420    -0.7020 N.pl3 1 <1>  -0.8380 
 19 C       -2.4170    -4.2090    -0.3310 C.3   1 <1>   0.2090 
 20 C       -3.2650    -6.5940    -0.2790 C.ar  1 <1>   0.1000 
 21 C       -3.2160    -7.8880    -0.7940 C.ar  1 <1>  -0.1500 
 22 C       -4.2750    -6.3040     0.6390 C.ar  1 <1>  -0.1500 
 23 C       -4.1180    -8.8590    -0.3970 C.ar  1 <1>  -0.1500 
 24 C       -5.1810    -7.2700     1.0390 C.ar  1 <1>  -0.1500 
 25 C       -5.1030    -8.5520     0.5240 C.ar  1 <1>  -0.1500 
 26 H        1.3770    -1.4260    -0.3530 H     1 <1>   0.3700 
 27 H        1.9900    -3.9680     1.1550 H     1 <1>   0.0800 
 28 H        3.5440    -3.7950     0.4110 H     1 <1>   0.0800 
 29 H        0.4700     0.5450    -1.0740 H     1 <1>   0.1500 
 30 H        2.6900     0.4770     2.5560 H     1 <1>   0.1500 
 31 H        1.8890    -5.5120    -0.9270 H     1 <1>   0.0800 
 32 H        1.0240    -4.7460    -2.2320 H     1 <1>   0.0800 
 33 H        3.3650    -2.1470    -1.7390 H     1 <1>   0.0800 
 34 H        2.4060    -3.0290    -2.8990 H     1 <1>   0.0800 
 35 H        3.6540    -3.8570    -1.9880 H     1 <1>   0.0800 
 36 H        2.2140     2.8460     2.8950 H     1 <1>   0.1500 
 37 H        0.0920    -4.8970     0.6390 H     1 <1>   0.0800 
 38 H        0.8640     4.0840     1.2610 H     1 <1>   0.1500 
 39 H       -0.7590     2.4970    -1.7040 H     1 <1>   0.0800 
 40 H        0.3740     3.8230    -1.5940 H     1 <1>   0.0800 
 41 H       -1.0040     3.7520    -0.5180 H     1 <1>   0.0800 
 42 H       -0.6710    -6.8790    -0.2100 H     1 <1>   0.0800 
 43 H       -0.7110    -6.2830    -1.8650 H     1 <1>   0.0800 
 44 H       -1.0280    -3.3460    -1.6920 H     1 <1>   0.0800 
 45 H       -0.8140    -2.7850    -0.0450 H     1 <1>   0.0800 
 46 H       -3.1980    -3.7190    -0.8880 H     1 <1>   0.0800 
 47 H       -2.6010    -4.1150     0.7250 H     1 <1>   0.0800 
 48 H       -2.4670    -8.1330    -1.5210 H     1 <1>   0.1500 
 49 H       -4.3640    -5.3200     1.0510 H     1 <1>   0.1500 
 50 H       -4.0550    -9.8500    -0.8080 H     1 <1>   0.1500 
 51 H       -5.9490    -7.0250     1.7510 H     1 <1>   0.1500 
 52 H       -5.8070    -9.3050     0.8350 H     1 <1>   0.1500 
@<TRIPOS>BOND
  1   1   2  2   
  2   2   3  am  
  3   2   4  1   
  4   3   5  1   
  5   3  26  1   
  6   4   6  1   
  7   4  27  1   
  8   4  28  1   
  9   5   7  ar  
 10   5   8  ar  
 11   6   9  1   
 12   6  10  1   
 13   7  11  ar  
 14   7  29  1   
 15   8  12  ar  
 16   8  30  1   
 17   9  13  1   
 18   9  31  1   
 19   9  32  1   
 20  10  33  1   
 21  10  34  1   
 22  10  35  1   
 23  11  14  ar  
 24  11  15  1   
 25  12  14  ar  
 26  12  36  1   
 27  13  16  1   
 28  13  17  1   
 29  13  37  1   
 30  14  38  1   
 31  15  39  1   
 32  15  40  1   
 33  15  41  1   
 34  16  18  1   
 35  16  42  1   
 36  16  43  1   
 37  17  19  1   
 38  17  44  1   
 39  17  45  1   
 40  18  19  1   
 41  18  20  1   
 42  19  46  1   
 43  19  47  1   
 44  20  21  ar  
 45  20  22  ar  
 46  21  23  ar  
 47  21  48  1   
 48  22  24  ar  
 49  22  49  1   
 50  23  25  ar  
 51  23  50  1   
 52  24  25  ar  
 53  24  51  1   
 54  25  52  1   
@<TRIPOS>SUBSTRUCTURE
  1 ****  17 GROUP 4 **** **** 0

# MOE 2024.06 (io_trps.svl 2023.06)
