@<TRIPOS>MOLECULE
NONAME
46 48 1 0 0 
SMALL
USER_CHARGES


@<TRIPOS>ATOM
  1 F        2.0240    -1.2380    -1.9970 F     1 <1>  -0.1900 
  2 C        1.0990    -2.0730    -1.6050 C.ar  1 <1>   0.1900 
  3 C        1.3160    -2.8140    -0.4610 C.ar  1 <1>  -0.1500 
  4 C       -0.0570    -2.1810    -2.3550 C.ar  1 <1>  -0.1500 
  5 C        0.3420    -3.7130    -0.0300 C.ar  1 <1>   0.0860 
  6 C       -1.0330    -3.0660    -1.9330 C.ar  1 <1>  -0.1500 
  7 C        0.5450    -4.5130     1.1530 C.2   1 <1>   0.5440 
  8 C       -0.8350    -3.8160    -0.7810 C.ar  1 <1>   0.0830 
  9 O        0.1790    -4.1170     2.2390 O.2   1 <1>  -0.5700 
 10 N        1.1510    -5.7300     1.1100 N.am  1 <1>  -0.7300 
 11 O       -1.7990    -4.6750    -0.4010 O.3   1 <1>  -0.3630 
 12 C        1.6410    -6.4440    -0.0890 C.3   1 <1>   0.1400 
 13 C       -2.8080    -4.1860     0.4630 C.3   1 <1>   0.1200 
 14 C        1.3930    -7.9480     0.0360 C.3   1 <1>  -0.1600 
 15 C       -2.9870    -5.1130     1.6730 C.3   1 <1>   0.0960 
 16 C       -0.0890    -8.2880     0.2030 C.3   1 <1>   0.1400 
 17 N       -3.1310    -6.5410     1.3230 N.pl3 1 <1>   0.3140 
 18 N       -0.2520    -9.7560     0.1060 N.am  1 <1>  -0.7300 
 19 N       -2.9340    -7.4950     2.2390 N.2   1 <1>  -0.4180 
 20 C       -3.4340    -7.1150     0.1550 C.2   1 <1>  -0.3020 
 21 C       -1.2200   -10.4900    -0.4940 C.2   1 <1>   0.5690 
 22 N       -3.0870    -8.6430     1.6780 N.2   1 <1>  -0.2270 
 23 C       -3.3830    -8.4320     0.3930 C.2   1 <1>   0.0460 
 24 O       -1.2250   -11.6860    -0.3530 O.2   1 <1>  -0.5700 
 25 C       -2.2980    -9.8760    -1.3680 C.3   1 <1>  -0.0990 
 26 C       -3.5850    -9.5690    -0.5890 C.3   1 <1>   0.0210 
 27 H        2.2290    -2.6960     0.0940 H     1 <1>   0.1500 
 28 H       -0.1830    -1.5870    -3.2430 H     1 <1>   0.1500 
 29 H       -1.9440    -3.1800    -2.4940 H     1 <1>   0.1500 
 30 H        1.2600    -6.2030     2.0110 H     1 <1>   0.3700 
 31 H        2.6980    -6.2620    -0.1960 H     1 <1>   0.0800 
 32 H        1.1440    -6.0690    -0.9680 H     1 <1>   0.0800 
 33 H       -3.7210    -4.1200    -0.1010 H     1 <1>   0.0800 
 34 H       -2.5380    -3.1990     0.8010 H     1 <1>   0.0800 
 35 H        1.9510    -8.3340     0.8700 H     1 <1>   0.0800 
 36 H        1.7580    -8.4190    -0.8590 H     1 <1>   0.0800 
 37 H       -3.8580    -4.8160     2.2260 H     1 <1>   0.0800 
 38 H       -2.1410    -5.0160     2.3260 H     1 <1>   0.0800 
 39 H       -0.6690    -7.7900    -0.5540 H     1 <1>   0.0800 
 40 H       -0.4370    -7.9570     1.1670 H     1 <1>   0.0800 
 41 H        0.3470   -10.2980     0.7310 H     1 <1>   0.3700 
 42 H       -3.6410    -6.5770    -0.7500 H     1 <1>   0.1500 
 43 H       -2.5300   -10.5850    -2.1420 H     1 <1>   0.0800 
 44 H       -1.9330    -8.9900    -1.8490 H     1 <1>   0.0800 
 45 H       -4.3570    -9.2880    -1.2820 H     1 <1>   0.0800 
 46 H       -3.9160   -10.4470    -0.0610 H     1 <1>   0.0800 
@<TRIPOS>BOND
  1   1   2  1   
  2   2   3  ar  
  3   2   4  ar  
  4   3   5  ar  
  5   3  27  1   
  6   4   6  ar  
  7   4  28  1   
  8   5   7  1   
  9   5   8  ar  
 10   6   8  ar  
 11   6  29  1   
 12   7   9  2   
 13   7  10  am  
 14   8  11  1   
 15  10  12  1   
 16  10  30  1   
 17  11  13  1   
 18  12  14  1   
 19  12  31  1   
 20  12  32  1   
 21  13  15  1   
 22  13  33  1   
 23  13  34  1   
 24  14  16  1   
 25  14  35  1   
 26  14  36  1   
 27  15  17  1   
 28  15  37  1   
 29  15  38  1   
 30  16  18  1   
 31  16  39  1   
 32  16  40  1   
 33  17  19  1   
 34  17  20  1   
 35  18  21  am  
 36  18  41  1   
 37  19  22  2   
 38  20  23  2   
 39  20  42  1   
 40  21  24  2   
 41  21  25  1   
 42  22  23  1   
 43  23  26  1   
 44  25  26  1   
 45  25  43  1   
 46  25  44  1   
 47  26  45  1   
 48  26  46  1   
@<TRIPOS>SUBSTRUCTURE
  1 ****  11 GROUP 4 **** **** 0

# MOE 2024.06 (io_trps.svl 2023.06)
