@<TRIPOS>MOLECULE
NONAME
48 50 1 0 0 
SMALL
USER_CHARGES


@<TRIPOS>ATOM
  1 CL       1.4710    -1.7420     2.2730 Cl    1 <1>  -0.1770 
  2 C        0.6450    -3.0700     1.5030 C.ar  1 <1>   0.1770 
  3 C        0.2390    -2.9650     0.2020 C.ar  1 <1>  -0.1500 
  4 C        0.4140    -4.2300     2.2460 C.ar  1 <1>  -0.1500 
  5 C       -0.4290    -4.0380    -0.4200 C.ar  1 <1>   0.0000 
  6 C       -0.2340    -5.2830     1.6540 C.ar  1 <1>  -0.1500 
  7 C       -0.6700    -5.2200     0.3180 C.ar  1 <1>   0.3100 
  8 C       -0.8740    -3.9930    -1.7510 C.ar  1 <1>  -0.1500 
  9 N       -1.3090    -6.2940    -0.2140 N.ar  1 <1>  -0.6200 
 10 C       -1.5130    -5.0830    -2.2600 C.ar  1 <1>  -0.1500 
 11 C       -1.7100    -6.2160    -1.4530 C.ar  1 <1>   0.1670 
 12 C       -2.4360    -7.4270    -2.0420 C.3   1 <1>   0.4870 
 13 N       -3.2210    -8.1170    -0.9790 N.4   1 <1>  -0.9590 
 14 C       -3.5410    -9.5400    -1.3190 C.3   1 <1>   0.3430 
 15 C       -4.4230    -7.3410    -0.5690 C.3   1 <1>   0.3430 
 16 C       -4.2300   -10.2580    -0.1540 C.3   1 <1>   0.2000 
 17 C       -5.1040    -8.0230     0.6140 C.3   1 <1>  -0.1600 
 18 O       -4.5750   -11.5310    -0.5600 O.3   1 <1>  -0.6800 
 19 C       -5.4690    -9.5240     0.4130 C.3   1 <1>  -0.1060 
 20 C       -5.7290   -10.1820     1.7810 C.2   1 <1>   0.9060 
 21 C       -6.7870    -9.6810    -0.4170 C.3   1 <1>  -0.1600 
 22 O       -5.8930    -9.4740     2.7780 O.co2 1 <1>  -0.9000 
 23 O       -5.7290   -11.4190     1.8400 O.co2 1 <1>  -0.9000 
 24 C       -6.7750    -9.3740    -1.9250 C.3   1 <1>  -0.1600 
 25 C       -8.1730    -9.5680    -2.5200 C.3   1 <1>  -0.2400 
 26 H        0.4290    -2.0630    -0.3500 H     1 <1>   0.1500 
 27 H        0.7500    -4.2710     3.2670 H     1 <1>   0.1500 
 28 H       -0.4250    -6.1880     2.2040 H     1 <1>   0.1500 
 29 H       -0.7030    -3.1060    -2.3380 H     1 <1>   0.1500 
 30 H       -1.8640    -5.0780    -3.2770 H     1 <1>   0.1500 
 31 H       -1.6950    -8.1010    -2.4370 H     1 <1>   0.0800 
 32 H       -3.0850    -7.1190    -2.8440 H     1 <1>   0.0800 
 33 H       -2.5920    -8.1000    -0.1560 H     1 <1>   0.4500 
 34 H       -4.1880    -9.5680    -2.1760 H     1 <1>   0.0800 
 35 H       -2.6360   -10.0740    -1.5550 H     1 <1>   0.0800 
 36 H       -4.1290    -6.3470    -0.2720 H     1 <1>   0.0800 
 37 H       -5.1070    -7.2530    -1.3920 H     1 <1>   0.0800 
 38 H       -3.5070   -10.3790     0.6370 H     1 <1>   0.0800 
 39 H       -4.4360    -7.9330     1.4550 H     1 <1>   0.0800 
 40 H       -5.9900    -7.4740     0.8800 H     1 <1>   0.0800 
 41 H       -5.0710   -11.9230     0.2180 H     1 <1>   0.4000 
 42 H       -7.1180   -10.7020    -0.3090 H     1 <1>   0.0800 
 43 H       -7.5470    -9.0810     0.0540 H     1 <1>   0.0800 
 44 H       -6.4740    -8.3650    -2.1150 H     1 <1>   0.0800 
 45 H       -6.1070   -10.0500    -2.4280 H     1 <1>   0.0800 
 46 H       -8.8780    -8.9040    -2.0510 H     1 <1>   0.0800 
 47 H       -8.5040   -10.5820    -2.3710 H     1 <1>   0.0800 
 48 H       -8.1600    -9.3660    -3.5760 H     1 <1>   0.0800 
@<TRIPOS>BOND
  1   1   2  1   
  2   2   3  ar  
  3   2   4  ar  
  4   3   5  ar  
  5   3  26  1   
  6   4   6  ar  
  7   4  27  1   
  8   5   7  ar  
  9   5   8  ar  
 10   6   7  ar  
 11   6  28  1   
 12   7   9  ar  
 13   8  10  ar  
 14   8  29  1   
 15   9  11  ar  
 16  10  11  ar  
 17  10  30  1   
 18  11  12  1   
 19  12  13  1   
 20  12  31  1   
 21  12  32  1   
 22  13  14  1   
 23  13  15  1   
 24  13  33  1   
 25  14  16  1   
 26  14  34  1   
 27  14  35  1   
 28  15  17  1   
 29  15  36  1   
 30  15  37  1   
 31  16  18  1   
 32  16  19  1   
 33  16  38  1   
 34  17  19  1   
 35  17  39  1   
 36  17  40  1   
 37  18  41  1   
 38  19  20  1   
 39  19  21  1   
 40  20  22  ar  
 41  20  23  ar  
 42  21  24  1   
 43  21  42  1   
 44  21  43  1   
 45  24  25  1   
 46  24  44  1   
 47  24  45  1   
 48  25  46  1   
 49  25  47  1   
 50  25  48  1   
@<TRIPOS>SUBSTRUCTURE
  1 ****  13 GROUP 4 **** **** 0

# MOE 2024.06 (io_trps.svl 2023.06)
