@<TRIPOS>MOLECULE
NONAME
42 44 1 0 0 
SMALL
USER_CHARGES


@<TRIPOS>ATOM
  1 F       -1.0370    -0.3100     0.4130 F     1 <1>  -0.1900 
  2 C       -2.1790    -0.9020     0.1700 C.ar  1 <1>   0.1900 
  3 C       -2.2040    -2.1930    -0.3300 C.ar  1 <1>   0.1900 
  4 C       -3.3500    -0.2140     0.4220 C.ar  1 <1>  -0.1500 
  5 F       -1.0870    -2.8370    -0.5660 F     1 <1>  -0.1900 
  6 C       -3.4070    -2.8220    -0.5910 C.ar  1 <1>  -0.1500 
  7 C       -4.5720    -0.8300     0.1690 C.ar  1 <1>   0.1170 
  8 C       -4.5830    -2.1320    -0.3400 C.ar  1 <1>  -0.1500 
  9 N       -5.7510    -0.1140     0.4150 N.am  1 <1>  -0.5470 
 10 C       -7.0060    -0.5460     0.7390 C.2   1 <1>   0.6900 
 11 O       -7.2060    -1.7140     1.0140 O.2   1 <1>  -0.5700 
 12 N       -8.0330     0.3650     0.7740 N.am  1 <1>  -0.6600 
 13 C       -9.3690    -0.0090     1.3290 C.3   1 <1>   0.1400 
 14 C       -8.0360     1.6700     0.0580 C.3   1 <1>   0.1400 
 15 C      -10.4120    -0.1340     0.2000 C.3   1 <1>   0.0000 
 16 C       -9.0460     1.6240    -1.0940 C.3   1 <1>  -0.1600 
 17 C      -11.7840    -0.5280     0.7810 C.3   1 <1>   0.2000 
 18 C      -10.4450     1.1890    -0.6180 C.3   1 <1>  -0.1600 
 19 C      -10.1280    -1.3390    -0.7150 C.3   1 <1>  -0.1600 
 20 O      -12.5040     0.5540     1.2530 O.3   1 <1>  -0.6800 
 21 C      -12.5480    -1.2220    -0.3460 C.3   1 <1>  -0.1600 
 22 C      -11.4790    -1.7310    -1.3230 C.3   1 <1>  -0.1600 
 23 H       -3.3040     0.7850     0.8130 H     1 <1>   0.1500 
 24 H       -3.4210    -3.8240    -0.9790 H     1 <1>   0.1500 
 25 H       -5.5240    -2.6130    -0.5440 H     1 <1>   0.1500 
 26 H       -5.6570     0.8910     0.4990 H     1 <1>   0.3700 
 27 H       -9.3050    -0.9350     1.8760 H     1 <1>   0.0800 
 28 H       -9.6840     0.7520     2.0220 H     1 <1>   0.0800 
 29 H       -8.3120     2.4460     0.7520 H     1 <1>   0.0800 
 30 H       -7.0630     1.9030    -0.3360 H     1 <1>   0.0800 
 31 H       -9.1120     2.6000    -1.5420 H     1 <1>   0.0800 
 32 H       -8.6820     0.9530    -1.8500 H     1 <1>   0.0800 
 33 H      -11.6510    -1.2180     1.5980 H     1 <1>   0.0800 
 34 H      -11.0980     1.0920    -1.4680 H     1 <1>   0.0800 
 35 H      -10.8290     1.9800     0.0010 H     1 <1>   0.0800 
 36 H       -9.3890    -1.1420    -1.4690 H     1 <1>   0.0800 
 37 H       -9.7710    -2.1620    -0.1170 H     1 <1>   0.0800 
 38 H      -12.7030     1.1580     0.5140 H     1 <1>   0.4000 
 39 H      -13.1250    -2.0400     0.0490 H     1 <1>   0.0800 
 40 H      -13.2030    -0.5360    -0.8540 H     1 <1>   0.0800 
 41 H      -11.5430    -2.7970    -1.4600 H     1 <1>   0.0800 
 42 H      -11.6030    -1.2500    -2.2780 H     1 <1>   0.0800 
@<TRIPOS>BOND
  1   1   2  1   
  2   2   3  ar  
  3   2   4  ar  
  4   3   5  1   
  5   3   6  ar  
  6   4   7  ar  
  7   4  23  1   
  8   6   8  ar  
  9   6  24  1   
 10   7   8  ar  
 11   7   9  1   
 12   8  25  1   
 13   9  10  am  
 14   9  26  1   
 15  10  11  2   
 16  10  12  am  
 17  12  13  1   
 18  12  14  1   
 19  13  15  1   
 20  13  27  1   
 21  13  28  1   
 22  14  16  1   
 23  14  29  1   
 24  14  30  1   
 25  15  17  1   
 26  15  18  1   
 27  15  19  1   
 28  16  18  1   
 29  16  31  1   
 30  16  32  1   
 31  17  20  1   
 32  17  21  1   
 33  17  33  1   
 34  18  34  1   
 35  18  35  1   
 36  19  22  1   
 37  19  36  1   
 38  19  37  1   
 39  20  38  1   
 40  21  22  1   
 41  21  39  1   
 42  21  40  1   
 43  22  41  1   
 44  22  42  1   
@<TRIPOS>SUBSTRUCTURE
  1 ****  10 GROUP 4 **** **** 0

# MOE 2024.06 (io_trps.svl 2023.06)
