@<TRIPOS>MOLECULE
NONAME
57 59 1 0 0 
SMALL
USER_CHARGES


@<TRIPOS>ATOM
  1 O       -1.4580     5.1510    -1.3970 O.2   1 <1>  -0.5700 
  2 C       -1.4340     4.3220    -0.5150 C.2   1 <1>   0.6900 
  3 N       -2.5110     3.6000    -0.0930 N.am  1 <1>  -0.4200 
  4 N       -0.3150     3.9800     0.1530 N.am  1 <1>  -0.7300 
  5 C       -2.1050     2.6840     0.8270 C.2   1 <1>   0.5690 
  6 C       -3.7590     3.4680    -0.8840 C.3   1 <1>   0.2010 
  7 C       -0.5860     2.8370     1.0320 C.3   1 <1>   0.3610 
  8 O       -2.8180     1.8810     1.3850 O.2   1 <1>  -0.5700 
  9 C       -3.7820     2.1710    -1.7010 C.2   1 <1>   0.5690 
 10 C        0.2060     1.6290     0.5240 C.3   1 <1>  -0.2400 
 11 C       -0.2000     3.2130     2.4630 C.3   1 <1>  -0.2400 
 12 O       -2.7700     1.8610    -2.2890 O.2   1 <1>  -0.5700 
 13 N       -4.9040     1.3800    -1.7660 N.am  1 <1>  -0.6600 
 14 C       -4.8990     0.1170    -2.5760 C.3   1 <1>   0.1400 
 15 C       -6.1450     1.5660    -0.9630 C.3   1 <1>   0.1400 
 16 C       -4.6050    -1.1190    -1.7130 C.3   1 <1>   0.1400 
 17 C       -5.9880     1.0130     0.4630 C.3   1 <1>  -0.1600 
 18 N       -5.5500    -1.2250    -0.5570 N.am  1 <1>  -0.6600 
 19 C       -5.2230    -0.3130     0.5730 C.3   1 <1>   0.1400 
 20 C       -6.7130    -1.9610    -0.6460 C.2   1 <1>   0.5440 
 21 O       -6.9680    -2.5200    -1.6970 O.2   1 <1>  -0.5700 
 22 C       -7.6330    -2.0770     0.4730 C.ar  1 <1>   0.0860 
 23 C       -8.9400    -1.5600     0.4640 C.ar  1 <1>  -0.1440 
 24 C       -7.2040    -2.7470     1.6200 C.ar  1 <1>  -0.1500 
 25 C       -9.7520    -1.7200     1.5770 C.ar  1 <1>  -0.1500 
 26 C       -9.5280    -0.8370    -0.7510 C.3   1 <1>  -0.0170 
 27 C       -8.0170    -2.8940     2.7260 C.ar  1 <1>  -0.1500 
 28 C       -9.2960    -2.3760     2.7060 C.ar  1 <1>  -0.1500 
 29 C       -9.9190     0.6110    -0.4360 C.3   1 <1>  -0.2400 
 30 H        0.6040     4.1500    -0.2530 H     1 <1>   0.3700 
 31 H       -3.8400     4.2960    -1.5640 H     1 <1>   0.0800 
 32 H       -4.5870     3.5090    -0.2050 H     1 <1>   0.0800 
 33 H       -0.0600     1.4110    -0.4960 H     1 <1>   0.0800 
 34 H       -0.0290     0.7670     1.1220 H     1 <1>   0.0800 
 35 H        1.2630     1.8120     0.5870 H     1 <1>   0.0800 
 36 H       -0.7410     4.0890     2.7770 H     1 <1>   0.0800 
 37 H        0.8550     3.4040     2.5330 H     1 <1>   0.0800 
 38 H       -0.4490     2.4070     3.1300 H     1 <1>   0.0800 
 39 H       -4.1570     0.1810    -3.3520 H     1 <1>   0.0800 
 40 H       -5.8520    -0.0110    -3.0580 H     1 <1>   0.0800 
 41 H       -6.9520     1.0410    -1.4480 H     1 <1>   0.0800 
 42 H       -6.4210     2.6050    -0.9330 H     1 <1>   0.0800 
 43 H       -3.5930    -1.0670    -1.3530 H     1 <1>   0.0800 
 44 H       -4.6800    -2.0000    -2.3270 H     1 <1>   0.0800 
 45 H       -6.9640     0.8780     0.8900 H     1 <1>   0.0800 
 46 H       -5.4880     1.7390     1.0760 H     1 <1>   0.0800 
 47 H       -5.4410    -0.7830     1.5150 H     1 <1>   0.0800 
 48 H       -4.1660    -0.1090     0.5610 H     1 <1>   0.0800 
 49 H       -6.2120    -3.1620     1.6340 H     1 <1>   0.1500 
 50 H      -10.7570    -1.3360     1.5730 H     1 <1>   0.1500 
 51 H      -10.4000    -1.3760    -1.0800 H     1 <1>   0.0800 
 52 H       -8.8410    -0.8290    -1.5770 H     1 <1>   0.0800 
 53 H       -7.6590    -3.4130     3.5990 H     1 <1>   0.1500 
 54 H       -9.9390    -2.4870     3.5620 H     1 <1>   0.1500 
 55 H      -10.6930     0.6440     0.3100 H     1 <1>   0.0800 
 56 H      -10.2860     1.0910    -1.3260 H     1 <1>   0.0800 
 57 H       -9.0710     1.1600    -0.0750 H     1 <1>   0.0800 
@<TRIPOS>BOND
  1   1   2  2   
  2   2   3  am  
  3   2   4  am  
  4   3   5  am  
  5   3   6  1   
  6   4   7  1   
  7   4  30  1   
  8   5   7  1   
  9   5   8  2   
 10   6   9  1   
 11   6  31  1   
 12   6  32  1   
 13   7  10  1   
 14   7  11  1   
 15   9  12  2   
 16   9  13  am  
 17  10  33  1   
 18  10  34  1   
 19  10  35  1   
 20  11  36  1   
 21  11  37  1   
 22  11  38  1   
 23  13  14  1   
 24  13  15  1   
 25  14  16  1   
 26  14  39  1   
 27  14  40  1   
 28  15  17  1   
 29  15  41  1   
 30  15  42  1   
 31  16  18  1   
 32  16  43  1   
 33  16  44  1   
 34  17  19  1   
 35  17  45  1   
 36  17  46  1   
 37  18  19  1   
 38  18  20  am  
 39  19  47  1   
 40  19  48  1   
 41  20  21  2   
 42  20  22  1   
 43  22  23  ar  
 44  22  24  ar  
 45  23  25  ar  
 46  23  26  1   
 47  24  27  ar  
 48  24  49  1   
 49  25  28  ar  
 50  25  50  1   
 51  26  29  1   
 52  26  51  1   
 53  26  52  1   
 54  27  28  ar  
 55  27  53  1   
 56  28  54  1   
 57  29  55  1   
 58  29  56  1   
 59  29  57  1   
@<TRIPOS>SUBSTRUCTURE
  1 ****  19 GROUP 4 **** **** 0

# MOE 2024.06 (io_trps.svl 2023.06)
