@<TRIPOS>MOLECULE
NONAME
54 56 1 0 0 
SMALL
USER_CHARGES


@<TRIPOS>ATOM
  1 O       -0.4080    -0.6780     2.0270 O.2   1 <1>  -0.5700 
  2 C        0.5200    -1.0020     1.2890 C.2   1 <1>   0.6160 
  3 N        1.2290    -0.0400     0.5930 N.am  1 <1>  -0.4690 
  4 C        0.7880    -2.3680     1.0190 C.2   1 <1>  -0.1360 
  5 C        2.0790    -0.4240    -0.4250 C.2   1 <1>  -0.0410 
  6 C        1.1820     1.3880     1.0020 C.3   1 <1>   0.1400 
  7 C        1.5950    -2.7710    -0.0100 C.2   1 <1>   0.0140 
  8 C        2.2550    -1.7340    -0.7350 C.2   1 <1>  -0.1500 
  9 C        2.2580     1.6530     2.0520 C.3   1 <1>  -0.2400 
 10 C        1.7980    -4.1630    -0.3800 C.2   1 <1>   0.6160 
 11 O        2.8070    -4.4800    -0.9800 O.2   1 <1>  -0.5700 
 12 N        0.8990    -5.1600    -0.0550 N.am  1 <1>  -0.6600 
 13 C       -0.5170    -5.2640    -0.5290 C.3   1 <1>   0.2200 
 14 C        1.4580    -6.4770     0.3690 C.3   1 <1>   0.0600 
 15 C       -1.0000    -4.1970    -1.5190 C.3   1 <1>  -0.1600 
 16 C       -1.4870    -5.2400     0.6530 C.3   1 <1>  -0.1600 
 17 C       -2.4910    -3.9690    -1.2130 C.3   1 <1>  -0.0800 
 18 C       -2.6860    -4.3660     0.2570 C.3   1 <1>  -0.0800 
 19 C       -2.8910    -2.4910    -1.2940 C.3   1 <1>  -0.1600 
 20 C       -2.7960    -3.0480     1.0460 C.3   1 <1>  -0.1600 
 21 C       -2.4100    -1.9610     0.0480 C.3   1 <1>   0.4230 
 22 N       -2.8640    -0.5970     0.4280 N.4   1 <1>  -0.9590 
 23 C       -4.3390    -0.4350     0.6110 C.3   1 <1>   0.2630 
 24 C       -2.3270     0.4240    -0.5180 C.3   1 <1>   0.2630 
 25 H        0.3070    -3.0800     1.6570 H     1 <1>   0.1500 
 26 H        2.6050     0.3520    -0.9590 H     1 <1>   0.1500 
 27 H        1.3500     2.0140     0.1430 H     1 <1>   0.0800 
 28 H        0.2130     1.6270     1.4070 H     1 <1>   0.0800 
 29 H        2.9170    -2.0260    -1.5350 H     1 <1>   0.1500 
 30 H        3.2340     1.4310     1.6580 H     1 <1>   0.0800 
 31 H        2.0820     1.0530     2.9280 H     1 <1>   0.0800 
 32 H        2.2360     2.6880     2.3420 H     1 <1>   0.0800 
 33 H       -0.6360    -6.2140    -1.0250 H     1 <1>   0.0800 
 34 H        0.8410    -6.9140     1.1340 H     1 <1>   0.0800 
 35 H        2.4540    -6.3510     0.7600 H     1 <1>   0.0800 
 36 H        1.5060    -7.1420    -0.4770 H     1 <1>   0.0800 
 37 H       -0.4590    -3.2810    -1.4130 H     1 <1>   0.0800 
 38 H       -0.8710    -4.5440    -2.5290 H     1 <1>   0.0800 
 39 H       -1.8270    -6.2440     0.8370 H     1 <1>   0.0800 
 40 H       -1.0100    -4.8900     1.5490 H     1 <1>   0.0800 
 41 H       -3.0960    -4.5850    -1.8590 H     1 <1>   0.0800 
 42 H       -3.5990    -4.9280     0.3710 H     1 <1>   0.0800 
 43 H       -3.9610    -2.4180    -1.3740 H     1 <1>   0.0800 
 44 H       -2.4230    -2.0000    -2.1280 H     1 <1>   0.0800 
 45 H       -2.1600    -3.0210     1.9120 H     1 <1>   0.0800 
 46 H       -3.8160    -2.9410     1.3630 H     1 <1>   0.0800 
 47 H       -1.3380    -1.9480    -0.0040 H     1 <1>   0.0800 
 48 H       -2.3880    -0.4250     1.3390 H     1 <1>   0.4500 
 49 H       -4.8580    -0.6610    -0.3060 H     1 <1>   0.0800 
 50 H       -4.5690     0.5790     0.8970 H     1 <1>   0.0800 
 51 H       -4.6990    -1.0920     1.3850 H     1 <1>   0.0800 
 52 H       -2.7550     0.2890    -1.4980 H     1 <1>   0.0800 
 53 H       -1.2550     0.3340    -0.5910 H     1 <1>   0.0800 
 54 H       -2.5640     1.4160    -0.1700 H     1 <1>   0.0800 
@<TRIPOS>BOND
  1   1   2  2   
  2   2   3  am  
  3   2   4  1   
  4   3   5  1   
  5   3   6  1   
  6   4   7  2   
  7   4  25  1   
  8   5   8  2   
  9   5  26  1   
 10   6   9  1   
 11   6  27  1   
 12   6  28  1   
 13   7   8  1   
 14   7  10  1   
 15   8  29  1   
 16   9  30  1   
 17   9  31  1   
 18   9  32  1   
 19  10  11  2   
 20  10  12  am  
 21  12  13  1   
 22  12  14  1   
 23  13  15  1   
 24  13  16  1   
 25  13  33  1   
 26  14  34  1   
 27  14  35  1   
 28  14  36  1   
 29  15  17  1   
 30  15  37  1   
 31  15  38  1   
 32  16  18  1   
 33  16  39  1   
 34  16  40  1   
 35  17  18  1   
 36  17  19  1   
 37  17  41  1   
 38  18  20  1   
 39  18  42  1   
 40  19  21  1   
 41  19  43  1   
 42  19  44  1   
 43  20  21  1   
 44  20  45  1   
 45  20  46  1   
 46  21  22  1   
 47  21  47  1   
 48  22  23  1   
 49  22  24  1   
 50  22  48  1   
 51  23  49  1   
 52  23  50  1   
 53  23  51  1   
 54  24  52  1   
 55  24  53  1   
 56  24  54  1   
@<TRIPOS>SUBSTRUCTURE
  1 ****   4 GROUP 4 **** **** 0

# MOE 2024.06 (io_trps.svl 2023.06)
