@<TRIPOS>MOLECULE
NONAME
44 47 1 0 0 
SMALL
USER_CHARGES


@<TRIPOS>ATOM
  1 S        0.5790    -0.3550    -1.4140 S.o2  1 <1>   1.4470 
  2 O        0.2580    -0.0120    -2.7770 O.2   1 <1>  -0.6500 
  3 O        1.6910    -1.2440    -1.1510 O.2   1 <1>  -0.6500 
  4 N        1.0340     1.0900    -0.6490 N.am  1 <1>  -0.8490 
  5 C       -0.9150    -0.8840    -0.5310 C.ar  1 <1>  -0.0090 
  6 C        1.3930     0.9660     0.7930 C.3   1 <1>   0.2760 
  7 C        1.8170     1.9870    -1.5250 C.3   1 <1>   0.1960 
  8 C       -1.0250    -2.1780    -0.0280 C.ar  1 <1>  -0.1500 
  9 C       -1.9820     0.0040    -0.3440 C.ar  1 <1>  -0.1500 
 10 C        1.2580     2.3100     1.5280 C.3   1 <1>   0.1200 
 11 C        2.7860     0.3390     1.0870 C.3   1 <1>   0.3430 
 12 C        3.0170     2.7020    -0.8850 C.3   1 <1>  -0.0800 
 13 C       -2.1710    -2.5490     0.6540 C.ar  1 <1>   0.1170 
 14 C       -3.1320    -0.3660     0.3390 C.ar  1 <1>  -0.1500 
 15 O        2.4300     3.0580     1.4220 O.3   1 <1>  -0.5600 
 16 N        3.7450     0.3820    -0.0680 N.4   1 <1>  -0.9590 
 17 C        2.6140     3.7020     0.2070 C.3   1 <1>   0.1200 
 18 C        4.1630     1.7700    -0.4470 C.3   1 <1>   0.3430 
 19 N       -2.5710    -3.7150     1.2590 N.am  1 <1>  -0.5470 
 20 C       -3.2000    -1.6530     0.8330 C.ar  1 <1>   0.0830 
 21 C        4.9290    -0.4840     0.1950 C.3   1 <1>   0.2630 
 22 C       -3.8060    -3.4940     1.7720 C.2   1 <1>   0.7800 
 23 O       -4.1990    -2.2420     1.5230 O.3   1 <1>  -0.2320 
 24 O       -4.4790    -4.3020     2.3740 O.2   1 <1>  -0.5700 
 25 H        0.6600     0.3280     1.2550 H     1 <1>   0.0800 
 26 H        2.1920     1.4340    -2.3720 H     1 <1>   0.0800 
 27 H        1.1420     2.7260    -1.9250 H     1 <1>   0.0800 
 28 H       -0.2330    -2.8940    -0.1650 H     1 <1>   0.1500 
 29 H       -1.9100     1.0020    -0.7460 H     1 <1>   0.1500 
 30 H        1.1080     2.1270     2.5780 H     1 <1>   0.0800 
 31 H        0.4190     2.8810     1.1650 H     1 <1>   0.0800 
 32 H        2.6240    -0.6910     1.3590 H     1 <1>   0.0800 
 33 H        3.2200     0.8300     1.9420 H     1 <1>   0.0800 
 34 H        3.4290     3.3140    -1.6670 H     1 <1>   0.0800 
 35 H       -3.9520     0.3170     0.4820 H     1 <1>   0.1500 
 36 H        3.2170    -0.0440    -0.8550 H     1 <1>   0.4500 
 37 H        1.7170     4.2430    -0.0520 H     1 <1>   0.0800 
 38 H        3.4040     4.4190     0.3540 H     1 <1>   0.0800 
 39 H        4.6830     2.2270     0.3810 H     1 <1>   0.0800 
 40 H        4.8610     1.6990    -1.2650 H     1 <1>   0.0800 
 41 H       -2.1160    -4.6250     1.2970 H     1 <1>   0.3700 
 42 H        5.4860    -0.1130     1.0400 H     1 <1>   0.0800 
 43 H        5.5770    -0.5030    -0.6660 H     1 <1>   0.0800 
 44 H        4.6120    -1.4940     0.4040 H     1 <1>   0.0800 
@<TRIPOS>BOND
  1   1   2  2   
  2   1   3  2   
  3   1   4  am  
  4   1   5  1   
  5   4   6  1   
  6   4   7  1   
  7   5   8  ar  
  8   5   9  ar  
  9   6  10  1   
 10   6  11  1   
 11   6  25  1   
 12   7  12  1   
 13   7  26  1   
 14   7  27  1   
 15   8  13  ar  
 16   8  28  1   
 17   9  14  ar  
 18   9  29  1   
 19  10  15  1   
 20  10  30  1   
 21  10  31  1   
 22  11  16  1   
 23  11  32  1   
 24  11  33  1   
 25  12  17  1   
 26  12  18  1   
 27  12  34  1   
 28  13  19  1   
 29  13  20  ar  
 30  14  20  ar  
 31  14  35  1   
 32  15  17  1   
 33  16  18  1   
 34  16  21  1   
 35  16  36  1   
 36  17  37  1   
 37  17  38  1   
 38  18  39  1   
 39  18  40  1   
 40  19  22  am  
 41  19  41  1   
 42  20  23  1   
 43  21  42  1   
 44  21  43  1   
 45  21  44  1   
 46  22  23  1   
 47  22  24  2   
@<TRIPOS>SUBSTRUCTURE
  1 ****   5 GROUP 4 **** **** 0

# MOE 2024.06 (io_trps.svl 2023.06)
