@<TRIPOS>MOLECULE
NONAME
47 50 1 0 0 
SMALL
USER_CHARGES


@<TRIPOS>ATOM
  1 O       -0.0890     1.2780    -0.4120 O.2   1 <1>  -0.5700 
  2 C       -1.0250     1.9430    -0.7910 C.2   1 <1>   0.5690 
  3 N       -2.2640     1.8320    -0.2090 N.am  1 <1>  -0.6600 
  4 C       -0.8040     2.9230    -1.9430 C.3   1 <1>  -0.0990 
  5 C       -3.4680     2.6520    -0.5580 C.3   1 <1>   0.1400 
  6 C       -2.5300     0.8280     0.8600 C.3   1 <1>   0.1400 
  7 C        0.6090     2.9000    -2.5540 C.3   1 <1>  -0.2400 
  8 C       -3.9740     3.4260     0.6750 C.3   1 <1>   0.1430 
  9 C       -3.0340     1.5320     2.1260 C.3   1 <1>  -0.1600 
 10 C       -5.2440     4.1890     0.3440 C.ar  1 <1>   0.1670 
 11 C       -4.2410     2.4470     1.8410 C.3   1 <1>  -0.1600 
 12 C       -3.0060     4.5670     1.0920 C.3   1 <1>  -0.1600 
 13 N       -6.2840     3.6950    -0.2840 N.ar  1 <1>  -0.6200 
 14 C       -5.1860     5.4760     0.7820 C.ar  1 <1>  -0.1440 
 15 C       -3.8790     5.7770     1.4700 C.3   1 <1>  -0.0170 
 16 C       -7.3070     4.5390    -0.4740 C.ar  1 <1>   0.6200 
 17 C       -6.2720     6.2780     0.5490 C.ar  1 <1>   0.1600 
 18 N       -7.3330     5.8200    -0.0770 N.ar  1 <1>  -0.6200 
 19 C       -8.4810     4.0250    -1.1680 C.ar  1 <1>   0.0000 
 20 C       -8.8220     2.6690    -1.1280 C.ar  1 <1>  -0.1500 
 21 C       -9.3230     4.8620    -1.9070 C.ar  1 <1>  -0.1500 
 22 C       -9.9340     2.1760    -1.7860 C.ar  1 <1>  -0.1500 
 23 C      -10.4380     4.3770    -2.5670 C.ar  1 <1>  -0.1500 
 24 C      -10.7470     3.0310    -2.5080 C.ar  1 <1>  -0.1500 
 25 H       -1.0030     3.9150    -1.5850 H     1 <1>   0.0800 
 26 H       -1.5110     2.6930    -2.7180 H     1 <1>   0.0800 
 27 H       -4.2440     1.9890    -0.9000 H     1 <1>   0.0800 
 28 H       -3.2630     3.3420    -1.3540 H     1 <1>   0.0800 
 29 H       -1.6400     0.2680     1.0900 H     1 <1>   0.0800 
 30 H       -3.2740     0.1350     0.5070 H     1 <1>   0.0800 
 31 H        1.3410     3.1480    -1.8050 H     1 <1>   0.0800 
 32 H        0.6810     3.6100    -3.3590 H     1 <1>   0.0800 
 33 H        0.8320     1.9190    -2.9360 H     1 <1>   0.0800 
 34 H       -2.2230     2.0990     2.5460 H     1 <1>   0.0800 
 35 H       -3.3130     0.7880     2.8510 H     1 <1>   0.0800 
 36 H       -5.0830     1.8290     1.5800 H     1 <1>   0.0800 
 37 H       -4.5050     2.9930     2.7290 H     1 <1>   0.0800 
 38 H       -2.4000     4.8450     0.2480 H     1 <1>   0.0800 
 39 H       -2.3490     4.2890     1.8940 H     1 <1>   0.0800 
 40 H       -3.4470     6.7010     1.1250 H     1 <1>   0.0800 
 41 H       -4.0310     5.8180     2.5350 H     1 <1>   0.0800 
 42 H       -6.2750     7.3030     0.8780 H     1 <1>   0.1500 
 43 H       -8.2040     1.9880    -0.5700 H     1 <1>   0.1500 
 44 H       -9.1000     5.9130    -1.9650 H     1 <1>   0.1500 
 45 H      -10.1690     1.1270    -1.7350 H     1 <1>   0.1500 
 46 H      -11.0660     5.0480    -3.1260 H     1 <1>   0.1500 
 47 H      -11.6130     2.6510    -3.0200 H     1 <1>   0.1500 
@<TRIPOS>BOND
  1   1   2  2   
  2   2   3  am  
  3   2   4  1   
  4   3   5  1   
  5   3   6  1   
  6   4   7  1   
  7   4  25  1   
  8   4  26  1   
  9   5   8  1   
 10   5  27  1   
 11   5  28  1   
 12   6   9  1   
 13   6  29  1   
 14   6  30  1   
 15   7  31  1   
 16   7  32  1   
 17   7  33  1   
 18   8  10  1   
 19   8  11  1   
 20   8  12  1   
 21   9  11  1   
 22   9  34  1   
 23   9  35  1   
 24  10  13  ar  
 25  10  14  ar  
 26  11  36  1   
 27  11  37  1   
 28  12  15  1   
 29  12  38  1   
 30  12  39  1   
 31  13  16  ar  
 32  14  15  1   
 33  14  17  ar  
 34  15  40  1   
 35  15  41  1   
 36  16  18  ar  
 37  16  19  1   
 38  17  18  ar  
 39  17  42  1   
 40  19  20  ar  
 41  19  21  ar  
 42  20  22  ar  
 43  20  43  1   
 44  21  23  ar  
 45  21  44  1   
 46  22  24  ar  
 47  22  45  1   
 48  23  24  ar  
 49  23  46  1   
 50  24  47  1   
@<TRIPOS>SUBSTRUCTURE
  1 ****  10 GROUP 4 **** **** 0

# MOE 2024.06 (io_trps.svl 2023.06)
