@<TRIPOS>MOLECULE
NONAME
49 51 1 0 0 
SMALL
USER_CHARGES


@<TRIPOS>ATOM
  1 O        2.0360     1.8640     0.9150 O.3   1 <1>  -0.0190 
  2 N        2.7970     0.8270     0.7380 N.2   1 <1>  -0.4100 
  3 C        0.9590     1.8120     0.1790 C.2   1 <1>  -0.0400 
  4 C        2.1910     0.0820    -0.1160 C.2   1 <1>   0.1080 
  5 C        0.9930     0.6670    -0.5180 C.2   1 <1>  -0.1500 
  6 C       -0.0490     2.9450     0.2280 C.3   1 <1>   0.0200 
  7 C        2.7160    -1.2470    -0.6110 C.3   1 <1>  -0.0590 
  8 C        0.5680     4.2540    -0.3020 C.3   1 <1>  -0.0800 
  9 C       -0.3960     5.4390    -0.3760 C.3   1 <1>   0.2000 
 10 C        1.7460     4.7600     0.5440 C.3   1 <1>   0.3430 
 11 O       -1.1770     5.4450     0.7850 O.3   1 <1>  -0.5600 
 12 C        0.5540     6.6320    -0.3090 C.3   1 <1>   0.3430 
 13 N        1.5520     6.2310     0.7230 N.4   1 <1>  -0.9590 
 14 C       -2.4460     6.0100     0.6440 C.3   1 <1>   0.0400 
 15 C        2.8320     7.0000     0.6870 C.3   1 <1>   0.3430 
 16 C        2.6400     8.4500     1.1360 C.3   1 <1>  -0.0170 
 17 C        3.9140     9.2140     0.8530 C.ar  1 <1>   0.1670 
 18 N        4.3460     9.1410    -0.3960 N.ar  1 <1>  -0.6200 
 19 C        4.5490     9.9250     1.8590 C.ar  1 <1>  -0.1500 
 20 C        5.4580     9.8070    -0.6640 C.ar  1 <1>   0.1670 
 21 C        5.7090    10.6120     1.5710 C.ar  1 <1>  -0.1500 
 22 C        6.1650    10.5450     0.2730 C.ar  1 <1>  -0.1500 
 23 C        5.9490     9.7310    -2.0940 C.3   1 <1>  -0.0970 
 24 H        0.2910     0.2620    -1.2240 H     1 <1>   0.1500 
 25 H       -0.9030     2.6810    -0.3710 H     1 <1>   0.0800 
 26 H       -0.3850     3.0640     1.2440 H     1 <1>   0.0800 
 27 H        2.0150    -2.0270    -0.3750 H     1 <1>   0.0800 
 28 H        3.6560    -1.4710    -0.1390 H     1 <1>   0.0800 
 29 H        2.8610    -1.2110    -1.6750 H     1 <1>   0.0800 
 30 H        0.9450     4.0670    -1.2930 H     1 <1>   0.0800 
 31 H       -1.0190     5.4220    -1.2550 H     1 <1>   0.0800 
 32 H        2.6740     4.5480     0.0380 H     1 <1>   0.0800 
 33 H        1.7560     4.2710     1.5050 H     1 <1>   0.0800 
 34 H        0.0320     7.5360    -0.0420 H     1 <1>   0.0800 
 35 H        1.0420     6.7620    -1.2620 H     1 <1>   0.0800 
 36 H        1.0800     6.3430     1.6340 H     1 <1>   0.4500 
 37 H       -2.9370     5.9750     1.6010 H     1 <1>   0.0800 
 38 H       -3.0150     5.4370    -0.0690 H     1 <1>   0.0800 
 39 H       -2.3560     7.0330     0.3220 H     1 <1>   0.0800 
 40 H        3.5600     6.5330     1.3310 H     1 <1>   0.0800 
 41 H        3.2280     6.9910    -0.3160 H     1 <1>   0.0800 
 42 H        2.4060     8.4850     2.1840 H     1 <1>   0.0800 
 43 H        1.8500     8.9190     0.5800 H     1 <1>   0.0800 
 44 H        4.1510     9.9520     2.8570 H     1 <1>   0.1500 
 45 H        6.2330    11.1770     2.3230 H     1 <1>   0.1500 
 46 H        7.0640    11.0650    -0.0060 H     1 <1>   0.1500 
 47 H        6.8500    10.3000    -2.2270 H     1 <1>   0.0800 
 48 H        5.1950    10.1190    -2.7540 H     1 <1>   0.0800 
 49 H        6.1440     8.7070    -2.3540 H     1 <1>   0.0800 
@<TRIPOS>BOND
  1   1   2  1   
  2   1   3  1   
  3   2   4  2   
  4   3   5  2   
  5   3   6  1   
  6   4   5  1   
  7   4   7  1   
  8   5  24  1   
  9   6   8  1   
 10   6  25  1   
 11   6  26  1   
 12   7  27  1   
 13   7  28  1   
 14   7  29  1   
 15   8   9  1   
 16   8  10  1   
 17   8  30  1   
 18   9  11  1   
 19   9  12  1   
 20   9  31  1   
 21  10  13  1   
 22  10  32  1   
 23  10  33  1   
 24  11  14  1   
 25  12  13  1   
 26  12  34  1   
 27  12  35  1   
 28  13  15  1   
 29  13  36  1   
 30  14  37  1   
 31  14  38  1   
 32  14  39  1   
 33  15  16  1   
 34  15  40  1   
 35  15  41  1   
 36  16  17  1   
 37  16  42  1   
 38  16  43  1   
 39  17  18  ar  
 40  17  19  ar  
 41  18  20  ar  
 42  19  21  ar  
 43  19  44  1   
 44  20  22  ar  
 45  20  23  1   
 46  21  22  ar  
 47  21  45  1   
 48  22  46  1   
 49  23  47  1   
 50  23  48  1   
 51  23  49  1   
@<TRIPOS>SUBSTRUCTURE
  1 ****  13 GROUP 4 **** **** 0

# MOE 2024.06 (io_trps.svl 2023.06)
