@<TRIPOS>MOLECULE
NONAME
33 34 1 0 0 
SMALL
USER_CHARGES


@<TRIPOS>ATOM
  1 O       -0.3620     0.0860    -1.5200 O.2   1 <1>  -0.5700 
  2 C        0.6100    -0.5150    -1.1330 C.2   1 <1>   0.5690 
  3 N        1.7630     0.0940    -0.7130 N.am  1 <1>  -0.4940 
  4 C        0.5290    -2.0240    -1.1030 C.3   1 <1>   0.1570 
  5 C        2.0710     1.4510    -0.4650 C.2   1 <1>  -0.0880 
  6 N        1.0850    -2.5110     0.1630 N.pl3 1 <1>   0.3140 
  7 N        1.6580     2.5580    -1.1440 N.pl3 1 <1>   0.3140 
  8 C        2.8870     1.8910     0.5220 C.2   1 <1>  -0.1810 
  9 N        2.3770    -2.6750     0.3540 N.2   1 <1>  -0.4180 
 10 C        0.4780    -2.7780     1.3030 C.2   1 <1>   0.0360 
 11 N        2.1960     3.6810    -0.6210 N.2   1 <1>  -0.7070 
 12 C        0.8170     2.6430    -2.3440 C.3   1 <1>   0.0160 
 13 C        2.9230     3.2740     0.3690 C.2   1 <1>   0.1080 
 14 C        3.6010     1.0590     1.5760 C.3   1 <1>   0.0210 
 15 N        2.5180    -3.0400     1.5770 N.2   1 <1>   0.0000 
 16 N        1.3390    -3.1070     2.1860 N.2   1 <1>  -0.3380 
 17 C        3.7040     4.2380     1.2330 C.3   1 <1>  -0.0590 
 18 C        4.9550     0.5760     1.0540 C.3   1 <1>  -0.2400 
 19 H        2.4720    -0.5450    -0.3320 H     1 <1>   0.3700 
 20 H        1.0930    -2.4340    -1.9190 H     1 <1>   0.0800 
 21 H       -0.4950    -2.3370    -1.1860 H     1 <1>   0.0800 
 22 H       -0.5840    -2.7140     1.4540 H     1 <1>   0.1500 
 23 H        1.0320     1.8140    -2.9900 H     1 <1>   0.0800 
 24 H        1.0260     3.5640    -2.8550 H     1 <1>   0.0800 
 25 H       -0.2140     2.6210    -2.0480 H     1 <1>   0.0800 
 26 H        2.9930     0.2100     1.8380 H     1 <1>   0.0800 
 27 H        3.7400     1.6440     2.4680 H     1 <1>   0.0800 
 28 H        4.6930     3.8600     1.4090 H     1 <1>   0.0800 
 29 H        3.1980     4.3730     2.1700 H     1 <1>   0.0800 
 30 H        3.7790     5.1890     0.7380 H     1 <1>   0.0800 
 31 H        4.8210    -0.0290     0.1760 H     1 <1>   0.0800 
 32 H        5.4520    -0.0110     1.8050 H     1 <1>   0.0800 
 33 H        5.5760     1.4170     0.8010 H     1 <1>   0.0800 
@<TRIPOS>BOND
  1   1   2  2   
  2   2   3  am  
  3   2   4  1   
  4   3   5  1   
  5   3  19  1   
  6   4   6  1   
  7   4  20  1   
  8   4  21  1   
  9   5   7  1   
 10   5   8  2   
 11   6   9  1   
 12   6  10  1   
 13   7  11  1   
 14   7  12  1   
 15   8  13  1   
 16   8  14  1   
 17   9  15  2   
 18  10  16  2   
 19  10  22  1   
 20  11  13  2   
 21  12  23  1   
 22  12  24  1   
 23  12  25  1   
 24  13  17  1   
 25  14  18  1   
 26  14  26  1   
 27  14  27  1   
 28  15  16  1   
 29  17  28  1   
 30  17  29  1   
 31  17  30  1   
 32  18  31  1   
 33  18  32  1   
 34  18  33  1   
@<TRIPOS>SUBSTRUCTURE
  1 ****   3 GROUP 4 **** **** 0

# MOE 2024.06 (io_trps.svl 2023.06)
