@<TRIPOS>MOLECULE
NONAME
55 58 1 0 0 
SMALL
USER_CHARGES


@<TRIPOS>ATOM
  1 CL       0.8100    -1.8820    -2.6650 Cl    1 <1>  -0.1770 
  2 C        0.1880    -2.5690    -1.1820 C.ar  1 <1>   0.1770 
  3 C        0.8690    -2.3790     0.0140 C.ar  1 <1>  -0.1440 
  4 C       -0.9840    -3.2960    -1.2420 C.ar  1 <1>  -0.1500 
  5 C        0.3420    -2.9430     1.1660 C.ar  1 <1>  -0.1500 
  6 C        2.1600    -1.5770     0.0690 C.3   1 <1>  -0.0960 
  7 C       -1.5130    -3.8570    -0.0860 C.ar  1 <1>   0.1000 
  8 C       -0.8340    -3.6720     1.1120 C.ar  1 <1>  -0.1500 
  9 N       -2.6890    -4.6010    -0.1010 N.pl3 1 <1>  -0.8380 
 10 C       -2.5440    -6.0690    -0.1330 C.3   1 <1>   0.2090 
 11 C       -3.8550    -4.0660    -0.8310 C.3   1 <1>   0.2090 
 12 C       -3.7770    -6.6740     0.5310 C.3   1 <1>  -0.1600 
 13 C       -5.1130    -4.6340    -0.1800 C.3   1 <1>  -0.1600 
 14 C       -5.0650    -6.1690    -0.1380 C.3   1 <1>   0.4230 
 15 N       -6.2510    -6.6890     0.6020 N.4   1 <1>  -0.9590 
 16 C       -7.5840    -6.2770     0.0820 C.3   1 <1>   0.3430 
 17 C       -6.3200    -8.1780     0.7230 C.3   1 <1>   0.3430 
 18 C       -8.5550    -7.2400     0.7610 C.3   1 <1>   0.2000 
 19 C       -7.8090    -8.5740     0.7260 C.3   1 <1>  -0.0800 
 20 O       -8.6760    -6.8500     2.0900 O.3   1 <1>  -0.6800 
 21 C       -8.1900    -9.4010    -0.5210 C.3   1 <1>  -0.0170 
 22 C       -7.4680   -10.7410    -0.5690 C.ar  1 <1>   0.1670 
 23 N       -6.1920   -10.7070    -0.9220 N.ar  1 <1>  -0.6200 
 24 C       -8.1510   -11.9160    -0.2580 C.ar  1 <1>   0.1600 
 25 C       -5.6540   -11.9190    -0.9540 C.ar  1 <1>   0.1600 
 26 N       -7.6100   -13.1210    -0.2760 N.ar  1 <1>  -0.6200 
 27 C       -6.3400   -13.0860    -0.6400 C.ar  1 <1>   0.1600 
 28 H       -1.4760    -3.4260    -2.1850 H     1 <1>   0.1500 
 29 H        0.8410    -2.8170     2.1100 H     1 <1>   0.1500 
 30 H        2.5460    -1.5340     1.0710 H     1 <1>   0.0800 
 31 H        1.9820    -0.5720    -0.2720 H     1 <1>   0.0800 
 32 H        2.9020    -2.0310    -0.5630 H     1 <1>   0.0800 
 33 H       -1.2410    -4.1030     2.0070 H     1 <1>   0.1500 
 34 H       -2.4530    -6.4010    -1.1540 H     1 <1>   0.0800 
 35 H       -1.6530    -6.3600     0.4000 H     1 <1>   0.0800 
 36 H       -3.8590    -2.9890    -0.7680 H     1 <1>   0.0800 
 37 H       -3.7970    -4.3500    -1.8690 H     1 <1>   0.0800 
 38 H       -3.7640    -6.4000     1.5700 H     1 <1>   0.0800 
 39 H       -3.6980    -7.7420     0.4520 H     1 <1>   0.0800 
 40 H       -5.9580    -4.2930    -0.7490 H     1 <1>   0.0800 
 41 H       -5.1810    -4.2350     0.8160 H     1 <1>   0.0800 
 42 H       -5.0860    -6.5380    -1.1510 H     1 <1>   0.0800 
 43 H       -6.2190    -6.3230     1.5660 H     1 <1>   0.4500 
 44 H       -7.8170    -5.2540     0.3270 H     1 <1>   0.0800 
 45 H       -7.6220    -6.4140    -0.9860 H     1 <1>   0.0800 
 46 H       -5.8150    -8.6290    -0.1130 H     1 <1>   0.0800 
 47 H       -5.8410    -8.5030     1.6320 H     1 <1>   0.0800 
 48 H       -9.5310    -7.2520     0.3060 H     1 <1>   0.0800 
 49 H       -8.0300    -9.1640     1.6000 H     1 <1>   0.0800 
 50 H       -9.4010    -7.3330     2.5430 H     1 <1>   0.4000 
 51 H       -7.9560    -8.8580    -1.4210 H     1 <1>   0.0800 
 52 H       -9.2510    -9.5760    -0.5200 H     1 <1>   0.0800 
 53 H       -9.1890   -11.8650     0.0180 H     1 <1>   0.1500 
 54 H       -4.6200   -11.9960    -1.2420 H     1 <1>   0.1500 
 55 H       -5.8180   -14.0260    -0.6930 H     1 <1>   0.1500 
@<TRIPOS>BOND
  1   1   2  1   
  2   2   3  ar  
  3   2   4  ar  
  4   3   5  ar  
  5   3   6  1   
  6   4   7  ar  
  7   4  28  1   
  8   5   8  ar  
  9   5  29  1   
 10   6  30  1   
 11   6  31  1   
 12   6  32  1   
 13   7   8  ar  
 14   7   9  1   
 15   8  33  1   
 16   9  10  1   
 17   9  11  1   
 18  10  12  1   
 19  10  34  1   
 20  10  35  1   
 21  11  13  1   
 22  11  36  1   
 23  11  37  1   
 24  12  14  1   
 25  12  38  1   
 26  12  39  1   
 27  13  14  1   
 28  13  40  1   
 29  13  41  1   
 30  14  15  1   
 31  14  42  1   
 32  15  16  1   
 33  15  17  1   
 34  15  43  1   
 35  16  18  1   
 36  16  44  1   
 37  16  45  1   
 38  17  19  1   
 39  17  46  1   
 40  17  47  1   
 41  18  19  1   
 42  18  20  1   
 43  18  48  1   
 44  19  21  1   
 45  19  49  1   
 46  20  50  1   
 47  21  22  1   
 48  21  51  1   
 49  21  52  1   
 50  22  23  ar  
 51  22  24  ar  
 52  23  25  ar  
 53  24  26  ar  
 54  24  53  1   
 55  25  27  ar  
 56  25  54  1   
 57  26  27  ar  
 58  27  55  1   
@<TRIPOS>SUBSTRUCTURE
  1 ****  12 GROUP 4 **** **** 0

# MOE 2024.06 (io_trps.svl 2023.06)
