@<TRIPOS>MOLECULE
NONAME
53 55 1 0 0 
SMALL
USER_CHARGES


@<TRIPOS>ATOM
  1 O        1.4130    -1.0010     2.7080 O.2   1 <1>  -0.5700 
  2 C        1.6160    -1.2000     1.5310 C.2   1 <1>   0.5690 
  3 N        1.8270    -0.1310     0.6760 N.am  1 <1>  -0.6600 
  4 C        1.6480    -2.6780     1.0710 C.3   1 <1>   0.4050 
  5 C        2.3800    -0.2750    -0.7000 C.3   1 <1>   0.1400 
  6 C        1.5850     1.2690     1.1190 C.3   1 <1>   0.1400 
  7 O        2.9220    -3.0170     0.5440 O.3   1 <1>  -0.5600 
  8 C        0.5290    -2.9970     0.0680 C.ar  1 <1>  -0.1440 
  9 C        3.9150    -0.3950    -0.6580 C.3   1 <1>   0.3430 
 10 C        2.8660     2.1100     1.0710 C.3   1 <1>  -0.1600 
 11 C        3.2990    -4.3420     0.7800 C.3   1 <1>   0.0400 
 12 C        0.7660    -3.5020    -1.2080 C.ar  1 <1>  -0.1500 
 13 C       -0.7850    -2.7670     0.4560 C.ar  1 <1>  -0.1500 
 14 N        4.6240     0.8120    -0.1070 N.4   1 <1>  -0.9590 
 15 C        4.1510     1.2940     1.2280 C.3   1 <1>   0.3430 
 16 C       -0.2830    -3.7630    -2.0710 C.ar  1 <1>  -0.1500 
 17 C       -1.8350    -3.0250    -0.4070 C.ar  1 <1>  -0.1500 
 18 C        6.1050     0.6220    -0.1110 C.3   1 <1>   0.4860 
 19 C       -1.5850    -3.5230    -1.6720 C.ar  1 <1>  -0.1500 
 20 C        6.7850     1.9820    -0.2380 C.ar  1 <1>   0.1670 
 21 N        6.1720     2.8880    -0.9930 N.ar  1 <1>  -0.6200 
 22 C        7.9840     2.2160     0.4280 C.ar  1 <1>   0.1600 
 23 C        6.8460     4.0290    -1.0390 C.ar  1 <1>   0.1600 
 24 N        8.6430     3.3580     0.3850 N.ar  1 <1>  -0.6200 
 25 C        8.0460     4.2610    -0.3710 C.ar  1 <1>   0.1670 
 26 C        8.7480     5.6000    -0.4800 C.3   1 <1>  -0.0970 
 27 H        1.4870    -3.2750     1.9520 H     1 <1>   0.0800 
 28 H        1.9730    -1.1520    -1.1670 H     1 <1>   0.0800 
 29 H        2.0900     0.5650    -1.3070 H     1 <1>   0.0800 
 30 H        0.8260     1.7150     0.4970 H     1 <1>   0.0800 
 31 H        1.2030     1.2740     2.1270 H     1 <1>   0.0800 
 32 H        4.2630    -0.5810    -1.6610 H     1 <1>   0.0800 
 33 H        4.1700    -1.2570    -0.0650 H     1 <1>   0.0800 
 34 H        2.8120     2.8130     1.8830 H     1 <1>   0.0800 
 35 H        2.8970     2.6910     0.1670 H     1 <1>   0.0800 
 36 H        4.2350    -4.5230     0.2810 H     1 <1>   0.0800 
 37 H        2.5470    -5.0080     0.3910 H     1 <1>   0.0800 
 38 H        3.4200    -4.4950     1.8390 H     1 <1>   0.0800 
 39 H        1.7670    -3.7000    -1.5460 H     1 <1>   0.1500 
 40 H       -1.0040    -2.3800     1.4380 H     1 <1>   0.1500 
 41 H        4.5040     1.6110    -0.7570 H     1 <1>   0.4500 
 42 H        3.9890     0.4660     1.9010 H     1 <1>   0.0800 
 43 H        4.9010     1.9380     1.6580 H     1 <1>   0.0800 
 44 H       -0.0900    -4.1540    -3.0550 H     1 <1>   0.1500 
 45 H       -2.8470    -2.8390    -0.0930 H     1 <1>   0.1500 
 46 H        6.4250     0.1170     0.7850 H     1 <1>   0.0800 
 47 H        6.3910     0.0280    -0.9630 H     1 <1>   0.0800 
 48 H       -2.4020    -3.7240    -2.3440 H     1 <1>   0.1500 
 49 H        8.4260     1.4360     1.0240 H     1 <1>   0.1500 
 50 H        6.4290     4.8220    -1.6360 H     1 <1>   0.1500 
 51 H        8.2030     6.2800    -1.1090 H     1 <1>   0.0800 
 52 H        9.7310     5.4580    -0.8930 H     1 <1>   0.0800 
 53 H        8.8480     6.0360     0.4980 H     1 <1>   0.0800 
@<TRIPOS>BOND
  1   1   2  2   
  2   2   3  am  
  3   2   4  1   
  4   3   5  1   
  5   3   6  1   
  6   4   7  1   
  7   4   8  1   
  8   4  27  1   
  9   5   9  1   
 10   5  28  1   
 11   5  29  1   
 12   6  10  1   
 13   6  30  1   
 14   6  31  1   
 15   7  11  1   
 16   8  12  ar  
 17   8  13  ar  
 18   9  14  1   
 19   9  32  1   
 20   9  33  1   
 21  10  15  1   
 22  10  34  1   
 23  10  35  1   
 24  11  36  1   
 25  11  37  1   
 26  11  38  1   
 27  12  16  ar  
 28  12  39  1   
 29  13  17  ar  
 30  13  40  1   
 31  14  15  1   
 32  14  18  1   
 33  14  41  1   
 34  15  42  1   
 35  15  43  1   
 36  16  19  ar  
 37  16  44  1   
 38  17  19  ar  
 39  17  45  1   
 40  18  20  1   
 41  18  46  1   
 42  18  47  1   
 43  19  48  1   
 44  20  21  ar  
 45  20  22  ar  
 46  21  23  ar  
 47  22  24  ar  
 48  22  49  1   
 49  23  25  ar  
 50  23  50  1   
 51  24  25  ar  
 52  25  26  1   
 53  26  51  1   
 54  26  52  1   
 55  26  53  1   
@<TRIPOS>SUBSTRUCTURE
  1 ****   9 GROUP 4 **** **** 0

# MOE 2024.06 (io_trps.svl 2023.06)
