@<TRIPOS>MOLECULE
NONAME
52 54 1 0 0 
SMALL
USER_CHARGES


@<TRIPOS>ATOM
  1 O       -0.2740     1.9210     1.8290 O.2   1 <1>  -0.5700 
  2 C       -0.1170     2.7100     0.9260 C.2   1 <1>   0.5690 
  3 N       -1.1780     3.3380     0.3230 N.am  1 <1>  -0.6600 
  4 C        1.3010     2.9920     0.4510 C.3   1 <1>  -0.0990 
  5 C       -2.5870     3.0480     0.7350 C.3   1 <1>   0.1400 
  6 C       -1.0930     4.2910    -0.8180 C.3   1 <1>   0.1400 
  7 C        2.3840     2.2010     1.2000 C.3   1 <1>  -0.0160 
  8 C       -3.3850     2.4270    -0.4400 C.3   1 <1>   0.0000 
  9 C       -1.8420     3.7110    -2.0230 C.3   1 <1>  -0.1600 
 10 C        3.7610     2.5220     0.6270 C.ar  1 <1>  -0.1440 
 11 C       -4.8450     2.1550    -0.0410 C.3   1 <1>   0.2000 
 12 C       -3.2980     3.3570    -1.6710 C.3   1 <1>  -0.1600 
 13 C       -2.8770     1.0060    -0.7420 C.3   1 <1>  -0.1600 
 14 C        4.3420     1.7750    -0.3960 C.ar  1 <1>  -0.1440 
 15 C        4.4460     3.6090     1.1500 C.ar  1 <1>  -0.1500 
 16 O       -5.3660     3.1960     0.7310 O.3   1 <1>  -0.5600 
 17 C       -4.8250     0.8350     0.7370 C.3   1 <1>  -0.1600 
 18 C       -3.5520     0.1010     0.2930 C.3   1 <1>  -0.1600 
 19 C        5.5950     2.1320    -0.8730 C.ar  1 <1>  -0.1500 
 20 C        3.6470     0.5680    -1.0110 C.3   1 <1>  -0.0970 
 21 C        5.6940     3.9580     0.6690 C.ar  1 <1>  -0.1500 
 22 C       -6.7500     3.1780     0.8850 C.3   1 <1>   0.0400 
 23 C        6.2690     3.2180    -0.3460 C.ar  1 <1>  -0.1500 
 24 H        1.3610     2.7530    -0.5940 H     1 <1>   0.0800 
 25 H        1.4970     4.0410     0.5710 H     1 <1>   0.0800 
 26 H       -2.6070     2.3890     1.5850 H     1 <1>   0.0800 
 27 H       -3.0470     3.9720     1.0370 H     1 <1>   0.0800 
 28 H       -1.5470     5.2220    -0.5240 H     1 <1>   0.0800 
 29 H       -0.0740     4.4940    -1.0910 H     1 <1>   0.0800 
 30 H        2.1800     1.1480     1.1370 H     1 <1>   0.0800 
 31 H        2.3570     2.4610     2.2440 H     1 <1>   0.0800 
 32 H       -1.8330     4.4300    -2.8230 H     1 <1>   0.0800 
 33 H       -1.3230     2.8340    -2.3670 H     1 <1>   0.0800 
 34 H       -5.4400     2.0460    -0.9320 H     1 <1>   0.0800 
 35 H       -3.7740     2.8990    -2.5200 H     1 <1>   0.0800 
 36 H       -3.8310     4.2660    -1.4500 H     1 <1>   0.0800 
 37 H       -3.1990     0.7070    -1.7250 H     1 <1>   0.0800 
 38 H       -1.8050     0.9250    -0.6960 H     1 <1>   0.0800 
 39 H        4.0070     4.1920     1.9410 H     1 <1>   0.1500 
 40 H       -4.7760     1.0270     1.7950 H     1 <1>   0.0800 
 41 H       -5.7000     0.2520     0.5140 H     1 <1>   0.0800 
 42 H       -2.8970    -0.0270     1.1400 H     1 <1>   0.0800 
 43 H       -3.7730    -0.8660    -0.1230 H     1 <1>   0.0800 
 44 H        6.0570     1.5640    -1.6600 H     1 <1>   0.1500 
 45 H        4.1930     0.1990    -1.8600 H     1 <1>   0.0800 
 46 H        2.6580     0.8300    -1.3390 H     1 <1>   0.0800 
 47 H        3.5780    -0.2220    -0.2850 H     1 <1>   0.0800 
 48 H        6.2150     4.8030     1.0830 H     1 <1>   0.1500 
 49 H       -7.0300     4.0340     1.4740 H     1 <1>   0.0800 
 50 H       -7.0440     2.2780     1.3950 H     1 <1>   0.0800 
 51 H       -7.2160     3.2370    -0.0830 H     1 <1>   0.0800 
 52 H        7.2400     3.4850    -0.7240 H     1 <1>   0.1500 
@<TRIPOS>BOND
  1   1   2  2   
  2   2   3  am  
  3   2   4  1   
  4   3   5  1   
  5   3   6  1   
  6   4   7  1   
  7   4  24  1   
  8   4  25  1   
  9   5   8  1   
 10   5  26  1   
 11   5  27  1   
 12   6   9  1   
 13   6  28  1   
 14   6  29  1   
 15   7  10  1   
 16   7  30  1   
 17   7  31  1   
 18   8  11  1   
 19   8  12  1   
 20   8  13  1   
 21   9  12  1   
 22   9  32  1   
 23   9  33  1   
 24  10  14  ar  
 25  10  15  ar  
 26  11  16  1   
 27  11  17  1   
 28  11  34  1   
 29  12  35  1   
 30  12  36  1   
 31  13  18  1   
 32  13  37  1   
 33  13  38  1   
 34  14  19  ar  
 35  14  20  1   
 36  15  21  ar  
 37  15  39  1   
 38  16  22  1   
 39  17  18  1   
 40  17  40  1   
 41  17  41  1   
 42  18  42  1   
 43  18  43  1   
 44  19  23  ar  
 45  19  44  1   
 46  20  45  1   
 47  20  46  1   
 48  20  47  1   
 49  21  23  ar  
 50  21  48  1   
 51  22  49  1   
 52  22  50  1   
 53  22  51  1   
 54  23  52  1   
@<TRIPOS>SUBSTRUCTURE
  1 ****   2 GROUP 4 **** **** 0

# MOE 2024.06 (io_trps.svl 2023.06)
