@<TRIPOS>MOLECULE
NONAME
46 48 1 0 0 
SMALL
USER_CHARGES


@<TRIPOS>ATOM
  1 O        0.5490    -1.0780     0.9710 O.3   1 <1>  -0.5600 
  2 C       -0.4390    -2.0680     0.9840 C.3   1 <1>   0.1200 
  3 C        0.9570    -0.6460    -0.2830 C.3   1 <1>   0.1200 
  4 C        0.1790    -3.4560     0.7380 C.3   1 <1>   0.1900 
  5 C        1.7030    -1.7500    -1.0500 C.3   1 <1>  -0.0800 
  6 N        0.2870    -3.8470    -0.7130 N.3   1 <1>  -0.8100 
  7 C        1.5590    -3.5660     1.4270 C.3   1 <1>   0.3430 
  8 C        0.7230    -2.7860    -1.6440 C.3   1 <1>   0.1100 
  9 C        2.9040    -2.3080    -0.2540 C.3   1 <1>   0.3430 
 10 C       -0.9390    -4.5130    -1.2050 C.3   1 <1>   0.2540 
 11 N        2.6480    -3.6260     0.4010 N.4   1 <1>  -0.9590 
 12 C       -1.1290    -5.8540    -0.5070 C.ar  1 <1>  -0.1440 
 13 C        3.8810    -4.2790     0.9160 C.3   1 <1>   0.2630 
 14 C       -2.1040    -6.0300     0.4740 C.ar  1 <1>   0.0820 
 15 C       -0.3110    -6.9170    -0.8600 C.ar  1 <1>  -0.1500 
 16 O       -2.8830    -4.9600     0.7950 O.3   1 <1>  -0.3620 
 17 C       -2.2430    -7.2700     1.0970 C.ar  1 <1>  -0.1500 
 18 C       -0.4600    -8.1440    -0.2360 C.ar  1 <1>   0.0820 
 19 C       -4.0590    -5.1180     1.5610 C.3   1 <1>   0.0400 
 20 C       -1.4200    -8.3230     0.7420 C.ar  1 <1>  -0.1500 
 21 O        0.3250    -9.1780    -0.5760 O.3   1 <1>  -0.5330 
 22 H       -0.8740    -2.0500     1.9680 H     1 <1>   0.0800 
 23 H       -1.2140    -1.8360     0.2730 H     1 <1>   0.0800 
 24 H        0.0940    -0.2960    -0.8270 H     1 <1>   0.0800 
 25 H        1.6100     0.1950    -0.1240 H     1 <1>   0.0800 
 26 H       -0.4580    -4.1560     1.2450 H     1 <1>   0.0800 
 27 H        2.1260    -1.2390    -1.8960 H     1 <1>   0.0800 
 28 H        1.5650    -4.4730     2.0080 H     1 <1>   0.0800 
 29 H        1.7110    -2.7390     2.1010 H     1 <1>   0.0800 
 30 H        1.1900    -3.2610    -2.4910 H     1 <1>   0.0800 
 31 H       -0.1420    -2.2610    -2.0180 H     1 <1>   0.0800 
 32 H        3.2020    -1.5860     0.4900 H     1 <1>   0.0800 
 33 H        3.7260    -2.4280    -0.9400 H     1 <1>   0.0800 
 34 H       -1.7920    -3.8730    -1.0620 H     1 <1>   0.0800 
 35 H       -0.8480    -4.6980    -2.2620 H     1 <1>   0.0800 
 36 H        2.1870    -4.2040    -0.3310 H     1 <1>   0.4500 
 37 H        4.3180    -3.6830     1.7010 H     1 <1>   0.0800 
 38 H        4.6020    -4.3930     0.1230 H     1 <1>   0.0800 
 39 H        3.6480    -5.2550     1.3110 H     1 <1>   0.0800 
 40 H        0.4390    -6.7860    -1.6180 H     1 <1>   0.1500 
 41 H       -2.9800    -7.4370     1.8590 H     1 <1>   0.1500 
 42 H       -4.5720    -4.1740     1.5880 H     1 <1>   0.0800 
 43 H       -3.7920    -5.4170     2.5590 H     1 <1>   0.0800 
 44 H       -4.6840    -5.8580     1.0920 H     1 <1>   0.0800 
 45 H       -1.5190    -9.2830     1.2150 H     1 <1>   0.1500 
 46 H        0.8860    -8.9970    -1.3500 H     1 <1>   0.4500 
@<TRIPOS>BOND
  1   1   2  1   
  2   1   3  1   
  3   2   4  1   
  4   2  22  1   
  5   2  23  1   
  6   3   5  1   
  7   3  24  1   
  8   3  25  1   
  9   4   6  1   
 10   4   7  1   
 11   4  26  1   
 12   5   8  1   
 13   5   9  1   
 14   5  27  1   
 15   6   8  1   
 16   6  10  1   
 17   7  11  1   
 18   7  28  1   
 19   7  29  1   
 20   8  30  1   
 21   8  31  1   
 22   9  11  1   
 23   9  32  1   
 24   9  33  1   
 25  10  12  1   
 26  10  34  1   
 27  10  35  1   
 28  11  13  1   
 29  11  36  1   
 30  12  14  ar  
 31  12  15  ar  
 32  13  37  1   
 33  13  38  1   
 34  13  39  1   
 35  14  16  1   
 36  14  17  ar  
 37  15  18  ar  
 38  15  40  1   
 39  16  19  1   
 40  17  20  ar  
 41  17  41  1   
 42  18  20  ar  
 43  18  21  1   
 44  19  42  1   
 45  19  43  1   
 46  19  44  1   
 47  20  45  1   
 48  21  46  1   
@<TRIPOS>SUBSTRUCTURE
  1 ****   6 GROUP 4 **** **** 0

# MOE 2024.06 (io_trps.svl 2023.06)
