@<TRIPOS>MOLECULE
NONAME
65 67 1 0 0 
SMALL
USER_CHARGES


@<TRIPOS>ATOM
  1 O        0.1640     2.4500    -3.7590 O.2   1 <1>  -0.5700 
  2 C        0.3250     3.2430    -2.8720 C.2   1 <1>   0.6590 
  3 O        1.5390     3.6520    -2.5290 O.3   1 <1>  -0.4300 
  4 C       -0.8460     3.8090    -2.1000 C.3   1 <1>  -0.0990 
  5 C        1.7460     4.5210    -1.4380 C.3   1 <1>   0.2000 
  6 C       -0.5470     3.8140    -0.5960 C.3   1 <1>   0.2000 
  7 C        0.9440     3.9610    -0.2540 C.3   1 <1>  -0.1600 
  8 C        3.2570     4.5990    -1.1720 C.3   1 <1>  -0.1600 
  9 O       -1.2210     4.8790    -0.0400 O.3   1 <1>  -0.6800 
 10 C        3.7740     6.0290    -0.9010 C.3   1 <1>  -0.1600 
 11 C        3.3020     6.7440     0.4050 C.3   1 <1>  -0.0800 
 12 C        3.3170     8.2900     0.2290 C.3   1 <1>   0.0580 
 13 C        4.2010     6.4330     1.6390 C.3   1 <1>   0.0580 
 14 C        4.7300     8.7400    -0.1580 C.2   1 <1>  -0.1380 
 15 C        2.2140     8.8350    -0.7110 C.3   1 <1>   0.2000 
 16 C        5.5530     7.1280     1.5010 C.2   1 <1>  -0.2880 
 17 C        4.4110     4.9430     1.9250 C.3   1 <1>  -0.2400 
 18 C        5.7620     8.1570     0.6640 C.2   1 <1>  -0.1500 
 19 C        4.9580     9.5970    -1.1650 C.2   1 <1>  -0.2880 
 20 O        1.0170     8.9740     0.0310 O.3   1 <1>  -0.4300 
 21 C        2.5420    10.2310    -1.2500 C.3   1 <1>  -0.1600 
 22 C        3.8750    10.2440    -2.0100 C.3   1 <1>   0.0580 
 23 C       -0.0260     8.1630    -0.0490 C.2   1 <1>   0.6590 
 24 C        4.2680    11.6830    -2.3560 C.3   1 <1>  -0.2400 
 25 O       -0.0430     7.2040    -0.7810 O.2   1 <1>  -0.5700 
 26 C       -1.1970     8.5150     0.8710 C.3   1 <1>  -0.0190 
 27 C       -2.5590     8.2650     0.1830 C.3   1 <1>  -0.1600 
 28 C       -1.0780     7.7570     2.2070 C.3   1 <1>  -0.2400 
 29 C       -3.7540     8.8210     0.9710 C.3   1 <1>  -0.2400 
 30 H       -1.0130     4.8080    -2.4590 H     1 <1>   0.0800 
 31 H       -1.7220     3.2200    -2.2960 H     1 <1>   0.0800 
 32 H        1.3790     5.4880    -1.7350 H     1 <1>   0.0800 
 33 H       -0.9340     2.9190    -0.1380 H     1 <1>   0.0800 
 34 H        1.3350     2.9850    -0.0250 H     1 <1>   0.0800 
 35 H        1.0710     4.5640     0.6250 H     1 <1>   0.0800 
 36 H        3.5230     3.9300    -0.3790 H     1 <1>   0.0800 
 37 H        3.7700     4.2500    -2.0520 H     1 <1>   0.0800 
 38 H       -0.8360     5.7290    -0.3750 H     1 <1>   0.4000 
 39 H        3.5070     6.6200    -1.7570 H     1 <1>   0.0800 
 40 H        4.8500     5.9950    -0.9050 H     1 <1>   0.0800 
 41 H        2.2960     6.4510     0.6340 H     1 <1>   0.0800 
 42 H        3.1300     8.7390     1.1890 H     1 <1>   0.0800 
 43 H        3.7190     6.8480     2.5090 H     1 <1>   0.0800 
 44 H        2.0450     8.1740    -1.5420 H     1 <1>   0.0800 
 45 H        6.3250     6.7250     2.1330 H     1 <1>   0.1500 
 46 H        5.0450     4.4990     1.1790 H     1 <1>   0.0800 
 47 H        3.4680     4.4290     1.9520 H     1 <1>   0.0800 
 48 H        4.8890     4.8200     2.8800 H     1 <1>   0.0800 
 49 H        6.7360     8.6070     0.5720 H     1 <1>   0.1500 
 50 H        5.9540     9.8860    -1.4530 H     1 <1>   0.1500 
 51 H        1.7550    10.5590    -1.9040 H     1 <1>   0.0800 
 52 H        2.6080    10.9130    -0.4190 H     1 <1>   0.0800 
 53 H        3.7740     9.6830    -2.9240 H     1 <1>   0.0800 
 54 H        4.4190    12.2580    -1.4590 H     1 <1>   0.0800 
 55 H        3.4970    12.1510    -2.9430 H     1 <1>   0.0800 
 56 H        5.1800    11.6910    -2.9260 H     1 <1>   0.0800 
 57 H       -1.1230     9.5680     1.0780 H     1 <1>   0.0800 
 58 H       -2.5460     8.7340    -0.7860 H     1 <1>   0.0800 
 59 H       -2.7000     7.2090     0.0270 H     1 <1>   0.0800 
 60 H       -1.2190     6.7010     2.0550 H     1 <1>   0.0800 
 61 H       -1.8090     8.1050     2.9130 H     1 <1>   0.0800 
 62 H       -0.1030     7.9130     2.6340 H     1 <1>   0.0800 
 63 H       -3.6220     9.8690     1.1740 H     1 <1>   0.0800 
 64 H       -3.8790     8.2970     1.9010 H     1 <1>   0.0800 
 65 H       -4.6550     8.6970     0.3970 H     1 <1>   0.0800 
@<TRIPOS>BOND
  1   1   2  2   
  2   2   3  1   
  3   2   4  1   
  4   3   5  1   
  5   4   6  1   
  6   4  30  1   
  7   4  31  1   
  8   5   7  1   
  9   5   8  1   
 10   5  32  1   
 11   6   7  1   
 12   6   9  1   
 13   6  33  1   
 14   7  34  1   
 15   7  35  1   
 16   8  10  1   
 17   8  36  1   
 18   8  37  1   
 19   9  38  1   
 20  10  11  1   
 21  10  39  1   
 22  10  40  1   
 23  11  12  1   
 24  11  13  1   
 25  11  41  1   
 26  12  14  1   
 27  12  15  1   
 28  12  42  1   
 29  13  16  1   
 30  13  17  1   
 31  13  43  1   
 32  14  18  1   
 33  14  19  2   
 34  15  20  1   
 35  15  21  1   
 36  15  44  1   
 37  16  18  2   
 38  16  45  1   
 39  17  46  1   
 40  17  47  1   
 41  17  48  1   
 42  18  49  1   
 43  19  22  1   
 44  19  50  1   
 45  20  23  1   
 46  21  22  1   
 47  21  51  1   
 48  21  52  1   
 49  22  24  1   
 50  22  53  1   
 51  23  25  2   
 52  23  26  1   
 53  24  54  1   
 54  24  55  1   
 55  24  56  1   
 56  26  27  1   
 57  26  28  1   
 58  26  57  1   
 59  27  29  1   
 60  27  58  1   
 61  27  59  1   
 62  28  60  1   
 63  28  61  1   
 64  28  62  1   
 65  29  63  1   
 66  29  64  1   
 67  29  65  1   
@<TRIPOS>SUBSTRUCTURE
  1 ****  11 GROUP 4 **** **** 0

# MOE 2024.06 (io_trps.svl 2023.06)
