@<TRIPOS>MOLECULE
NONAME
32 33 1 0 0 
SMALL
USER_CHARGES


@<TRIPOS>ATOM
  1 CL       0.2760     0.4930     1.1320 Cl    1 <1>  -0.1770 
  2 C        1.3500    -0.7150     0.4390 C.ar  1 <1>   0.1770 
  3 C        1.0250    -2.0700     0.3960 C.ar  1 <1>   0.4100 
  4 C        2.5600    -0.3210    -0.0620 C.ar  1 <1>   0.1600 
  5 N        1.8920    -2.9360    -0.1040 N.ar  1 <1>  -0.6200 
  6 N       -0.1770    -2.5880     0.8540 N.pl3 1 <1>  -0.8380 
  7 N        3.4210    -1.1810    -0.5770 N.ar  1 <1>  -0.6200 
  8 C        3.0280    -2.4440    -0.5620 C.ar  1 <1>   0.4770 
  9 C       -1.4690    -2.0910     0.3120 C.3   1 <1>   0.2090 
 10 C       -0.2210    -3.9000     1.5570 C.3   1 <1>   0.2090 
 11 C        3.9890    -3.4530    -1.1420 C.3   1 <1>  -0.0960 
 12 C       -2.1160    -3.1610    -0.5710 C.3   1 <1>  -0.1600 
 13 C       -0.8690    -4.9580     0.6620 C.3   1 <1>  -0.1600 
 14 C       -2.2520    -4.5060     0.1650 C.3   1 <1>  -0.0190 
 15 C       -2.9040    -5.5710    -0.7150 C.2   1 <1>   0.5690 
 16 O       -2.4710    -5.8150    -1.8110 O.2   1 <1>  -0.5700 
 17 N       -3.9750    -6.2470    -0.2580 N.am  1 <1>  -0.8000 
 18 H        2.8330     0.7190    -0.0400 H     1 <1>   0.1500 
 19 H       -1.3110    -1.2030    -0.2750 H     1 <1>   0.0800 
 20 H       -2.1200    -1.8420     1.1320 H     1 <1>   0.0800 
 21 H       -0.7890    -3.7880     2.4640 H     1 <1>   0.0800 
 22 H        0.7750    -4.2100     1.8270 H     1 <1>   0.0800 
 23 H        4.0910    -4.2830    -0.4690 H     1 <1>   0.0800 
 24 H        4.9550    -3.0080    -1.2980 H     1 <1>   0.0800 
 25 H        3.6080    -3.8060    -2.0820 H     1 <1>   0.0800 
 26 H       -1.5100    -3.2910    -1.4510 H     1 <1>   0.0800 
 27 H       -3.0850    -2.8200    -0.8900 H     1 <1>   0.0800 
 28 H       -0.9590    -5.8790     1.2100 H     1 <1>   0.0800 
 29 H       -0.2210    -5.1390    -0.1790 H     1 <1>   0.0800 
 30 H       -2.8820    -4.3520     1.0220 H     1 <1>   0.0800 
 31 H       -4.3980    -6.9580    -0.8570 H     1 <1>   0.3700 
 32 H       -4.4010    -6.1070     0.6570 H     1 <1>   0.3700 
@<TRIPOS>BOND
  1   1   2  1   
  2   2   3  ar  
  3   2   4  ar  
  4   3   5  ar  
  5   3   6  1   
  6   4   7  ar  
  7   4  18  1   
  8   5   8  ar  
  9   6   9  1   
 10   6  10  1   
 11   7   8  ar  
 12   8  11  1   
 13   9  12  1   
 14   9  19  1   
 15   9  20  1   
 16  10  13  1   
 17  10  21  1   
 18  10  22  1   
 19  11  23  1   
 20  11  24  1   
 21  11  25  1   
 22  12  14  1   
 23  12  26  1   
 24  12  27  1   
 25  13  14  1   
 26  13  28  1   
 27  13  29  1   
 28  14  15  1   
 29  14  30  1   
 30  15  16  2   
 31  15  17  am  
 32  17  31  1   
 33  17  32  1   
@<TRIPOS>SUBSTRUCTURE
  1 ****   6 GROUP 4 **** **** 0

# MOE 2024.06 (io_trps.svl 2023.06)
