@<TRIPOS>MOLECULE
NONAME
53 54 1 0 0 
SMALL
USER_CHARGES


@<TRIPOS>ATOM
  1 F       -0.4690     0.3870     0.9150 F     1 <1>  -0.1900 
  2 C       -1.7170     0.6800     0.6510 C.ar  1 <1>   0.1900 
  3 C       -2.0710     1.7710    -0.1500 C.ar  1 <1>   0.0830 
  4 C       -2.6730    -0.1470     1.2100 C.ar  1 <1>  -0.1500 
  5 O       -1.2250     2.6550    -0.7540 O.3   1 <1>  -0.3630 
  6 C       -3.4200     1.9980    -0.3670 C.ar  1 <1>  -0.1500 
  7 C       -4.0110     0.1100     0.9730 C.ar  1 <1>  -0.1500 
  8 C        0.1790     2.5490    -0.6800 C.3   1 <1>   0.0400 
  9 C       -4.4140     1.1830     0.1770 C.ar  1 <1>   0.0530 
 10 C       -5.8060     1.4670    -0.0690 C.2   1 <1>   0.0870 
 11 O       -6.2170     2.7090    -0.0230 O.3   1 <1>  -0.0190 
 12 C       -6.8940     0.6980    -0.3550 C.2   1 <1>  -0.0860 
 13 N       -7.4970     2.8340    -0.2450 N.2   1 <1>  -0.4100 
 14 C       -7.9300     1.6390    -0.4460 C.2   1 <1>   0.3720 
 15 C       -7.0170    -0.7180    -0.5460 C.2   1 <1>   0.7160 
 16 N       -9.2750     1.3600    -0.7370 N.pl3 1 <1>  -0.8210 
 17 O       -6.0400    -1.4380    -0.6170 O.2   1 <1>  -0.5700 
 18 N       -8.2480    -1.2870    -0.6520 N.am  1 <1>  -0.7300 
 19 C       -9.5890     1.5240    -2.1830 C.3   1 <1>   0.1290 
 20 C      -10.2460     2.1000     0.1180 C.3   1 <1>   0.1290 
 21 C       -8.5700    -2.7090    -0.8950 C.3   1 <1>   0.1400 
 22 C       -9.3950    -3.2380     0.2810 C.3   1 <1>  -0.1600 
 23 C       -9.8340    -4.7040     0.1230 C.3   1 <1>   0.2800 
 24 O      -10.5310    -4.7670    -1.0890 O.3   1 <1>  -0.5600 
 25 C      -10.7700    -5.0720     1.2810 C.3   1 <1>  -0.2400 
 26 C       -8.6190    -5.6430     0.0820 C.3   1 <1>  -0.2400 
 27 C      -11.0740    -5.9830    -1.5180 C.3   1 <1>   0.0400 
 28 H       -2.3720    -0.9790     1.8210 H     1 <1>   0.1500 
 29 H       -3.7060     2.8340    -0.9810 H     1 <1>   0.1500 
 30 H       -4.7560    -0.5330     1.4100 H     1 <1>   0.1500 
 31 H        0.6060     3.3480    -1.2590 H     1 <1>   0.0800 
 32 H        0.4810     1.6010    -1.0890 H     1 <1>   0.0800 
 33 H        0.4840     2.6420     0.3470 H     1 <1>   0.0800 
 34 H       -9.0350    -0.6220    -0.6370 H     1 <1>   0.3700 
 35 H       -8.8920     0.9570    -2.7760 H     1 <1>   0.0800 
 36 H       -9.5180     2.5620    -2.4620 H     1 <1>   0.0800 
 37 H      -10.5840     1.1680    -2.3870 H     1 <1>   0.0800 
 38 H       -9.9500     2.0310     1.1500 H     1 <1>   0.0800 
 39 H      -11.2290     1.6740     0.0110 H     1 <1>   0.0800 
 40 H      -10.2760     3.1390    -0.1640 H     1 <1>   0.0800 
 41 H       -7.6600    -3.2740    -1.0020 H     1 <1>   0.0800 
 42 H       -9.1310    -2.7920    -1.8110 H     1 <1>   0.0800 
 43 H      -10.2750    -2.6290     0.3860 H     1 <1>   0.0800 
 44 H       -8.8140    -3.1400     1.1800 H     1 <1>   0.0800 
 45 H      -11.6680    -4.4840     1.2340 H     1 <1>   0.0800 
 46 H      -10.2840    -4.8750     2.2200 H     1 <1>   0.0800 
 47 H      -11.0250    -6.1150     1.2630 H     1 <1>   0.0800 
 48 H       -8.0570    -5.5010    -0.8230 H     1 <1>   0.0800 
 49 H       -8.9240    -6.6720     0.1460 H     1 <1>   0.0800 
 50 H       -7.9740    -5.4440     0.9180 H     1 <1>   0.0800 
 51 H      -11.5550    -5.8110    -2.4640 H     1 <1>   0.0800 
 52 H      -11.8060    -6.3280    -0.8110 H     1 <1>   0.0800 
 53 H      -10.2930    -6.7090    -1.6480 H     1 <1>   0.0800 
@<TRIPOS>BOND
  1   1   2  1   
  2   2   3  ar  
  3   2   4  ar  
  4   3   5  1   
  5   3   6  ar  
  6   4   7  ar  
  7   4  28  1   
  8   5   8  1   
  9   6   9  ar  
 10   6  29  1   
 11   7   9  ar  
 12   7  30  1   
 13   8  31  1   
 14   8  32  1   
 15   8  33  1   
 16   9  10  1   
 17  10  11  1   
 18  10  12  2   
 19  11  13  1   
 20  12  14  1   
 21  12  15  1   
 22  13  14  2   
 23  14  16  1   
 24  15  17  2   
 25  15  18  am  
 26  16  19  1   
 27  16  20  1   
 28  18  21  1   
 29  18  34  1   
 30  19  35  1   
 31  19  36  1   
 32  19  37  1   
 33  20  38  1   
 34  20  39  1   
 35  20  40  1   
 36  21  22  1   
 37  21  41  1   
 38  21  42  1   
 39  22  23  1   
 40  22  43  1   
 41  22  44  1   
 42  23  24  1   
 43  23  25  1   
 44  23  26  1   
 45  24  27  1   
 46  25  45  1   
 47  25  46  1   
 48  25  47  1   
 49  26  48  1   
 50  26  49  1   
 51  26  50  1   
 52  27  51  1   
 53  27  52  1   
 54  27  53  1   
@<TRIPOS>SUBSTRUCTURE
  1 ****  15 GROUP 4 **** **** 0

# MOE 2024.06 (io_trps.svl 2023.06)
