@<TRIPOS>MOLECULE
NONAME
29 28 1 0 0 
SMALL
USER_CHARGES


@<TRIPOS>ATOM
  1 O        0.0290    -0.2620     0.5230 O.2   1 <1>  -0.5700 
  2 C        0.0180    -1.4400     0.1740 C.2   1 <1>   0.5690 
  3 N        1.1110    -2.0330    -0.3120 N.am  1 <1>  -0.7300 
  4 C       -1.2700    -2.3140     0.2740 C.3   1 <1>   0.2510 
  5 C        2.4020    -1.3770    -0.4740 C.3   1 <1>   0.0600 
  6 N       -1.2460    -3.4920    -0.6230 N.3   1 <1>  -0.9900 
  7 C       -2.5460    -1.5040    -0.0190 C.3   1 <1>  -0.1600 
  8 C       -3.8500    -2.3040     0.1570 C.3   1 <1>  -0.1600 
  9 C       -5.0760    -1.4020    -0.0310 C.3   1 <1>  -0.1600 
 10 C       -6.3770    -2.1940     0.1410 C.3   1 <1>  -0.1600 
 11 C       -7.6000    -1.2920    -0.0460 C.3   1 <1>  -0.2400 
 12 H        0.9920    -3.0010    -0.5840 H     1 <1>   0.3700 
 13 H       -1.3180    -2.6780     1.3010 H     1 <1>   0.0800 
 14 H        2.3000    -0.5200    -1.1440 H     1 <1>   0.0800 
 15 H        3.1310    -2.0740    -0.8910 H     1 <1>   0.0800 
 16 H        2.7590    -1.0210     0.4950 H     1 <1>   0.0800 
 17 H       -1.2710    -3.1480    -1.5740 H     1 <1>   0.3600 
 18 H       -2.0890    -4.0230    -0.4550 H     1 <1>   0.3600 
 19 H       -2.4880    -1.1030    -1.0160 H     1 <1>   0.0800 
 20 H       -2.5660    -0.6660     0.6570 H     1 <1>   0.0800 
 21 H       -3.8740    -2.7350     1.1440 H     1 <1>   0.0800 
 22 H       -3.8930    -3.1030    -0.5620 H     1 <1>   0.0800 
 23 H       -5.0510    -0.9650    -1.0150 H     1 <1>   0.0800 
 24 H       -5.0480    -0.6030     0.6900 H     1 <1>   0.0800 
 25 H       -6.4080    -2.6310     1.1250 H     1 <1>   0.0800 
 26 H       -6.4140    -2.9930    -0.5800 H     1 <1>   0.0800 
 27 H       -7.5960    -0.4980     0.6790 H     1 <1>   0.0800 
 28 H       -8.5020    -1.8640     0.0780 H     1 <1>   0.0800 
 29 H       -7.6020    -0.8610    -1.0320 H     1 <1>   0.0800 
@<TRIPOS>BOND
  1   1   2  2   
  2   2   3  am  
  3   2   4  1   
  4   3   5  1   
  5   3  12  1   
  6   4   6  1   
  7   4   7  1   
  8   4  13  1   
  9   5  14  1   
 10   5  15  1   
 11   5  16  1   
 12   6  17  1   
 13   6  18  1   
 14   7   8  1   
 15   7  19  1   
 16   7  20  1   
 17   8   9  1   
 18   8  21  1   
 19   8  22  1   
 20   9  10  1   
 21   9  23  1   
 22   9  24  1   
 23  10  11  1   
 24  10  25  1   
 25  10  26  1   
 26  11  27  1   
 27  11  28  1   
 28  11  29  1   
@<TRIPOS>SUBSTRUCTURE
  1 ****   7 GROUP 4 **** **** 0

# MOE 2024.06 (io_trps.svl 2023.06)
