@<TRIPOS>MOLECULE
NONAME
47 49 1 0 0 
SMALL
USER_CHARGES


@<TRIPOS>ATOM
  1 CL       3.2040     2.6110    -0.8650 Cl    1 <1>  -0.1770 
  2 C        2.5750     1.0430    -0.4140 C.ar  1 <1>   0.1770 
  3 C        3.4540    -0.0220    -0.2080 C.ar  1 <1>   0.0860 
  4 C        1.2090     0.9130    -0.2570 C.ar  1 <1>  -0.1500 
  5 C        4.8780     0.1340    -0.3880 C.2   1 <1>   0.5440 
  6 C        2.9090    -1.2520     0.1730 C.ar  1 <1>  -0.1500 
  7 C        0.7160    -0.3200     0.1210 C.ar  1 <1>   0.1900 
  8 O        5.3620    -0.0010    -1.4940 O.2   1 <1>  -0.5700 
  9 N        5.7280     0.4510     0.6520 N.am  1 <1>  -0.6600 
 10 C        1.5440    -1.4070     0.3400 C.ar  1 <1>  -0.1500 
 11 F       -0.5680    -0.4640     0.2780 F     1 <1>  -0.1900 
 12 C        7.2030     0.3330     0.4620 C.3   1 <1>   0.1400 
 13 C        5.2850     1.1200     1.9010 C.3   1 <1>   0.1400 
 14 C        7.7240     1.4820    -0.4200 C.3   1 <1>   0.3430 
 15 C        5.9780     2.4800     2.0580 C.3   1 <1>  -0.1600 
 16 N        7.5970     2.8650     0.1740 N.4   1 <1>  -0.9590 
 17 C        6.2410     3.1980     0.7290 C.3   1 <1>   0.3430 
 18 C        7.9950     3.8590    -0.8620 C.3   1 <1>   0.5240 
 19 C        8.0470     5.2310    -0.2380 C.2   1 <1>  -0.1810 
 20 C        8.9400     5.7670     0.6110 C.2   1 <1>  -0.0400 
 21 C        7.1210     6.2580    -0.4270 C.2   1 <1>   0.1080 
 22 O        8.5410     6.9760     0.8940 O.3   1 <1>  -0.0190 
 23 C       10.2210     5.2590     1.2440 C.3   1 <1>  -0.0600 
 24 N        7.4400     7.2820     0.2740 N.2   1 <1>  -0.4100 
 25 C        5.9010     6.2270    -1.3270 C.3   1 <1>  -0.0590 
 26 H        0.5440     1.7420    -0.4210 H     1 <1>   0.1500 
 27 H        3.5660    -2.0910     0.3320 H     1 <1>   0.1500 
 28 H        1.1200    -2.3520     0.6310 H     1 <1>   0.1500 
 29 H        7.4090    -0.6010    -0.0340 H     1 <1>   0.0800 
 30 H        7.7110     0.3150     1.4100 H     1 <1>   0.0800 
 31 H        5.5050     0.4900     2.7470 H     1 <1>   0.0800 
 32 H        4.2190     1.2720     1.8780 H     1 <1>   0.0800 
 33 H        7.1850     1.4410    -1.3530 H     1 <1>   0.0800 
 34 H        8.7600     1.2880    -0.6440 H     1 <1>   0.0800 
 35 H        6.8900     2.3740     2.6180 H     1 <1>   0.0800 
 36 H        5.3280     3.0990     2.6510 H     1 <1>   0.0800 
 37 H        8.2630     2.9670     0.9470 H     1 <1>   0.4500 
 38 H        6.1840     4.2580     0.9190 H     1 <1>   0.0800 
 39 H        5.4760     2.9500     0.0140 H     1 <1>   0.0800 
 40 H        7.2900     3.8510    -1.6770 H     1 <1>   0.0800 
 41 H        8.9690     3.6140    -1.2530 H     1 <1>   0.0800 
 42 H       10.4540     4.2670     0.9080 H     1 <1>   0.0800 
 43 H       10.1230     5.2580     2.3150 H     1 <1>   0.0800 
 44 H       11.0340     5.9120     0.9790 H     1 <1>   0.0800 
 45 H        5.2140     5.4630    -1.0130 H     1 <1>   0.0800 
 46 H        6.1950     6.0490    -2.3450 H     1 <1>   0.0800 
 47 H        5.3950     7.1760    -1.2850 H     1 <1>   0.0800 
@<TRIPOS>BOND
  1   1   2  1   
  2   2   3  ar  
  3   2   4  ar  
  4   3   5  1   
  5   3   6  ar  
  6   4   7  ar  
  7   4  26  1   
  8   5   8  2   
  9   5   9  am  
 10   6  10  ar  
 11   6  27  1   
 12   7  10  ar  
 13   7  11  1   
 14   9  12  1   
 15   9  13  1   
 16  10  28  1   
 17  12  14  1   
 18  12  29  1   
 19  12  30  1   
 20  13  15  1   
 21  13  31  1   
 22  13  32  1   
 23  14  16  1   
 24  14  33  1   
 25  14  34  1   
 26  15  17  1   
 27  15  35  1   
 28  15  36  1   
 29  16  17  1   
 30  16  18  1   
 31  16  37  1   
 32  17  38  1   
 33  17  39  1   
 34  18  19  1   
 35  18  40  1   
 36  18  41  1   
 37  19  20  2   
 38  19  21  1   
 39  20  22  1   
 40  20  23  1   
 41  21  24  2   
 42  21  25  1   
 43  22  24  1   
 44  23  42  1   
 45  23  43  1   
 46  23  44  1   
 47  25  45  1   
 48  25  46  1   
 49  25  47  1   
@<TRIPOS>SUBSTRUCTURE
  1 ****  17 GROUP 4 **** **** 0

# MOE 2024.06 (io_trps.svl 2023.06)
