@<TRIPOS>MOLECULE
NONAME
61 65 1 0 0 
SMALL
USER_CHARGES


@<TRIPOS>ATOM
  1 O        0.8410     0.1990     1.3290 O.2   1 <1>  -0.5700 
  2 C        1.5770    -0.4400     0.6000 C.2   1 <1>   0.5440 
  3 N        1.1780    -1.6980     0.2050 N.am  1 <1>  -0.6600 
  4 C        2.8390     0.1300     0.1940 C.ar  1 <1>   0.0860 
  5 C        2.0830    -2.7640    -0.2830 C.3   1 <1>   0.1400 
  6 C       -0.1290    -2.2660     0.6090 C.3   1 <1>   0.1400 
  7 C        3.6350     0.8010     1.1200 C.ar  1 <1>   0.1600 
  8 C        3.3230     0.0570    -1.1100 C.ar  1 <1>  -0.1500 
  9 C        1.4060    -4.0650     0.1270 C.3   1 <1>  -0.1600 
 10 C       -0.0810    -3.7250     0.1680 C.3   1 <1>  -0.1600 
 11 N        4.8140     1.3520     0.8840 N.ar  1 <1>  -0.6200 
 12 C        4.5420     0.6270    -1.3790 C.ar  1 <1>  -0.1500 
 13 C        5.2540     1.2630    -0.3660 C.ar  1 <1>   0.4100 
 14 N        6.4730     1.8320    -0.6370 N.pl3 1 <1>  -0.8380 
 15 C        6.5520     3.3230    -0.4530 C.3   1 <1>   0.2890 
 16 C        7.6120     0.9970    -0.1780 C.3   1 <1>   0.2090 
 17 C        7.9570     3.9050    -0.7610 C.3   1 <1>  -0.0800 
 18 C        5.4530     3.9800    -1.3240 C.3   1 <1>  -0.1600 
 19 C        8.9480     1.5910    -0.6040 C.3   1 <1>  -0.1600 
 20 C        9.0880     3.0490    -0.1590 C.3   1 <1>   0.4240 
 21 C        8.0980     4.1910    -2.2750 C.3   1 <1>  -0.1600 
 22 C        5.8440     5.3640    -1.8590 C.3   1 <1>  -0.1600 
 23 O        8.9130     3.0490     1.2170 O.3   1 <1>  -0.6800 
 24 C       10.4790     3.6580    -0.4450 C.ar  1 <1>  -0.1440 
 25 C        7.1050     5.2770    -2.7360 C.3   1 <1>  -0.1600 
 26 C       10.8990     4.7770     0.2680 C.ar  1 <1>  -0.1500 
 27 C       11.3390     3.1460    -1.4150 C.ar  1 <1>  -0.1500 
 28 C       12.1290     5.3630     0.0280 C.ar  1 <1>  -0.1500 
 29 C       12.5710     3.7300    -1.6580 C.ar  1 <1>  -0.1500 
 30 C       12.9680     4.8400    -0.9370 C.ar  1 <1>  -0.1500 
 31 H        2.1500    -2.7060    -1.3560 H     1 <1>   0.0800 
 32 H        3.0650    -2.6770     0.1510 H     1 <1>   0.0800 
 33 H       -0.2280    -2.1970     1.6790 H     1 <1>   0.0800 
 34 H       -0.9360    -1.7310     0.1390 H     1 <1>   0.0800 
 35 H        3.2570     0.8800     2.1260 H     1 <1>   0.1500 
 36 H        2.7470    -0.4260    -1.8800 H     1 <1>   0.1500 
 37 H        1.6260    -4.8660    -0.5570 H     1 <1>   0.0800 
 38 H        1.7450    -4.3410     1.1110 H     1 <1>   0.0800 
 39 H       -0.6310    -4.3620     0.8380 H     1 <1>   0.0800 
 40 H       -0.5030    -3.8050    -0.8180 H     1 <1>   0.0800 
 41 H        4.9680     0.6050    -2.3640 H     1 <1>   0.1500 
 42 H        6.3320     3.5440     0.5780 H     1 <1>   0.0800 
 43 H        7.5700     0.8950     0.8940 H     1 <1>   0.0800 
 44 H        7.5150     0.0100    -0.5980 H     1 <1>   0.0800 
 45 H        8.0240     4.8630    -0.2750 H     1 <1>   0.0800 
 46 H        5.2490     3.3550    -2.1760 H     1 <1>   0.0800 
 47 H        4.5500     4.0570    -0.7460 H     1 <1>   0.0800 
 48 H        9.0140     1.5210    -1.6730 H     1 <1>   0.0800 
 49 H        9.7510     1.0110    -0.1860 H     1 <1>   0.0800 
 50 H        9.0940     4.5140    -2.5200 H     1 <1>   0.0800 
 51 H        7.9040     3.2840    -2.8210 H     1 <1>   0.0800 
 52 H        5.0330     5.7800    -2.4320 H     1 <1>   0.0800 
 53 H        6.0260     6.0230    -1.0270 H     1 <1>   0.0800 
 54 H        8.0270     2.6920     1.4120 H     1 <1>   0.4000 
 55 H        7.5940     6.2360    -2.7270 H     1 <1>   0.0800 
 56 H        6.8220     5.0700    -3.7540 H     1 <1>   0.0800 
 57 H       10.2620     5.1980     1.0260 H     1 <1>   0.1500 
 58 H       11.0690     2.2900    -2.0030 H     1 <1>   0.1500 
 59 H       12.4320     6.2260     0.5950 H     1 <1>   0.1500 
 60 H       13.2220     3.3190    -2.4100 H     1 <1>   0.1500 
 61 H       13.9250     5.2930    -1.1240 H     1 <1>   0.1500 
@<TRIPOS>BOND
  1   1   2  2   
  2   2   3  am  
  3   2   4  1   
  4   3   5  1   
  5   3   6  1   
  6   4   7  ar  
  7   4   8  ar  
  8   5   9  1   
  9   5  31  1   
 10   5  32  1   
 11   6  10  1   
 12   6  33  1   
 13   6  34  1   
 14   7  11  ar  
 15   7  35  1   
 16   8  12  ar  
 17   8  36  1   
 18   9  10  1   
 19   9  37  1   
 20   9  38  1   
 21  10  39  1   
 22  10  40  1   
 23  11  13  ar  
 24  12  13  ar  
 25  12  41  1   
 26  13  14  1   
 27  14  15  1   
 28  14  16  1   
 29  15  17  1   
 30  15  18  1   
 31  15  42  1   
 32  16  19  1   
 33  16  43  1   
 34  16  44  1   
 35  17  20  1   
 36  17  21  1   
 37  17  45  1   
 38  18  22  1   
 39  18  46  1   
 40  18  47  1   
 41  19  20  1   
 42  19  48  1   
 43  19  49  1   
 44  20  23  1   
 45  20  24  1   
 46  21  25  1   
 47  21  50  1   
 48  21  51  1   
 49  22  25  1   
 50  22  52  1   
 51  22  53  1   
 52  23  54  1   
 53  24  26  ar  
 54  24  27  ar  
 55  25  55  1   
 56  25  56  1   
 57  26  28  ar  
 58  26  57  1   
 59  27  29  ar  
 60  27  58  1   
 61  28  30  ar  
 62  28  59  1   
 63  29  30  ar  
 64  29  60  1   
 65  30  61  1   
@<TRIPOS>SUBSTRUCTURE
  1 ****  14 GROUP 4 **** **** 0

# MOE 2024.06 (io_trps.svl 2023.06)
