@<TRIPOS>MOLECULE
NONAME
53 55 1 0 0 
SMALL
USER_CHARGES


@<TRIPOS>ATOM
  1 S        0.9100     0.7210     0.4540 S.o2  1 <1>   1.3330 
  2 O       -0.4330     0.4400     0.9120 O.2   1 <1>  -0.6500 
  3 O        1.9430     1.0090     1.4240 O.2   1 <1>  -0.6500 
  4 N        1.4220    -0.5920    -0.4930 N.am  1 <1>  -0.8490 
  5 C        0.8590     2.0740    -0.7190 C.3   1 <1>  -0.0550 
  6 C        2.1290    -1.6040     0.2980 C.3   1 <1>   0.1160 
  7 C        0.3340    -1.2230    -1.2490 C.3   1 <1>   0.1160 
  8 C        0.3640     3.3900    -0.0990 C.3   1 <1>  -0.0800 
  9 C        0.1490     4.4720    -1.1490 C.3   1 <1>   0.2000 
 10 C        1.3430     4.0190     0.9030 C.3   1 <1>   0.1100 
 11 O       -1.1310     4.3840    -1.6740 O.3   1 <1>  -0.6800 
 12 C        0.3710     5.7680    -0.3850 C.3   1 <1>   0.1100 
 13 N        1.4430     5.4430     0.5610 N.3   1 <1>  -0.8100 
 14 C        1.5170     6.3340     1.7310 C.3   1 <1>   0.2900 
 15 C        1.6040     7.8000     1.3260 C.2   1 <1>  -0.0400 
 16 O        2.6730     8.2340     0.6770 O.3   1 <1>  -0.2800 
 17 C        0.7260     8.8120     1.5250 C.2   1 <1>  -0.1500 
 18 C        2.4850     9.5170     0.4560 C.2   1 <1>   0.1960 
 19 C        1.3070     9.9490     0.9460 C.2   1 <1>  -0.1500 
 20 S        3.7290    10.4650    -0.4390 S.3   1 <1>  -0.1580 
 21 C        5.2580     9.5090    -0.4510 C.ar  1 <1>   0.1010 
 22 C        5.6210     8.7080     0.6180 C.ar  1 <1>  -0.1500 
 23 C        6.0780     9.6230    -1.5600 C.ar  1 <1>  -0.1500 
 24 C        6.8090     7.9990     0.5640 C.ar  1 <1>  -0.1500 
 25 C        7.2660     8.9130    -1.6070 C.ar  1 <1>  -0.1500 
 26 C        7.6340     8.0960    -0.5480 C.ar  1 <1>  -0.1440 
 27 C        8.9320     7.3110    -0.5970 C.3   1 <1>  -0.0970 
 28 H        1.8360     2.2210    -1.1370 H     1 <1>   0.0800 
 29 H        0.1960     1.8110    -1.5210 H     1 <1>   0.0800 
 30 H        2.4540    -2.4120    -0.3340 H     1 <1>   0.0800 
 31 H        1.4860    -1.9920     1.0700 H     1 <1>   0.0800 
 32 H        3.0000    -1.1690     0.7590 H     1 <1>   0.0800 
 33 H        0.7290    -1.9880    -1.8960 H     1 <1>   0.0800 
 34 H       -0.1690    -0.4920    -1.8580 H     1 <1>   0.0800 
 35 H       -0.3830    -1.6670    -0.5790 H     1 <1>   0.0800 
 36 H       -0.5610     3.2110     0.4220 H     1 <1>   0.0800 
 37 H        0.8620     4.3970    -1.9530 H     1 <1>   0.0800 
 38 H        2.3230     3.5770     0.8270 H     1 <1>   0.0800 
 39 H        0.9800     3.8790     1.9090 H     1 <1>   0.0800 
 40 H       -1.7950     4.4780    -0.9660 H     1 <1>   0.4000 
 41 H       -0.5200     6.0450     0.1510 H     1 <1>   0.0800 
 42 H        0.6770     6.5660    -1.0410 H     1 <1>   0.0800 
 43 H        0.6480     6.1900     2.3480 H     1 <1>   0.0800 
 44 H        2.3900     6.0830     2.3090 H     1 <1>   0.0800 
 45 H       -0.2300     8.7880     2.0180 H     1 <1>   0.1500 
 46 H        0.8870    10.9370     0.9100 H     1 <1>   0.1500 
 47 H        4.9930     8.6380     1.4860 H     1 <1>   0.1500 
 48 H        5.7870    10.2570    -2.3770 H     1 <1>   0.1500 
 49 H        7.0890     7.3720     1.3920 H     1 <1>   0.1500 
 50 H        7.9010     8.9990    -2.4710 H     1 <1>   0.1500 
 51 H        8.7960     6.3410    -0.1540 H     1 <1>   0.0800 
 52 H        9.6960     7.8380    -0.0540 H     1 <1>   0.0800 
 53 H        9.2570     7.1780    -1.6130 H     1 <1>   0.0800 
@<TRIPOS>BOND
  1   1   2  2   
  2   1   3  2   
  3   1   4  am  
  4   1   5  1   
  5   4   6  1   
  6   4   7  1   
  7   5   8  1   
  8   5  28  1   
  9   5  29  1   
 10   6  30  1   
 11   6  31  1   
 12   6  32  1   
 13   7  33  1   
 14   7  34  1   
 15   7  35  1   
 16   8   9  1   
 17   8  10  1   
 18   8  36  1   
 19   9  11  1   
 20   9  12  1   
 21   9  37  1   
 22  10  13  1   
 23  10  38  1   
 24  10  39  1   
 25  11  40  1   
 26  12  13  1   
 27  12  41  1   
 28  12  42  1   
 29  13  14  1   
 30  14  15  1   
 31  14  43  1   
 32  14  44  1   
 33  15  16  1   
 34  15  17  2   
 35  16  18  1   
 36  17  19  1   
 37  17  45  1   
 38  18  19  2   
 39  18  20  1   
 40  19  46  1   
 41  20  21  1   
 42  21  22  ar  
 43  21  23  ar  
 44  22  24  ar  
 45  22  47  1   
 46  23  25  ar  
 47  23  48  1   
 48  24  26  ar  
 49  24  49  1   
 50  25  26  ar  
 51  25  50  1   
 52  26  27  1   
 53  27  51  1   
 54  27  52  1   
 55  27  53  1   
@<TRIPOS>SUBSTRUCTURE
  1 ****  13 GROUP 4 **** **** 0

# MOE 2024.06 (io_trps.svl 2023.06)
