@<TRIPOS>MOLECULE
NONAME
52 54 1 0 0 
SMALL
USER_CHARGES


@<TRIPOS>ATOM
  1 O       -1.0730    -3.1350     0.8470 O.2   1 <1>  -0.5700 
  2 C        0.0050    -2.6360     0.5850 C.2   1 <1>   0.6900 
  3 N        1.1670    -3.1830     1.0790 N.am  1 <1>  -0.4200 
  4 N        0.0820    -1.5830    -0.2800 N.am  1 <1>  -0.5390 
  5 C        2.3810    -2.8270     0.5260 C.2   1 <1>   0.6160 
  6 C        1.1260    -4.1490     2.2170 C.3   1 <1>   0.1400 
  7 C        1.2830    -1.1110    -0.7700 C.2   1 <1>  -0.0290 
  8 O        3.3670    -3.4870     0.7920 O.2   1 <1>  -0.5700 
  9 C        2.4210    -1.7280    -0.3810 C.2   1 <1>  -0.1360 
 10 C        1.0420    -5.6060     1.7310 C.3   1 <1>   0.3430 
 11 C        1.2270     0.0690    -1.7200 C.3   1 <1>  -0.1020 
 12 N       -0.0770    -5.7980     0.7530 N.4   1 <1>  -0.9590 
 13 C       -0.9400    -6.9670     1.1130 C.3   1 <1>   0.3430 
 14 C        0.4380    -5.8980    -0.6410 C.3   1 <1>   0.3430 
 15 C       -2.1460    -7.0800     0.1710 C.3   1 <1>  -0.0190 
 16 C       -0.7410    -5.9480    -1.6140 C.3   1 <1>  -0.1600 
 17 C       -2.9280    -8.3360     0.5420 C.2   1 <1>   0.5690 
 18 C       -1.6860    -7.1190    -1.3010 C.3   1 <1>  -0.1600 
 19 O       -2.3020    -9.2280     1.0640 O.2   1 <1>  -0.5700 
 20 N       -4.2740    -8.4470     0.3040 N.am  1 <1>  -0.6600 
 21 C       -5.0340    -9.6680     0.7260 C.3   1 <1>   0.1400 
 22 C       -5.1460    -7.4560    -0.4040 C.3   1 <1>   0.1400 
 23 C       -5.8620   -10.2300    -0.4410 C.3   1 <1>   0.1200 
 24 C       -5.9690    -8.1440    -1.5080 C.3   1 <1>   0.1200 
 25 O       -6.6760    -9.2330    -0.9900 O.3   1 <1>  -0.5600 
 26 H       -0.8110    -1.1640    -0.5540 H     1 <1>   0.3700 
 27 H        0.2800    -3.9300     2.8460 H     1 <1>   0.0800 
 28 H        2.0090    -4.0290     2.8220 H     1 <1>   0.0800 
 29 H        3.3940    -1.4310    -0.7250 H     1 <1>   0.1500 
 30 H        0.8960    -6.2430     2.5870 H     1 <1>   0.0800 
 31 H        1.9830    -5.8800     1.2790 H     1 <1>   0.0800 
 32 H        0.7740     0.9140    -1.2330 H     1 <1>   0.0800 
 33 H        0.6490    -0.1820    -2.5910 H     1 <1>   0.0800 
 34 H        2.2160     0.3490    -2.0360 H     1 <1>   0.0800 
 35 H       -0.6720    -4.9440     0.7950 H     1 <1>   0.4500 
 36 H       -1.2940    -6.8700     2.1260 H     1 <1>   0.0800 
 37 H       -0.3610    -7.8760     1.0500 H     1 <1>   0.0800 
 38 H        1.0330    -6.7910    -0.7480 H     1 <1>   0.0800 
 39 H        1.0590    -5.0460    -0.8690 H     1 <1>   0.0800 
 40 H       -2.7690    -6.2220     0.3420 H     1 <1>   0.0800 
 41 H       -0.3630    -6.0550    -2.6160 H     1 <1>   0.0800 
 42 H       -1.2780    -5.0160    -1.5700 H     1 <1>   0.0800 
 43 H       -2.5370    -7.0860    -1.9580 H     1 <1>   0.0800 
 44 H       -1.1720    -8.0480    -1.4850 H     1 <1>   0.0800 
 45 H       -5.6960    -9.4120     1.5350 H     1 <1>   0.0800 
 46 H       -4.3660   -10.4340     1.0800 H     1 <1>   0.0800 
 47 H       -4.5660    -6.6690    -0.8470 H     1 <1>   0.0800 
 48 H       -5.8220    -7.0120     0.3060 H     1 <1>   0.0800 
 49 H       -6.5010   -11.0220    -0.0940 H     1 <1>   0.0800 
 50 H       -5.2180   -10.6170    -1.2110 H     1 <1>   0.0800 
 51 H       -5.3310    -8.4930    -2.3000 H     1 <1>   0.0800 
 52 H       -6.6870    -7.4570    -1.9200 H     1 <1>   0.0800 
@<TRIPOS>BOND
  1   1   2  2   
  2   2   3  am  
  3   2   4  am  
  4   3   5  am  
  5   3   6  1   
  6   4   7  1   
  7   4  26  1   
  8   5   8  2   
  9   5   9  1   
 10   6  10  1   
 11   6  27  1   
 12   6  28  1   
 13   7   9  2   
 14   7  11  1   
 15   9  29  1   
 16  10  12  1   
 17  10  30  1   
 18  10  31  1   
 19  11  32  1   
 20  11  33  1   
 21  11  34  1   
 22  12  13  1   
 23  12  14  1   
 24  12  35  1   
 25  13  15  1   
 26  13  36  1   
 27  13  37  1   
 28  14  16  1   
 29  14  38  1   
 30  14  39  1   
 31  15  17  1   
 32  15  18  1   
 33  15  40  1   
 34  16  18  1   
 35  16  41  1   
 36  16  42  1   
 37  17  19  2   
 38  17  20  am  
 39  18  43  1   
 40  18  44  1   
 41  20  21  1   
 42  20  22  1   
 43  21  23  1   
 44  21  45  1   
 45  21  46  1   
 46  22  24  1   
 47  22  47  1   
 48  22  48  1   
 49  23  25  1   
 50  23  49  1   
 51  23  50  1   
 52  24  25  1   
 53  24  51  1   
 54  24  52  1   
@<TRIPOS>SUBSTRUCTURE
  1 ****  12 GROUP 4 **** **** 0

# MOE 2024.06 (io_trps.svl 2023.06)
