@<TRIPOS>MOLECULE
NONAME
64 68 1 0 0 
SMALL
USER_CHARGES


@<TRIPOS>ATOM
  1 O       -0.1360    -2.0130    -2.2830 O.2   1 <1>  -0.5700 
  2 C        0.4030    -2.3620    -1.2620 C.2   1 <1>   0.5690 
  3 N        1.7190    -2.1000    -1.0160 N.am  1 <1>  -0.6600 
  4 C       -0.4140    -3.1500    -0.2650 C.3   1 <1>  -0.0990 
  5 C        2.4180    -2.6170     0.2030 C.3   1 <1>   0.1400 
  6 C        2.5140    -1.2750    -1.9880 C.3   1 <1>   0.2840 
  7 C        0.0920    -4.5870    -0.1580 C.3   1 <1>   0.1200 
  8 C        2.4650    -4.1670     0.2970 C.3   1 <1>   0.2800 
  9 C        3.3520    -0.2010    -1.3060 C.ar  1 <1>   0.1660 
 10 O        1.2180    -4.6790     0.6730 O.3   1 <1>  -0.5600 
 11 C        2.9380    -4.8540    -1.0020 C.3   1 <1>  -0.1600 
 12 C        3.3860    -4.5840     1.4570 C.3   1 <1>  -0.1600 
 13 N        4.6300    -0.4880    -1.0760 N.ar  1 <1>  -0.6200 
 14 C        2.7520     0.9990    -0.9680 C.ar  1 <1>  -0.1500 
 15 C        4.4250    -4.6170    -1.2520 C.3   1 <1>   0.3430 
 16 C        4.8700    -4.4140     1.1350 C.3   1 <1>   0.3430 
 17 C        5.3320     0.4800    -0.4990 C.ar  1 <1>   0.1600 
 18 C        3.4940     1.9900    -0.3630 C.ar  1 <1>   0.0820 
 19 N        5.1890    -5.1750    -0.1050 N.4   1 <1>  -0.9590 
 20 C        4.8290     1.7120    -0.1280 C.ar  1 <1>  -0.1500 
 21 O        2.8780     3.1500    -0.0490 O.3   1 <1>  -0.3630 
 22 C        6.6610    -5.2300    -0.3820 C.3   1 <1>   0.4860 
 23 C        3.5820     4.2220     0.5370 C.3   1 <1>   0.0400 
 24 C        7.2960    -3.8500    -0.3380 C.ar  1 <1>  -0.1430 
 25 C        7.9100    -3.4120     0.8330 C.ar  1 <1>  -0.1500 
 26 C        7.2860    -3.0300    -1.4650 C.ar  1 <1>  -0.1500 
 27 C        8.4830    -2.1560     0.8590 C.ar  1 <1>  -0.1430 
 28 C        7.8650    -1.7730    -1.4270 C.ar  1 <1>  -0.1500 
 29 C        8.4540    -1.3550    -0.2500 C.ar  1 <1>   0.0820 
 30 C        9.2010    -1.4240     1.9550 C.3   1 <1>  -0.0170 
 31 O        9.0390    -0.1640    -0.0540 O.3   1 <1>  -0.3620 
 32 C        9.5890    -0.1080     1.2560 C.3   1 <1>   0.1200 
 33 H       -1.4290    -3.1730    -0.6170 H     1 <1>   0.0800 
 34 H       -0.4140    -2.6710     0.6960 H     1 <1>   0.0800 
 35 H        1.9350    -2.2220     1.0800 H     1 <1>   0.0800 
 36 H        3.4250    -2.2510     0.2170 H     1 <1>   0.0800 
 37 H        1.8580    -0.7920    -2.6910 H     1 <1>   0.0800 
 38 H        3.1620    -1.9210    -2.5510 H     1 <1>   0.0800 
 39 H        0.3080    -5.0040    -1.1260 H     1 <1>   0.0800 
 40 H       -0.6730    -5.1910     0.2990 H     1 <1>   0.0800 
 41 H        2.3950    -4.4790    -1.8490 H     1 <1>   0.0800 
 42 H        2.7560    -5.9120    -0.9400 H     1 <1>   0.0800 
 43 H        3.2080    -5.6160     1.7030 H     1 <1>   0.0800 
 44 H        3.1510    -4.0010     2.3290 H     1 <1>   0.0800 
 45 H        1.7100     1.1720    -1.1720 H     1 <1>   0.1500 
 46 H        4.6210    -3.5600    -1.3500 H     1 <1>   0.0800 
 47 H        4.7160    -5.1060    -2.1680 H     1 <1>   0.0800 
 48 H        5.4600    -4.7820     1.9590 H     1 <1>   0.0800 
 49 H        5.1020    -3.3700     0.9930 H     1 <1>   0.0800 
 50 H        6.3720     0.2840    -0.3110 H     1 <1>   0.1500 
 51 H        4.8690    -6.1420     0.0330 H     1 <1>   0.4500 
 52 H        5.4820     2.4270     0.3320 H     1 <1>   0.1500 
 53 H        6.8380    -5.6730    -1.3480 H     1 <1>   0.0800 
 54 H        7.1420    -5.8510     0.3560 H     1 <1>   0.0800 
 55 H        2.8920     5.0340     0.6830 H     1 <1>   0.0800 
 56 H        4.3710     4.5270    -0.1280 H     1 <1>   0.0800 
 57 H        3.9770     3.9040     1.4850 H     1 <1>   0.0800 
 58 H        7.9550    -4.0290     1.7140 H     1 <1>   0.1500 
 59 H        6.8340    -3.3540    -2.3860 H     1 <1>   0.1500 
 60 H        7.8630    -1.1230    -2.2840 H     1 <1>   0.1500 
 61 H       10.0760    -1.9580     2.2800 H     1 <1>   0.0800 
 62 H        8.5530    -1.2370     2.7920 H     1 <1>   0.0800 
 63 H       10.6560    -0.0120     1.1640 H     1 <1>   0.0800 
 64 H        9.1790     0.7490     1.7590 H     1 <1>   0.0800 
@<TRIPOS>BOND
  1   1   2  2   
  2   2   3  am  
  3   2   4  1   
  4   3   5  1   
  5   3   6  1   
  6   4   7  1   
  7   4  33  1   
  8   4  34  1   
  9   5   8  1   
 10   5  35  1   
 11   5  36  1   
 12   6   9  1   
 13   6  37  1   
 14   6  38  1   
 15   7  10  1   
 16   7  39  1   
 17   7  40  1   
 18   8  10  1   
 19   8  11  1   
 20   8  12  1   
 21   9  13  ar  
 22   9  14  ar  
 23  11  15  1   
 24  11  41  1   
 25  11  42  1   
 26  12  16  1   
 27  12  43  1   
 28  12  44  1   
 29  13  17  ar  
 30  14  18  ar  
 31  14  45  1   
 32  15  19  1   
 33  15  46  1   
 34  15  47  1   
 35  16  19  1   
 36  16  48  1   
 37  16  49  1   
 38  17  20  ar  
 39  17  50  1   
 40  18  20  ar  
 41  18  21  1   
 42  19  22  1   
 43  19  51  1   
 44  20  52  1   
 45  21  23  1   
 46  22  24  1   
 47  22  53  1   
 48  22  54  1   
 49  23  55  1   
 50  23  56  1   
 51  23  57  1   
 52  24  25  ar  
 53  24  26  ar  
 54  25  27  ar  
 55  25  58  1   
 56  26  28  ar  
 57  26  59  1   
 58  27  29  ar  
 59  27  30  1   
 60  28  29  ar  
 61  28  60  1   
 62  29  31  1   
 63  30  32  1   
 64  30  61  1   
 65  30  62  1   
 66  31  32  1   
 67  32  63  1   
 68  32  64  1   
@<TRIPOS>SUBSTRUCTURE
  1 ****  13 GROUP 4 **** **** 0

# MOE 2024.06 (io_trps.svl 2023.06)
