@<TRIPOS>MOLECULE
NONAME
48 51 1 0 0 
SMALL
USER_CHARGES


@<TRIPOS>ATOM
  1 O       -1.4170     0.9600    -1.2390 O.2   1 <1>  -0.5700 
  2 C       -0.9930     1.9310    -0.6660 C.2   1 <1>   0.5690 
  3 N       -1.8330     2.8860    -0.2130 N.am  1 <1>  -0.7300 
  4 C        0.5170     2.1140    -0.4820 C.3   1 <1>   0.1810 
  5 C       -1.3840     4.1140     0.4860 C.3   1 <1>   0.3640 
  6 O        0.8480     3.0780     0.4950 O.3   1 <1>  -0.5600 
  7 C       -2.1160     5.3120    -0.1150 C.ar  1 <1>  -0.1440 
  8 C        0.1520     4.3110     0.3800 C.3   1 <1>   0.2610 
  9 C       -2.2530     5.4610    -1.4910 C.ar  1 <1>  -0.1500 
 10 C       -2.6480     6.2840     0.7200 C.ar  1 <1>  -0.1500 
 11 C        0.6720     5.3290     1.4110 C.2   1 <1>   0.5690 
 12 C       -2.9090     6.5600    -2.0180 C.ar  1 <1>  -0.1500 
 13 C       -3.3030     7.3840     0.1950 C.ar  1 <1>  -0.1500 
 14 O       -0.0130     5.5850     2.3780 O.2   1 <1>  -0.5700 
 15 N        1.8850     5.9540     1.2340 N.am  1 <1>  -0.6600 
 16 C       -3.4340     7.5230    -1.1750 C.ar  1 <1>  -0.1500 
 17 C        2.8970     5.6150     0.1820 C.3   1 <1>   0.1400 
 18 C        2.3260     7.0820     2.1120 C.3   1 <1>   0.1400 
 19 C        3.2560     6.8530    -0.6580 C.3   1 <1>   0.2090 
 20 C        2.6850     8.3230     1.2750 C.3   1 <1>   0.2090 
 21 N        3.6830     7.9960     0.2090 N.pl3 1 <1>  -0.8380 
 22 C        4.3460     9.0600    -0.3850 C.ar  1 <1>   0.4100 
 23 N        4.0770     9.2980    -1.6640 N.ar  1 <1>  -0.6200 
 24 C        5.2520     9.8480     0.3480 C.ar  1 <1>   0.1600 
 25 C        4.7390    10.3410    -2.1360 C.ar  1 <1>   0.1600 
 26 N        5.9110    10.8920    -0.1200 N.ar  1 <1>  -0.6200 
 27 C        5.6230    11.1130    -1.3940 C.ar  1 <1>   0.1600 
 28 H       -2.8380     2.7670    -0.3440 H     1 <1>   0.3700 
 29 H        0.9550     2.4130    -1.4160 H     1 <1>   0.0800 
 30 H        0.9520     1.1790    -0.1790 H     1 <1>   0.0800 
 31 H       -1.6560     4.0140     1.5230 H     1 <1>   0.0800 
 32 H        0.3620     4.7060    -0.5960 H     1 <1>   0.0800 
 33 H       -1.8540     4.7220    -2.1630 H     1 <1>   0.1500 
 34 H       -2.5500     6.1950     1.7900 H     1 <1>   0.1500 
 35 H       -3.0120     6.6670    -3.0840 H     1 <1>   0.1500 
 36 H       -3.7100     8.1320     0.8530 H     1 <1>   0.1500 
 37 H       -3.9440     8.3780    -1.5840 H     1 <1>   0.1500 
 38 H        3.7900     5.2560     0.6640 H     1 <1>   0.0800 
 39 H        2.5460     4.8350    -0.4660 H     1 <1>   0.0800 
 40 H        1.5530     7.3450     2.8120 H     1 <1>   0.0800 
 41 H        3.1890     6.7740     2.6750 H     1 <1>   0.0800 
 42 H        2.4030     7.1500    -1.2430 H     1 <1>   0.0800 
 43 H        4.0540     6.6040    -1.3360 H     1 <1>   0.0800 
 44 H        3.0760     9.0860     1.9240 H     1 <1>   0.0800 
 45 H        1.7900     8.7070     0.8140 H     1 <1>   0.0800 
 46 H        5.4220     9.5720     1.3710 H     1 <1>   0.1500 
 47 H        4.5720    10.5990    -3.1660 H     1 <1>   0.1500 
 48 H        6.1130    11.9440    -1.8690 H     1 <1>   0.1500 
@<TRIPOS>BOND
  1   1   2  2   
  2   2   3  am  
  3   2   4  1   
  4   3   5  1   
  5   3  28  1   
  6   4   6  1   
  7   4  29  1   
  8   4  30  1   
  9   5   7  1   
 10   5   8  1   
 11   5  31  1   
 12   6   8  1   
 13   7   9  ar  
 14   7  10  ar  
 15   8  11  1   
 16   8  32  1   
 17   9  12  ar  
 18   9  33  1   
 19  10  13  ar  
 20  10  34  1   
 21  11  14  2   
 22  11  15  am  
 23  12  16  ar  
 24  12  35  1   
 25  13  16  ar  
 26  13  36  1   
 27  15  17  1   
 28  15  18  1   
 29  16  37  1   
 30  17  19  1   
 31  17  38  1   
 32  17  39  1   
 33  18  20  1   
 34  18  40  1   
 35  18  41  1   
 36  19  21  1   
 37  19  42  1   
 38  19  43  1   
 39  20  21  1   
 40  20  44  1   
 41  20  45  1   
 42  21  22  1   
 43  22  23  ar  
 44  22  24  ar  
 45  23  25  ar  
 46  24  26  ar  
 47  24  46  1   
 48  25  27  ar  
 49  25  47  1   
 50  26  27  ar  
 51  27  48  1   
@<TRIPOS>SUBSTRUCTURE
  1 ****  15 GROUP 4 **** **** 0

# MOE 2024.06 (io_trps.svl 2023.06)
