@<TRIPOS>MOLECULE
NONAME
52 54 1 0 0 
SMALL
USER_CHARGES


@<TRIPOS>ATOM
  1 O        0.1910     2.0920    -2.1420 O.2   1 <1>  -0.5700 
  2 C       -0.2420     3.1630    -1.7840 C.2   1 <1>   0.5690 
  3 N       -0.9170     3.3590    -0.6060 N.am  1 <1>  -0.6600 
  4 C       -0.0290     4.3550    -2.7100 C.3   1 <1>   0.1810 
  5 C       -1.4480     4.7180    -0.2490 C.3   1 <1>   0.3640 
  6 C       -1.1220     2.3170     0.4390 C.3   1 <1>   0.2200 
  7 O        0.1340     5.5470    -1.9870 O.3   1 <1>  -0.5600 
  8 C       -2.9780     4.6730    -0.2300 C.ar  1 <1>  -0.1440 
  9 C       -0.9740     5.8850    -1.1650 C.3   1 <1>   0.2610 
 10 C        0.2240     1.8870     1.0210 C.3   1 <1>  -0.2400 
 11 C       -1.9180     1.1290    -0.1020 C.3   1 <1>  -0.2400 
 12 C       -3.6960     4.0730    -1.2570 C.ar  1 <1>  -0.1500 
 13 C       -3.6720     5.2500     0.8250 C.ar  1 <1>  -0.1500 
 14 C       -0.6310     7.1080    -0.3040 C.2   1 <1>   0.5690 
 15 C       -5.0790     4.0460    -1.2270 C.ar  1 <1>  -0.1500 
 16 C       -5.0550     5.2240     0.8560 C.ar  1 <1>  -0.1500 
 17 O       -1.3990     7.4790     0.5520 O.2   1 <1>  -0.5700 
 18 N        0.5530     7.7410    -0.5000 N.am  1 <1>  -0.7300 
 19 C       -5.7600     4.6220    -0.1700 C.ar  1 <1>  -0.1500 
 20 C        1.0850     8.8480     0.3110 C.3   1 <1>   0.3210 
 21 C        2.4100     8.4170     0.9020 C.2   1 <1>  -0.1810 
 22 C        3.6550     8.8580     0.6580 C.2   1 <1>  -0.0400 
 23 C        2.6040     7.4270     1.8660 C.2   1 <1>   0.1080 
 24 O        4.4750     8.1810     1.4150 O.3   1 <1>  -0.0190 
 25 C        4.2140     9.9170    -0.2700 C.3   1 <1>  -0.0600 
 26 N        3.8510     7.3100     2.1530 N.2   1 <1>  -0.4100 
 27 C        1.5210     6.5830     2.5040 C.3   1 <1>  -0.0590 
 28 H       -0.8660     4.4610    -3.3750 H     1 <1>   0.0800 
 29 H        0.8630     4.2000    -3.2900 H     1 <1>   0.0800 
 30 H       -1.1080     4.9310     0.7500 H     1 <1>   0.0800 
 31 H       -1.7010     2.7440     1.2420 H     1 <1>   0.0800 
 32 H       -1.7780     6.1670    -1.8200 H     1 <1>   0.0800 
 33 H        0.8200     1.3870     0.2790 H     1 <1>   0.0800 
 34 H        0.0670     1.2070     1.8380 H     1 <1>   0.0800 
 35 H        0.7610     2.7420     1.3880 H     1 <1>   0.0800 
 36 H       -1.3630     0.5960    -0.8530 H     1 <1>   0.0800 
 37 H       -2.8490     1.4640    -0.5190 H     1 <1>   0.0800 
 38 H       -2.1350     0.4450     0.6970 H     1 <1>   0.0800 
 39 H       -3.1840     3.6140    -2.0840 H     1 <1>   0.1500 
 40 H       -3.1420     5.7310     1.6300 H     1 <1>   0.1500 
 41 H       -5.6260     3.5760    -2.0260 H     1 <1>   0.1500 
 42 H       -5.5830     5.6760     1.6780 H     1 <1>   0.1500 
 43 H        1.2050     7.3230    -1.1720 H     1 <1>   0.3700 
 44 H       -6.8360     4.6020    -0.1460 H     1 <1>   0.1500 
 45 H        1.2170     9.7130    -0.3150 H     1 <1>   0.0800 
 46 H        0.3970     9.1030     1.1000 H     1 <1>   0.0800 
 47 H        3.4280    10.3840    -0.8340 H     1 <1>   0.0800 
 48 H        4.9120     9.4670    -0.9510 H     1 <1>   0.0800 
 49 H        4.7250    10.6680     0.3050 H     1 <1>   0.0800 
 50 H        0.6580     7.1840     2.7230 H     1 <1>   0.0800 
 51 H        1.8860     6.1520     3.4190 H     1 <1>   0.0800 
 52 H        1.2420     5.7910     1.8350 H     1 <1>   0.0800 
@<TRIPOS>BOND
  1   1   2  2   
  2   2   3  am  
  3   2   4  1   
  4   3   5  1   
  5   3   6  1   
  6   4   7  1   
  7   4  28  1   
  8   4  29  1   
  9   5   8  1   
 10   5   9  1   
 11   5  30  1   
 12   6  10  1   
 13   6  11  1   
 14   6  31  1   
 15   7   9  1   
 16   8  12  ar  
 17   8  13  ar  
 18   9  14  1   
 19   9  32  1   
 20  10  33  1   
 21  10  34  1   
 22  10  35  1   
 23  11  36  1   
 24  11  37  1   
 25  11  38  1   
 26  12  15  ar  
 27  12  39  1   
 28  13  16  ar  
 29  13  40  1   
 30  14  17  2   
 31  14  18  am  
 32  15  19  ar  
 33  15  41  1   
 34  16  19  ar  
 35  16  42  1   
 36  18  20  1   
 37  18  43  1   
 38  19  44  1   
 39  20  21  1   
 40  20  45  1   
 41  20  46  1   
 42  21  22  2   
 43  21  23  1   
 44  22  24  1   
 45  22  25  1   
 46  23  26  2   
 47  23  27  1   
 48  24  26  1   
 49  25  47  1   
 50  25  48  1   
 51  25  49  1   
 52  27  50  1   
 53  27  51  1   
 54  27  52  1   
@<TRIPOS>SUBSTRUCTURE
  1 ****   9 GROUP 4 **** **** 0

# MOE 2024.06 (io_trps.svl 2023.06)
