@<TRIPOS>MOLECULE
NONAME
50 53 1 0 0 
SMALL
USER_CHARGES


@<TRIPOS>ATOM
  1 S       -1.7950     0.8500     0.1880 S.3   1 <1>  -0.0800 
  2 C       -0.1910     1.5700     0.3220 C.2   1 <1>   0.0410 
  3 C       -1.6310     0.6080    -1.5440 C.2   1 <1>  -0.1400 
  4 C        0.2450     2.0390     1.6120 C.2   1 <1>   0.2880 
  5 C        0.3870     1.5630    -0.9050 C.2   1 <1>  -0.1500 
  6 C       -0.4200     1.0270    -1.9550 C.2   1 <1>  -0.1500 
  7 C       -2.8320     0.0210    -2.2550 C.3   1 <1>   0.5230 
  8 N       -0.5290     2.1380     2.6680 N.2   1 <1>  -0.7070 
  9 C        1.5430     2.4630     1.9140 C.2   1 <1>  -0.1500 
 10 N       -4.0010     0.8620    -1.9030 N.4   1 <1>  -0.9590 
 11 N        0.2600     2.6200     3.6420 N.pl3 1 <1>   0.3000 
 12 C        1.5180     2.8250     3.2110 C.2   1 <1>  -0.3020 
 13 C       -5.3350     0.2460    -2.1210 C.3   1 <1>   0.3430 
 14 C       -3.9230     2.2650    -2.3760 C.3   1 <1>   0.3430 
 15 C       -6.4460     1.1850    -1.6150 C.3   1 <1>  -0.1600 
 16 C       -4.8910     3.1300    -1.5590 C.3   1 <1>  -0.1600 
 17 C       -5.9270     2.3340    -0.7290 C.3   1 <1>   0.2800 
 18 O       -5.2470     1.6980     0.3280 O.3   1 <1>  -0.5600 
 19 C       -7.1060     3.2270    -0.2550 C.3   1 <1>   0.1400 
 20 C       -5.3770     2.1340     1.6530 C.3   1 <1>   0.1200 
 21 N       -6.7100     4.5000     0.4280 N.am  1 <1>  -0.6600 
 22 C       -4.8080     3.5360     1.8340 C.3   1 <1>  -0.0990 
 23 C       -5.6490     4.6750     1.2880 C.2   1 <1>   0.5690 
 24 C       -7.5990     5.6540     0.0960 C.3   1 <1>   0.0600 
 25 O       -5.3230     5.7780     1.6560 O.2   1 <1>  -0.5700 
 26 H        1.3760     1.9360    -1.1100 H     1 <1>   0.1500 
 27 H       -0.0450     0.9950    -2.9650 H     1 <1>   0.1500 
 28 H       -2.9870    -0.9890    -1.9110 H     1 <1>   0.0800 
 29 H       -2.6750     0.0110    -3.3210 H     1 <1>   0.0800 
 30 H        2.3700     2.4830     1.2280 H     1 <1>   0.1500 
 31 H       -3.9520     0.9680    -0.8670 H     1 <1>   0.4500 
 32 H       -0.0890     2.8010     4.5920 H     1 <1>   0.2700 
 33 H        2.3020     3.2080     3.8390 H     1 <1>   0.1500 
 34 H       -5.3880    -0.6810    -1.5730 H     1 <1>   0.0800 
 35 H       -5.4850     0.0320    -3.1670 H     1 <1>   0.0800 
 36 H       -4.1780     2.3120    -3.4220 H     1 <1>   0.0800 
 37 H       -2.9210     2.6480    -2.2520 H     1 <1>   0.0800 
 38 H       -7.1750     0.6080    -1.0740 H     1 <1>   0.0800 
 39 H       -6.9520     1.5980    -2.4700 H     1 <1>   0.0800 
 40 H       -5.4070     3.7760    -2.2460 H     1 <1>   0.0800 
 41 H       -4.3180     3.7750    -0.9200 H     1 <1>   0.0800 
 42 H       -7.7670     2.6670     0.3840 H     1 <1>   0.0800 
 43 H       -7.6770     3.4900    -1.1280 H     1 <1>   0.0800 
 44 H       -4.8070     1.4490     2.2580 H     1 <1>   0.0800 
 45 H       -6.4040     2.0710     1.9660 H     1 <1>   0.0800 
 46 H       -3.8190     3.5870     1.4210 H     1 <1>   0.0800 
 47 H       -4.7090     3.7090     2.8900 H     1 <1>   0.0800 
 48 H       -8.6300     5.3700     0.2120 H     1 <1>   0.0800 
 49 H       -7.4270     5.9680    -0.9180 H     1 <1>   0.0800 
 50 H       -7.4090     6.4900     0.7480 H     1 <1>   0.0800 
@<TRIPOS>BOND
  1   1   2  1   
  2   1   3  1   
  3   2   4  1   
  4   2   5  2   
  5   3   6  2   
  6   3   7  1   
  7   4   8  2   
  8   4   9  1   
  9   5   6  1   
 10   5  26  1   
 11   6  27  1   
 12   7  10  1   
 13   7  28  1   
 14   7  29  1   
 15   8  11  1   
 16   9  12  2   
 17   9  30  1   
 18  10  13  1   
 19  10  14  1   
 20  10  31  1   
 21  11  12  1   
 22  11  32  1   
 23  12  33  1   
 24  13  15  1   
 25  13  34  1   
 26  13  35  1   
 27  14  16  1   
 28  14  36  1   
 29  14  37  1   
 30  15  17  1   
 31  15  38  1   
 32  15  39  1   
 33  16  17  1   
 34  16  40  1   
 35  16  41  1   
 36  17  18  1   
 37  17  19  1   
 38  18  20  1   
 39  19  21  1   
 40  19  42  1   
 41  19  43  1   
 42  20  22  1   
 43  20  44  1   
 44  20  45  1   
 45  21  23  am  
 46  21  24  1   
 47  22  23  1   
 48  22  46  1   
 49  22  47  1   
 50  23  25  2   
 51  24  48  1   
 52  24  49  1   
 53  24  50  1   
@<TRIPOS>SUBSTRUCTURE
  1 ****  18 GROUP 4 **** **** 0

# MOE 2024.06 (io_trps.svl 2023.06)
