@<TRIPOS>MOLECULE
NONAME
54 56 1 0 0 
SMALL
USER_CHARGES


@<TRIPOS>ATOM
  1 S        0.2810     0.8360     0.1640 S.o2  1 <1>   1.4470 
  2 O       -0.2830     1.2440    -1.1020 O.2   1 <1>  -0.6500 
  3 O       -0.1090     1.4980     1.3870 O.2   1 <1>  -0.6500 
  4 N        1.9430     1.0670     0.0840 N.am  1 <1>  -0.9140 
  5 C        0.1180    -0.9640     0.3500 C.ar  1 <1>  -0.0090 
  6 C        2.3810     2.2240    -0.6820 C.3   1 <1>   0.1960 
  7 C       -0.6380    -1.5210     1.3750 C.ar  1 <1>  -0.1500 
  8 C        0.7400    -1.8360    -0.5350 C.ar  1 <1>  -0.1500 
  9 C        2.0830     3.5260     0.0690 C.3   1 <1>  -0.1600 
 10 C       -0.7680    -2.8920     1.5080 C.ar  1 <1>  -0.1500 
 11 C        0.6110    -3.2070    -0.4040 C.ar  1 <1>  -0.1500 
 12 C        2.6690     4.7360    -0.6670 C.3   1 <1>  -0.2400 
 13 C       -0.1550    -3.7670     0.6150 C.ar  1 <1>   0.0860 
 14 C       -0.3040    -5.2050     0.7340 C.2   1 <1>   0.5440 
 15 O        0.6910    -5.8860     0.8920 O.2   1 <1>  -0.5700 
 16 N       -1.5380    -5.8250     0.6640 N.am  1 <1>  -0.6600 
 17 C       -2.7310    -5.1380     0.0830 C.3   1 <1>   0.2200 
 18 C       -1.6540    -7.2730     1.0260 C.3   1 <1>   0.0600 
 19 C       -3.4170    -5.9170    -1.0360 C.3   1 <1>  -0.1600 
 20 C       -3.8340    -4.8960     1.1080 C.3   1 <1>  -0.1600 
 21 C       -4.8100    -5.2840    -1.1330 C.3   1 <1>  -0.0800 
 22 C       -5.1040    -4.6940     0.2700 C.3   1 <1>  -0.0800 
 23 C       -5.8720    -6.2540    -1.6930 C.3   1 <1>   0.1400 
 24 C       -6.3660    -5.2660     0.9440 C.3   1 <1>  -0.0990 
 25 N       -7.2220    -5.8140    -1.2840 N.am  1 <1>  -0.7300 
 26 C       -7.5040    -5.3480    -0.0490 C.2   1 <1>   0.5690 
 27 O       -8.6180    -5.0160     0.2600 O.2   1 <1>  -0.5700 
 28 H        2.2120     1.2220     1.0530 H     1 <1>   0.4200 
 29 H        3.4450     2.1460    -0.8340 H     1 <1>   0.0800 
 30 H        1.9140     2.2320    -1.6550 H     1 <1>   0.0800 
 31 H       -1.1290    -0.8710     2.0820 H     1 <1>   0.1500 
 32 H        1.3370    -1.4320    -1.3360 H     1 <1>   0.1500 
 33 H        1.0190     3.6650     0.1560 H     1 <1>   0.0800 
 34 H        2.5050     3.4820     1.0580 H     1 <1>   0.0800 
 35 H       -1.3490    -3.3000     2.3170 H     1 <1>   0.1500 
 36 H        1.1090    -3.8640    -1.0970 H     1 <1>   0.1500 
 37 H        2.2460     4.8170    -1.6530 H     1 <1>   0.0800 
 38 H        3.7380     4.6480    -0.7520 H     1 <1>   0.0800 
 39 H        2.4430     5.6380    -0.1250 H     1 <1>   0.0800 
 40 H       -2.4440    -4.1840    -0.3270 H     1 <1>   0.0800 
 41 H       -2.6320    -7.4970     1.4120 H     1 <1>   0.0800 
 42 H       -0.9280    -7.5260     1.7790 H     1 <1>   0.0800 
 43 H       -1.4670    -7.8770     0.1560 H     1 <1>   0.0800 
 44 H       -2.8750    -5.8320    -1.9610 H     1 <1>   0.0800 
 45 H       -3.5170    -6.9530    -0.7710 H     1 <1>   0.0800 
 46 H       -3.9420    -5.7550     1.7440 H     1 <1>   0.0800 
 47 H       -3.6260    -4.0330     1.7130 H     1 <1>   0.0800 
 48 H       -4.7430    -4.4550    -1.8180 H     1 <1>   0.0800 
 49 H       -5.2600    -3.6350     0.1410 H     1 <1>   0.0800 
 50 H       -5.7120    -7.2470    -1.3080 H     1 <1>   0.0800 
 51 H       -5.8080    -6.2900    -2.7670 H     1 <1>   0.0800 
 52 H       -6.6570    -4.6480     1.7740 H     1 <1>   0.0800 
 53 H       -6.1830    -6.2590     1.3100 H     1 <1>   0.0800 
 54 H       -7.9970    -5.9030    -1.9440 H     1 <1>   0.3700 
@<TRIPOS>BOND
  1   1   2  2   
  2   1   3  2   
  3   1   4  am  
  4   1   5  1   
  5   4   6  1   
  6   4  28  1   
  7   5   7  ar  
  8   5   8  ar  
  9   6   9  1   
 10   6  29  1   
 11   6  30  1   
 12   7  10  ar  
 13   7  31  1   
 14   8  11  ar  
 15   8  32  1   
 16   9  12  1   
 17   9  33  1   
 18   9  34  1   
 19  10  13  ar  
 20  10  35  1   
 21  11  13  ar  
 22  11  36  1   
 23  12  37  1   
 24  12  38  1   
 25  12  39  1   
 26  13  14  1   
 27  14  15  2   
 28  14  16  am  
 29  16  17  1   
 30  16  18  1   
 31  17  19  1   
 32  17  20  1   
 33  17  40  1   
 34  18  41  1   
 35  18  42  1   
 36  18  43  1   
 37  19  21  1   
 38  19  44  1   
 39  19  45  1   
 40  20  22  1   
 41  20  46  1   
 42  20  47  1   
 43  21  22  1   
 44  21  23  1   
 45  21  48  1   
 46  22  24  1   
 47  22  49  1   
 48  23  25  1   
 49  23  50  1   
 50  23  51  1   
 51  24  26  1   
 52  24  52  1   
 53  24  53  1   
 54  25  26  am  
 55  25  54  1   
 56  26  27  2   
@<TRIPOS>SUBSTRUCTURE
  1 ****  10 GROUP 4 **** **** 0

# MOE 2024.06 (io_trps.svl 2023.06)
