@<TRIPOS>MOLECULE
NONAME
46 49 1 0 0 
SMALL
USER_CHARGES


@<TRIPOS>ATOM
  1 O       -1.0360     0.6950     1.5120 O.2   1 <1>  -0.5700 
  2 C       -1.9180     1.1920     0.8320 C.2   1 <1>   0.7160 
  3 N       -3.1940     0.6690     0.9130 N.am  1 <1>  -0.6600 
  4 C       -1.5970     2.3080    -0.0350 C.2   1 <1>  -0.0860 
  5 C       -4.1980     0.7690    -0.1810 C.3   1 <1>   0.1400 
  6 C       -3.6080    -0.2210     2.0340 C.3   1 <1>   0.1400 
  7 C       -2.3460     3.4030    -0.3960 C.2   1 <1>  -0.3020 
  8 C       -0.3610     2.4890    -0.6880 C.2   1 <1>  -0.1500 
  9 C       -4.4890    -0.6260    -0.7380 C.3   1 <1>  -0.1600 
 10 C       -3.8930    -1.6270     1.5000 C.3   1 <1>  -0.1600 
 11 N       -1.6420     4.2080    -1.2230 N.pl3 1 <1>   0.0330 
 12 C       -0.4210     3.6410    -1.4000 C.2   1 <1>  -0.3020 
 13 C       -4.9280    -1.6140     0.3610 C.3   1 <1>   0.4240 
 14 O       -6.0830    -1.0660     0.9600 O.3   1 <1>  -0.5600 
 15 C       -5.1920    -3.0460    -0.1900 C.ar  1 <1>  -0.1430 
 16 C       -7.3100    -1.3130     0.3550 C.3   1 <1>   0.1200 
 17 C       -4.1800    -3.8180    -0.7780 C.ar  1 <1>   0.0830 
 18 C       -6.4710    -3.5970    -0.1070 C.ar  1 <1>  -0.1430 
 19 C       -7.6100    -2.7980     0.4910 C.3   1 <1>  -0.0170 
 20 O       -2.9330    -3.2920    -0.8910 O.3   1 <1>  -0.3630 
 21 C       -4.4570    -5.1020    -1.2430 C.ar  1 <1>  -0.1500 
 22 C       -6.7330    -4.8750    -0.5700 C.ar  1 <1>  -0.1500 
 23 C       -1.8170    -4.0450    -1.3110 C.3   1 <1>   0.0400 
 24 C       -5.7270    -5.6300    -1.1370 C.ar  1 <1>  -0.1500 
 25 H       -3.8360     1.3890    -0.9800 H     1 <1>   0.0800 
 26 H       -5.1000     1.2090     0.2090 H     1 <1>   0.0800 
 27 H       -4.4920     0.1840     2.4950 H     1 <1>   0.0800 
 28 H       -2.8380    -0.2690     2.7860 H     1 <1>   0.0800 
 29 H       -3.3490     3.6340    -0.0830 H     1 <1>   0.1500 
 30 H        0.4660     1.8020    -0.6030 H     1 <1>   0.1500 
 31 H       -3.5920    -0.9750    -1.2120 H     1 <1>   0.0800 
 32 H       -5.2390    -0.5700    -1.5030 H     1 <1>   0.0800 
 33 H       -4.2550    -2.2520     2.2940 H     1 <1>   0.0800 
 34 H       -2.9610    -2.0390     1.1700 H     1 <1>   0.0800 
 35 H       -1.9600     5.0930    -1.6350 H     1 <1>   0.2700 
 36 H        0.3390     4.0880    -2.0160 H     1 <1>   0.1500 
 37 H       -7.2670    -1.0160    -0.6780 H     1 <1>   0.0800 
 38 H       -8.0540    -0.7280     0.8650 H     1 <1>   0.0800 
 39 H       -8.5310    -3.0190    -0.0170 H     1 <1>   0.0800 
 40 H       -7.7250    -3.0480     1.5300 H     1 <1>   0.0800 
 41 H       -3.6980    -5.7100    -1.6950 H     1 <1>   0.1500 
 42 H       -7.7230    -5.2890    -0.4920 H     1 <1>   0.1500 
 43 H       -0.9470    -3.4180    -1.2370 H     1 <1>   0.0800 
 44 H       -1.9640    -4.3470    -2.3330 H     1 <1>   0.0800 
 45 H       -1.7090    -4.8980    -0.6650 H     1 <1>   0.0800 
 46 H       -5.9350    -6.6230    -1.4960 H     1 <1>   0.1500 
@<TRIPOS>BOND
  1   1   2  2   
  2   2   3  am  
  3   2   4  1   
  4   3   5  1   
  5   3   6  1   
  6   4   7  2   
  7   4   8  1   
  8   5   9  1   
  9   5  25  1   
 10   5  26  1   
 11   6  10  1   
 12   6  27  1   
 13   6  28  1   
 14   7  11  1   
 15   7  29  1   
 16   8  12  2   
 17   8  30  1   
 18   9  13  1   
 19   9  31  1   
 20   9  32  1   
 21  10  13  1   
 22  10  33  1   
 23  10  34  1   
 24  11  12  1   
 25  11  35  1   
 26  12  36  1   
 27  13  14  1   
 28  13  15  1   
 29  14  16  1   
 30  15  17  ar  
 31  15  18  ar  
 32  16  19  1   
 33  16  37  1   
 34  16  38  1   
 35  17  20  1   
 36  17  21  ar  
 37  18  19  1   
 38  18  22  ar  
 39  19  39  1   
 40  19  40  1   
 41  20  23  1   
 42  21  24  ar  
 43  21  41  1   
 44  22  24  ar  
 45  22  42  1   
 46  23  43  1   
 47  23  44  1   
 48  23  45  1   
 49  24  46  1   
@<TRIPOS>SUBSTRUCTURE
  1 ****   9 GROUP 4 **** **** 0

# MOE 2024.06 (io_trps.svl 2023.06)
