@<TRIPOS>MOLECULE
NONAME
52 54 1 0 0 
SMALL
USER_CHARGES


@<TRIPOS>ATOM
  1 S       -1.5870    -0.5270     1.2790 S.3   1 <1>  -0.0800 
  2 C       -2.1970     0.9600     0.5440 C.2   1 <1>  -0.0450 
  3 C       -1.9910    -1.4770    -0.1290 C.2   1 <1>  -0.1100 
  4 C       -2.1150     2.1820     1.2940 C.2   1 <1>   0.5940 
  5 C       -2.6690     0.6630    -0.6970 C.2   1 <1>  -0.1500 
  6 C       -2.5630    -0.7090    -1.0750 C.2   1 <1>  -0.1810 
  7 O       -1.7030     2.2620     2.4230 O.2   1 <1>  -0.5700 
  8 C       -2.5820     3.4620     0.6350 C.3   1 <1>  -0.1790 
  9 C       -3.0650    -1.2050    -2.4290 C.3   1 <1>   0.0820 
 10 C       -3.5250    -2.6600    -2.4000 C.2   1 <1>   0.5690 
 11 O       -2.8780    -3.4450    -3.0520 O.2   1 <1>  -0.5700 
 12 N       -4.6250    -3.0570    -1.6710 N.am  1 <1>  -0.6600 
 13 C       -5.0410    -4.5000    -1.6160 C.3   1 <1>   0.1400 
 14 C       -5.5520    -2.1240    -0.9700 C.3   1 <1>   0.1400 
 15 C       -5.2180    -5.0040    -0.1600 C.3   1 <1>   0.0000 
 16 C       -5.7150    -2.5520     0.4860 C.3   1 <1>  -0.1600 
 17 C       -6.1770    -4.0090     0.5480 C.3   1 <1>   0.2000 
 18 C       -5.9330    -6.3790    -0.1760 C.3   1 <1>   0.1200 
 19 C       -3.8420    -5.0860     0.5740 C.3   1 <1>  -0.0160 
 20 O       -6.3650    -4.3420     1.8790 O.3   1 <1>  -0.6800 
 21 O       -5.3490    -7.2540    -1.0820 O.3   1 <1>  -0.6800 
 22 C       -2.9330    -6.2340     0.1480 C.ar  1 <1>  -0.1440 
 23 C       -2.0780    -6.0990    -0.9340 C.ar  1 <1>  -0.1500 
 24 C       -2.9500    -7.4320     0.8480 C.ar  1 <1>  -0.1500 
 25 C       -1.2680    -7.1500    -1.3260 C.ar  1 <1>  -0.1500 
 26 C       -2.1410    -8.4850     0.4590 C.ar  1 <1>  -0.1500 
 27 C       -1.3000    -8.3450    -0.6310 C.ar  1 <1>  -0.1500 
 28 H       -1.7540    -2.5270    -0.1030 H     1 <1>   0.1500 
 29 H       -3.0940     1.3840    -1.3720 H     1 <1>   0.1500 
 30 H       -2.0390     3.6200    -0.2780 H     1 <1>   0.0800 
 31 H       -2.4060     4.2950     1.2910 H     1 <1>   0.0800 
 32 H       -3.6330     3.4000     0.4260 H     1 <1>   0.0800 
 33 H       -2.2710    -1.1050    -3.1460 H     1 <1>   0.0800 
 34 H       -3.8810    -0.5990    -2.7700 H     1 <1>   0.0800 
 35 H       -5.9730    -4.6040    -2.1430 H     1 <1>   0.0800 
 36 H       -4.3260    -5.1190    -2.1300 H     1 <1>   0.0800 
 37 H       -5.1950    -1.1110    -0.9980 H     1 <1>   0.0800 
 38 H       -6.5080    -2.1500    -1.4650 H     1 <1>   0.0800 
 39 H       -6.4550    -1.9230     0.9490 H     1 <1>   0.0800 
 40 H       -4.7820    -2.4140     1.0000 H     1 <1>   0.0800 
 41 H       -7.1460    -4.0740     0.0810 H     1 <1>   0.0800 
 42 H       -6.9630    -6.2690    -0.4700 H     1 <1>   0.0800 
 43 H       -5.9080    -6.8350     0.7990 H     1 <1>   0.0800 
 44 H       -3.3060    -4.1650     0.4400 H     1 <1>   0.0800 
 45 H       -4.0020    -5.1910     1.6310 H     1 <1>   0.0800 
 46 H       -5.5840    -4.0880     2.4070 H     1 <1>   0.4000 
 47 H       -4.3890    -7.3510    -0.8790 H     1 <1>   0.4000 
 48 H       -2.0360    -5.1760    -1.4840 H     1 <1>   0.1500 
 49 H       -3.5990    -7.5560     1.6980 H     1 <1>   0.1500 
 50 H       -0.6140    -7.0330    -2.1730 H     1 <1>   0.1500 
 51 H       -2.1640    -9.4130     1.0030 H     1 <1>   0.1500 
 52 H       -0.6710    -9.1630    -0.9360 H     1 <1>   0.1500 
@<TRIPOS>BOND
  1   1   2  1   
  2   1   3  1   
  3   2   4  1   
  4   2   5  2   
  5   3   6  2   
  6   3  28  1   
  7   4   7  2   
  8   4   8  1   
  9   5   6  1   
 10   5  29  1   
 11   6   9  1   
 12   8  30  1   
 13   8  31  1   
 14   8  32  1   
 15   9  10  1   
 16   9  33  1   
 17   9  34  1   
 18  10  11  2   
 19  10  12  am  
 20  12  13  1   
 21  12  14  1   
 22  13  15  1   
 23  13  35  1   
 24  13  36  1   
 25  14  16  1   
 26  14  37  1   
 27  14  38  1   
 28  15  17  1   
 29  15  18  1   
 30  15  19  1   
 31  16  17  1   
 32  16  39  1   
 33  16  40  1   
 34  17  20  1   
 35  17  41  1   
 36  18  21  1   
 37  18  42  1   
 38  18  43  1   
 39  19  22  1   
 40  19  44  1   
 41  19  45  1   
 42  20  46  1   
 43  21  47  1   
 44  22  23  ar  
 45  22  24  ar  
 46  23  25  ar  
 47  23  48  1   
 48  24  26  ar  
 49  24  49  1   
 50  25  27  ar  
 51  25  50  1   
 52  26  27  ar  
 53  26  51  1   
 54  27  52  1   
@<TRIPOS>SUBSTRUCTURE
  1 ****  12 GROUP 4 **** **** 0

# MOE 2024.06 (io_trps.svl 2023.06)
