@<TRIPOS>MOLECULE
NONAME
44 47 1 0 0 
SMALL
USER_CHARGES


@<TRIPOS>ATOM
  1 O       -0.3670     0.1050     0.4360 O.2   1 <1>  -0.5700 
  2 C       -1.3950     0.7510     0.5250 C.2   1 <1>   0.5440 
  3 N       -2.5960     0.0800     0.4650 N.am  1 <1>  -0.6600 
  4 C       -1.3330     2.1930     0.6670 C.ar  1 <1>   0.0860 
  5 C       -3.8800     0.6970     0.0470 C.3   1 <1>   0.1400 
  6 C       -2.6590    -1.3960     0.3320 C.3   1 <1>   0.1400 
  7 C       -0.4890     2.9500    -0.1530 C.ar  1 <1>  -0.1500 
  8 C       -2.1050     2.8710     1.6210 C.ar  1 <1>  -0.1500 
  9 C       -4.6810    -0.4480    -0.5730 C.3   1 <1>   0.2000 
 10 C       -4.1290    -1.7220     0.0640 C.3   1 <1>  -0.0800 
 11 C       -0.4480     4.3230    -0.0230 C.ar  1 <1>  -0.1440 
 12 C       -2.0610     4.2490     1.7470 C.ar  1 <1>  -0.1500 
 13 O       -6.0360    -0.3280    -0.3050 O.3   1 <1>  -0.6800 
 14 C       -4.3350    -2.9660    -0.8130 C.3   1 <1>  -0.0170 
 15 C       -1.2240     4.9590     0.9080 C.ar  1 <1>   0.0830 
 16 C        0.3520     5.3550    -0.7620 C.3   1 <1>  -0.0170 
 17 C       -3.7780    -4.2090    -0.1370 C.ar  1 <1>  -0.1430 
 18 O       -1.0660     6.2880     0.9020 O.3   1 <1>  -0.3630 
 19 C       -0.1070     6.6570    -0.0800 C.3   1 <1>   0.1200 
 20 C       -4.5180    -4.9250     0.7820 C.ar  1 <1>  -0.1500 
 21 C       -2.5100    -4.6850    -0.4020 C.ar  1 <1>  -0.1500 
 22 C       -3.9680    -6.0480     1.3780 C.ar  1 <1>   0.1600 
 23 C       -2.0540    -5.8190     0.2510 C.ar  1 <1>   0.1600 
 24 N       -2.7530    -6.5120     1.1350 N.ar  1 <1>  -0.6200 
 25 H       -4.3820     1.0880     0.9130 H     1 <1>   0.0800 
 26 H       -3.7120     1.4800    -0.6730 H     1 <1>   0.0800 
 27 H       -2.0400    -1.6970    -0.4970 H     1 <1>   0.0800 
 28 H       -2.3040    -1.8740     1.2300 H     1 <1>   0.0800 
 29 H        0.1270     2.4500    -0.8800 H     1 <1>   0.1500 
 30 H       -2.7410     2.3010     2.2750 H     1 <1>   0.1500 
 31 H       -4.5430    -0.4510    -1.6410 H     1 <1>   0.0800 
 32 H       -4.5990    -1.8760     1.0190 H     1 <1>   0.0800 
 33 H       -2.6540     4.7720     2.4760 H     1 <1>   0.1500 
 34 H       -6.1970    -0.3480     0.6570 H     1 <1>   0.4000 
 35 H       -3.8570    -2.8280    -1.7680 H     1 <1>   0.0800 
 36 H       -5.3870    -3.1030    -0.9970 H     1 <1>   0.0800 
 37 H        0.1100     5.3620    -1.8090 H     1 <1>   0.0800 
 38 H        1.4080     5.2010    -0.6290 H     1 <1>   0.0800 
 39 H       -0.5810     7.3250    -0.7770 H     1 <1>   0.0800 
 40 H        0.7080     7.1520     0.4180 H     1 <1>   0.0800 
 41 H       -5.5150    -4.6210     1.0410 H     1 <1>   0.1500 
 42 H       -1.8690    -4.1880    -1.1070 H     1 <1>   0.1500 
 43 H       -4.5600    -6.5950     2.0930 H     1 <1>   0.1500 
 44 H       -1.0610    -6.1740     0.0330 H     1 <1>   0.1500 
@<TRIPOS>BOND
  1   1   2  2   
  2   2   3  am  
  3   2   4  1   
  4   3   5  1   
  5   3   6  1   
  6   4   7  ar  
  7   4   8  ar  
  8   5   9  1   
  9   5  25  1   
 10   5  26  1   
 11   6  10  1   
 12   6  27  1   
 13   6  28  1   
 14   7  11  ar  
 15   7  29  1   
 16   8  12  ar  
 17   8  30  1   
 18   9  10  1   
 19   9  13  1   
 20   9  31  1   
 21  10  14  1   
 22  10  32  1   
 23  11  15  ar  
 24  11  16  1   
 25  12  15  ar  
 26  12  33  1   
 27  13  34  1   
 28  14  17  1   
 29  14  35  1   
 30  14  36  1   
 31  15  18  1   
 32  16  19  1   
 33  16  37  1   
 34  16  38  1   
 35  17  20  ar  
 36  17  21  ar  
 37  18  19  1   
 38  19  39  1   
 39  19  40  1   
 40  20  22  ar  
 41  20  41  1   
 42  21  23  ar  
 43  21  42  1   
 44  22  24  ar  
 45  22  43  1   
 46  23  24  ar  
 47  23  44  1   
@<TRIPOS>SUBSTRUCTURE
  1 ****   3 GROUP 4 **** **** 0

# MOE 2024.06 (io_trps.svl 2023.06)
