@<TRIPOS>MOLECULE
NONAME
58 60 1 0 0 
SMALL
USER_CHARGES


@<TRIPOS>ATOM
  1 O        2.0850    -3.0200     2.8470 O.2   1 <1>  -0.5700 
  2 C        1.8440    -2.7870     1.6890 C.2   1 <1>   0.6300 
  3 N        2.8870    -2.4270     0.9010 N.am  1 <1>  -0.7300 
  4 C        0.3790    -2.8880     1.2370 C.3   1 <1>  -0.0950 
  5 C        3.2120    -2.1630    -0.5220 C.3   1 <1>   0.3000 
  6 C       -0.6200    -2.1210     2.0590 C.3   1 <1>  -0.2000 
  7 C       -0.3430    -1.7070     0.6490 C.3   1 <1>  -0.2000 
  8 C       -0.0340    -4.3180     0.8610 C.3   1 <1>  -0.1450 
  9 C        4.6370    -2.7280    -0.8250 C.3   1 <1>   0.2000 
 10 C        3.2550    -0.6350    -0.6830 C.3   1 <1>  -0.1600 
 11 C        2.1720    -2.7950    -1.4590 C.3   1 <1>  -0.2400 
 12 O        4.9460    -2.5530    -2.1850 O.3   1 <1>  -0.6800 
 13 C        5.7430    -2.0810     0.0880 C.3   1 <1>   0.2800 
 14 C        4.5630     0.0020    -0.1730 C.3   1 <1>   0.1200 
 15 O        5.2760    -0.8760     0.6510 O.3   1 <1>  -0.5600 
 16 C        6.0550    -3.0160     1.2790 C.3   1 <1>  -0.1600 
 17 C        7.0770    -1.7760    -0.6400 C.3   1 <1>  -0.1600 
 18 C        7.1440    -2.4630     2.2020 C.3   1 <1>   0.1400 
 19 C        8.1470    -1.2280     0.3070 C.3   1 <1>   0.1400 
 20 N        8.3710    -2.2110     1.3980 N.am  1 <1>  -0.6600 
 21 C        9.5460    -2.8780     1.6560 C.2   1 <1>   0.5690 
 22 O        9.6530    -3.6330     2.5970 O.2   1 <1>  -0.5700 
 23 C       10.7700    -2.6840     0.7480 C.3   1 <1>   0.2010 
 24 N       11.8430    -3.6960     0.9740 N.am  1 <1>  -0.7300 
 25 C       12.8650    -4.0490     0.1680 C.2   1 <1>   0.5690 
 26 O       13.6010    -4.9510     0.4710 O.2   1 <1>  -0.5700 
 27 C       13.1000    -3.3160    -1.1290 C.3   1 <1>  -0.1790 
 28 H        3.6950    -2.1690     1.4750 H     1 <1>   0.3700 
 29 H       -1.5680    -2.5740     2.2910 H     1 <1>   0.1000 
 30 H       -0.2540    -1.5060     2.8640 H     1 <1>   0.1000 
 31 H        0.1900    -0.7860     0.4920 H     1 <1>   0.1000 
 32 H       -1.1030    -1.8750    -0.0950 H     1 <1>   0.1000 
 33 H       -1.0790    -4.3620     0.6110 H     1 <1>   0.0800 
 34 H        0.1460    -4.9740     1.6940 H     1 <1>   0.0800 
 35 H        0.5320    -4.6730     0.0220 H     1 <1>   0.0800 
 36 H        4.6290    -3.7930    -0.6710 H     1 <1>   0.0800 
 37 H        2.4200    -0.1920    -0.1720 H     1 <1>   0.0800 
 38 H        3.1470    -0.3740    -1.7200 H     1 <1>   0.0800 
 39 H        2.4300    -2.6170    -2.4870 H     1 <1>   0.0800 
 40 H        1.1990    -2.3780    -1.3110 H     1 <1>   0.0800 
 41 H        2.1460    -3.8590    -1.3150 H     1 <1>   0.0800 
 42 H        4.8850    -1.6100    -2.4260 H     1 <1>   0.4000 
 43 H        4.3430     0.8820     0.4070 H     1 <1>   0.0800 
 44 H        5.1970     0.2910    -0.9930 H     1 <1>   0.0800 
 45 H        5.1760    -3.2020     1.8650 H     1 <1>   0.0800 
 46 H        6.3890    -3.9690     0.9080 H     1 <1>   0.0800 
 47 H        7.4480    -2.6800    -1.0900 H     1 <1>   0.0800 
 48 H        6.9230    -1.0690    -1.4330 H     1 <1>   0.0800 
 49 H        7.3400    -3.1680     2.9920 H     1 <1>   0.0800 
 50 H        6.8170    -1.5410     2.6520 H     1 <1>   0.0800 
 51 H        7.8110    -0.2990     0.7380 H     1 <1>   0.0800 
 52 H        9.0510    -1.0300    -0.2380 H     1 <1>   0.0800 
 53 H       11.1730    -1.7050     0.9300 H     1 <1>   0.0800 
 54 H       10.4510    -2.7450    -0.2760 H     1 <1>   0.0800 
 55 H       11.7120    -4.2470     1.8310 H     1 <1>   0.3700 
 56 H       13.1670    -2.2600    -0.9470 H     1 <1>   0.0800 
 57 H       12.2970    -3.5200    -1.8110 H     1 <1>   0.0800 
 58 H       14.0210    -3.6500    -1.5690 H     1 <1>   0.0800 
@<TRIPOS>BOND
  1   1   2  2   
  2   2   3  am  
  3   2   4  1   
  4   3   5  1   
  5   3  28  1   
  6   4   6  1   
  7   4   7  1   
  8   4   8  1   
  9   5   9  1   
 10   5  10  1   
 11   5  11  1   
 12   6   7  1   
 13   6  29  1   
 14   6  30  1   
 15   7  31  1   
 16   7  32  1   
 17   8  33  1   
 18   8  34  1   
 19   8  35  1   
 20   9  12  1   
 21   9  13  1   
 22   9  36  1   
 23  10  14  1   
 24  10  37  1   
 25  10  38  1   
 26  11  39  1   
 27  11  40  1   
 28  11  41  1   
 29  12  42  1   
 30  13  15  1   
 31  13  16  1   
 32  13  17  1   
 33  14  15  1   
 34  14  43  1   
 35  14  44  1   
 36  16  18  1   
 37  16  45  1   
 38  16  46  1   
 39  17  19  1   
 40  17  47  1   
 41  17  48  1   
 42  18  20  1   
 43  18  49  1   
 44  18  50  1   
 45  19  20  1   
 46  19  51  1   
 47  19  52  1   
 48  20  21  am  
 49  21  22  2   
 50  21  23  1   
 51  23  24  1   
 52  23  53  1   
 53  23  54  1   
 54  24  25  am  
 55  24  55  1   
 56  25  26  2   
 57  25  27  1   
 58  27  56  1   
 59  27  57  1   
 60  27  58  1   
@<TRIPOS>SUBSTRUCTURE
  1 ****  13 GROUP 4 **** **** 0

# MOE 2024.06 (io_trps.svl 2023.06)
