@<TRIPOS>MOLECULE
NONAME
44 46 1 0 0 
SMALL
USER_CHARGES


@<TRIPOS>ATOM
  1 O        0.1110    -0.1060    -1.6040 O.2   1 <1>  -0.5700 
  2 C       -0.7960     0.6720    -1.4220 C.2   1 <1>   0.5690 
  3 N       -2.0470     0.2280    -1.0860 N.am  1 <1>  -0.6600 
  4 C       -0.4980     2.1570    -1.5740 C.3   1 <1>   0.0820 
  5 C       -3.2380     1.0480    -0.7400 C.3   1 <1>   0.1400 
  6 C       -2.3410    -1.2110    -0.8740 C.3   1 <1>   0.1400 
  7 C       -0.4890     2.8930    -0.2400 C.2   1 <1>  -0.1810 
  8 C       -4.0770     0.1370     0.1530 C.3   1 <1>   0.2000 
  9 C       -3.7970    -1.2650    -0.3960 C.3   1 <1>  -0.0800 
 10 C       -1.1780     3.9770     0.1560 C.2   1 <1>  -0.0400 
 11 C        0.2680     2.5690     0.8880 C.2   1 <1>   0.1080 
 12 O       -3.5930     0.2390     1.4480 O.3   1 <1>  -0.6800 
 13 C       -4.0870    -2.4250     0.5740 C.3   1 <1>   0.0200 
 14 O       -0.8500     4.2320     1.3930 O.3   1 <1>  -0.0190 
 15 C       -2.1850     4.8760    -0.5320 C.3   1 <1>  -0.0600 
 16 N        0.0240     3.3850     1.8490 N.2   1 <1>  -0.4100 
 17 C        1.2550     1.4260     1.0070 C.3   1 <1>  -0.0590 
 18 C       -3.7940    -3.7610    -0.0800 C.2   1 <1>  -0.0400 
 19 O       -4.4640    -4.1340    -1.1370 O.3   1 <1>  -0.0190 
 20 C       -2.9120    -4.7280     0.2120 C.2   1 <1>  -0.1500 
 21 N       -4.0750    -5.2970    -1.5720 N.2   1 <1>  -0.4100 
 22 C       -3.1410    -5.6810    -0.7770 C.2   1 <1>   0.1080 
 23 C       -2.3970    -6.9910    -0.9100 C.3   1 <1>  -0.0590 
 24 H        0.4660     2.2680    -2.0360 H     1 <1>   0.0800 
 25 H       -1.2250     2.5870    -2.2360 H     1 <1>   0.0800 
 26 H       -2.9820     1.9590    -0.2300 H     1 <1>   0.0800 
 27 H       -3.7800     1.2750    -1.6410 H     1 <1>   0.0800 
 28 H       -2.2060    -1.7670    -1.7870 H     1 <1>   0.0800 
 29 H       -1.6730    -1.5990    -0.1230 H     1 <1>   0.0800 
 30 H       -5.1230     0.3920     0.1590 H     1 <1>   0.0800 
 31 H       -4.4110    -1.3980    -1.2700 H     1 <1>   0.0800 
 32 H       -2.6140     0.2700     1.4230 H     1 <1>   0.4000 
 33 H       -5.1200    -2.3980     0.8710 H     1 <1>   0.0800 
 34 H       -3.4850    -2.3330     1.4610 H     1 <1>   0.0800 
 35 H       -2.3570     4.5580    -1.5430 H     1 <1>   0.0800 
 36 H       -1.8170     5.8860    -0.5430 H     1 <1>   0.0800 
 37 H       -3.1160     4.8540     0.0060 H     1 <1>   0.0800 
 38 H        1.8740     1.3760     0.1310 H     1 <1>   0.0800 
 39 H        0.7270     0.4970     1.1180 H     1 <1>   0.0800 
 40 H        1.8830     1.5720     1.8670 H     1 <1>   0.0800 
 41 H       -2.1890    -4.7880     1.0040 H     1 <1>   0.1500 
 42 H       -2.5270    -7.5760    -0.0190 H     1 <1>   0.0800 
 43 H       -1.3510    -6.8010    -1.0620 H     1 <1>   0.0800 
 44 H       -2.7770    -7.5450    -1.7490 H     1 <1>   0.0800 
@<TRIPOS>BOND
  1   1   2  2   
  2   2   3  am  
  3   2   4  1   
  4   3   5  1   
  5   3   6  1   
  6   4   7  1   
  7   4  24  1   
  8   4  25  1   
  9   5   8  1   
 10   5  26  1   
 11   5  27  1   
 12   6   9  1   
 13   6  28  1   
 14   6  29  1   
 15   7  10  2   
 16   7  11  1   
 17   8   9  1   
 18   8  12  1   
 19   8  30  1   
 20   9  13  1   
 21   9  31  1   
 22  10  14  1   
 23  10  15  1   
 24  11  16  2   
 25  11  17  1   
 26  12  32  1   
 27  13  18  1   
 28  13  33  1   
 29  13  34  1   
 30  14  16  1   
 31  15  35  1   
 32  15  36  1   
 33  15  37  1   
 34  17  38  1   
 35  17  39  1   
 36  17  40  1   
 37  18  19  1   
 38  18  20  2   
 39  19  21  1   
 40  20  22  1   
 41  20  41  1   
 42  21  22  2   
 43  22  23  1   
 44  23  42  1   
 45  23  43  1   
 46  23  44  1   
@<TRIPOS>SUBSTRUCTURE
  1 ****   3 GROUP 4 **** **** 0

# MOE 2024.06 (io_trps.svl 2023.06)
