@<TRIPOS>MOLECULE
NONAME
47 50 1 0 0 
SMALL
USER_CHARGES


@<TRIPOS>ATOM
  1 O       -2.3460     0.8660     1.8280 O.2   1 <1>  -0.5700 
  2 C       -2.2490     1.1550     0.6580 C.2   1 <1>   0.5690 
  3 N       -1.3980     2.1480     0.2380 N.am  1 <1>  -0.6600 
  4 C       -3.1340     0.3670    -0.3160 C.3   1 <1>  -0.0190 
  5 C       -1.3710     2.8000    -1.1100 C.3   1 <1>   0.1400 
  6 C       -0.3830     2.7290     1.1750 C.3   1 <1>   0.1400 
  7 C       -4.6080     0.7850    -0.1370 C.3   1 <1>  -0.1600 
  8 C       -2.9640    -1.1550    -0.1130 C.3   1 <1>  -0.1600 
  9 C       -1.3570     4.3340    -0.9830 C.3   1 <1>   0.1200 
 10 C       -0.4390     4.2650     1.1700 C.3   1 <1>   0.1200 
 11 C       -5.5580    -0.0900    -0.9550 C.3   1 <1>   0.2090 
 12 C       -3.9530    -1.9750    -0.9430 C.3   1 <1>   0.2090 
 13 O       -0.3290     4.7540    -0.1360 O.3   1 <1>  -0.5600 
 14 N       -5.3380    -1.5250    -0.6000 N.pl3 1 <1>  -0.8380 
 15 C       -6.1980    -2.2920     0.1030 C.ar  1 <1>   0.4610 
 16 N       -6.8510    -1.7040     1.1120 N.ar  1 <1>  -0.1790 
 17 C       -6.4110    -3.6970    -0.1100 C.ar  1 <1>   0.0000 
 18 C       -7.6240    -2.3870     2.0220 C.ar  1 <1>   0.2110 
 19 C       -7.1670    -4.4220     0.8250 C.ar  1 <1>   0.0000 
 20 C       -5.9510    -4.4030    -1.2350 C.ar  1 <1>   0.1600 
 21 C       -7.7770    -3.7280     1.9020 C.ar  1 <1>  -0.1500 
 22 C       -7.3000    -5.7940     0.6090 C.ar  1 <1>  -0.1500 
 23 N       -6.0870    -5.6860    -1.4410 N.ar  1 <1>  -0.6200 
 24 C       -6.7510    -6.3690    -0.5070 C.ar  1 <1>   0.1600 
 25 H       -2.8410     0.5710    -1.3270 H     1 <1>   0.0800 
 26 H       -2.2280     2.5260    -1.6940 H     1 <1>   0.0800 
 27 H       -0.4870     2.4840    -1.6370 H     1 <1>   0.0800 
 28 H        0.5990     2.4140     0.8690 H     1 <1>   0.0800 
 29 H       -0.5400     2.3770     2.1800 H     1 <1>   0.0800 
 30 H       -4.7230     1.8120    -0.4380 H     1 <1>   0.0800 
 31 H       -4.8720     0.7240     0.9030 H     1 <1>   0.0800 
 32 H       -3.1020    -1.4070     0.9240 H     1 <1>   0.0800 
 33 H       -1.9600    -1.4380    -0.3770 H     1 <1>   0.0800 
 34 H       -2.2930     4.6920    -0.5900 H     1 <1>   0.0800 
 35 H       -1.1910     4.7850    -1.9450 H     1 <1>   0.0800 
 36 H        0.3780     4.6670     1.7430 H     1 <1>   0.0800 
 37 H       -1.3650     4.6120     1.5960 H     1 <1>   0.0800 
 38 H       -5.3600     0.0460    -2.0070 H     1 <1>   0.0800 
 39 H       -6.5810     0.1990    -0.7810 H     1 <1>   0.0800 
 40 H       -3.8090    -3.0160    -0.7070 H     1 <1>   0.0800 
 41 H       -3.7700    -1.8340    -1.9960 H     1 <1>   0.0800 
 42 H       -6.6450    -0.7160     1.2500 H     1 <1>   0.4570 
 43 H       -8.0790    -1.8240     2.8220 H     1 <1>   0.1500 
 44 H       -5.4470    -3.8520    -2.0090 H     1 <1>   0.1500 
 45 H       -8.3650    -4.2950     2.6050 H     1 <1>   0.1500 
 46 H       -7.8400    -6.4000     1.3140 H     1 <1>   0.1500 
 47 H       -6.8540    -7.4300    -0.6710 H     1 <1>   0.1500 
@<TRIPOS>BOND
  1   1   2  2   
  2   2   3  am  
  3   2   4  1   
  4   3   5  1   
  5   3   6  1   
  6   4   7  1   
  7   4   8  1   
  8   4  25  1   
  9   5   9  1   
 10   5  26  1   
 11   5  27  1   
 12   6  10  1   
 13   6  28  1   
 14   6  29  1   
 15   7  11  1   
 16   7  30  1   
 17   7  31  1   
 18   8  12  1   
 19   8  32  1   
 20   8  33  1   
 21   9  13  1   
 22   9  34  1   
 23   9  35  1   
 24  10  13  1   
 25  10  36  1   
 26  10  37  1   
 27  11  14  1   
 28  11  38  1   
 29  11  39  1   
 30  12  14  1   
 31  12  40  1   
 32  12  41  1   
 33  14  15  1   
 34  15  16  ar  
 35  15  17  ar  
 36  16  18  ar  
 37  16  42  1   
 38  17  19  ar  
 39  17  20  ar  
 40  18  21  ar  
 41  18  43  1   
 42  19  21  ar  
 43  19  22  ar  
 44  20  23  ar  
 45  20  44  1   
 46  21  45  1   
 47  22  24  ar  
 48  22  46  1   
 49  23  24  ar  
 50  24  47  1   
@<TRIPOS>SUBSTRUCTURE
  1 ****   8 GROUP 4 **** **** 0

# MOE 2024.06 (io_trps.svl 2023.06)
