@<TRIPOS>MOLECULE
NONAME
48 50 1 0 0 
SMALL
USER_CHARGES


@<TRIPOS>ATOM
  1 F       -2.0440     1.2090    -0.3610 F     1 <1>  -0.1900 
  2 C       -1.2670     2.2420    -0.1710 C.ar  1 <1>   0.1900 
  3 C       -1.7340     3.3030     0.5860 C.ar  1 <1>  -0.1440 
  4 C       -0.0120     2.2370    -0.7440 C.ar  1 <1>  -0.1500 
  5 C       -0.8970     4.3950     0.7640 C.ar  1 <1>  -0.1500 
  6 C       -3.1220     3.2560     1.1980 C.3   1 <1>   0.4870 
  7 C        0.8090     3.3350    -0.5580 C.ar  1 <1>  -0.1500 
  8 C        0.3770     4.4270     0.1950 C.ar  1 <1>  -0.1440 
  9 N       -4.1340     3.2500     0.1120 N.4   1 <1>  -0.9590 
 10 C        1.2780     5.6580     0.4130 C.3   1 <1>   1.1630 
 11 C       -5.4960     2.9380     0.6460 C.3   1 <1>   0.3430 
 12 C       -4.1290     4.5120    -0.6830 C.3   1 <1>   0.3430 
 13 F        0.6300     6.7870     0.1540 F     1 <1>  -0.3400 
 14 F        1.6930     5.7460     1.6690 F     1 <1>  -0.3400 
 15 F        2.3630     5.6650    -0.3490 F     1 <1>  -0.3400 
 16 C       -6.5230     2.7690    -0.4950 C.3   1 <1>   0.0000 
 17 C       -5.1040     4.3870    -1.8560 C.3   1 <1>  -0.1600 
 18 C       -7.9100     2.5010     0.1100 C.3   1 <1>   0.2000 
 19 C       -6.5230     4.0280    -1.3870 C.3   1 <1>  -0.1600 
 20 C       -6.2520     1.4810    -1.2890 C.3   1 <1>  -0.1600 
 21 O       -8.0600     3.2250     1.2940 O.3   1 <1>  -0.5600 
 22 C       -7.9720     0.9910     0.3780 C.3   1 <1>  -0.1600 
 23 C       -6.8370     0.3550    -0.4350 C.3   1 <1>  -0.1600 
 24 C       -9.3750     3.3360     1.7470 C.3   1 <1>   0.0400 
 25 H        0.3170     1.3910    -1.3240 H     1 <1>   0.1500 
 26 H       -1.2280     5.2370     1.3540 H     1 <1>   0.1500 
 27 H       -3.2740     4.1050     1.8440 H     1 <1>   0.0800 
 28 H       -3.2140     2.3580     1.7880 H     1 <1>   0.0800 
 29 H        1.7910     3.3290    -1.0060 H     1 <1>   0.1500 
 30 H       -3.8720     2.4830    -0.5220 H     1 <1>   0.4500 
 31 H       -5.4720     2.0340     1.2300 H     1 <1>   0.0800 
 32 H       -5.8220     3.7390     1.2900 H     1 <1>   0.0800 
 33 H       -4.4260     5.3380    -0.0570 H     1 <1>   0.0800 
 34 H       -3.1380     4.7100    -1.0610 H     1 <1>   0.0800 
 35 H       -5.1340     5.3250    -2.3840 H     1 <1>   0.0800 
 36 H       -4.7410     3.6460    -2.5460 H     1 <1>   0.0800 
 37 H       -8.6780     2.7890    -0.5890 H     1 <1>   0.0800 
 38 H       -7.1630     3.8830    -2.2410 H     1 <1>   0.0800 
 39 H       -6.9250     4.8540    -0.8230 H     1 <1>   0.0800 
 40 H       -6.7910     1.5130    -2.2210 H     1 <1>   0.0800 
 41 H       -5.2120     1.3130    -1.5100 H     1 <1>   0.0800 
 42 H       -7.8400     0.7760     1.4250 H     1 <1>   0.0800 
 43 H       -8.9230     0.6040     0.0560 H     1 <1>   0.0800 
 44 H       -6.0860    -0.0320     0.2340 H     1 <1>   0.0800 
 45 H       -7.1960    -0.4540    -1.0490 H     1 <1>   0.0800 
 46 H       -9.3710     3.9120     2.6560 H     1 <1>   0.0800 
 47 H       -9.7750     2.3560     1.9450 H     1 <1>   0.0800 
 48 H       -9.9680     3.8420     1.0030 H     1 <1>   0.0800 
@<TRIPOS>BOND
  1   1   2  1   
  2   2   3  ar  
  3   2   4  ar  
  4   3   5  ar  
  5   3   6  1   
  6   4   7  ar  
  7   4  25  1   
  8   5   8  ar  
  9   5  26  1   
 10   6   9  1   
 11   6  27  1   
 12   6  28  1   
 13   7   8  ar  
 14   7  29  1   
 15   8  10  1   
 16   9  11  1   
 17   9  12  1   
 18   9  30  1   
 19  10  13  1   
 20  10  14  1   
 21  10  15  1   
 22  11  16  1   
 23  11  31  1   
 24  11  32  1   
 25  12  17  1   
 26  12  33  1   
 27  12  34  1   
 28  16  18  1   
 29  16  19  1   
 30  16  20  1   
 31  17  19  1   
 32  17  35  1   
 33  17  36  1   
 34  18  21  1   
 35  18  22  1   
 36  18  37  1   
 37  19  38  1   
 38  19  39  1   
 39  20  23  1   
 40  20  40  1   
 41  20  41  1   
 42  21  24  1   
 43  22  23  1   
 44  22  42  1   
 45  22  43  1   
 46  23  44  1   
 47  23  45  1   
 48  24  46  1   
 49  24  47  1   
 50  24  48  1   
@<TRIPOS>SUBSTRUCTURE
  1 ****   9 GROUP 4 **** **** 0

# MOE 2024.06 (io_trps.svl 2023.06)
