@<TRIPOS>MOLECULE
NONAME
42 43 1 0 0 
SMALL
USER_CHARGES


@<TRIPOS>ATOM
  1 S        0.1710     0.1810     0.3550 S.o2  1 <1>   1.0900 
  2 O        0.6110    -0.4600    -0.8570 O.2   1 <1>  -0.6500 
  3 O       -0.9790     1.0490     0.3350 O.2   1 <1>  -0.6500 
  4 C        1.5220     1.2290     0.8300 C.3   1 <1>  -0.0550 
  5 C        0.0070    -1.0230     1.6600 C.3   1 <1>  -0.1350 
  6 C        1.6430     2.2680    -0.2790 C.3   1 <1>   0.3430 
  7 N        2.7180     3.2810    -0.0150 N.4   1 <1>  -0.9590 
  8 C        2.6450     4.4320    -0.9670 C.3   1 <1>   0.5660 
  9 C        4.0860     2.6550    -0.0480 C.3   1 <1>   0.2630 
 10 C        3.7950     5.3900    -0.6780 C.ar  1 <1>  -0.1440 
 11 C        1.3070     5.1600    -0.8400 C.3   1 <1>  -0.2400 
 12 C        3.9070     6.0770     0.5060 C.ar  1 <1>  -0.1500 
 13 C        4.7840     5.5590    -1.6600 C.ar  1 <1>  -0.1500 
 14 C        4.9950     6.9340     0.7650 C.ar  1 <1>   0.0000 
 15 C        5.8490     6.3840    -1.4340 C.ar  1 <1>  -0.1500 
 16 C        5.9890     7.0870    -0.2220 C.ar  1 <1>   0.0000 
 17 C        5.1280     7.6450     1.9760 C.ar  1 <1>  -0.1500 
 18 C        7.0810     7.9380     0.0400 C.ar  1 <1>  -0.1500 
 19 C        6.1990     8.4640     2.2040 C.ar  1 <1>  -0.1500 
 20 C        7.1880     8.6120     1.2250 C.ar  1 <1>  -0.1500 
 21 H        2.4210     0.6510     0.9080 H     1 <1>   0.0800 
 22 H        1.3050     1.7100     1.7640 H     1 <1>   0.0800 
 23 H       -0.7990    -1.6950     1.4360 H     1 <1>   0.0800 
 24 H       -0.2090    -0.5450     2.5960 H     1 <1>   0.0800 
 25 H        0.9050    -1.6010     1.7620 H     1 <1>   0.0800 
 26 H        0.6880     2.7610    -0.3670 H     1 <1>   0.0800 
 27 H        1.8340     1.7650    -1.2150 H     1 <1>   0.0800 
 28 H        2.5790     3.7010     0.9120 H     1 <1>   0.4500 
 29 H        2.7470     4.0700    -1.9780 H     1 <1>   0.0800 
 30 H        4.2920     2.2520    -1.0260 H     1 <1>   0.0800 
 31 H        4.1580     1.8600     0.6750 H     1 <1>   0.0800 
 32 H        4.8440     3.3870     0.1860 H     1 <1>   0.0800 
 33 H        1.0870     5.4100     0.1820 H     1 <1>   0.0800 
 34 H        0.5030     4.5800    -1.2530 H     1 <1>   0.0800 
 35 H        1.3530     6.0770    -1.4020 H     1 <1>   0.0800 
 36 H        3.1670     5.9890     1.2800 H     1 <1>   0.1500 
 37 H        4.7080     5.0400    -2.6010 H     1 <1>   0.1500 
 38 H        6.6080     6.5170    -2.1860 H     1 <1>   0.1500 
 39 H        4.3690     7.5360     2.7290 H     1 <1>   0.1500 
 40 H        7.8380     8.0520    -0.7160 H     1 <1>   0.1500 
 41 H        6.2980     9.0040     3.1300 H     1 <1>   0.1500 
 42 H        8.0240     9.2610     1.4200 H     1 <1>   0.1500 
@<TRIPOS>BOND
  1   1   2  2   
  2   1   3  2   
  3   1   4  1   
  4   1   5  1   
  5   4   6  1   
  6   4  21  1   
  7   4  22  1   
  8   5  23  1   
  9   5  24  1   
 10   5  25  1   
 11   6   7  1   
 12   6  26  1   
 13   6  27  1   
 14   7   8  1   
 15   7   9  1   
 16   7  28  1   
 17   8  10  1   
 18   8  11  1   
 19   8  29  1   
 20   9  30  1   
 21   9  31  1   
 22   9  32  1   
 23  10  12  ar  
 24  10  13  ar  
 25  11  33  1   
 26  11  34  1   
 27  11  35  1   
 28  12  14  ar  
 29  12  36  1   
 30  13  15  ar  
 31  13  37  1   
 32  14  16  ar  
 33  14  17  ar  
 34  15  16  ar  
 35  15  38  1   
 36  16  18  ar  
 37  17  19  ar  
 38  17  39  1   
 39  18  20  ar  
 40  18  40  1   
 41  19  20  ar  
 42  19  41  1   
 43  20  42  1   
@<TRIPOS>SUBSTRUCTURE
  1 ****  10 GROUP 4 **** **** 0

# MOE 2024.06 (io_trps.svl 2023.06)
