@<TRIPOS>MOLECULE
NONAME
54 57 1 0 0 
SMALL
USER_CHARGES


@<TRIPOS>ATOM
  1 O       -0.7630    -0.0380    -1.1960 O.2   1 <1>  -0.5700 
  2 C       -1.5880     0.7080    -0.7150 C.2   1 <1>   0.5690 
  3 N       -2.7000     0.1440    -0.1250 N.am  1 <1>  -0.6600 
  4 C       -1.3420     2.2470    -0.8530 C.3   1 <1>   0.0610 
  5 C       -3.9620     0.7840     0.3230 C.3   1 <1>   0.1400 
  6 C       -2.8350    -1.3340    -0.0440 C.3   1 <1>   0.1400 
  7 C       -1.7550     3.0990     0.3770 C.3   1 <1>  -0.1600 
  8 C        0.1680     2.5470    -1.0780 C.3   1 <1>  -0.1600 
  9 C       -2.1070     2.7620    -2.0890 C.3   1 <1>  -0.2400 
 10 C       -4.9590    -0.3630     0.4680 C.3   1 <1>   0.2000 
 11 C       -4.1070    -1.5930     0.7670 C.3   1 <1>  -0.0800 
 12 C       -0.9630     2.7170     1.6360 C.3   1 <1>  -0.1600 
 13 C        1.0300     2.2070     0.1530 C.3   1 <1>  -0.1600 
 14 O       -5.8560    -0.1340     1.4990 O.3   1 <1>  -0.6800 
 15 C       -4.8240    -2.9070     0.4060 C.3   1 <1>  -0.0170 
 16 C        0.5380     2.9370     1.4090 C.3   1 <1>  -0.1600 
 17 C       -4.0590    -4.2060     0.6920 C.ar  1 <1>  -0.1440 
 18 C       -4.5320    -5.4340     0.1650 C.ar  1 <1>   0.0000 
 19 C       -2.9250    -4.2570     1.4550 C.ar  1 <1>  -0.1500 
 20 C       -3.7830    -6.6060     0.4340 C.ar  1 <1>   0.3100 
 21 C       -5.7100    -5.5720    -0.6080 C.ar  1 <1>  -0.1500 
 22 C       -2.2630    -5.4720     1.6650 C.ar  1 <1>   0.1600 
 23 N       -2.6530    -6.6080     1.1830 N.ar  1 <1>  -0.6200 
 24 C       -4.2230    -7.8340    -0.0870 C.ar  1 <1>  -0.1500 
 25 C       -6.1130    -6.7840    -1.0990 C.ar  1 <1>  -0.1500 
 26 C       -5.3610    -7.9310    -0.8400 C.ar  1 <1>  -0.1500 
 27 H       -3.8000     1.2490     1.2790 H     1 <1>   0.0800 
 28 H       -4.3110     1.5010    -0.3980 H     1 <1>   0.0800 
 29 H       -2.9280    -1.7280    -1.0430 H     1 <1>   0.0800 
 30 H       -1.9640    -1.7640     0.4200 H     1 <1>   0.0800 
 31 H       -1.5550     4.1350     0.1630 H     1 <1>   0.0800 
 32 H       -2.8050     3.0430     0.5680 H     1 <1>   0.0800 
 33 H        0.5320     1.9960    -1.9270 H     1 <1>   0.0800 
 34 H        0.2980     3.5910    -1.3030 H     1 <1>   0.0800 
 35 H       -1.9210     3.8090    -2.2490 H     1 <1>   0.0800 
 36 H       -3.1650     2.6190    -1.9720 H     1 <1>   0.0800 
 37 H       -1.7910     2.2220    -2.9650 H     1 <1>   0.0800 
 38 H       -5.5140    -0.4800    -0.4470 H     1 <1>   0.0800 
 39 H       -3.8450    -1.5880     1.8090 H     1 <1>   0.0800 
 40 H       -1.2890     3.3200     2.4660 H     1 <1>   0.0800 
 41 H       -1.1430     1.6850     1.8860 H     1 <1>   0.0800 
 42 H        1.0070     1.1450     0.3280 H     1 <1>   0.0800 
 43 H        2.0540     2.4780    -0.0420 H     1 <1>   0.0800 
 44 H       -5.3930    -0.1000     2.3580 H     1 <1>   0.4000 
 45 H       -5.0550    -2.8700    -0.6440 H     1 <1>   0.0800 
 46 H       -5.7570    -2.9460     0.9420 H     1 <1>   0.0800 
 47 H        1.0900     2.5920     2.2660 H     1 <1>   0.0800 
 48 H        0.7270     3.9910     1.2990 H     1 <1>   0.0800 
 49 H       -2.4960    -3.3930     1.9200 H     1 <1>   0.1500 
 50 H       -6.3130    -4.7090    -0.8170 H     1 <1>   0.1500 
 51 H       -1.3710    -5.4600     2.2670 H     1 <1>   0.1500 
 52 H       -3.6290    -8.7020     0.1290 H     1 <1>   0.1500 
 53 H       -7.0110    -6.8710    -1.6870 H     1 <1>   0.1500 
 54 H       -5.6870    -8.8790    -1.2320 H     1 <1>   0.1500 
@<TRIPOS>BOND
  1   1   2  2   
  2   2   3  am  
  3   2   4  1   
  4   3   5  1   
  5   3   6  1   
  6   4   7  1   
  7   4   8  1   
  8   4   9  1   
  9   5  10  1   
 10   5  27  1   
 11   5  28  1   
 12   6  11  1   
 13   6  29  1   
 14   6  30  1   
 15   7  12  1   
 16   7  31  1   
 17   7  32  1   
 18   8  13  1   
 19   8  33  1   
 20   8  34  1   
 21   9  35  1   
 22   9  36  1   
 23   9  37  1   
 24  10  11  1   
 25  10  14  1   
 26  10  38  1   
 27  11  15  1   
 28  11  39  1   
 29  12  16  1   
 30  12  40  1   
 31  12  41  1   
 32  13  16  1   
 33  13  42  1   
 34  13  43  1   
 35  14  44  1   
 36  15  17  1   
 37  15  45  1   
 38  15  46  1   
 39  16  47  1   
 40  16  48  1   
 41  17  18  ar  
 42  17  19  ar  
 43  18  20  ar  
 44  18  21  ar  
 45  19  22  ar  
 46  19  49  1   
 47  20  23  ar  
 48  20  24  ar  
 49  21  25  ar  
 50  21  50  1   
 51  22  23  ar  
 52  22  51  1   
 53  24  26  ar  
 54  24  52  1   
 55  25  26  ar  
 56  25  53  1   
 57  26  54  1   
@<TRIPOS>SUBSTRUCTURE
  1 ****   6 GROUP 4 **** **** 0

# MOE 2024.06 (io_trps.svl 2023.06)
