@<TRIPOS>MOLECULE
NONAME
52 55 1 0 0 
SMALL
USER_CHARGES


@<TRIPOS>ATOM
  1 O        1.3060     0.9210     0.4020 O.3   1 <1>  -0.3630 
  2 C        0.9370     2.2120     0.2230 C.ar  1 <1>   0.0830 
  3 C        0.3710    -0.0820     0.7300 C.3   1 <1>   0.0400 
  4 C        1.9160     3.1120    -0.1050 C.ar  1 <1>  -0.1500 
  5 C       -0.3880     2.6590     0.3570 C.ar  1 <1>  -0.1500 
  6 C        1.6420     4.4710    -0.3120 C.ar  1 <1>   0.3100 
  7 C       -0.6880     3.9810     0.1590 C.ar  1 <1>  -0.1500 
  8 N        2.6790     5.2840    -0.6280 N.ar  1 <1>  -0.6200 
  9 C        0.3070     4.9220    -0.1800 C.ar  1 <1>   0.0000 
 10 C        2.4180     6.5480    -0.8140 C.ar  1 <1>   0.4100 
 11 C        0.0550     6.2950    -0.4010 C.ar  1 <1>  -0.1430 
 12 N        3.4630     7.3980    -1.1120 N.pl3 1 <1>  -0.8380 
 13 C        1.1190     7.0810    -0.7170 C.ar  1 <1>  -0.1500 
 14 C       -1.3450     6.8800    -0.2990 C.3   1 <1>  -0.0970 
 15 C        3.7930     8.4980    -0.1530 C.3   1 <1>   0.2090 
 16 C        4.6910     6.8640    -1.7860 C.3   1 <1>   0.2090 
 17 C        4.8730     8.0740     0.8650 C.3   1 <1>   0.2090 
 18 C        5.7650     6.4250    -0.7690 C.3   1 <1>   0.2090 
 19 N        6.0940     7.5120     0.2060 N.pl3 1 <1>  -0.8380 
 20 C        7.1690     8.3310    -0.0650 C.ar  1 <1>   0.4100 
 21 N        6.8880     9.5350    -0.5210 N.ar  1 <1>  -0.6200 
 22 C        8.4860     7.9110     0.1150 C.ar  1 <1>  -0.1430 
 23 C        7.9250    10.2890    -0.8130 C.ar  1 <1>   0.4700 
 24 C        9.4790     8.7960    -0.2450 C.ar  1 <1>   0.1670 
 25 C        8.7980     6.5300     0.6990 C.3   1 <1>  -0.0970 
 26 N        9.2070     9.9980    -0.7100 N.ar  1 <1>  -0.6200 
 27 C       10.9590     8.4710    -0.1350 C.3   1 <1>  -0.0970 
 28 H        0.8980    -1.0150     0.8140 H     1 <1>   0.0800 
 29 H       -0.3620    -0.1460    -0.0550 H     1 <1>   0.0800 
 30 H       -0.0890     0.1640     1.6710 H     1 <1>   0.0800 
 31 H        2.9320     2.7840    -0.2090 H     1 <1>   0.1500 
 32 H       -1.1720     1.9730     0.6130 H     1 <1>   0.1500 
 33 H       -1.7050     4.3090     0.2640 H     1 <1>   0.1500 
 34 H        1.0070     8.1290    -0.9140 H     1 <1>   0.1500 
 35 H       -1.9960     6.4030    -1.0100 H     1 <1>   0.0800 
 36 H       -1.3340     7.9350    -0.5070 H     1 <1>   0.0800 
 37 H       -1.7360     6.7340     0.6920 H     1 <1>   0.0800 
 38 H        2.9100     8.7990     0.3820 H     1 <1>   0.0800 
 39 H        4.1500     9.3490    -0.7050 H     1 <1>   0.0800 
 40 H        5.1030     7.6300    -2.4180 H     1 <1>   0.0800 
 41 H        4.4270     6.0280    -2.4110 H     1 <1>   0.0800 
 42 H        4.4570     7.3280     1.5200 H     1 <1>   0.0800 
 43 H        5.1480     8.9230     1.4650 H     1 <1>   0.0800 
 44 H        6.6520     6.1350    -1.3030 H     1 <1>   0.0800 
 45 H        5.4050     5.5660    -0.2310 H     1 <1>   0.0800 
 46 H        7.6990    11.2730    -1.1870 H     1 <1>   0.1500 
 47 H        7.9920     6.1860     1.3220 H     1 <1>   0.0800 
 48 H        9.6790     6.5620     1.3130 H     1 <1>   0.0800 
 49 H        8.9460     5.8220    -0.0950 H     1 <1>   0.0800 
 50 H       11.1450     7.4370    -0.3520 H     1 <1>   0.0800 
 51 H       11.3030     8.6990     0.8570 H     1 <1>   0.0800 
 52 H       11.5180     9.0630    -0.8360 H     1 <1>   0.0800 
@<TRIPOS>BOND
  1   1   2  1   
  2   1   3  1   
  3   2   4  ar  
  4   2   5  ar  
  5   3  28  1   
  6   3  29  1   
  7   3  30  1   
  8   4   6  ar  
  9   4  31  1   
 10   5   7  ar  
 11   5  32  1   
 12   6   8  ar  
 13   6   9  ar  
 14   7   9  ar  
 15   7  33  1   
 16   8  10  ar  
 17   9  11  ar  
 18  10  12  1   
 19  10  13  ar  
 20  11  13  ar  
 21  11  14  1   
 22  12  15  1   
 23  12  16  1   
 24  13  34  1   
 25  14  35  1   
 26  14  36  1   
 27  14  37  1   
 28  15  17  1   
 29  15  38  1   
 30  15  39  1   
 31  16  18  1   
 32  16  40  1   
 33  16  41  1   
 34  17  19  1   
 35  17  42  1   
 36  17  43  1   
 37  18  19  1   
 38  18  44  1   
 39  18  45  1   
 40  19  20  1   
 41  20  21  ar  
 42  20  22  ar  
 43  21  23  ar  
 44  22  24  ar  
 45  22  25  1   
 46  23  26  ar  
 47  23  46  1   
 48  24  26  ar  
 49  24  27  1   
 50  25  47  1   
 51  25  48  1   
 52  25  49  1   
 53  27  50  1   
 54  27  51  1   
 55  27  52  1   
@<TRIPOS>SUBSTRUCTURE
  1 ****  12 GROUP 4 **** **** 0

# MOE 2024.06 (io_trps.svl 2023.06)
