@<TRIPOS>MOLECULE
NONAME
50 52 1 0 0 
SMALL
USER_CHARGES


@<TRIPOS>ATOM
  1 O       -0.1670     0.9660     1.3680 O.co2 1 <1>  -0.9000 
  2 C       -0.7650     1.8970     1.9160 C.2   1 <1>   0.9060 
  3 O       -1.4680     1.7310     2.9210 O.co2 1 <1>  -0.9000 
  4 C       -0.7100     3.2870     1.3230 C.3   1 <1>  -0.1860 
  5 C       -2.1190     3.6900     0.8850 C.3   1 <1>   0.2000 
  6 C        0.2730     3.3600     0.1470 C.3   1 <1>   0.1400 
  7 O       -2.9160     3.7760     2.0040 O.3   1 <1>  -0.6800 
  8 C       -2.1450     5.0440     0.1790 C.3   1 <1>  -0.1600 
  9 N        0.1940     4.7060    -0.5090 N.am  1 <1>  -0.6600 
 10 C       -1.1720     5.0420    -0.9980 C.3   1 <1>   0.1400 
 11 C        1.2970     5.5190    -0.5980 C.2   1 <1>   0.5690 
 12 O        2.3990     5.1480    -0.2690 O.2   1 <1>  -0.5700 
 13 C        1.1520     6.9430    -1.1320 C.3   1 <1>  -0.0990 
 14 C        2.4270     7.8020    -1.0120 C.3   1 <1>  -0.1600 
 15 C        2.2140     9.2240    -1.5530 C.3   1 <1>   0.0200 
 16 C        3.4610    10.0740    -1.4000 C.2   1 <1>   0.2980 
 17 O        4.5200     9.7770    -2.1070 O.3   1 <1>  -0.0190 
 18 N        3.5800    11.0770    -0.6340 N.2   1 <1>  -0.5650 
 19 N        5.3920    10.6710    -1.7590 N.2   1 <1>  -0.4100 
 20 C        4.8430    11.4400    -0.8860 C.2   1 <1>   0.4620 
 21 C        5.4800    12.5720    -0.2340 C.ar  1 <1>   0.0540 
 22 C        4.8070    13.3560     0.7060 C.ar  1 <1>  -0.1500 
 23 C        6.8010    12.9250    -0.5220 C.ar  1 <1>  -0.1500 
 24 C        5.4180    14.4320     1.3230 C.ar  1 <1>  -0.1500 
 25 C        7.4210    13.9990     0.0900 C.ar  1 <1>  -0.1500 
 26 C        6.7280    14.7640     1.0220 C.ar  1 <1>   0.0830 
 27 O        7.2550    15.8310     1.6690 O.3   1 <1>  -0.3620 
 28 C        8.5800    16.2520     1.4340 C.3   1 <1>   0.0400 
 29 H       -0.3640     3.9550     2.0880 H     1 <1>   0.0800 
 30 H       -2.5310     2.9250     0.2470 H     1 <1>   0.0800 
 31 H        0.0310     2.6000    -0.5770 H     1 <1>   0.0800 
 32 H        1.2680     3.1600     0.5060 H     1 <1>   0.0800 
 33 H       -2.6390     3.0140     2.5930 H     1 <1>   0.4000 
 34 H       -3.1400     5.2400    -0.1750 H     1 <1>   0.0800 
 35 H       -1.8630     5.8190     0.8700 H     1 <1>   0.0800 
 36 H       -1.1950     5.9980    -1.4870 H     1 <1>   0.0800 
 37 H       -1.4750     4.2970    -1.7140 H     1 <1>   0.0800 
 38 H        0.8660     6.8790    -2.1650 H     1 <1>   0.0800 
 39 H        0.3620     7.4220    -0.5840 H     1 <1>   0.0800 
 40 H        2.7210     7.8550     0.0230 H     1 <1>   0.0800 
 41 H        3.2270     7.3270    -1.5550 H     1 <1>   0.0800 
 42 H        1.4100     9.6970    -1.0190 H     1 <1>   0.0800 
 43 H        1.9490     9.1870    -2.5950 H     1 <1>   0.0800 
 44 H        3.7880    13.1190     0.9580 H     1 <1>   0.1500 
 45 H        7.3530    12.3440    -1.2410 H     1 <1>   0.1500 
 46 H        4.8820    15.0230     2.0440 H     1 <1>   0.1500 
 47 H        8.4370    14.2250    -0.1690 H     1 <1>   0.1500 
 48 H        8.7730    17.1090     2.0540 H     1 <1>   0.0800 
 49 H        8.6820    16.5200     0.3970 H     1 <1>   0.0800 
 50 H        9.2510    15.4540     1.6950 H     1 <1>   0.0800 
@<TRIPOS>BOND
  1   1   2  ar  
  2   2   3  ar  
  3   2   4  1   
  4   4   5  1   
  5   4   6  1   
  6   4  29  1   
  7   5   7  1   
  8   5   8  1   
  9   5  30  1   
 10   6   9  1   
 11   6  31  1   
 12   6  32  1   
 13   7  33  1   
 14   8  10  1   
 15   8  34  1   
 16   8  35  1   
 17   9  10  1   
 18   9  11  am  
 19  10  36  1   
 20  10  37  1   
 21  11  12  2   
 22  11  13  1   
 23  13  14  1   
 24  13  38  1   
 25  13  39  1   
 26  14  15  1   
 27  14  40  1   
 28  14  41  1   
 29  15  16  1   
 30  15  42  1   
 31  15  43  1   
 32  16  17  1   
 33  16  18  2   
 34  17  19  1   
 35  18  20  1   
 36  19  20  2   
 37  20  21  1   
 38  21  22  ar  
 39  21  23  ar  
 40  22  24  ar  
 41  22  44  1   
 42  23  25  ar  
 43  23  45  1   
 44  24  26  ar  
 45  24  46  1   
 46  25  26  ar  
 47  25  47  1   
 48  26  27  1   
 49  27  28  1   
 50  28  48  1   
 51  28  49  1   
 52  28  50  1   
@<TRIPOS>SUBSTRUCTURE
  1 ****  14 GROUP 4 **** **** 0

# MOE 2024.06 (io_trps.svl 2023.06)
