@<TRIPOS>MOLECULE
NONAME
56 58 1 0 0 
SMALL
USER_CHARGES


@<TRIPOS>ATOM
  1 O       -0.3390     0.6580    -0.0950 O.2   1 <1>  -0.5700 
  2 C       -0.3370     1.8670    -0.0800 C.2   1 <1>   0.5690 
  3 N       -1.3540     2.6190     0.4570 N.am  1 <1>  -0.6600 
  4 C        0.8670     2.5610    -0.7180 C.3   1 <1>   0.1810 
  5 C       -1.2750     4.1220     0.4470 C.3   1 <1>   0.3640 
  6 C       -2.4550     2.0600     1.2940 C.3   1 <1>   0.2200 
  7 O        1.0640     3.8700    -0.2490 O.3   1 <1>  -0.5600 
  8 C       -2.5700     4.7130    -0.1170 C.ar  1 <1>  -0.1440 
  9 C       -0.0820     4.6890    -0.3650 C.3   1 <1>   0.2610 
 10 C       -1.8840     1.4030     2.5510 C.3   1 <1>  -0.2400 
 11 C       -3.3330     1.0960     0.4940 C.3   1 <1>  -0.2400 
 12 C       -3.1330     4.2240    -1.2900 C.ar  1 <1>  -0.1500 
 13 C       -3.1930     5.7640     0.5400 C.ar  1 <1>  -0.1500 
 14 C        0.2390     6.1430     0.0300 C.2   1 <1>   0.5690 
 15 C       -4.2990     4.7750    -1.7930 C.ar  1 <1>  -0.1500 
 16 C       -4.3580     6.3160     0.0370 C.ar  1 <1>  -0.1500 
 17 O       -0.1060     6.5440     1.1220 O.2   1 <1>  -0.5700 
 18 N        0.8940     6.9770    -0.8510 N.am  1 <1>  -0.6600 
 19 C       -4.9130     5.8210    -1.1290 C.ar  1 <1>  -0.1500 
 20 C        1.1470     8.4040    -0.4970 C.3   1 <1>   0.1400 
 21 C        1.4070     6.5400    -2.1800 C.3   1 <1>   0.0600 
 22 C        2.4030     8.5470     0.3790 C.3   1 <1>  -0.0800 
 23 C        2.6760     9.9940     0.7850 C.3   1 <1>  -0.1600 
 24 C        3.7100     8.1170    -0.2850 C.3   1 <1>  -0.1600 
 25 C        4.1570    10.0330     1.1710 C.3   1 <1>  -0.1600 
 26 C        4.8040     8.7970     0.5360 C.3   1 <1>  -0.1600 
 27 H        0.7400     2.5930    -1.7850 H     1 <1>   0.0800 
 28 H        1.7560     2.0000    -0.4930 H     1 <1>   0.0800 
 29 H       -1.1680     4.4320     1.4720 H     1 <1>   0.0800 
 30 H       -3.0890     2.8690     1.6190 H     1 <1>   0.0800 
 31 H       -0.3630     4.6930    -1.4010 H     1 <1>   0.0800 
 32 H       -1.3050     0.5340     2.3000 H     1 <1>   0.0800 
 33 H       -2.6860     1.0960     3.1970 H     1 <1>   0.0800 
 34 H       -1.2650     2.1010     3.0850 H     1 <1>   0.0800 
 35 H       -2.7890     0.2130     0.2160 H     1 <1>   0.0800 
 36 H       -3.7050     1.5780    -0.3900 H     1 <1>   0.0800 
 37 H       -4.1730     0.7950     1.0910 H     1 <1>   0.0800 
 38 H       -2.6690     3.4070    -1.8140 H     1 <1>   0.1500 
 39 H       -2.7700     6.1660     1.4460 H     1 <1>   0.1500 
 40 H       -4.7290     4.3870    -2.7000 H     1 <1>   0.1500 
 41 H       -4.8320     7.1320     0.5550 H     1 <1>   0.1500 
 42 H       -5.8190     6.2500    -1.5190 H     1 <1>   0.1500 
 43 H        1.2500     8.9910    -1.3930 H     1 <1>   0.0800 
 44 H        0.2980     8.7860     0.0460 H     1 <1>   0.0800 
 45 H        2.1720     7.2110    -2.5270 H     1 <1>   0.0800 
 46 H        0.6020     6.5320    -2.8940 H     1 <1>   0.0800 
 47 H        1.8340     5.5550    -2.1090 H     1 <1>   0.0800 
 48 H        2.2650     7.9700     1.2790 H     1 <1>   0.0800 
 49 H        2.5150    10.6460    -0.0560 H     1 <1>   0.0800 
 50 H        2.0420    10.3060     1.5980 H     1 <1>   0.0800 
 51 H        3.8190     7.0460    -0.2930 H     1 <1>   0.0800 
 52 H        3.7450     8.4880    -1.2940 H     1 <1>   0.0800 
 53 H        4.6180    10.9400     0.8180 H     1 <1>   0.0800 
 54 H        4.2610     9.9850     2.2420 H     1 <1>   0.0800 
 55 H        5.1370     8.1300     1.3140 H     1 <1>   0.0800 
 56 H        5.6470     9.0600    -0.0800 H     1 <1>   0.0800 
@<TRIPOS>BOND
  1   1   2  2   
  2   2   3  am  
  3   2   4  1   
  4   3   5  1   
  5   3   6  1   
  6   4   7  1   
  7   4  27  1   
  8   4  28  1   
  9   5   8  1   
 10   5   9  1   
 11   5  29  1   
 12   6  10  1   
 13   6  11  1   
 14   6  30  1   
 15   7   9  1   
 16   8  12  ar  
 17   8  13  ar  
 18   9  14  1   
 19   9  31  1   
 20  10  32  1   
 21  10  33  1   
 22  10  34  1   
 23  11  35  1   
 24  11  36  1   
 25  11  37  1   
 26  12  15  ar  
 27  12  38  1   
 28  13  16  ar  
 29  13  39  1   
 30  14  17  2   
 31  14  18  am  
 32  15  19  ar  
 33  15  40  1   
 34  16  19  ar  
 35  16  41  1   
 36  18  20  1   
 37  18  21  1   
 38  19  42  1   
 39  20  22  1   
 40  20  43  1   
 41  20  44  1   
 42  21  45  1   
 43  21  46  1   
 44  21  47  1   
 45  22  23  1   
 46  22  24  1   
 47  22  48  1   
 48  23  25  1   
 49  23  49  1   
 50  23  50  1   
 51  24  26  1   
 52  24  51  1   
 53  24  52  1   
 54  25  26  1   
 55  25  53  1   
 56  25  54  1   
 57  26  55  1   
 58  26  56  1   
@<TRIPOS>SUBSTRUCTURE
  1 ****   9 GROUP 4 **** **** 0

# MOE 2024.06 (io_trps.svl 2023.06)
