@<TRIPOS>MOLECULE
NONAME
52 55 1 0 0 
SMALL
USER_CHARGES


@<TRIPOS>ATOM
  1 O        0.1850    -0.6030     0.2130 O.3   1 <1>  -0.1650 
  2 C       -0.5330    -1.4680    -0.5410 C.ar  1 <1>   0.3920 
  3 C        1.4080    -0.1110    -0.1260 C.ar  1 <1>   0.0830 
  4 N       -0.2540    -1.5650    -1.8320 N.ar  1 <1>  -0.6200 
  5 C       -1.5340    -2.2050     0.0560 C.ar  1 <1>  -0.1440 
  6 C        1.6880     1.2500     0.0230 C.ar  1 <1>   0.1670 
  7 C        2.4050    -0.9570    -0.5820 C.ar  1 <1>  -0.1500 
  8 C       -0.9990    -2.4200    -2.4990 C.ar  1 <1>   0.4700 
  9 C       -2.2380    -3.0720    -0.7640 C.ar  1 <1>   0.4100 
 10 C       -1.8750    -2.1030     1.5440 C.3   1 <1>  -0.0970 
 11 N        2.8640     1.7990    -0.2470 N.ar  1 <1>  -0.6200 
 12 C        0.6360     2.2260     0.5210 C.3   1 <1>  -0.0960 
 13 C        3.6260    -0.3890    -0.8710 C.ar  1 <1>  -0.1500 
 14 N       -1.9700    -3.1850    -2.0500 N.ar  1 <1>  -0.6200 
 15 N       -3.2440    -3.8730    -0.2720 N.pl3 1 <1>  -0.8380 
 16 C        3.8000     0.9720    -0.6890 C.ar  1 <1>   0.1600 
 17 C       -4.5770    -3.7960    -0.9350 C.3   1 <1>   0.2090 
 18 C       -2.8970    -5.3040    -0.0490 C.3   1 <1>   0.2090 
 19 C       -4.8710    -5.2120    -1.4210 C.3   1 <1>   0.2000 
 20 C       -4.1290    -6.1160    -0.4460 C.3   1 <1>  -0.0800 
 21 O       -6.2290    -5.5020    -1.4080 O.3   1 <1>  -0.6800 
 22 C       -3.7910    -7.4930    -1.0360 C.3   1 <1>   0.0210 
 23 C       -2.9310    -8.3070    -0.0880 C.2   1 <1>   0.1080 
 24 N       -3.2550    -8.5290     1.1490 N.2   1 <1>  -0.7070 
 25 C       -1.7160    -8.8950    -0.4250 C.2   1 <1>  -0.1500 
 26 N       -2.2480    -9.2790     1.6360 N.pl3 1 <1>   0.3000 
 27 C       -1.3020    -9.5110     0.7020 C.2   1 <1>  -0.3320 
 28 C       -0.0430   -10.3230     0.9470 C.3   1 <1>  -0.0600 
 29 H        2.2300    -2.0100    -0.7060 H     1 <1>   0.1500 
 30 H       -0.7830    -2.5070    -3.5510 H     1 <1>   0.1500 
 31 H       -2.9270    -1.9120     1.6610 H     1 <1>   0.0800 
 32 H       -1.3340    -1.3150     2.0350 H     1 <1>   0.0800 
 33 H       -1.6440    -3.0330     2.0310 H     1 <1>   0.0800 
 34 H       -0.3490     1.8000     0.5080 H     1 <1>   0.0800 
 35 H        0.6340     3.0980    -0.1070 H     1 <1>   0.0800 
 36 H        0.8760     2.5250     1.5240 H     1 <1>   0.0800 
 37 H        4.4370    -0.9930    -1.2340 H     1 <1>   0.1500 
 38 H        4.7590     1.4050    -0.9170 H     1 <1>   0.1500 
 39 H       -5.3060    -3.4860    -0.2070 H     1 <1>   0.0800 
 40 H       -4.5690    -3.1030    -1.7580 H     1 <1>   0.0800 
 41 H       -2.0530    -5.5720    -0.6640 H     1 <1>   0.0800 
 42 H       -2.6440    -5.4760     0.9840 H     1 <1>   0.0800 
 43 H       -4.5030    -5.3270    -2.4270 H     1 <1>   0.0800 
 44 H       -4.7180    -6.2480     0.4450 H     1 <1>   0.0800 
 45 H       -6.5560    -5.5290    -0.4890 H     1 <1>   0.4000 
 46 H       -3.2730    -7.3740    -1.9710 H     1 <1>   0.0800 
 47 H       -4.7010    -8.0330    -1.2260 H     1 <1>   0.0800 
 48 H       -1.2350    -8.8520    -1.3860 H     1 <1>   0.1500 
 49 H       -2.2380    -9.6180     2.6050 H     1 <1>   0.2700 
 50 H        0.5510   -10.3640     0.0510 H     1 <1>   0.0800 
 51 H       -0.2990   -11.3280     1.2330 H     1 <1>   0.0800 
 52 H        0.5450    -9.8730     1.7270 H     1 <1>   0.0800 
@<TRIPOS>BOND
  1   1   2  1   
  2   1   3  1   
  3   2   4  ar  
  4   2   5  ar  
  5   3   6  ar  
  6   3   7  ar  
  7   4   8  ar  
  8   5   9  ar  
  9   5  10  1   
 10   6  11  ar  
 11   6  12  1   
 12   7  13  ar  
 13   7  29  1   
 14   8  14  ar  
 15   8  30  1   
 16   9  14  ar  
 17   9  15  1   
 18  10  31  1   
 19  10  32  1   
 20  10  33  1   
 21  11  16  ar  
 22  12  34  1   
 23  12  35  1   
 24  12  36  1   
 25  13  16  ar  
 26  13  37  1   
 27  15  17  1   
 28  15  18  1   
 29  16  38  1   
 30  17  19  1   
 31  17  39  1   
 32  17  40  1   
 33  18  20  1   
 34  18  41  1   
 35  18  42  1   
 36  19  20  1   
 37  19  21  1   
 38  19  43  1   
 39  20  22  1   
 40  20  44  1   
 41  21  45  1   
 42  22  23  1   
 43  22  46  1   
 44  22  47  1   
 45  23  24  2   
 46  23  25  1   
 47  24  26  1   
 48  25  27  2   
 49  25  48  1   
 50  26  27  1   
 51  26  49  1   
 52  27  28  1   
 53  28  50  1   
 54  28  51  1   
 55  28  52  1   
@<TRIPOS>SUBSTRUCTURE
  1 ****   9 GROUP 4 **** **** 0

# MOE 2024.06 (io_trps.svl 2023.06)
