@<TRIPOS>MOLECULE
NONAME
54 56 1 0 0 
SMALL
USER_CHARGES


@<TRIPOS>ATOM
  1 F       -1.5580    -1.0920     0.5120 F     1 <1>  -0.1900 
  2 C       -2.6630    -0.4030     0.3870 C.ar  1 <1>   0.1900 
  3 C       -2.9000     0.4280    -0.7140 C.ar  1 <1>   0.0830 
  4 C       -3.5890    -0.5380     1.4040 C.ar  1 <1>  -0.1500 
  5 O       -2.0690     0.6450    -1.7730 O.3   1 <1>  -0.3630 
  6 C       -4.1040     1.1110    -0.7570 C.ar  1 <1>  -0.1500 
  7 C       -4.7800     0.1600     1.3320 C.ar  1 <1>  -0.1500 
  8 C       -0.7830     0.0730    -1.8720 C.3   1 <1>   0.0400 
  9 C       -5.0670     0.9910     0.2470 C.ar  1 <1>   0.0530 
 10 C       -6.3170     1.6980     0.1550 C.2   1 <1>   0.0870 
 11 O       -6.3750     2.9120    -0.3280 O.3   1 <1>  -0.0190 
 12 C       -7.5860     1.3380     0.4690 C.2   1 <1>  -0.0860 
 13 N       -7.5920     3.3890    -0.3550 N.2   1 <1>  -0.4100 
 14 C       -8.3450     2.4610     0.1290 C.2   1 <1>   0.3720 
 15 C       -8.0750     0.0920     0.9590 C.2   1 <1>   0.7160 
 16 N       -9.7400     2.5670     0.2660 N.pl3 1 <1>  -0.8210 
 17 O       -8.0620    -0.1230     2.1600 O.2   1 <1>  -0.5700 
 18 N       -8.5250    -0.8890     0.1020 N.am  1 <1>  -0.6600 
 19 C      -10.2730     2.2640     1.6270 C.3   1 <1>   0.1290 
 20 C      -10.3710     3.7660    -0.3560 C.3   1 <1>   0.1290 
 21 C       -8.7500    -2.2940     0.5470 C.3   1 <1>   0.1400 
 22 C       -8.7510    -0.6680    -1.3500 C.3   1 <1>   0.1400 
 23 C       -7.8220    -3.2750    -0.2070 C.3   1 <1>   0.0000 
 24 C       -7.8220    -1.5830    -2.1520 C.3   1 <1>  -0.1600 
 25 C       -7.9720    -3.0580    -1.7350 C.3   1 <1>  -0.1600 
 26 C       -8.2590    -4.7080     0.1780 C.3   1 <1>   0.1200 
 27 C       -6.3580    -3.0460     0.2310 C.3   1 <1>  -0.2400 
 28 O       -7.4880    -5.6640    -0.4670 O.3   1 <1>  -0.6800 
 29 H       -3.3770    -1.1800     2.2410 H     1 <1>   0.1500 
 30 H       -4.3000     1.7520    -1.5970 H     1 <1>   0.1500 
 31 H       -5.4960     0.0590     2.1300 H     1 <1>   0.1500 
 32 H       -0.3290     0.4250    -2.7810 H     1 <1>   0.0800 
 33 H       -0.8770    -0.9980    -1.9040 H     1 <1>   0.0800 
 34 H       -0.1950     0.3840    -1.0270 H     1 <1>   0.0800 
 35 H      -10.6150     1.2440     1.6600 H     1 <1>   0.0800 
 36 H      -11.0970     2.9120     1.8700 H     1 <1>   0.0800 
 37 H       -9.5030     2.3950     2.3690 H     1 <1>   0.0800 
 38 H      -10.0190     3.8820    -1.3670 H     1 <1>   0.0800 
 39 H      -10.1170     4.6490     0.2050 H     1 <1>   0.0800 
 40 H      -11.4410     3.6500    -0.3770 H     1 <1>   0.0800 
 41 H       -9.7790    -2.5460     0.3560 H     1 <1>   0.0800 
 42 H       -8.5850    -2.3870     1.6070 H     1 <1>   0.0800 
 43 H       -8.5790     0.3580    -1.6250 H     1 <1>   0.0800 
 44 H       -9.7780    -0.8980    -1.5800 H     1 <1>   0.0800 
 45 H       -6.8060    -1.2570    -2.0130 H     1 <1>   0.0800 
 46 H       -8.0490    -1.4820    -3.1980 H     1 <1>   0.0800 
 47 H       -8.9470    -3.3960    -2.0420 H     1 <1>   0.0800 
 48 H       -7.2420    -3.6440    -2.2660 H     1 <1>   0.0800 
 49 H       -9.2870    -4.8790    -0.0930 H     1 <1>   0.0800 
 50 H       -8.1510    -4.8670     1.2380 H     1 <1>   0.0800 
 51 H       -6.0410    -2.0410     0.0240 H     1 <1>   0.0800 
 52 H       -5.6940    -3.7170    -0.2860 H     1 <1>   0.0800 
 53 H       -6.2520    -3.2170     1.2870 H     1 <1>   0.0800 
 54 H       -7.4640    -5.4880    -1.4270 H     1 <1>   0.4000 
@<TRIPOS>BOND
  1   1   2  1   
  2   2   3  ar  
  3   2   4  ar  
  4   3   5  1   
  5   3   6  ar  
  6   4   7  ar  
  7   4  29  1   
  8   5   8  1   
  9   6   9  ar  
 10   6  30  1   
 11   7   9  ar  
 12   7  31  1   
 13   8  32  1   
 14   8  33  1   
 15   8  34  1   
 16   9  10  1   
 17  10  11  1   
 18  10  12  2   
 19  11  13  1   
 20  12  14  1   
 21  12  15  1   
 22  13  14  2   
 23  14  16  1   
 24  15  17  2   
 25  15  18  am  
 26  16  19  1   
 27  16  20  1   
 28  18  21  1   
 29  18  22  1   
 30  19  35  1   
 31  19  36  1   
 32  19  37  1   
 33  20  38  1   
 34  20  39  1   
 35  20  40  1   
 36  21  23  1   
 37  21  41  1   
 38  21  42  1   
 39  22  24  1   
 40  22  43  1   
 41  22  44  1   
 42  23  25  1   
 43  23  26  1   
 44  23  27  1   
 45  24  25  1   
 46  24  45  1   
 47  24  46  1   
 48  25  47  1   
 49  25  48  1   
 50  26  28  1   
 51  26  49  1   
 52  26  50  1   
 53  27  51  1   
 54  27  52  1   
 55  27  53  1   
 56  28  54  1   
@<TRIPOS>SUBSTRUCTURE
  1 ****   9 GROUP 4 **** **** 0

# MOE 2024.06 (io_trps.svl 2023.06)
