@<TRIPOS>MOLECULE
NONAME
38 39 1 0 0 
SMALL
USER_CHARGES


@<TRIPOS>ATOM
  1 O        0.3810    -0.1570    -1.0970 O.2   1 <1>  -0.5700 
  2 C        1.1650    -0.2120    -0.1690 C.2   1 <1>   0.7150 
  3 N        1.7670     0.9350     0.2270 N.am  1 <1>  -0.7300 
  4 C        1.4830    -1.4400     0.5140 C.2   1 <1>  -0.2370 
  5 C        1.7390     2.2080    -0.5170 C.3   1 <1>   0.4000 
  6 N        0.9370    -2.6700     0.2230 N.pl3 1 <1>   0.0480 
  7 C        2.3630    -1.6240     1.5540 C.2   1 <1>  -0.1500 
  8 C        3.1250     2.8560    -0.5030 C.2   1 <1>   0.2980 
  9 C        0.6940     3.1100     0.1370 C.3   1 <1>  -0.2400 
 10 C        1.4750    -3.5820     1.0680 C.2   1 <1>  -0.3020 
 11 C       -0.0620    -2.9940    -0.8150 C.3   1 <1>   0.0160 
 12 C        2.3560    -2.9700     1.9000 C.2   1 <1>  -0.1500 
 13 O        3.3520     3.8490    -1.3260 O.3   1 <1>  -0.0190 
 14 N        4.1110     2.5270     0.2410 N.2   1 <1>  -0.5650 
 15 N        4.5840     4.1780    -1.0890 N.2   1 <1>  -0.4100 
 16 C        5.0160     3.4000    -0.1760 C.2   1 <1>   0.3350 
 17 C        6.4090     3.4060     0.4240 C.3   1 <1>   0.0210 
 18 C        7.3280     4.4210    -0.2530 C.3   1 <1>   0.1200 
 19 O        8.5790     4.3450     0.3500 O.3   1 <1>  -0.5600 
 20 C        9.5140     5.2270    -0.1810 C.3   1 <1>   0.0400 
 21 H        2.5550     0.8670     0.8720 H     1 <1>   0.3700 
 22 H        1.4610     2.0200    -1.5410 H     1 <1>   0.0800 
 23 H        2.9680    -0.8800     2.0420 H     1 <1>   0.1500 
 24 H        0.9610     3.3120     1.1590 H     1 <1>   0.0800 
 25 H       -0.2710     2.6360     0.1050 H     1 <1>   0.0800 
 26 H        0.6320     4.0430    -0.3930 H     1 <1>   0.0800 
 27 H        1.2090    -4.6240     1.0430 H     1 <1>   0.1500 
 28 H       -0.9560    -2.4250    -0.6360 H     1 <1>   0.0800 
 29 H       -0.2930    -4.0430    -0.7840 H     1 <1>   0.0800 
 30 H        0.3350    -2.7410    -1.7800 H     1 <1>   0.0800 
 31 H        2.9450    -3.4200     2.6820 H     1 <1>   0.1500 
 32 H        6.8300     2.4230     0.3190 H     1 <1>   0.0800 
 33 H        6.3300     3.6400     1.4700 H     1 <1>   0.0800 
 34 H        6.9410     5.4190    -0.1320 H     1 <1>   0.0800 
 35 H        7.4320     4.1930    -1.3010 H     1 <1>   0.0800 
 36 H       10.4400     5.0920     0.3490 H     1 <1>   0.0800 
 37 H        9.1660     6.2370    -0.0500 H     1 <1>   0.0800 
 38 H        9.6580     5.0070    -1.2250 H     1 <1>   0.0800 
@<TRIPOS>BOND
  1   1   2  2   
  2   2   3  am  
  3   2   4  1   
  4   3   5  1   
  5   3  21  1   
  6   4   6  1   
  7   4   7  2   
  8   5   8  1   
  9   5   9  1   
 10   5  22  1   
 11   6  10  1   
 12   6  11  1   
 13   7  12  1   
 14   7  23  1   
 15   8  13  1   
 16   8  14  2   
 17   9  24  1   
 18   9  25  1   
 19   9  26  1   
 20  10  12  2   
 21  10  27  1   
 22  11  28  1   
 23  11  29  1   
 24  11  30  1   
 25  12  31  1   
 26  13  15  1   
 27  14  16  1   
 28  15  16  2   
 29  16  17  1   
 30  17  18  1   
 31  17  32  1   
 32  17  33  1   
 33  18  19  1   
 34  18  34  1   
 35  18  35  1   
 36  19  20  1   
 37  20  36  1   
 38  20  37  1   
 39  20  38  1   
@<TRIPOS>SUBSTRUCTURE
  1 ****  14 GROUP 4 **** **** 0

# MOE 2024.06 (io_trps.svl 2023.06)
