@<TRIPOS>MOLECULE
NONAME
53 55 1 0 0 
SMALL
USER_CHARGES


@<TRIPOS>ATOM
  1 F        6.0350    -0.4670    -1.6500 F     1 <1>  -0.3400 
  2 C        4.7170    -0.3880    -1.5220 C.3   1 <1>   1.1640 
  3 F        4.2120    -0.5930    -2.7330 F     1 <1>  -0.3400 
  4 F        4.4430     0.8740    -1.2140 F     1 <1>  -0.3400 
  5 C        4.1770    -1.4020    -0.4970 C.ar  1 <1>  -0.1440 
  6 C        4.0460    -2.7460    -0.8340 C.ar  1 <1>  -0.1500 
  7 C        3.8140    -1.0100     0.7850 C.ar  1 <1>  -0.1500 
  8 C        3.5690    -3.6830     0.0740 C.ar  1 <1>  -0.1440 
  9 C        3.3380    -1.9350     1.6950 C.ar  1 <1>  -0.1500 
 10 C        3.2140    -3.2710     1.3560 C.ar  1 <1>  -0.1430 
 11 C        3.4630    -5.1350    -0.3820 C.3   1 <1>   0.4870 
 12 C        2.6810    -4.2230     2.4220 C.3   1 <1>  -0.0970 
 13 N        2.0580    -5.5910    -0.4860 N.4   1 <1>  -0.9590 
 14 C        1.9280    -6.9470    -1.1350 C.3   1 <1>   0.3430 
 15 C        1.0760    -4.6110    -1.0130 C.3   1 <1>   0.3430 
 16 C        0.4680    -7.2960    -1.5330 C.3   1 <1>   0.2000 
 17 C       -0.3500    -5.0740    -0.6640 C.3   1 <1>  -0.1600 
 18 O        0.2400    -6.8470    -2.8370 O.3   1 <1>  -0.6800 
 19 C       -0.5240    -6.6260    -0.5590 C.3   1 <1>  -0.1060 
 20 C       -0.0880    -7.1790     0.8060 C.2   1 <1>   0.9060 
 21 C       -1.9910    -7.0400    -0.8480 C.3   1 <1>  -0.0170 
 22 O        0.5720    -6.4590     1.5710 O.co2 1 <1>  -0.9000 
 23 O       -0.1870    -8.3900     1.0000 O.co2 1 <1>  -0.9000 
 24 C       -3.0060    -6.3020     0.0190 C.ar  1 <1>  -0.1430 
 25 C       -3.2050    -6.6820     1.3370 C.ar  1 <1>  -0.1500 
 26 C       -3.7450    -5.2480    -0.4990 C.ar  1 <1>  -0.1500 
 27 C       -4.1220    -6.0150     2.1290 C.ar  1 <1>  -0.1500 
 28 C       -4.6640    -4.5800     0.2910 C.ar  1 <1>  -0.1500 
 29 C       -4.8530    -4.9630     1.6070 C.ar  1 <1>  -0.1500 
 30 H        4.3260    -3.0620    -1.8260 H     1 <1>   0.1500 
 31 H        3.9000     0.0210     1.0910 H     1 <1>   0.1500 
 32 H        3.0610    -1.6040     2.6820 H     1 <1>   0.1500 
 33 H        3.9930    -5.7640     0.3130 H     1 <1>   0.0800 
 34 H        3.9370    -5.2300    -1.3450 H     1 <1>   0.0800 
 35 H        2.9890    -3.9010     3.4000 H     1 <1>   0.0800 
 36 H        3.0350    -5.2280     2.2870 H     1 <1>   0.0800 
 37 H        1.6060    -4.2330     2.3990 H     1 <1>   0.0800 
 38 H        1.7110    -5.7490     0.4970 H     1 <1>   0.4500 
 39 H        2.5450    -7.0090    -2.0140 H     1 <1>   0.0800 
 40 H        2.2630    -7.6900    -0.4290 H     1 <1>   0.0800 
 41 H        1.2430    -3.6340    -0.5890 H     1 <1>   0.0800 
 42 H        1.1810    -4.5460    -2.0840 H     1 <1>   0.0800 
 43 H        0.3470    -8.3670    -1.5320 H     1 <1>   0.0800 
 44 H       -0.6540    -4.6170     0.2630 H     1 <1>   0.0800 
 45 H       -1.0010    -4.6830    -1.4240 H     1 <1>   0.0800 
 46 H       -0.6360    -7.1570    -3.1430 H     1 <1>   0.4000 
 47 H       -2.2280    -6.8520    -1.8780 H     1 <1>   0.0800 
 48 H       -2.1080    -8.0990    -0.6880 H     1 <1>   0.0800 
 49 H       -2.6410    -7.5010     1.7560 H     1 <1>   0.1500 
 50 H       -3.6090    -4.9410    -1.5200 H     1 <1>   0.1500 
 51 H       -4.2620    -6.3180     3.1520 H     1 <1>   0.1500 
 52 H       -5.2320    -3.7630    -0.1170 H     1 <1>   0.1500 
 53 H       -5.5650    -4.4440     2.2240 H     1 <1>   0.1500 
@<TRIPOS>BOND
  1   1   2  1   
  2   2   3  1   
  3   2   4  1   
  4   2   5  1   
  5   5   6  ar  
  6   5   7  ar  
  7   6   8  ar  
  8   6  30  1   
  9   7   9  ar  
 10   7  31  1   
 11   8  10  ar  
 12   8  11  1   
 13   9  10  ar  
 14   9  32  1   
 15  10  12  1   
 16  11  13  1   
 17  11  33  1   
 18  11  34  1   
 19  12  35  1   
 20  12  36  1   
 21  12  37  1   
 22  13  14  1   
 23  13  15  1   
 24  13  38  1   
 25  14  16  1   
 26  14  39  1   
 27  14  40  1   
 28  15  17  1   
 29  15  41  1   
 30  15  42  1   
 31  16  18  1   
 32  16  19  1   
 33  16  43  1   
 34  17  19  1   
 35  17  44  1   
 36  17  45  1   
 37  18  46  1   
 38  19  20  1   
 39  19  21  1   
 40  20  22  ar  
 41  20  23  ar  
 42  21  24  1   
 43  21  47  1   
 44  21  48  1   
 45  24  25  ar  
 46  24  26  ar  
 47  25  27  ar  
 48  25  49  1   
 49  26  28  ar  
 50  26  50  1   
 51  27  29  ar  
 52  27  51  1   
 53  28  29  ar  
 54  28  52  1   
 55  29  53  1   
@<TRIPOS>SUBSTRUCTURE
  1 ****  15 GROUP 4 **** **** 0

# MOE 2024.06 (io_trps.svl 2023.06)
