@<TRIPOS>MOLECULE
NONAME
53 56 1 0 0 
SMALL
USER_CHARGES


@<TRIPOS>ATOM
  1 F       -1.6510    -0.3890    -0.4640 F     1 <1>  -0.1900 
  2 C       -1.2570    -1.6350    -0.5480 C.ar  1 <1>   0.1900 
  3 C        0.0520    -1.9340    -0.8860 C.ar  1 <1>   0.1900 
  4 C       -2.1690    -2.6400    -0.2930 C.ar  1 <1>  -0.1500 
  5 F        0.9130    -0.9740    -1.1270 F     1 <1>  -0.1900 
  6 C        0.4760    -3.2470    -0.9740 C.ar  1 <1>  -0.1500 
  7 C       -1.7620    -3.9670    -0.3790 C.ar  1 <1>   0.1000 
  8 C       -0.4380    -4.2580    -0.7170 C.ar  1 <1>  -0.1500 
  9 N       -2.6810    -4.9780    -0.1180 N.pl3 1 <1>  -0.8380 
 10 C       -2.8290    -5.3850     1.2940 C.3   1 <1>   0.2090 
 11 C       -2.8210    -6.0640    -1.1110 C.3   1 <1>   0.2090 
 12 C       -4.2430    -5.9320     1.4680 C.3   1 <1>  -0.1600 
 13 C       -4.2340    -6.6260    -0.9830 C.3   1 <1>  -0.1600 
 14 C       -4.5130    -7.0550     0.4630 C.3   1 <1>   0.4230 
 15 N       -5.9290    -7.4550     0.6010 N.4   1 <1>  -0.9060 
 16 C       -6.3190    -8.7290    -0.0620 C.3   1 <1>   0.4230 
 17 C       -7.8280    -8.9020     0.0900 C.3   1 <1>  -0.0800 
 18 C       -5.8170    -9.8910     0.7880 C.3   1 <1>   0.1200 
 19 C       -7.9610    -9.5940     1.4600 C.3   1 <1>   0.1200 
 20 C       -8.4230    -9.7550    -1.0490 C.3   1 <1>  -0.0160 
 21 O       -6.6550    -9.8410     1.8920 O.3   1 <1>  -0.5600 
 22 C       -9.9260    -9.9070    -0.8870 C.ar  1 <1>  -0.1430 
 23 C      -10.4980   -11.0720    -0.4140 C.ar  1 <1>  -0.1500 
 24 C      -10.8000    -8.8870    -1.2080 C.ar  1 <1>  -0.1500 
 25 C      -11.8740   -11.1540    -0.2760 C.ar  1 <1>   0.1600 
 26 C      -12.1620    -9.0720    -1.0330 C.ar  1 <1>   0.1600 
 27 N      -12.7170   -10.1780    -0.5700 N.ar  1 <1>  -0.6200 
 28 H       -3.1830    -2.4010    -0.0350 H     1 <1>   0.1500 
 29 H        1.4960    -3.4670    -1.2350 H     1 <1>   0.1500 
 30 H       -0.1200    -5.2820    -0.7740 H     1 <1>   0.1500 
 31 H       -2.0910    -6.1310     1.5370 H     1 <1>   0.0800 
 32 H       -2.6780    -4.5330     1.9380 H     1 <1>   0.0800 
 33 H       -2.6640    -5.6710    -2.1030 H     1 <1>   0.0800 
 34 H       -2.0840    -6.8270    -0.9220 H     1 <1>   0.0800 
 35 H       -4.9310    -5.1190     1.3210 H     1 <1>   0.0800 
 36 H       -4.3470    -6.2980     2.4730 H     1 <1>   0.0800 
 37 H       -4.3240    -7.4590    -1.6540 H     1 <1>   0.0800 
 38 H       -4.9230    -5.8570    -1.2880 H     1 <1>   0.0800 
 39 H       -3.8700    -7.8860     0.7080 H     1 <1>   0.0800 
 40 H       -6.5250    -6.6830     0.2890 H     1 <1>   0.4500 
 41 H       -6.1300    -7.6100     1.6020 H     1 <1>   0.4500 
 42 H       -5.9890    -8.7700    -1.0870 H     1 <1>   0.0800 
 43 H       -8.3390    -7.9550     0.0970 H     1 <1>   0.0800 
 44 H       -4.7930    -9.7970     1.1030 H     1 <1>   0.0800 
 45 H       -5.9600   -10.8390     0.2950 H     1 <1>   0.0800 
 46 H       -8.4790   -10.5370     1.4010 H     1 <1>   0.0800 
 47 H       -8.4500    -8.9670     2.1880 H     1 <1>   0.0800 
 48 H       -7.9670   -10.7310    -1.0740 H     1 <1>   0.0800 
 49 H       -8.2300    -9.2850    -1.9990 H     1 <1>   0.0800 
 50 H       -9.8970   -11.9230    -0.1500 H     1 <1>   0.1500 
 51 H      -10.4450    -7.9510    -1.5950 H     1 <1>   0.1500 
 52 H      -12.3040   -12.0690     0.0950 H     1 <1>   0.1500 
 53 H      -12.8320    -8.2670    -1.2890 H     1 <1>   0.1500 
@<TRIPOS>BOND
  1   1   2  1   
  2   2   3  ar  
  3   2   4  ar  
  4   3   5  1   
  5   3   6  ar  
  6   4   7  ar  
  7   4  28  1   
  8   6   8  ar  
  9   6  29  1   
 10   7   8  ar  
 11   7   9  1   
 12   8  30  1   
 13   9  10  1   
 14   9  11  1   
 15  10  12  1   
 16  10  31  1   
 17  10  32  1   
 18  11  13  1   
 19  11  33  1   
 20  11  34  1   
 21  12  14  1   
 22  12  35  1   
 23  12  36  1   
 24  13  14  1   
 25  13  37  1   
 26  13  38  1   
 27  14  15  1   
 28  14  39  1   
 29  15  16  1   
 30  15  40  1   
 31  15  41  1   
 32  16  17  1   
 33  16  18  1   
 34  16  42  1   
 35  17  19  1   
 36  17  20  1   
 37  17  43  1   
 38  18  21  1   
 39  18  44  1   
 40  18  45  1   
 41  19  21  1   
 42  19  46  1   
 43  19  47  1   
 44  20  22  1   
 45  20  48  1   
 46  20  49  1   
 47  22  23  ar  
 48  22  24  ar  
 49  23  25  ar  
 50  23  50  1   
 51  24  26  ar  
 52  24  51  1   
 53  25  27  ar  
 54  25  52  1   
 55  26  27  ar  
 56  26  53  1   
@<TRIPOS>SUBSTRUCTURE
  1 ****  14 GROUP 4 **** **** 0

# MOE 2024.06 (io_trps.svl 2023.06)
