@<TRIPOS>MOLECULE
NONAME
52 55 1 0 0 
SMALL
USER_CHARGES


@<TRIPOS>ATOM
  1 O       -1.5050    -0.3520    -0.3270 O.2   1 <1>  -0.5700 
  2 C       -2.0730     0.6990    -0.5310 C.2   1 <1>   0.6900 
  3 N       -1.6790     1.5800    -1.5270 N.am  1 <1>  -0.4690 
  4 N       -3.1360     1.0420     0.2360 N.am  1 <1>  -0.4900 
  5 C       -2.3560     2.7660    -1.7170 C.2   1 <1>  -0.0410 
  6 C       -0.5290     1.2180    -2.3960 C.3   1 <1>   0.0600 
  7 C       -3.8420     2.1970     0.0780 C.2   1 <1>   0.6160 
  8 C       -3.4230     3.1220    -0.9380 C.2   1 <1>   0.0290 
  9 O       -4.7900     2.3530     0.8220 O.2   1 <1>  -0.5700 
 10 C       -4.1190     4.3620    -1.1410 C.2   1 <1>   0.6160 
 11 O       -4.1830     4.8160    -2.2690 O.2   1 <1>  -0.5700 
 12 N       -4.6500     5.1090    -0.1170 N.am  1 <1>  -0.6600 
 13 C       -6.1350     5.2510     0.0750 C.3   1 <1>   0.2200 
 14 C       -3.8090     5.4530     1.0690 C.3   1 <1>   0.1400 
 15 C       -6.5610     6.6200     0.6830 C.3   1 <1>   0.1380 
 16 C       -7.0140     4.9040    -1.1380 C.3   1 <1>  -0.1600 
 17 C       -4.6430     5.9210     2.2710 C.3   1 <1>  -0.1600 
 18 C       -6.5540     7.7980    -0.3410 C.2   1 <1>  -0.2760 
 19 C       -7.9920     6.3300     1.2330 C.3   1 <1>   0.1200 
 20 C       -5.6380     7.0240     1.8690 C.3   1 <1>  -0.1600 
 21 C       -8.4580     5.3870    -0.9220 C.3   1 <1>   0.1200 
 22 C       -7.5360     8.6910    -0.5380 C.2   1 <1>  -0.2880 
 23 C       -5.2900     7.9410    -1.1950 C.3   1 <1>  -0.0220 
 24 O       -8.7510     5.4370     0.4440 O.3   1 <1>  -0.5600 
 25 C       -7.4850     9.8130    -1.5690 C.3   1 <1>   0.2580 
 26 C       -5.2130     9.3140    -1.8730 C.3   1 <1>   0.1200 
 27 O       -6.4370     9.6140    -2.4690 O.3   1 <1>  -0.5600 
 28 H       -3.4390     0.3840     0.9450 H     1 <1>   0.3700 
 29 H       -2.0180     3.4150    -2.5100 H     1 <1>   0.1500 
 30 H       -0.3440     1.9900    -3.1220 H     1 <1>   0.0800 
 31 H       -0.7430     0.2960    -2.9080 H     1 <1>   0.0800 
 32 H        0.3510     1.0840    -1.7910 H     1 <1>   0.0800 
 33 H       -6.3880     4.5070     0.8130 H     1 <1>   0.0800 
 34 H       -3.2180     4.6030     1.3620 H     1 <1>   0.0800 
 35 H       -3.1340     6.2420     0.7830 H     1 <1>   0.0800 
 36 H       -7.0160     3.8390    -1.2820 H     1 <1>   0.0800 
 37 H       -6.6480     5.3650    -2.0350 H     1 <1>   0.0800 
 38 H       -5.1680     5.0790     2.6890 H     1 <1>   0.0800 
 39 H       -3.9820     6.2940     3.0330 H     1 <1>   0.0800 
 40 H       -8.5640     7.2240     1.3830 H     1 <1>   0.0800 
 41 H       -7.9070     5.8540     2.1940 H     1 <1>   0.0800 
 42 H       -5.0690     7.8970     1.6050 H     1 <1>   0.0800 
 43 H       -6.2250     7.3030     2.7260 H     1 <1>   0.0800 
 44 H       -9.1560     4.7150    -1.3890 H     1 <1>   0.0800 
 45 H       -8.6040     6.3700    -1.3350 H     1 <1>   0.0800 
 46 H       -8.4640     8.7170    -0.0010 H     1 <1>   0.1500 
 47 H       -5.2760     7.1890    -1.9610 H     1 <1>   0.0800 
 48 H       -4.4050     7.8170    -0.6020 H     1 <1>   0.0800 
 49 H       -7.3470    10.7660    -1.0890 H     1 <1>   0.0800 
 50 H       -8.3940     9.8350    -2.1420 H     1 <1>   0.0800 
 51 H       -4.4610     9.3110    -2.6420 H     1 <1>   0.0800 
 52 H       -4.9840    10.0840    -1.1560 H     1 <1>   0.0800 
@<TRIPOS>BOND
  1   1   2  2   
  2   2   3  am  
  3   2   4  am  
  4   3   5  1   
  5   3   6  1   
  6   4   7  am  
  7   4  28  1   
  8   5   8  2   
  9   5  29  1   
 10   6  30  1   
 11   6  31  1   
 12   6  32  1   
 13   7   8  1   
 14   7   9  2   
 15   8  10  1   
 16  10  11  2   
 17  10  12  am  
 18  12  13  1   
 19  12  14  1   
 20  13  15  1   
 21  13  16  1   
 22  13  33  1   
 23  14  17  1   
 24  14  34  1   
 25  14  35  1   
 26  15  18  1   
 27  15  19  1   
 28  15  20  1   
 29  16  21  1   
 30  16  36  1   
 31  16  37  1   
 32  17  20  1   
 33  17  38  1   
 34  17  39  1   
 35  18  22  2   
 36  18  23  1   
 37  19  24  1   
 38  19  40  1   
 39  19  41  1   
 40  20  42  1   
 41  20  43  1   
 42  21  24  1   
 43  21  44  1   
 44  21  45  1   
 45  22  25  1   
 46  22  46  1   
 47  23  26  1   
 48  23  47  1   
 49  23  48  1   
 50  25  27  1   
 51  25  49  1   
 52  25  50  1   
 53  26  27  1   
 54  26  51  1   
 55  26  52  1   
@<TRIPOS>SUBSTRUCTURE
  1 ****  12 GROUP 4 **** **** 0

# MOE 2024.06 (io_trps.svl 2023.06)
