@<TRIPOS>MOLECULE
NONAME
42 44 1 0 0 
SMALL
USER_CHARGES


@<TRIPOS>ATOM
  1 O        2.8700    -0.0120    -2.0250 O.3   1 <1>  -0.2800 
  2 C        2.1380     0.9130    -1.4430 C.2   1 <1>  -0.0100 
  3 C        3.7420    -0.4550    -1.1410 C.2   1 <1>  -0.0100 
  4 C        2.5590     1.1170    -0.1760 C.2   1 <1>  -0.1810 
  5 C        3.6060     0.2050     0.0280 C.2   1 <1>  -0.1500 
  6 C        2.0700     2.1340     0.8350 C.3   1 <1>   0.3900 
  7 N        3.1080     3.1780     1.1400 N.pl3 1 <1>  -0.8380 
  8 C        4.0410     3.7240     0.2980 C.ar  1 <1>   0.7710 
  9 C        2.8980     3.7670     2.5080 C.3   1 <1>   0.1290 
 10 N        4.6250     4.8610     0.6540 N.ar  1 <1>  -0.6200 
 11 N        4.3610     3.1230    -0.8660 N.ar  1 <1>  -0.1790 
 12 C        5.5260     5.4040    -0.1440 C.ar  1 <1>   0.4100 
 13 C        5.2590     3.6500    -1.7290 C.ar  1 <1>   0.2110 
 14 N        6.1220     6.5550     0.2670 N.pl3 1 <1>  -0.8380 
 15 C        5.8550     4.8120    -1.3780 C.ar  1 <1>  -0.1500 
 16 C        7.5210     6.9640    -0.0900 C.3   1 <1>   0.2090 
 17 C        5.4640     7.5100     1.2100 C.3   1 <1>   0.2090 
 18 C        7.5220     8.3640    -0.7260 C.3   1 <1>   0.2000 
 19 C        5.4390     8.9120     0.5870 C.3   1 <1>  -0.1600 
 20 O        8.8250     8.7730    -0.9530 O.3   1 <1>  -0.6800 
 21 C        6.8410     9.3970     0.1790 C.3   1 <1>  -0.1600 
 22 H        1.3470     1.3760    -2.0130 H     1 <1>   0.1500 
 23 H        4.4160    -1.2470    -1.4270 H     1 <1>   0.1500 
 24 H        4.1610     0.0710     0.9430 H     1 <1>   0.1500 
 25 H        1.8040     1.6050     1.7360 H     1 <1>   0.0800 
 26 H        1.1800     2.6190     0.4670 H     1 <1>   0.0800 
 27 H        2.6190     3.0030     3.2140 H     1 <1>   0.0800 
 28 H        2.1190     4.5100     2.4720 H     1 <1>   0.0800 
 29 H        3.7970     4.2320     2.8790 H     1 <1>   0.0800 
 30 H        3.9060     2.2250    -1.0350 H     1 <1>   0.4570 
 31 H        5.4660     3.1350    -2.6540 H     1 <1>   0.1500 
 32 H        6.5610     5.2940    -2.0260 H     1 <1>   0.1500 
 33 H        7.9760     6.2610    -0.7620 H     1 <1>   0.0800 
 34 H        8.1070     6.9860     0.8130 H     1 <1>   0.0800 
 35 H        6.0110     7.5260     2.1380 H     1 <1>   0.0800 
 36 H        4.4540     7.2060     1.4260 H     1 <1>   0.0800 
 37 H        7.0280     8.3190    -1.6810 H     1 <1>   0.0800 
 38 H        5.0110     9.6030     1.2910 H     1 <1>   0.0800 
 39 H        4.7980     8.8910    -0.2770 H     1 <1>   0.0800 
 40 H        9.2470     9.0480    -0.1170 H     1 <1>   0.4000 
 41 H        6.7590    10.3350    -0.3430 H     1 <1>   0.0800 
 42 H        7.4280     9.5450     1.0690 H     1 <1>   0.0800 
@<TRIPOS>BOND
  1   1   2  1   
  2   1   3  1   
  3   2   4  2   
  4   2  22  1   
  5   3   5  2   
  6   3  23  1   
  7   4   5  1   
  8   4   6  1   
  9   5  24  1   
 10   6   7  1   
 11   6  25  1   
 12   6  26  1   
 13   7   8  1   
 14   7   9  1   
 15   8  10  ar  
 16   8  11  ar  
 17   9  27  1   
 18   9  28  1   
 19   9  29  1   
 20  10  12  ar  
 21  11  13  ar  
 22  11  30  1   
 23  12  14  1   
 24  12  15  ar  
 25  13  15  ar  
 26  13  31  1   
 27  14  16  1   
 28  14  17  1   
 29  15  32  1   
 30  16  18  1   
 31  16  33  1   
 32  16  34  1   
 33  17  19  1   
 34  17  35  1   
 35  17  36  1   
 36  18  20  1   
 37  18  21  1   
 38  18  37  1   
 39  19  21  1   
 40  19  38  1   
 41  19  39  1   
 42  20  40  1   
 43  21  41  1   
 44  21  42  1   
@<TRIPOS>SUBSTRUCTURE
  1 ****  10 GROUP 4 **** **** 0

# MOE 2024.06 (io_trps.svl 2023.06)
