@<TRIPOS>MOLECULE
NONAME
38 40 1 0 0 
SMALL
USER_CHARGES


@<TRIPOS>ATOM
  1 F       -0.7570    -1.1830     1.5570 F     1 <1>  -0.3400 
  2 C        0.1270    -1.5560     0.6440 C.3   1 <1>   1.1640 
  3 F        1.3180    -1.1800     1.0960 F     1 <1>  -0.3400 
  4 F       -0.1100    -0.8310    -0.4390 F     1 <1>  -0.3400 
  5 C        0.0590    -3.0680     0.3540 C.ar  1 <1>  -0.1440 
  6 C        1.1380    -3.9120     0.5060 C.ar  1 <1>  -0.1500 
  7 C       -1.1420    -3.6230    -0.1020 C.ar  1 <1>  -0.1500 
  8 C        1.0460    -5.2860     0.2320 C.ar  1 <1>   0.3610 
  9 C       -1.2510    -4.9680    -0.3470 C.ar  1 <1>  -0.1500 
 10 N        2.1770    -6.0680     0.2600 N.ar  1 <1>  -0.1790 
 11 C       -0.1890    -5.8660    -0.1250 C.ar  1 <1>   0.0000 
 12 C        2.1520    -7.3730    -0.0530 C.ar  1 <1>   0.2180 
 13 C       -0.2640    -7.2940    -0.2840 C.ar  1 <1>   0.1000 
 14 C        0.9570    -7.9780    -0.3320 C.ar  1 <1>  -0.1500 
 15 C        3.4620    -8.1440    -0.0720 C.3   1 <1>  -0.0970 
 16 N       -1.4240    -8.0080    -0.3350 N.pl3 1 <1>  -0.8380 
 17 C       -1.5000    -9.4770    -0.6480 C.3   1 <1>   0.2090 
 18 C       -2.7540    -7.6000     0.2060 C.3   1 <1>   0.2090 
 19 C       -2.9490    -9.8870    -0.4610 C.3   1 <1>  -0.1860 
 20 C       -3.4620    -8.8930     0.5770 C.3   1 <1>  -0.1600 
 21 C       -3.0700   -11.3490    -0.0810 C.2   1 <1>   0.9060 
 22 O       -4.0990   -11.7320     0.4830 O.co2 1 <1>  -0.9000 
 23 O       -2.1390   -12.1140    -0.3590 O.co2 1 <1>  -0.9000 
 24 H        2.0840    -3.5140     0.8320 H     1 <1>   0.1500 
 25 H       -1.9940    -2.9800    -0.2700 H     1 <1>   0.1500 
 26 H       -2.1790    -5.3370    -0.7370 H     1 <1>   0.1500 
 27 H        3.0640    -5.6190     0.4920 H     1 <1>   0.4570 
 28 H        0.9620    -9.0260    -0.5640 H     1 <1>   0.1500 
 29 H        4.1380    -7.7210    -0.7940 H     1 <1>   0.0800 
 30 H        3.2920    -9.1730    -0.3380 H     1 <1>   0.0800 
 31 H        3.9240    -8.1240     0.8990 H     1 <1>   0.0800 
 32 H       -0.8890   -10.0220     0.0530 H     1 <1>   0.0800 
 33 H       -1.1710    -9.6880    -1.6510 H     1 <1>   0.0800 
 34 H       -3.3200    -7.1140    -0.5690 H     1 <1>   0.0800 
 35 H       -2.6540    -6.9530     1.0610 H     1 <1>   0.0800 
 36 H       -3.4710    -9.7490    -1.3880 H     1 <1>   0.0800 
 37 H       -4.5330    -8.8030     0.5510 H     1 <1>   0.0800 
 38 H       -3.1590    -9.2040     1.5620 H     1 <1>   0.0800 
@<TRIPOS>BOND
  1   1   2  1   
  2   2   3  1   
  3   2   4  1   
  4   2   5  1   
  5   5   6  ar  
  6   5   7  ar  
  7   6   8  ar  
  8   6  24  1   
  9   7   9  ar  
 10   7  25  1   
 11   8  10  ar  
 12   8  11  ar  
 13   9  11  ar  
 14   9  26  1   
 15  10  12  ar  
 16  10  27  1   
 17  11  13  ar  
 18  12  14  ar  
 19  12  15  1   
 20  13  14  ar  
 21  13  16  1   
 22  14  28  1   
 23  15  29  1   
 24  15  30  1   
 25  15  31  1   
 26  16  17  1   
 27  16  18  1   
 28  17  19  1   
 29  17  32  1   
 30  17  33  1   
 31  18  20  1   
 32  18  34  1   
 33  18  35  1   
 34  19  20  1   
 35  19  21  1   
 36  19  36  1   
 37  20  37  1   
 38  20  38  1   
 39  21  22  ar  
 40  21  23  ar  
@<TRIPOS>SUBSTRUCTURE
  1 ****  11 GROUP 4 **** **** 0

# MOE 2024.06 (io_trps.svl 2023.06)
