@<TRIPOS>MOLECULE
NONAME
36 37 1 0 0 
SMALL
USER_CHARGES


@<TRIPOS>ATOM
  1 O        1.0580    -0.8220    -2.4660 O.2   1 <1>  -0.5700 
  2 C        1.2870    -0.9550    -1.2890 C.2   1 <1>   0.5690 
  3 N        1.7010     0.0600    -0.4740 N.am  1 <1>  -0.4930 
  4 C        1.1170    -2.3460    -0.7200 C.3   1 <1>   0.1570 
  5 C        2.0360     1.4070    -0.7640 C.2   1 <1>   0.0630 
  6 N        0.5450    -2.2780     0.6280 N.pl3 1 <1>   0.3140 
  7 C        1.4850     2.3160    -1.6760 C.2   1 <1>   0.1080 
  8 C        3.0080     2.1030    -0.1330 C.2   1 <1>  -0.3320 
  9 N        1.2690    -2.0180     1.6960 N.2   1 <1>  -0.4180 
 10 C       -0.7080    -2.4030     1.0170 C.2   1 <1>   0.0360 
 11 N        2.0680     3.4730    -1.6250 N.2   1 <1>  -0.7070 
 12 C        0.3330     2.0710    -2.6250 C.3   1 <1>  -0.0590 
 13 N        3.0100     3.3470    -0.6760 N.pl3 1 <1>   0.3140 
 14 C        3.9530     1.6510     0.9730 C.3   1 <1>  -0.0600 
 15 N        0.4530    -1.9980     2.6880 N.2   1 <1>   0.0000 
 16 N       -0.7890    -2.2360     2.2800 N.2   1 <1>  -0.3380 
 17 C        3.8930     4.4820    -0.3330 C.3   1 <1>   0.0960 
 18 C        3.2980     5.3180     0.8090 C.3   1 <1>  -0.1600 
 19 C        4.2120     6.4910     1.1790 C.3   1 <1>  -0.2400 
 20 H        1.8570    -0.1820     0.5100 H     1 <1>   0.3700 
 21 H        2.0730    -2.8310    -0.6710 H     1 <1>   0.0800 
 22 H        0.4660    -2.9180    -1.3520 H     1 <1>   0.0800 
 23 H       -1.5310    -2.6100     0.3580 H     1 <1>   0.1500 
 24 H       -0.3980     1.4350    -2.1650 H     1 <1>   0.0800 
 25 H        0.7000     1.6060    -3.5210 H     1 <1>   0.0800 
 26 H       -0.1310     3.0050    -2.8830 H     1 <1>   0.0800 
 27 H        3.7710     0.6260     1.2400 H     1 <1>   0.0800 
 28 H        3.8160     2.2580     1.8500 H     1 <1>   0.0800 
 29 H        4.9740     1.7360     0.6440 H     1 <1>   0.0800 
 30 H        4.0050     5.0900    -1.2120 H     1 <1>   0.0800 
 31 H        4.8580     4.0990    -0.0590 H     1 <1>   0.0800 
 32 H        3.1520     4.6950     1.6750 H     1 <1>   0.0800 
 33 H        2.3390     5.6980     0.5000 H     1 <1>   0.0800 
 34 H        5.1730     6.1350     1.5070 H     1 <1>   0.0800 
 35 H        3.7690     7.0640     1.9760 H     1 <1>   0.0800 
 36 H        4.3520     7.1400     0.3320 H     1 <1>   0.0800 
@<TRIPOS>BOND
  1   1   2  2   
  2   2   3  am  
  3   2   4  1   
  4   3   5  1   
  5   3  20  1   
  6   4   6  1   
  7   4  21  1   
  8   4  22  1   
  9   5   7  1   
 10   5   8  2   
 11   6   9  1   
 12   6  10  1   
 13   7  11  2   
 14   7  12  1   
 15   8  13  1   
 16   8  14  1   
 17   9  15  2   
 18  10  16  2   
 19  10  23  1   
 20  11  13  1   
 21  12  24  1   
 22  12  25  1   
 23  12  26  1   
 24  13  17  1   
 25  14  27  1   
 26  14  28  1   
 27  14  29  1   
 28  15  16  1   
 29  17  18  1   
 30  17  30  1   
 31  17  31  1   
 32  18  19  1   
 33  18  32  1   
 34  18  33  1   
 35  19  34  1   
 36  19  35  1   
 37  19  36  1   
@<TRIPOS>SUBSTRUCTURE
  1 ****   5 GROUP 4 **** **** 0

# MOE 2024.06 (io_trps.svl 2023.06)
