@<TRIPOS>MOLECULE
NONAME
46 48 1 0 0 
SMALL
USER_CHARGES


@<TRIPOS>ATOM
  1 O       -2.0940     1.1150     1.8570 O.2   1 <1>  -0.5700 
  2 C       -1.5560     1.6750     0.9160 C.2   1 <1>   0.5440 
  3 N       -0.9450     0.8760    -0.0440 N.am  1 <1>  -0.6600 
  4 C       -1.6130     3.1370     0.8490 C.ar  1 <1>   0.3960 
  5 C       -0.7190    -0.5820     0.1740 C.3   1 <1>   0.0600 
  6 C       -0.5000     1.3740    -1.3740 C.3   1 <1>   0.0600 
  7 N       -0.5890     3.8510     0.3500 N.ar  1 <1>  -0.6200 
  8 C       -2.7670     3.7620     1.3320 C.ar  1 <1>   0.1600 
  9 C       -0.7890     5.1610     0.3650 C.ar  1 <1>   0.4100 
 10 N       -2.9920     5.0690     1.3450 N.ar  1 <1>  -0.6200 
 11 N        0.2170     5.9780    -0.1180 N.3   1 <1>  -0.5900 
 12 C       -1.9700     5.7380     0.8510 C.ar  1 <1>   0.1600 
 13 C        0.8600     5.6440    -1.4470 C.3   1 <1>   0.2450 
 14 C        1.5870     5.8550     0.5120 C.3   1 <1>   0.2450 
 15 C        2.2110     6.1270    -0.8780 C.3   1 <1>   0.2580 
 16 O        2.4200     7.5040    -1.1680 O.3   1 <1>  -0.3400 
 17 C        3.2520     8.2000    -0.3580 C.ar  1 <1>   0.0830 
 18 C        4.6290     7.9690    -0.3620 C.ar  1 <1>  -0.1440 
 19 C        2.6990     9.1680     0.4790 C.ar  1 <1>  -0.1430 
 20 C        5.4310     8.6780     0.5180 C.ar  1 <1>  -0.1500 
 21 C        5.2970     6.9860    -1.3130 C.3   1 <1>  -0.0970 
 22 C        3.5220     9.8650     1.3470 C.ar  1 <1>  -0.1500 
 23 C        1.2070     9.4720     0.4570 C.3   1 <1>  -0.0970 
 24 C        4.8820     9.6170     1.3720 C.ar  1 <1>  -0.1500 
 25 H       -0.8560    -0.8420     1.2090 H     1 <1>   0.0800 
 26 H        0.2860    -0.8420    -0.1100 H     1 <1>   0.0800 
 27 H       -1.4150    -1.1480    -0.4200 H     1 <1>   0.0800 
 28 H       -1.0920     2.2190    -1.6780 H     1 <1>   0.0800 
 29 H       -0.6100     0.6010    -2.1150 H     1 <1>   0.0800 
 30 H        0.5330     1.6690    -1.3200 H     1 <1>   0.0800 
 31 H       -3.5490     3.1360     1.7280 H     1 <1>   0.1500 
 32 H       -2.0440     6.8100     0.8180 H     1 <1>   0.1500 
 33 H        0.4820     6.2550    -2.2480 H     1 <1>   0.0000 
 34 H        0.8430     4.5890    -1.6600 H     1 <1>   0.0000 
 35 H        1.7780     4.8590     0.8700 H     1 <1>   0.0000 
 36 H        1.7710     6.6150     1.2480 H     1 <1>   0.0000 
 37 H        3.0580     5.5230    -1.1430 H     1 <1>   0.0000 
 38 H        6.4930     8.5070     0.5390 H     1 <1>   0.1500 
 39 H        4.7580     6.9340    -2.2420 H     1 <1>   0.0800 
 40 H        5.3320     6.0090    -0.8670 H     1 <1>   0.0800 
 41 H        6.3020     7.2990    -1.5320 H     1 <1>   0.0800 
 42 H        3.1090    10.6070     2.0080 H     1 <1>   0.1500 
 43 H        0.8510     9.5070    -0.5580 H     1 <1>   0.0800 
 44 H        1.0030    10.4220     0.9160 H     1 <1>   0.0800 
 45 H        0.6670     8.7100     0.9870 H     1 <1>   0.0800 
 46 H        5.5150    10.1610     2.0510 H     1 <1>   0.1500 
@<TRIPOS>BOND
  1   1   2  2   
  2   2   3  am  
  3   2   4  1   
  4   3   5  1   
  5   3   6  1   
  6   4   7  ar  
  7   4   8  ar  
  8   5  25  1   
  9   5  26  1   
 10   5  27  1   
 11   6  28  1   
 12   6  29  1   
 13   6  30  1   
 14   7   9  ar  
 15   8  10  ar  
 16   8  31  1   
 17   9  11  1   
 18   9  12  ar  
 19  10  12  ar  
 20  11  13  1   
 21  11  14  1   
 22  12  32  1   
 23  13  15  1   
 24  13  33  1   
 25  13  34  1   
 26  14  15  1   
 27  14  35  1   
 28  14  36  1   
 29  15  16  1   
 30  15  37  1   
 31  16  17  1   
 32  17  18  ar  
 33  17  19  ar  
 34  18  20  ar  
 35  18  21  1   
 36  19  22  ar  
 37  19  23  1   
 38  20  24  ar  
 39  20  38  1   
 40  21  39  1   
 41  21  40  1   
 42  21  41  1   
 43  22  24  ar  
 44  22  42  1   
 45  23  43  1   
 46  23  44  1   
 47  23  45  1   
 48  24  46  1   
@<TRIPOS>SUBSTRUCTURE
  1 ****  14 GROUP 4 **** **** 0

# MOE 2024.06 (io_trps.svl 2023.06)
