@<TRIPOS>MOLECULE
NONAME
48 51 1 0 0 
SMALL
USER_CHARGES


@<TRIPOS>ATOM
  1 S       -0.0400     0.1410    -2.0870 S.o2  1 <1>   1.4470 
  2 O       -0.3330    -0.8780    -3.0720 O.2   1 <1>  -0.6500 
  3 O        0.3500     1.4630    -2.5270 O.2   1 <1>  -0.6500 
  4 N       -1.4300     0.3250    -1.1330 N.am  1 <1>  -0.8490 
  5 C        1.1690    -0.5160    -0.9050 C.ar  1 <1>  -0.0090 
  6 C       -2.6210     0.5300    -1.9620 C.3   1 <1>   0.1960 
  7 C       -1.2920     1.4210    -0.1660 C.3   1 <1>   0.1960 
  8 C        2.3420     0.1740    -0.6130 C.ar  1 <1>  -0.1500 
  9 C        0.9400    -1.7240    -0.2540 C.ar  1 <1>  -0.1500 
 10 C       -3.8720     0.5030    -1.0840 C.3   1 <1>  -0.1600 
 11 C       -2.4890     1.4240     0.7840 C.3   1 <1>  -0.1600 
 12 C        3.2520    -0.3240     0.3020 C.ar  1 <1>   0.0830 
 13 C        1.8410    -2.2320     0.6680 C.ar  1 <1>  -0.1500 
 14 C       -3.8010     1.5690     0.0140 C.3   1 <1>   0.4180 
 15 O        4.3880     0.3760     0.5440 O.3   1 <1>  -0.3630 
 16 C        2.9960    -1.5300     0.9560 C.ar  1 <1>   0.0830 
 17 O       -3.7660     2.8450    -0.5770 O.3   1 <1>  -0.5600 
 18 C       -4.9820     1.4570     0.9740 C.2   1 <1>  -0.2880 
 19 C        5.4310    -0.3070     1.2140 C.3   1 <1>   0.1200 
 20 O        3.8580    -2.0290     1.8750 O.3   1 <1>  -0.3630 
 21 C       -4.9850     3.4060    -0.9770 C.3   1 <1>   0.1200 
 22 C       -5.9350     2.3840     1.1000 C.2   1 <1>  -0.2760 
 23 C        4.8610    -1.1540     2.3610 C.3   1 <1>   0.1200 
 24 C       -5.9010     3.6290     0.2340 C.3   1 <1>  -0.0220 
 25 C       -7.0920     2.3020     2.0800 C.3   1 <1>  -0.1020 
 26 H       -2.6980    -0.2570    -2.6940 H     1 <1>   0.0800 
 27 H       -2.5480     1.4710    -2.4850 H     1 <1>   0.0800 
 28 H       -1.2280     2.3670    -0.6820 H     1 <1>   0.0800 
 29 H       -0.3920     1.2920     0.4110 H     1 <1>   0.0800 
 30 H        2.5540     1.1090    -1.1020 H     1 <1>   0.1500 
 31 H        0.0380    -2.2720    -0.4730 H     1 <1>   0.1500 
 32 H       -3.9460    -0.4680    -0.6290 H     1 <1>   0.0800 
 33 H       -4.7500     0.6410    -1.6840 H     1 <1>   0.0800 
 34 H       -2.4010     2.2330     1.4860 H     1 <1>   0.0800 
 35 H       -2.4920     0.5040     1.3390 H     1 <1>   0.0800 
 36 H        1.6510    -3.1650     1.1670 H     1 <1>   0.1500 
 37 H       -4.9640     0.5510     1.5510 H     1 <1>   0.1500 
 38 H        6.1220     0.4270     1.5880 H     1 <1>   0.0800 
 39 H        5.9330    -0.9350     0.5000 H     1 <1>   0.0800 
 40 H       -5.4530     2.7460    -1.6860 H     1 <1>   0.0800 
 41 H       -4.7740     4.3420    -1.4630 H     1 <1>   0.0800 
 42 H        4.4180    -0.5210     3.1090 H     1 <1>   0.0800 
 43 H        5.6300    -1.7520     2.8140 H     1 <1>   0.0800 
 44 H       -6.8880     3.8630    -0.1230 H     1 <1>   0.0800 
 45 H       -5.5440     4.4640     0.8100 H     1 <1>   0.0800 
 46 H       -7.0670     3.1420     2.7510 H     1 <1>   0.0800 
 47 H       -7.0310     1.3990     2.6620 H     1 <1>   0.0800 
 48 H       -8.0280     2.3040     1.5520 H     1 <1>   0.0800 
@<TRIPOS>BOND
  1   1   2  2   
  2   1   3  2   
  3   1   4  am  
  4   1   5  1   
  5   4   6  1   
  6   4   7  1   
  7   5   8  ar  
  8   5   9  ar  
  9   6  10  1   
 10   6  26  1   
 11   6  27  1   
 12   7  11  1   
 13   7  28  1   
 14   7  29  1   
 15   8  12  ar  
 16   8  30  1   
 17   9  13  ar  
 18   9  31  1   
 19  10  14  1   
 20  10  32  1   
 21  10  33  1   
 22  11  14  1   
 23  11  34  1   
 24  11  35  1   
 25  12  15  1   
 26  12  16  ar  
 27  13  16  ar  
 28  13  36  1   
 29  14  17  1   
 30  14  18  1   
 31  15  19  1   
 32  16  20  1   
 33  17  21  1   
 34  18  22  2   
 35  18  37  1   
 36  19  23  1   
 37  19  38  1   
 38  19  39  1   
 39  20  23  1   
 40  21  24  1   
 41  21  40  1   
 42  21  41  1   
 43  22  24  1   
 44  22  25  1   
 45  23  42  1   
 46  23  43  1   
 47  24  44  1   
 48  24  45  1   
 49  25  46  1   
 50  25  47  1   
 51  25  48  1   
@<TRIPOS>SUBSTRUCTURE
  1 ****   7 GROUP 4 **** **** 0

# MOE 2024.06 (io_trps.svl 2023.06)
