@<TRIPOS>MOLECULE
NONAME
45 46 1 0 0 
SMALL
USER_CHARGES


@<TRIPOS>ATOM
  1 CL       2.1580     1.5010    -0.5160 Cl    1 <1>  -0.1770 
  2 C        2.6040    -0.1180    -0.0420 C.ar  1 <1>   0.1770 
  3 C        2.1870    -1.1870    -0.8050 C.ar  1 <1>  -0.1500 
  4 C        3.3630    -0.3040     1.0960 C.ar  1 <1>  -0.1500 
  5 C        2.5170    -2.4950    -0.4500 C.ar  1 <1>   0.0860 
  6 C        3.7130    -1.5910     1.4570 C.ar  1 <1>  -0.1500 
  7 C        3.3150    -2.6830     0.6970 C.ar  1 <1>   0.0830 
  8 C        1.9870    -3.5580    -1.2730 C.2   1 <1>   0.5440 
  9 O        3.7590    -3.8770     1.1640 O.3   1 <1>  -0.3630 
 10 O        2.4790    -3.7570    -2.3690 O.2   1 <1>  -0.5700 
 11 N        0.9280    -4.3330    -0.8580 N.am  1 <1>  -0.6600 
 12 C        3.9560    -5.0170     0.3520 C.3   1 <1>   0.0400 
 13 C        0.4520    -5.5000    -1.6800 C.3   1 <1>   0.1400 
 14 C        0.2550    -4.1410     0.4690 C.3   1 <1>   0.1400 
 15 C       -0.1730    -6.5620    -0.7700 C.3   1 <1>   0.2000 
 16 C       -1.2170    -4.5420     0.3600 C.3   1 <1>  -0.1600 
 17 O       -0.4770    -7.7090    -1.4830 O.3   1 <1>  -0.6800 
 18 C       -1.4170    -6.0520     0.0050 C.3   1 <1>  -0.1060 
 19 C       -1.4530    -6.9630     1.2420 C.2   1 <1>   0.9060 
 20 C       -2.7410    -6.1860    -0.8130 C.3   1 <1>  -0.1600 
 21 O       -1.2760    -6.4910     2.3710 O.co2 1 <1>  -0.9000 
 22 O       -1.5950    -8.1820     1.0580 O.co2 1 <1>  -0.9000 
 23 C       -3.9960    -5.7010    -0.0640 C.3   1 <1>  -0.1600 
 24 C       -5.2560    -5.9200    -0.9060 C.3   1 <1>  -0.2400 
 25 H        1.5940    -1.0120    -1.6850 H     1 <1>   0.1500 
 26 H        3.6740     0.5430     1.6810 H     1 <1>   0.1500 
 27 H        4.3080    -1.7610     2.3370 H     1 <1>   0.1500 
 28 H        4.6380    -5.6730     0.8600 H     1 <1>   0.0800 
 29 H        4.3740    -4.7160    -0.5930 H     1 <1>   0.0800 
 30 H        3.0160    -5.5200     0.2160 H     1 <1>   0.0800 
 31 H       -0.2770    -5.1570    -2.3910 H     1 <1>   0.0800 
 32 H        1.2830    -5.9340    -2.2090 H     1 <1>   0.0800 
 33 H        0.7410    -4.7490     1.2160 H     1 <1>   0.0800 
 34 H        0.3170    -3.1130     0.7770 H     1 <1>   0.0800 
 35 H        0.5870    -6.8520    -0.0630 H     1 <1>   0.0800 
 36 H       -1.7160    -4.3130     1.2850 H     1 <1>   0.0800 
 37 H       -1.6590    -3.9190    -0.3960 H     1 <1>   0.0800 
 38 H       -0.9300    -8.3040    -0.8270 H     1 <1>   0.4000 
 39 H       -2.6450    -5.6470    -1.7380 H     1 <1>   0.0800 
 40 H       -2.8980    -7.2220    -1.0620 H     1 <1>   0.0800 
 41 H       -4.0910    -6.2450     0.8620 H     1 <1>   0.0800 
 42 H       -3.9130    -4.6550     0.1740 H     1 <1>   0.0800 
 43 H       -5.3760    -6.9660    -1.1260 H     1 <1>   0.0800 
 44 H       -5.1890    -5.3750    -1.8300 H     1 <1>   0.0800 
 45 H       -6.1210    -5.5820    -0.3650 H     1 <1>   0.0800 
@<TRIPOS>BOND
  1   1   2  1   
  2   2   3  ar  
  3   2   4  ar  
  4   3   5  ar  
  5   3  25  1   
  6   4   6  ar  
  7   4  26  1   
  8   5   7  ar  
  9   5   8  1   
 10   6   7  ar  
 11   6  27  1   
 12   7   9  1   
 13   8  10  2   
 14   8  11  am  
 15   9  12  1   
 16  11  13  1   
 17  11  14  1   
 18  12  28  1   
 19  12  29  1   
 20  12  30  1   
 21  13  15  1   
 22  13  31  1   
 23  13  32  1   
 24  14  16  1   
 25  14  33  1   
 26  14  34  1   
 27  15  17  1   
 28  15  18  1   
 29  15  35  1   
 30  16  18  1   
 31  16  36  1   
 32  16  37  1   
 33  17  38  1   
 34  18  19  1   
 35  18  20  1   
 36  19  21  ar  
 37  19  22  ar  
 38  20  23  1   
 39  20  39  1   
 40  20  40  1   
 41  23  24  1   
 42  23  41  1   
 43  23  42  1   
 44  24  43  1   
 45  24  44  1   
 46  24  45  1   
@<TRIPOS>SUBSTRUCTURE
  1 ****  14 GROUP 4 **** **** 0

# MOE 2024.06 (io_trps.svl 2023.06)
