@<TRIPOS>MOLECULE
NONAME
46 48 1 0 0 
SMALL
USER_CHARGES


@<TRIPOS>ATOM
  1 O        1.6230    -0.4300     1.6100 O.3   1 <1>  -0.2800 
  2 C        1.0670    -0.3600     0.4230 C.2   1 <1>   0.2980 
  3 C        1.7870    -1.7000     1.8530 C.2   1 <1>  -0.0100 
  4 N        0.8500    -1.5050    -0.1230 N.2   1 <1>  -0.5650 
  5 C        0.7410     1.0070    -0.1740 C.3   1 <1>   0.1000 
  6 C        1.3180    -2.3810     0.7970 C.2   1 <1>   0.0460 
  7 C        2.0110     1.8510    -0.3490 C.3   1 <1>  -0.2400 
  8 C       -0.2830     1.7570     0.6890 C.3   1 <1>  -0.2400 
  9 C        1.2680    -3.8880     0.5820 C.3   1 <1>   0.5240 
 10 N       -0.1090    -4.3080     0.1810 N.4   1 <1>  -0.9590 
 11 C       -0.4380    -5.6850     0.6470 C.3   1 <1>   0.6030 
 12 C       -0.3350    -4.0870    -1.2680 C.3   1 <1>   0.3430 
 13 C        0.6250    -6.6900     0.1930 C.2   1 <1>  -0.0400 
 14 C       -1.8600    -6.1050     0.2300 C.3   1 <1>  -0.1600 
 15 C       -1.6820    -3.3820    -1.4440 C.3   1 <1>  -0.1600 
 16 O        1.7790    -6.6990     0.8410 O.3   1 <1>  -0.2800 
 17 C        0.6370    -7.6310    -0.7810 C.2   1 <1>  -0.1500 
 18 C       -2.9150    -4.9830     0.2000 C.3   1 <1>  -0.1600 
 19 C       -2.9250    -4.2380    -1.1450 C.3   1 <1>  -0.1600 
 20 C        2.5390    -7.6330     0.3040 C.2   1 <1>  -0.0100 
 21 C        1.8920    -8.2460    -0.7070 C.2   1 <1>  -0.1500 
 22 H        2.2360    -2.0030     2.7830 H     1 <1>   0.1500 
 23 H        0.3090     0.8450    -1.1460 H     1 <1>   0.0800 
 24 H        2.4690     2.0460     0.6050 H     1 <1>   0.0800 
 25 H        1.7760     2.7900    -0.8180 H     1 <1>   0.0800 
 26 H        2.7180     1.3270    -0.9670 H     1 <1>   0.0800 
 27 H        0.1180     1.9460     1.6690 H     1 <1>   0.0800 
 28 H       -1.1780     1.1700     0.7920 H     1 <1>   0.0800 
 29 H       -0.5400     2.6970     0.2330 H     1 <1>   0.0800 
 30 H        1.5520    -4.3730     1.5010 H     1 <1>   0.0800 
 31 H        1.9770    -4.1730    -0.1780 H     1 <1>   0.0800 
 32 H       -0.7450    -3.6570     0.6520 H     1 <1>   0.4500 
 33 H       -0.4200    -5.6790     1.7240 H     1 <1>   0.0800 
 34 H       -0.3160    -5.0190    -1.8100 H     1 <1>   0.0800 
 35 H        0.4370    -3.4470    -1.6650 H     1 <1>   0.0800 
 36 H       -2.1790    -6.8560     0.9330 H     1 <1>   0.0800 
 37 H       -1.8430    -6.5870    -0.7300 H     1 <1>   0.0800 
 38 H       -1.7480    -3.0530    -2.4670 H     1 <1>   0.0800 
 39 H       -1.6990    -2.4920    -0.8390 H     1 <1>   0.0800 
 40 H       -0.1220    -7.9050    -1.4940 H     1 <1>   0.1500 
 41 H       -2.7900    -4.2980     1.0220 H     1 <1>   0.0800 
 42 H       -3.8850    -5.4380     0.3190 H     1 <1>   0.0800 
 43 H       -3.0580    -4.9530    -1.9400 H     1 <1>   0.0800 
 44 H       -3.7880    -3.5930    -1.1700 H     1 <1>   0.0800 
 45 H        3.5270    -7.8000     0.7020 H     1 <1>   0.1500 
 46 H        2.2390    -9.0460    -1.3400 H     1 <1>   0.1500 
@<TRIPOS>BOND
  1   1   2  1   
  2   1   3  1   
  3   2   4  2   
  4   2   5  1   
  5   3   6  2   
  6   3  22  1   
  7   4   6  1   
  8   5   7  1   
  9   5   8  1   
 10   5  23  1   
 11   6   9  1   
 12   7  24  1   
 13   7  25  1   
 14   7  26  1   
 15   8  27  1   
 16   8  28  1   
 17   8  29  1   
 18   9  10  1   
 19   9  30  1   
 20   9  31  1   
 21  10  11  1   
 22  10  12  1   
 23  10  32  1   
 24  11  13  1   
 25  11  14  1   
 26  11  33  1   
 27  12  15  1   
 28  12  34  1   
 29  12  35  1   
 30  13  16  1   
 31  13  17  2   
 32  14  18  1   
 33  14  36  1   
 34  14  37  1   
 35  15  19  1   
 36  15  38  1   
 37  15  39  1   
 38  16  20  1   
 39  17  21  1   
 40  17  40  1   
 41  18  19  1   
 42  18  41  1   
 43  18  42  1   
 44  19  43  1   
 45  19  44  1   
 46  20  21  2   
 47  20  45  1   
 48  21  46  1   
@<TRIPOS>SUBSTRUCTURE
  1 ****  10 GROUP 4 **** **** 0

# MOE 2024.06 (io_trps.svl 2023.06)
