@<TRIPOS>MOLECULE
NONAME
45 48 1 0 0 
SMALL
USER_CHARGES


@<TRIPOS>ATOM
  1 N       -0.1920    -0.5630    -0.5230 N.2   1 <1>  -0.7070 
  2 N       -1.1500    -0.0640     0.2700 N.pl3 1 <1>   0.3140 
  3 C       -0.1470    -1.8270    -0.2630 C.2   1 <1>   0.1080 
  4 C       -1.7160    -1.0340     1.0130 C.2   1 <1>  -0.3020 
  5 C       -1.4690     1.3690     0.2730 C.3   1 <1>   0.0160 
  6 C       -1.0950    -2.1910     0.6900 C.2   1 <1>  -0.1810 
  7 C        0.8530    -2.7240    -0.9620 C.3   1 <1>  -0.0590 
  8 C       -1.3600    -3.5800     1.2190 C.3   1 <1>   0.5240 
  9 N       -2.1130    -4.3220     0.1780 N.4   1 <1>  -0.9590 
 10 C       -3.4400    -3.6700    -0.1370 C.3   1 <1>   0.3430 
 11 C       -2.2750    -5.7850     0.4900 C.3   1 <1>   0.3430 
 12 C       -4.3420    -4.7720    -0.7250 C.3   1 <1>  -0.0800 
 13 C       -3.3800    -6.2540    -0.4530 C.3   1 <1>  -0.0800 
 14 C       -5.9800    -5.0090    -0.0920 C.3   1 <1>  -0.0800 
 15 C       -4.4480    -7.5790     0.0320 C.3   1 <1>  -0.0800 
 16 C       -5.2850    -5.7180     0.7190 C.3   1 <1>  -0.1600 
 17 C       -7.0790    -6.3360     0.3190 C.3   1 <1>  -0.1600 
 18 C       -5.1770    -6.9070    -0.7960 C.3   1 <1>  -0.1600 
 19 C       -6.0930    -7.8410     0.6430 C.3   1 <1>  -0.1600 
 20 H       -2.5080    -0.8360     1.7120 H     1 <1>   0.1500 
 21 H       -2.3120     1.5550     0.9110 H     1 <1>   0.0800 
 22 H       -1.6960     1.6780    -0.7310 H     1 <1>   0.0800 
 23 H       -0.6150     1.9140     0.6290 H     1 <1>   0.0800 
 24 H        0.9920    -3.6470    -0.4340 H     1 <1>   0.0800 
 25 H        1.8000    -2.2160    -1.0170 H     1 <1>   0.0800 
 26 H        0.5210    -2.9250    -1.9640 H     1 <1>   0.0800 
 27 H       -1.9370    -3.5220     2.1270 H     1 <1>   0.0800 
 28 H       -0.4240    -4.0710     1.4330 H     1 <1>   0.0800 
 29 H       -1.5610    -4.2420    -0.6840 H     1 <1>   0.4500 
 30 H       -3.8870    -3.2880     0.7660 H     1 <1>   0.0800 
 31 H       -3.3150    -2.8530    -0.8310 H     1 <1>   0.0800 
 32 H       -1.3610    -6.3340     0.3290 H     1 <1>   0.0800 
 33 H       -2.5920    -5.9150     1.5120 H     1 <1>   0.0800 
 34 H       -4.4200    -4.5620    -1.7800 H     1 <1>   0.0800 
 35 H       -2.8450    -6.5180    -1.3560 H     1 <1>   0.0800 
 36 H       -6.3310    -4.1000     0.3680 H     1 <1>   0.0800 
 37 H       -4.0930    -8.4960    -0.4080 H     1 <1>   0.0800 
 38 H       -4.5030    -5.2310     1.3020 H     1 <1>   0.0800 
 39 H       -5.6870    -5.8840     1.7430 H     1 <1>   0.0800 
 40 H       -7.7150    -6.1030     1.1610 H     1 <1>   0.0800 
 41 H       -7.7560    -6.4990    -0.5060 H     1 <1>   0.0800 
 42 H       -4.8340    -6.7070    -1.8320 H     1 <1>   0.0800 
 43 H       -5.9670    -7.4520    -1.3550 H     1 <1>   0.0800 
 44 H       -6.5660    -8.7140     0.2150 H     1 <1>   0.0800 
 45 H       -6.0490    -8.0430     1.7020 H     1 <1>   0.0800 
@<TRIPOS>BOND
  1   1   2  1   
  2   1   3  2   
  3   2   4  1   
  4   2   5  1   
  5   3   6  1   
  6   3   7  1   
  7   4   6  2   
  8   4  20  1   
  9   5  21  1   
 10   5  22  1   
 11   5  23  1   
 12   6   8  1   
 13   7  24  1   
 14   7  25  1   
 15   7  26  1   
 16   8   9  1   
 17   8  27  1   
 18   8  28  1   
 19   9  10  1   
 20   9  11  1   
 21   9  29  1   
 22  10  12  1   
 23  10  30  1   
 24  10  31  1   
 25  11  13  1   
 26  11  32  1   
 27  11  33  1   
 28  12  13  1   
 29  12  14  1   
 30  12  34  1   
 31  13  15  1   
 32  13  35  1   
 33  14  16  1   
 34  14  17  1   
 35  14  36  1   
 36  15  18  1   
 37  15  19  1   
 38  15  37  1   
 39  16  18  1   
 40  16  38  1   
 41  16  39  1   
 42  17  19  1   
 43  17  40  1   
 44  17  41  1   
 45  18  42  1   
 46  18  43  1   
 47  19  44  1   
 48  19  45  1   
@<TRIPOS>SUBSTRUCTURE
  1 ****  10 GROUP 4 **** **** 0

# MOE 2024.06 (io_trps.svl 2023.06)
