@<TRIPOS>MOLECULE
NONAME
51 55 1 0 0 
SMALL
USER_CHARGES


@<TRIPOS>ATOM
  1 F        0.1200    -0.4550    -0.0680 F     1 <1>  -0.1900 
  2 C        0.6850    -1.6360    -0.0860 C.ar  1 <1>   0.1900 
  3 C       -0.0520    -2.7220    -0.4820 C.ar  1 <1>  -0.1500 
  4 C        2.0240    -1.7250     0.3040 C.ar  1 <1>  -0.1500 
  5 C        0.5790    -3.9720    -0.4890 C.ar  1 <1>   0.0000 
  6 C        2.6430    -2.9530     0.2960 C.ar  1 <1>  -0.1500 
  7 C        1.9120    -4.0830    -0.1010 C.ar  1 <1>  -0.1520 
  8 C        0.1550    -5.2650    -0.8280 C.2   1 <1>  -0.1500 
  9 N        2.2800    -5.4040    -0.2020 N.pl3 1 <1>   0.0480 
 10 C        1.1920    -6.1330    -0.6340 C.2   1 <1>  -0.2370 
 11 C        3.6460    -5.9290     0.0190 C.3   1 <1>   0.0160 
 12 C        1.2350    -7.5580    -0.8360 C.2   1 <1>   0.7150 
 13 O        2.0910    -8.0460    -1.5450 O.2   1 <1>  -0.5700 
 14 N        0.3260    -8.3990    -0.2270 N.am  1 <1>  -0.6600 
 15 C       -0.5380    -7.9990     0.9260 C.3   1 <1>   0.1400 
 16 C        0.2870    -9.8590    -0.5460 C.3   1 <1>   0.1400 
 17 C       -1.9940    -8.4850     0.7430 C.3   1 <1>   0.4230 
 18 C       -1.1630   -10.3400    -0.7360 C.3   1 <1>   0.3430 
 19 N       -2.0610    -9.9670     0.4220 N.4   1 <1>  -0.9590 
 20 C       -2.7200    -7.6530    -0.3410 C.3   1 <1>   0.1200 
 21 C       -3.4940   -10.3530     0.1990 C.3   1 <1>   0.5180 
 22 O       -4.0390    -8.0970    -0.4970 O.3   1 <1>  -0.5600 
 23 C       -3.5820   -11.8390    -0.1700 C.3   1 <1>  -0.1950 
 24 C       -4.1790    -9.4470    -0.8480 C.3   1 <1>   0.1200 
 25 C       -4.6980   -12.6810     0.3670 C.3   1 <1>  -0.2000 
 26 C       -3.2900   -12.9180     0.8290 C.3   1 <1>  -0.2000 
 27 H       -1.0780    -2.6230    -0.7820 H     1 <1>   0.1500 
 28 H        2.5440    -0.8320     0.6010 H     1 <1>   0.1500 
 29 H        3.6740    -3.0470     0.5880 H     1 <1>   0.1500 
 30 H       -0.8300    -5.4830    -1.1960 H     1 <1>   0.1500 
 31 H        3.5930    -6.9050     0.4650 H     1 <1>   0.0800 
 32 H        4.1910    -5.2740     0.6710 H     1 <1>   0.0800 
 33 H        4.1510    -5.9990    -0.9280 H     1 <1>   0.0800 
 34 H       -0.1350    -8.4320     1.8250 H     1 <1>   0.0800 
 35 H       -0.5320    -6.9320     1.0640 H     1 <1>   0.0800 
 36 H        0.8360   -10.0650    -1.4490 H     1 <1>   0.0800 
 37 H        0.7560   -10.4110     0.2500 H     1 <1>   0.0800 
 38 H       -2.5120    -8.3030     1.6700 H     1 <1>   0.0800 
 39 H       -1.1560   -11.4100    -0.8650 H     1 <1>   0.0800 
 40 H       -1.5420    -9.9040    -1.6450 H     1 <1>   0.0800 
 41 H       -1.7420   -10.4930     1.2430 H     1 <1>   0.4500 
 42 H       -2.2170    -7.7160    -1.2900 H     1 <1>   0.0800 
 43 H       -2.7620    -6.6190    -0.0470 H     1 <1>   0.0800 
 44 H       -4.0280   -10.2210     1.1260 H     1 <1>   0.0800 
 45 H       -3.3350   -12.0270    -1.2020 H     1 <1>   0.1000 
 46 H       -5.2330    -9.6650    -0.8880 H     1 <1>   0.0800 
 47 H       -3.7650    -9.5940    -1.8300 H     1 <1>   0.0800 
 48 H       -5.4010   -12.2710     1.0750 H     1 <1>   0.1000 
 49 H       -5.1540   -13.4210    -0.2710 H     1 <1>   0.1000 
 50 H       -2.8020   -13.8230     0.5050 H     1 <1>   0.1000 
 51 H       -3.0640   -12.6820     1.8550 H     1 <1>   0.1000 
@<TRIPOS>BOND
  1   1   2  1   
  2   2   3  ar  
  3   2   4  ar  
  4   3   5  ar  
  5   3  27  1   
  6   4   6  ar  
  7   4  28  1   
  8   5   7  ar  
  9   5   8  1   
 10   6   7  ar  
 11   6  29  1   
 12   7   9  1   
 13   8  10  2   
 14   8  30  1   
 15   9  10  1   
 16   9  11  1   
 17  10  12  1   
 18  11  31  1   
 19  11  32  1   
 20  11  33  1   
 21  12  13  2   
 22  12  14  am  
 23  14  15  1   
 24  14  16  1   
 25  15  17  1   
 26  15  34  1   
 27  15  35  1   
 28  16  18  1   
 29  16  36  1   
 30  16  37  1   
 31  17  19  1   
 32  17  20  1   
 33  17  38  1   
 34  18  19  1   
 35  18  39  1   
 36  18  40  1   
 37  19  21  1   
 38  19  41  1   
 39  20  22  1   
 40  20  42  1   
 41  20  43  1   
 42  21  23  1   
 43  21  24  1   
 44  21  44  1   
 45  22  24  1   
 46  23  25  1   
 47  23  26  1   
 48  23  45  1   
 49  24  46  1   
 50  24  47  1   
 51  25  26  1   
 52  25  48  1   
 53  25  49  1   
 54  26  50  1   
 55  26  51  1   
@<TRIPOS>SUBSTRUCTURE
  1 ****  15 GROUP 4 **** **** 0

# MOE 2024.06 (io_trps.svl 2023.06)
