@<TRIPOS>MOLECULE
NONAME
61 63 1 0 0 
SMALL
USER_CHARGES


@<TRIPOS>ATOM
  1 O       -1.7410     0.0970    -0.0520 O.co2 1 <1>  -0.9000 
  2 C       -1.5210     1.1400     0.5850 C.2   1 <1>   0.9060 
  3 O       -2.1770     1.4230     1.5970 O.co2 1 <1>  -0.9000 
  4 C       -0.4320     2.1340     0.1340 C.3   1 <1>  -0.1060 
  5 C       -1.4560     2.8230    -0.9040 C.3   1 <1>   0.2000 
  6 C        0.6730     3.2130    -0.2720 C.3   1 <1>   0.1400 
  7 C        0.5940     1.3980     1.1240 C.3   1 <1>  -0.0160 
  8 O       -2.4330     2.0630    -1.5520 O.3   1 <1>  -0.6800 
  9 C       -2.1360     4.0230    -0.2460 C.3   1 <1>  -0.1600 
 10 N        0.2480     4.6350     0.0510 N.am  1 <1>  -0.6600 
 11 C        1.7730     0.7220     0.4110 C.ar  1 <1>  -0.1430 
 12 C       -1.1260     4.7520     0.6440 C.3   1 <1>   0.1400 
 13 C        1.1060     5.6680    -0.2240 C.2   1 <1>   0.5690 
 14 C        3.0790     0.9890     0.7960 C.ar  1 <1>  -0.1500 
 15 C        1.5450    -0.1700    -0.6250 C.ar  1 <1>  -0.1500 
 16 O        2.1420     5.4850    -0.8200 O.2   1 <1>  -0.5700 
 17 C        0.7940     7.1130     0.1890 C.3   1 <1>  -0.0190 
 18 C        4.1410     0.3820     0.1460 C.ar  1 <1>  -0.1500 
 19 C        2.6050    -0.7780    -1.2760 C.ar  1 <1>  -0.1500 
 20 C        0.0440     7.8380    -0.9440 C.3   1 <1>  -0.1600 
 21 C        2.0710     7.8970     0.5620 C.3   1 <1>  -0.1600 
 22 C        3.9050    -0.5010    -0.8920 C.ar  1 <1>  -0.1500 
 23 C       -0.1850     9.3170    -0.6350 C.3   1 <1>   0.3430 
 24 C        1.7800     9.3670     0.8490 C.3   1 <1>   0.3430 
 25 N        1.1190     9.9770    -0.3420 N.4   1 <1>  -0.9590 
 26 C        0.9250    11.4580    -0.1880 C.3   1 <1>   0.3430 
 27 C        2.2450    12.2390    -0.1880 C.3   1 <1>   0.1200 
 28 O        1.9200    13.5820    -0.0740 O.3   1 <1>  -0.5600 
 29 C        3.0140    14.4450    -0.0800 C.3   1 <1>   0.0400 
 30 H       -0.9460     3.2240    -1.7640 H     1 <1>   0.0800 
 31 H        0.9210     3.1320    -1.3190 H     1 <1>   0.0800 
 32 H        1.6380     3.1210     0.1940 H     1 <1>   0.0800 
 33 H        0.9530     2.1080     1.8520 H     1 <1>   0.0800 
 34 H        0.2120     0.6130     1.7660 H     1 <1>   0.0800 
 35 H       -2.4210     1.1480    -1.1350 H     1 <1>   0.4000 
 36 H       -2.5060     4.6850    -1.0070 H     1 <1>   0.0800 
 37 H       -2.9620     3.6940     0.3610 H     1 <1>   0.0800 
 38 H       -1.1190     4.2830     1.6160 H     1 <1>   0.0800 
 39 H       -1.4380     5.7700     0.7670 H     1 <1>   0.0800 
 40 H        3.2740     1.6720     1.6020 H     1 <1>   0.1500 
 41 H        0.5350    -0.3970    -0.9270 H     1 <1>   0.1500 
 42 H        0.1770     7.0940     1.0670 H     1 <1>   0.0800 
 43 H        5.1500     0.6000     0.4490 H     1 <1>   0.1500 
 44 H        2.4090    -1.4660    -2.0790 H     1 <1>   0.1500 
 45 H       -0.9060     7.3600    -1.1060 H     1 <1>   0.0800 
 46 H        0.6020     7.7480    -1.8610 H     1 <1>   0.0800 
 47 H        2.7950     7.8380    -0.2330 H     1 <1>   0.0800 
 48 H        2.5190     7.4470     1.4310 H     1 <1>   0.0800 
 49 H        4.7280    -0.9730    -1.3980 H     1 <1>   0.1500 
 50 H       -0.8420     9.4130     0.2140 H     1 <1>   0.0800 
 51 H       -0.6560     9.7900    -1.4830 H     1 <1>   0.0800 
 52 H        2.7060     9.8750     1.0650 H     1 <1>   0.0800 
 53 H        1.1370     9.4500     1.7100 H     1 <1>   0.0800 
 54 H        1.7270     9.8100    -1.1560 H     1 <1>   0.4500 
 55 H        0.3270    11.8260    -1.0060 H     1 <1>   0.0800 
 56 H        0.4010    11.6620     0.7310 H     1 <1>   0.0800 
 57 H        2.7760    12.0960    -1.1130 H     1 <1>   0.0800 
 58 H        2.8610    11.9710     0.6520 H     1 <1>   0.0800 
 59 H        2.6470    15.4530     0.0130 H     1 <1>   0.0800 
 60 H        3.5490    14.3430    -1.0090 H     1 <1>   0.0800 
 61 H        3.6560    14.2190     0.7550 H     1 <1>   0.0800 
@<TRIPOS>BOND
  1   1   2  ar  
  2   2   3  ar  
  3   2   4  1   
  4   4   5  1   
  5   4   6  1   
  6   4   7  1   
  7   5   8  1   
  8   5   9  1   
  9   5  30  1   
 10   6  10  1   
 11   6  31  1   
 12   6  32  1   
 13   7  11  1   
 14   7  33  1   
 15   7  34  1   
 16   8  35  1   
 17   9  12  1   
 18   9  36  1   
 19   9  37  1   
 20  10  12  1   
 21  10  13  am  
 22  11  14  ar  
 23  11  15  ar  
 24  12  38  1   
 25  12  39  1   
 26  13  16  2   
 27  13  17  1   
 28  14  18  ar  
 29  14  40  1   
 30  15  19  ar  
 31  15  41  1   
 32  17  20  1   
 33  17  21  1   
 34  17  42  1   
 35  18  22  ar  
 36  18  43  1   
 37  19  22  ar  
 38  19  44  1   
 39  20  23  1   
 40  20  45  1   
 41  20  46  1   
 42  21  24  1   
 43  21  47  1   
 44  21  48  1   
 45  22  49  1   
 46  23  25  1   
 47  23  50  1   
 48  23  51  1   
 49  24  25  1   
 50  24  52  1   
 51  24  53  1   
 52  25  26  1   
 53  25  54  1   
 54  26  27  1   
 55  26  55  1   
 56  26  56  1   
 57  27  28  1   
 58  27  57  1   
 59  27  58  1   
 60  28  29  1   
 61  29  59  1   
 62  29  60  1   
 63  29  61  1   
@<TRIPOS>SUBSTRUCTURE
  1 ****  10 GROUP 4 **** **** 0

# MOE 2024.06 (io_trps.svl 2023.06)
