@<TRIPOS>MOLECULE
NONAME
37 39 1 0 0 
SMALL
USER_CHARGES


@<TRIPOS>ATOM
  1 O        0.6260     1.8630     2.1460 O.co2 1 <1>  -0.9000 
  2 C        1.8560     1.7640     2.2500 C.2   1 <1>   0.9470 
  3 O        2.4480     2.1870     3.2520 O.co2 1 <1>  -0.9000 
  4 C        2.6820     1.3270     1.0370 C.3   1 <1>  -0.2420 
  5 C        3.2450    -0.0080     0.6130 C.3   1 <1>  -0.2420 
  6 C        3.7040     2.3910     0.6880 C.3   1 <1>   0.2350 
  7 C        2.0020     0.5290    -0.0480 C.3   1 <1>  -0.2000 
  8 C        3.1950    -1.3790     1.2930 C.2   1 <1>   0.9470 
  9 C        4.6090     0.2360    -0.0120 C.3   1 <1>   0.2350 
 10 N        4.7030     1.7130    -0.1900 N.am  1 <1>  -0.6600 
 11 O        2.3760    -2.2220     0.9020 O.co2 1 <1>  -0.9000 
 12 O        4.0750    -1.6750     2.1130 O.co2 1 <1>  -0.9000 
 13 C        5.5720     2.2990    -1.0660 C.2   1 <1>   0.5690 
 14 O        6.2750     1.6410    -1.8010 O.2   1 <1>  -0.5700 
 15 C        5.6780     3.8160    -1.1740 C.3   1 <1>   0.0440 
 16 C        6.7720     4.4390    -0.3060 C.ar  1 <1>  -0.1430 
 17 C        7.5310     5.4880    -0.8050 C.ar  1 <1>  -0.1500 
 18 C        7.0180     3.9850     0.9820 C.ar  1 <1>  -0.1500 
 19 C        8.5220     6.0800    -0.0380 C.ar  1 <1>  -0.1430 
 20 C        8.0050     4.5720     1.7540 C.ar  1 <1>  -0.1500 
 21 C        8.7550     5.6170     1.2460 C.ar  1 <1>  -0.1500 
 22 C        9.3380     7.2230    -0.6130 C.3   1 <1>  -0.0970 
 23 H        4.1900     2.7410     1.5830 H     1 <1>   0.0800 
 24 H        3.2170     3.2080     0.1900 H     1 <1>   0.0800 
 25 H        2.0490     0.8650    -1.0660 H     1 <1>   0.1000 
 26 H        1.0650     0.0520     0.1890 H     1 <1>   0.1000 
 27 H        4.6980    -0.2780    -0.9520 H     1 <1>   0.0800 
 28 H        5.3890    -0.0910     0.6550 H     1 <1>   0.0800 
 29 H        5.8770     4.0430    -2.2050 H     1 <1>   0.0800 
 30 H        4.7400     4.2740    -0.9340 H     1 <1>   0.0800 
 31 H        7.3530     5.8500    -1.8020 H     1 <1>   0.1500 
 32 H        6.4500     3.1710     1.3980 H     1 <1>   0.1500 
 33 H        8.1840     4.2110     2.7510 H     1 <1>   0.1500 
 34 H        9.5200     6.0650     1.8550 H     1 <1>   0.1500 
 35 H       10.0570     7.5800     0.1020 H     1 <1>   0.0800 
 36 H        8.6890     8.0360    -0.8830 H     1 <1>   0.0800 
 37 H        9.8640     6.8900    -1.4900 H     1 <1>   0.0800 
@<TRIPOS>BOND
  1   1   2  ar  
  2   2   3  ar  
  3   2   4  1   
  4   4   5  1   
  5   4   6  1   
  6   4   7  1   
  7   5   7  1   
  8   5   8  1   
  9   5   9  1   
 10   6  10  1   
 11   6  23  1   
 12   6  24  1   
 13   7  25  1   
 14   7  26  1   
 15   8  11  ar  
 16   8  12  ar  
 17   9  10  1   
 18   9  27  1   
 19   9  28  1   
 20  10  13  am  
 21  13  14  2   
 22  13  15  1   
 23  15  16  1   
 24  15  29  1   
 25  15  30  1   
 26  16  17  ar  
 27  16  18  ar  
 28  17  19  ar  
 29  17  31  1   
 30  18  20  ar  
 31  18  32  1   
 32  19  21  ar  
 33  19  22  1   
 34  20  21  ar  
 35  20  33  1   
 36  21  34  1   
 37  22  35  1   
 38  22  36  1   
 39  22  37  1   
@<TRIPOS>SUBSTRUCTURE
  1 ****  10 GROUP 4 **** **** 0

# MOE 2024.06 (io_trps.svl 2023.06)
