@<TRIPOS>MOLECULE
NONAME
51 54 1 0 0 
SMALL
USER_CHARGES


@<TRIPOS>ATOM
  1 O       -1.1750    -0.2430     0.6430 O.2   1 <1>  -0.5700 
  2 C       -2.1500     0.4010     0.3050 C.2   1 <1>   0.5440 
  3 N       -2.1510     1.7620     0.5310 N.am  1 <1>  -0.6600 
  4 C       -3.2640    -0.2840    -0.3050 C.ar  1 <1>   0.0860 
  5 C       -3.3750     2.6140     0.6170 C.3   1 <1>   0.1400 
  6 C       -0.9110     2.4900     0.9320 C.3   1 <1>   0.1400 
  7 C       -3.7820    -1.4380     0.2750 C.ar  1 <1>   0.1600 
  8 C       -3.8600     0.1440    -1.4870 C.ar  1 <1>  -0.1500 
  9 C       -3.1480     3.9560    -0.1000 C.3   1 <1>   0.1200 
 10 C       -0.8210     3.8460     0.2110 C.3   1 <1>   0.1200 
 11 N       -4.8050    -2.1430    -0.1740 N.ar  1 <1>  -0.6200 
 12 C       -4.9200    -0.5820    -1.9740 C.ar  1 <1>  -0.1500 
 13 O       -1.9970     4.5860     0.3880 O.3   1 <1>  -0.5600 
 14 C       -5.3740    -1.7120    -1.2960 C.ar  1 <1>   0.4100 
 15 N       -6.4460    -2.4290    -1.7810 N.pl3 1 <1>  -0.8380 
 16 C       -6.5100    -3.9060    -1.6090 C.3   1 <1>   0.2090 
 17 C       -7.7490    -1.7650    -2.0310 C.3   1 <1>   0.2090 
 18 C       -7.4650    -4.2510    -0.4660 C.3   1 <1>  -0.1600 
 19 C       -8.7070    -2.0850    -0.8830 C.3   1 <1>  -0.1600 
 20 C       -8.8440    -3.6020    -0.6720 C.3   1 <1>   0.0630 
 21 C       -9.7940    -3.9140     0.4810 C.ar  1 <1>   0.1670 
 22 N      -10.9180    -4.5290     0.1900 N.ar  1 <1>  -0.6200 
 23 C       -9.4900    -3.5610     1.7780 C.ar  1 <1>  -0.1500 
 24 C      -11.7200    -4.7700     1.2130 C.ar  1 <1>   0.7200 
 25 C      -10.4010    -3.8780     2.7580 C.ar  1 <1>   0.1600 
 26 N      -11.5280    -4.4920     2.4900 N.ar  1 <1>  -0.6200 
 27 N      -12.8590    -5.3990     0.9220 N.pl3 1 <1>  -0.9000 
 28 H       -3.5930     2.8080     1.6530 H     1 <1>   0.0800 
 29 H       -4.2270     2.1180     0.1920 H     1 <1>   0.0800 
 30 H       -0.0390     1.9060     0.6930 H     1 <1>   0.0800 
 31 H       -0.9220     2.6510     1.9960 H     1 <1>   0.0800 
 32 H       -3.3070    -1.7930     1.1750 H     1 <1>   0.1500 
 33 H       -3.4880     1.0120    -2.0010 H     1 <1>   0.1500 
 34 H       -3.9800     4.6150     0.0730 H     1 <1>   0.0800 
 35 H       -3.0370     3.8080    -1.1600 H     1 <1>   0.0800 
 36 H       -0.6600     3.7010    -0.8430 H     1 <1>   0.0800 
 37 H       -0.0060     4.4230     0.6080 H     1 <1>   0.0800 
 38 H       -5.4060    -0.3000    -2.8880 H     1 <1>   0.1500 
 39 H       -5.5280    -4.2980    -1.4000 H     1 <1>   0.0800 
 40 H       -6.8550    -4.3510    -2.5260 H     1 <1>   0.0800 
 41 H       -8.1540    -2.1210    -2.9630 H     1 <1>   0.0800 
 42 H       -7.6190    -0.6990    -2.1040 H     1 <1>   0.0800 
 43 H       -7.0210    -3.9090     0.4520 H     1 <1>   0.0800 
 44 H       -7.5730    -5.3180    -0.4020 H     1 <1>   0.0800 
 45 H       -9.6730    -1.6640    -1.0970 H     1 <1>   0.0800 
 46 H       -8.3320    -1.6190     0.0110 H     1 <1>   0.0800 
 47 H       -9.2670    -4.0200    -1.5710 H     1 <1>   0.0800 
 48 H       -8.5750    -3.0550     2.0230 H     1 <1>   0.1500 
 49 H      -10.1970    -3.6210     3.7830 H     1 <1>   0.1500 
 50 H      -13.3100    -5.8550     1.7080 H     1 <1>   0.4000 
 51 H      -12.8640    -5.8940     0.0350 H     1 <1>   0.4000 
@<TRIPOS>BOND
  1   1   2  2   
  2   2   3  am  
  3   2   4  1   
  4   3   5  1   
  5   3   6  1   
  6   4   7  ar  
  7   4   8  ar  
  8   5   9  1   
  9   5  28  1   
 10   5  29  1   
 11   6  10  1   
 12   6  30  1   
 13   6  31  1   
 14   7  11  ar  
 15   7  32  1   
 16   8  12  ar  
 17   8  33  1   
 18   9  13  1   
 19   9  34  1   
 20   9  35  1   
 21  10  13  1   
 22  10  36  1   
 23  10  37  1   
 24  11  14  ar  
 25  12  14  ar  
 26  12  38  1   
 27  14  15  1   
 28  15  16  1   
 29  15  17  1   
 30  16  18  1   
 31  16  39  1   
 32  16  40  1   
 33  17  19  1   
 34  17  41  1   
 35  17  42  1   
 36  18  20  1   
 37  18  43  1   
 38  18  44  1   
 39  19  20  1   
 40  19  45  1   
 41  19  46  1   
 42  20  21  1   
 43  20  47  1   
 44  21  22  ar  
 45  21  23  ar  
 46  22  24  ar  
 47  23  25  ar  
 48  23  48  1   
 49  24  26  ar  
 50  24  27  1   
 51  25  26  ar  
 52  25  49  1   
 53  27  50  1   
 54  27  51  1   
@<TRIPOS>SUBSTRUCTURE
  1 ****  11 GROUP 4 **** **** 0

# MOE 2024.06 (io_trps.svl 2023.06)
