@<TRIPOS>MOLECULE
NONAME
51 55 1 0 0 
SMALL
USER_CHARGES


@<TRIPOS>ATOM
  1 CL      -1.9150     2.2530     2.4150 Cl    1 <1>  -0.1770 
  2 C       -1.8240     3.4250     1.1230 C.ar  1 <1>   0.1770 
  3 C       -2.2540     3.0990    -0.1600 C.ar  1 <1>   0.0860 
  4 C       -1.3310     4.6800     1.4290 C.ar  1 <1>  -0.1500 
  5 C       -2.7730     1.7900    -0.4840 C.2   1 <1>   0.5440 
  6 C       -2.1720     4.0930    -1.1330 C.ar  1 <1>  -0.1500 
  7 C       -1.2640     5.6490     0.4450 C.ar  1 <1>  -0.1500 
  8 O       -2.0040     0.8510    -0.5450 O.2   1 <1>  -0.5700 
  9 N       -4.1120     1.5920    -0.7520 N.am  1 <1>  -0.6600 
 10 C       -1.6870     5.3670    -0.8530 C.ar  1 <1>  -0.0230 
 11 C       -5.1590     2.6590    -0.6360 C.3   1 <1>   0.1400 
 12 C       -4.6480     0.2650    -1.1720 C.3   1 <1>   0.1400 
 13 N       -1.6370     6.3570    -1.8760 N.pl3 1 <1>   0.5930 
 14 C       -6.2660     2.2450     0.3510 C.3   1 <1>   0.1440 
 15 C       -5.7580    -0.1850    -0.2140 C.3   1 <1>  -0.1600 
 16 N       -2.5880     6.4740    -2.8350 N.2   1 <1>  -0.7070 
 17 C       -0.6870     7.3090    -2.0550 C.2   1 <1>  -0.3020 
 18 C       -7.3030     3.3520     0.3900 C.ar  1 <1>   0.1670 
 19 C       -6.8580     0.8830    -0.0700 C.3   1 <1>  -0.1600 
 20 C       -5.7510     2.2260     1.8150 C.3   1 <1>  -0.1600 
 21 C       -2.2220     7.4760    -3.5720 C.2   1 <1>   0.1390 
 22 C       -1.0330     8.0420    -3.1320 C.2   1 <1>  -0.1500 
 23 N       -8.1820     3.6100    -0.5530 N.ar  1 <1>  -0.6200 
 24 C       -7.2060     4.0890     1.5330 C.ar  1 <1>  -0.1430 
 25 C       -6.1020     3.5910     2.4320 C.3   1 <1>  -0.0170 
 26 C       -8.9750     4.6400    -0.2950 C.ar  1 <1>   0.4770 
 27 C       -8.0790     5.1350     1.6960 C.ar  1 <1>   0.1600 
 28 N       -8.9780     5.4220     0.7770 N.ar  1 <1>  -0.6200 
 29 C       -9.9940     4.9650    -1.3600 C.3   1 <1>  -0.0970 
 30 H       -1.0060     4.8920     2.4320 H     1 <1>   0.1500 
 31 H       -2.5000     3.8620    -2.1340 H     1 <1>   0.1500 
 32 H       -0.8880     6.6290     0.6900 H     1 <1>   0.1500 
 33 H       -5.5960     2.8190    -1.6070 H     1 <1>   0.0800 
 34 H       -4.7330     3.5920    -0.3160 H     1 <1>   0.0800 
 35 H       -3.8670    -0.4760    -1.1880 H     1 <1>   0.0800 
 36 H       -5.0410     0.3510    -2.1710 H     1 <1>   0.0800 
 37 H       -5.3190    -0.3990     0.7450 H     1 <1>   0.0800 
 38 H       -6.1910    -1.0980    -0.5830 H     1 <1>   0.0800 
 39 H        0.1680     7.3990    -1.4130 H     1 <1>   0.1500 
 40 H       -7.3550     0.9980    -1.0180 H     1 <1>   0.0800 
 41 H       -7.5960     0.5630     0.6440 H     1 <1>   0.0800 
 42 H       -4.7000     2.0130     1.8820 H     1 <1>   0.0800 
 43 H       -6.2790     1.4690     2.3680 H     1 <1>   0.0800 
 44 H       -2.7820     7.8210    -4.4260 H     1 <1>   0.1500 
 45 H       -0.5260     8.8800    -3.5790 H     1 <1>   0.1500 
 46 H       -5.2600     4.2590     2.3780 H     1 <1>   0.0800 
 47 H       -6.4290     3.4920     3.4520 H     1 <1>   0.0800 
 48 H       -8.0430     5.7450     2.5830 H     1 <1>   0.1500 
 49 H      -10.4600     4.0600    -1.7030 H     1 <1>   0.0800 
 50 H       -9.5020     5.4440    -2.1850 H     1 <1>   0.0800 
 51 H      -10.7490     5.6210    -0.9690 H     1 <1>   0.0800 
@<TRIPOS>BOND
  1   1   2  1   
  2   2   3  ar  
  3   2   4  ar  
  4   3   5  1   
  5   3   6  ar  
  6   4   7  ar  
  7   4  30  1   
  8   5   8  2   
  9   5   9  am  
 10   6  10  ar  
 11   6  31  1   
 12   7  10  ar  
 13   7  32  1   
 14   9  11  1   
 15   9  12  1   
 16  10  13  1   
 17  11  14  1   
 18  11  33  1   
 19  11  34  1   
 20  12  15  1   
 21  12  35  1   
 22  12  36  1   
 23  13  16  1   
 24  13  17  1   
 25  14  18  1   
 26  14  19  1   
 27  14  20  1   
 28  15  19  1   
 29  15  37  1   
 30  15  38  1   
 31  16  21  2   
 32  17  22  2   
 33  17  39  1   
 34  18  23  ar  
 35  18  24  ar  
 36  19  40  1   
 37  19  41  1   
 38  20  25  1   
 39  20  42  1   
 40  20  43  1   
 41  21  22  1   
 42  21  44  1   
 43  22  45  1   
 44  23  26  ar  
 45  24  25  1   
 46  24  27  ar  
 47  25  46  1   
 48  25  47  1   
 49  26  28  ar  
 50  26  29  1   
 51  27  28  ar  
 52  27  48  1   
 53  29  49  1   
 54  29  50  1   
 55  29  51  1   
@<TRIPOS>SUBSTRUCTURE
  1 ****  11 GROUP 4 **** **** 0

# MOE 2024.06 (io_trps.svl 2023.06)
