@<TRIPOS>MOLECULE
NONAME
49 52 1 0 0 
SMALL
USER_CHARGES


@<TRIPOS>ATOM
  1 O        0.5490    -0.1380     1.3350 O.3   1 <1>  -0.5600 
  2 C        0.3990    -1.4650     0.9020 C.3   1 <1>   0.1200 
  3 C        1.4370     0.6050     0.5570 C.3   1 <1>   0.1200 
  4 C        1.7540    -2.2060     0.8990 C.3   1 <1>   0.3340 
  5 C        2.8360    -0.0380     0.6050 C.3   1 <1>   0.1900 
  6 N        2.7770    -1.4430     0.1330 N.3   1 <1>  -0.8100 
  7 C        1.5850    -3.6030     0.3080 C.ar  1 <1>  -0.1440 
  8 C        3.8320     0.7720    -0.2510 C.3   1 <1>   0.3430 
  9 C        4.1070    -2.0850     0.1790 C.3   1 <1>   0.1100 
 10 C        1.6830    -4.7200     1.1260 C.ar  1 <1>  -0.1500 
 11 C        1.3380    -3.7780    -1.0470 C.ar  1 <1>  -0.1500 
 12 N        5.2050     0.1400    -0.2860 N.4   1 <1>  -0.9590 
 13 C        5.1240    -1.3090    -0.6810 C.3   1 <1>   0.3430 
 14 C        1.5410    -5.9910     0.5960 C.ar  1 <1>  -0.1500 
 15 C        1.1940    -5.0470    -1.5770 C.ar  1 <1>  -0.1500 
 16 C        6.1380     0.8960    -1.1640 C.3   1 <1>   0.4860 
 17 C        1.2970    -6.1550    -0.7560 C.ar  1 <1>  -0.1500 
 18 C        6.2730     2.3070    -0.6250 C.ar  1 <1>  -0.1440 
 19 C        7.0550     2.5650     0.4940 C.ar  1 <1>  -0.1500 
 20 C        5.6010     3.3520    -1.2470 C.ar  1 <1>  -0.1500 
 21 C        7.1410     3.8570     0.9880 C.ar  1 <1>   0.0820 
 22 C        5.6920     4.6390    -0.7470 C.ar  1 <1>  -0.1500 
 23 O        7.8890     4.1280     2.0670 O.3   1 <1>  -0.5330 
 24 C        6.4590     4.8910     0.3750 C.ar  1 <1>  -0.1500 
 25 H       -0.2850    -1.9560     1.5710 H     1 <1>   0.0800 
 26 H       -0.0320    -1.4600    -0.0830 H     1 <1>   0.0800 
 27 H        1.0600     0.6460    -0.4510 H     1 <1>   0.0800 
 28 H        1.4610     1.6020     0.9620 H     1 <1>   0.0800 
 29 H        2.0770    -2.2960     1.9220 H     1 <1>   0.0800 
 30 H        3.1680    -0.0140     1.6300 H     1 <1>   0.0800 
 31 H        3.9000     1.7720     0.1460 H     1 <1>   0.0800 
 32 H        3.4390     0.8370    -1.2520 H     1 <1>   0.0800 
 33 H        4.4550    -2.1480     1.1960 H     1 <1>   0.0800 
 34 H        4.0400    -3.0880    -0.2080 H     1 <1>   0.0800 
 35 H        1.8690    -4.6130     2.1800 H     1 <1>   0.1500 
 36 H        1.2590    -2.9210    -1.6940 H     1 <1>   0.1500 
 37 H        5.5760     0.1950     0.6690 H     1 <1>   0.4500 
 38 H        4.8160    -1.3880    -1.7110 H     1 <1>   0.0800 
 39 H        6.0920    -1.7740    -0.5870 H     1 <1>   0.0800 
 40 H        1.6180    -6.8530     1.2350 H     1 <1>   0.1500 
 41 H        1.0010    -5.1750    -2.6290 H     1 <1>   0.1500 
 42 H        7.1070     0.4230    -1.1730 H     1 <1>   0.0800 
 43 H        5.7610     0.9230    -2.1730 H     1 <1>   0.0800 
 44 H        1.1860    -7.1430    -1.1670 H     1 <1>   0.1500 
 45 H        7.5990     1.7790     0.9840 H     1 <1>   0.1500 
 46 H        5.0020     3.1830    -2.1270 H     1 <1>   0.1500 
 47 H        5.1700     5.4500    -1.2290 H     1 <1>   0.1500 
 48 H        8.4160     3.3810     2.4000 H     1 <1>   0.4500 
 49 H        6.5380     5.8870     0.7750 H     1 <1>   0.1500 
@<TRIPOS>BOND
  1   1   2  1   
  2   1   3  1   
  3   2   4  1   
  4   2  25  1   
  5   2  26  1   
  6   3   5  1   
  7   3  27  1   
  8   3  28  1   
  9   4   6  1   
 10   4   7  1   
 11   4  29  1   
 12   5   6  1   
 13   5   8  1   
 14   5  30  1   
 15   6   9  1   
 16   7  10  ar  
 17   7  11  ar  
 18   8  12  1   
 19   8  31  1   
 20   8  32  1   
 21   9  13  1   
 22   9  33  1   
 23   9  34  1   
 24  10  14  ar  
 25  10  35  1   
 26  11  15  ar  
 27  11  36  1   
 28  12  13  1   
 29  12  16  1   
 30  12  37  1   
 31  13  38  1   
 32  13  39  1   
 33  14  17  ar  
 34  14  40  1   
 35  15  17  ar  
 36  15  41  1   
 37  16  18  1   
 38  16  42  1   
 39  16  43  1   
 40  17  44  1   
 41  18  19  ar  
 42  18  20  ar  
 43  19  21  ar  
 44  19  45  1   
 45  20  22  ar  
 46  20  46  1   
 47  21  23  1   
 48  21  24  ar  
 49  22  24  ar  
 50  22  47  1   
 51  23  48  1   
 52  24  49  1   
@<TRIPOS>SUBSTRUCTURE
  1 ****   5 GROUP 4 **** **** 0

# MOE 2024.06 (io_trps.svl 2023.06)
