@<TRIPOS>MOLECULE
NONAME
50 52 1 0 0 
SMALL
USER_CHARGES


@<TRIPOS>ATOM
  1 O       -2.6650     3.4550    -1.3010 O.2   1 <1>  -0.5700 
  2 C       -2.4530     2.8830    -0.2550 C.2   1 <1>   0.5690 
  3 N       -2.4970     1.5050    -0.1360 N.am  1 <1>  -0.4770 
  4 C       -2.1420     3.7780     0.9560 C.3   1 <1>   0.1710 
  5 C       -2.3830     0.5550    -1.1620 C.ar  1 <1>   0.1170 
  6 C       -2.6190     0.7810     1.1610 C.3   1 <1>   0.2200 
  7 N       -0.7000     4.1340     1.0900 N.3   1 <1>  -0.8100 
  8 C       -2.2490    -0.7200    -0.6560 C.ar  1 <1>  -0.1430 
  9 C       -2.3790     0.7370    -2.5400 C.ar  1 <1>  -0.1500 
 10 C       -2.2640    -0.6860     0.8490 C.3   1 <1>  -0.0170 
 11 C       -4.0590     0.9040     1.6740 C.3   1 <1>  -0.2400 
 12 C       -0.5090     5.4320     1.7650 C.3   1 <1>   0.2900 
 13 C        0.0980     3.0640     1.7050 C.3   1 <1>   0.0300 
 14 C       -2.1180    -1.8220    -1.4790 C.ar  1 <1>  -0.1500 
 15 C       -2.2480    -0.3570    -3.3790 C.ar  1 <1>  -0.1500 
 16 C        0.8940     5.9890     1.5670 C.2   1 <1>   0.0060 
 17 C       -2.1180    -1.6340    -2.8520 C.ar  1 <1>  -0.1500 
 18 N        1.5440     6.5820     2.5110 N.2   1 <1>  -0.3380 
 19 N        1.6050     5.9550     0.4280 N.pl3 1 <1>   0.0480 
 20 N        2.7180     6.9570     2.0070 N.2   1 <1>  -0.3380 
 21 C        2.7330     6.5760     0.7780 C.2   1 <1>   0.0360 
 22 C        1.3270     5.3640    -0.9020 C.3   1 <1>   0.0960 
 23 C        0.0920     5.9800    -1.5540 C.3   1 <1>   0.1200 
 24 O        0.1460     5.6930    -2.9150 O.3   1 <1>  -0.5600 
 25 C       -1.0820     5.7970    -3.5610 C.3   1 <1>   0.0400 
 26 H       -2.4960     3.3370     1.8680 H     1 <1>   0.0800 
 27 H       -2.7110     4.6790     0.8050 H     1 <1>   0.0800 
 28 H       -1.9270     1.1730     1.8840 H     1 <1>   0.0800 
 29 H       -2.4780     1.7210    -2.9600 H     1 <1>   0.1500 
 30 H       -2.9820    -1.3780     1.2520 H     1 <1>   0.0800 
 31 H       -1.2880    -0.9230     1.2310 H     1 <1>   0.0800 
 32 H       -4.7460     0.4990     0.9510 H     1 <1>   0.0800 
 33 H       -4.3170     1.9300     1.8600 H     1 <1>   0.0800 
 34 H       -4.1700     0.3580     2.5930 H     1 <1>   0.0800 
 35 H       -0.7080     5.3300     2.8180 H     1 <1>   0.0800 
 36 H       -1.1990     6.1530     1.3640 H     1 <1>   0.0800 
 37 H        0.0330     2.1690     1.1110 H     1 <1>   0.0800 
 38 H       -0.2470     2.8600     2.7040 H     1 <1>   0.0800 
 39 H        1.1350     3.3520     1.7530 H     1 <1>   0.0800 
 40 H       -2.0160    -2.8090    -1.0650 H     1 <1>   0.1500 
 41 H       -2.2460    -0.2140    -4.4450 H     1 <1>   0.1500 
 42 H       -2.0170    -2.4780    -3.5110 H     1 <1>   0.1500 
 43 H        3.5530     6.7320     0.1010 H     1 <1>   0.1500 
 44 H        1.1840     4.3050    -0.7930 H     1 <1>   0.0800 
 45 H        2.1790     5.5350    -1.5340 H     1 <1>   0.0800 
 46 H        0.0830     7.0500    -1.4410 H     1 <1>   0.0800 
 47 H       -0.8030     5.5490    -1.1380 H     1 <1>   0.0800 
 48 H       -0.9300     5.5960    -4.6060 H     1 <1>   0.0800 
 49 H       -1.4720     6.7910    -3.4320 H     1 <1>   0.0800 
 50 H       -1.7610     5.0680    -3.1500 H     1 <1>   0.0800 
@<TRIPOS>BOND
  1   1   2  2   
  2   2   3  am  
  3   2   4  1   
  4   3   5  1   
  5   3   6  1   
  6   4   7  1   
  7   4  26  1   
  8   4  27  1   
  9   5   8  ar  
 10   5   9  ar  
 11   6  10  1   
 12   6  11  1   
 13   6  28  1   
 14   7  12  1   
 15   7  13  1   
 16   8  10  1   
 17   8  14  ar  
 18   9  15  ar  
 19   9  29  1   
 20  10  30  1   
 21  10  31  1   
 22  11  32  1   
 23  11  33  1   
 24  11  34  1   
 25  12  16  1   
 26  12  35  1   
 27  12  36  1   
 28  13  37  1   
 29  13  38  1   
 30  13  39  1   
 31  14  17  ar  
 32  14  40  1   
 33  15  17  ar  
 34  15  41  1   
 35  16  18  2   
 36  16  19  1   
 37  17  42  1   
 38  18  20  1   
 39  19  21  1   
 40  19  22  1   
 41  20  21  2   
 42  21  43  1   
 43  22  23  1   
 44  22  44  1   
 45  22  45  1   
 46  23  24  1   
 47  23  46  1   
 48  23  47  1   
 49  24  25  1   
 50  25  48  1   
 51  25  49  1   
 52  25  50  1   
@<TRIPOS>SUBSTRUCTURE
  1 ****   2 GROUP 4 **** **** 0

# MOE 2024.06 (io_trps.svl 2023.06)
