@<TRIPOS>MOLECULE
NONAME
45 46 1 0 0 
SMALL
USER_CHARGES


@<TRIPOS>ATOM
  1 O       -1.0200     1.5230     2.4860 O.2   1 <1>  -0.5700 
  2 C       -1.5320     1.6870     1.3930 C.2   1 <1>   0.5440 
  3 N       -1.9910     0.5890     0.7000 N.am  1 <1>  -0.6600 
  4 C       -1.6480     3.0260     0.8630 C.ar  1 <1>   0.0860 
  5 C       -1.9030    -0.7910     1.2920 C.3   1 <1>   0.1400 
  6 C       -2.5880     0.6550    -0.6650 C.3   1 <1>   0.1400 
  7 C       -0.7900     3.5930    -0.1010 C.ar  1 <1>   0.0820 
  8 C       -2.7080     3.8080     1.3260 C.ar  1 <1>  -0.1500 
  9 C       -2.8840    -1.8040     0.6650 C.3   1 <1>   0.2000 
 10 C       -4.0120     0.0780    -0.6660 C.3   1 <1>  -0.1600 
 11 O        0.2970     2.9940    -0.6510 O.3   1 <1>  -0.3630 
 12 C       -1.0310     4.8760    -0.5700 C.ar  1 <1>  -0.1500 
 13 C       -2.9340     5.0870     0.8560 C.ar  1 <1>  -0.1500 
 14 O       -2.3310    -2.3570    -0.4810 O.3   1 <1>  -0.6800 
 15 C       -4.2080    -1.1290     0.2890 C.3   1 <1>  -0.1860 
 16 C        1.0020     1.9280    -0.0510 C.3   1 <1>   0.1200 
 17 C       -2.0930     5.6240    -0.1000 C.ar  1 <1>  -0.1500 
 18 C       -5.1860    -2.1530    -0.2530 C.2   1 <1>   0.9060 
 19 C        2.3660     1.8150    -0.7290 C.3   1 <1>  -0.1600 
 20 O       -6.3030    -2.2370     0.2600 O.co2 1 <1>  -0.9000 
 21 O       -4.8190    -2.8860    -1.1830 O.co2 1 <1>  -0.9000 
 22 C        3.1790     0.6560    -0.1380 C.3   1 <1>  -0.1600 
 23 C        4.5460     0.5380    -0.8180 C.3   1 <1>  -0.2400 
 24 H       -0.8970    -1.1610     1.2020 H     1 <1>   0.0800 
 25 H       -2.1340    -0.7180     2.3400 H     1 <1>   0.0800 
 26 H       -2.6050     1.6610    -1.0430 H     1 <1>   0.0800 
 27 H       -1.9710     0.0710    -1.3270 H     1 <1>   0.0800 
 28 H       -3.3660     3.3900     2.0690 H     1 <1>   0.1500 
 29 H       -3.0630    -2.6160     1.3490 H     1 <1>   0.0800 
 30 H       -4.7130     0.8490    -0.4020 H     1 <1>   0.0800 
 31 H       -4.2400    -0.2250    -1.6730 H     1 <1>   0.0800 
 32 H       -0.3700     5.2900    -1.3110 H     1 <1>   0.1500 
 33 H       -3.7620     5.6640     1.2320 H     1 <1>   0.1500 
 34 H       -3.1080    -2.7380    -0.9890 H     1 <1>   0.4000 
 35 H       -4.6340    -0.7550     1.2010 H     1 <1>   0.0800 
 36 H        1.1170     2.1370     0.9990 H     1 <1>   0.0800 
 37 H        0.4410     1.0220    -0.1950 H     1 <1>   0.0800 
 38 H       -2.2620     6.6190    -0.4740 H     1 <1>   0.1500 
 39 H        2.2210     1.6500    -1.7830 H     1 <1>   0.0800 
 40 H        2.9030     2.7380    -0.5930 H     1 <1>   0.0800 
 41 H        3.3210     0.8160     0.9180 H     1 <1>   0.0800 
 42 H        2.6380    -0.2660    -0.2660 H     1 <1>   0.0800 
 43 H        5.1110     1.4430    -0.6850 H     1 <1>   0.0800 
 44 H        4.4260     0.3560    -1.8720 H     1 <1>   0.0800 
 45 H        5.1000    -0.2780    -0.3900 H     1 <1>   0.0800 
@<TRIPOS>BOND
  1   1   2  2   
  2   2   3  am  
  3   2   4  1   
  4   3   5  1   
  5   3   6  1   
  6   4   7  ar  
  7   4   8  ar  
  8   5   9  1   
  9   5  24  1   
 10   5  25  1   
 11   6  10  1   
 12   6  26  1   
 13   6  27  1   
 14   7  11  1   
 15   7  12  ar  
 16   8  13  ar  
 17   8  28  1   
 18   9  14  1   
 19   9  15  1   
 20   9  29  1   
 21  10  15  1   
 22  10  30  1   
 23  10  31  1   
 24  11  16  1   
 25  12  17  ar  
 26  12  32  1   
 27  13  17  ar  
 28  13  33  1   
 29  14  34  1   
 30  15  18  1   
 31  15  35  1   
 32  16  19  1   
 33  16  36  1   
 34  16  37  1   
 35  17  38  1   
 36  18  20  ar  
 37  18  21  ar  
 38  19  22  1   
 39  19  39  1   
 40  19  40  1   
 41  22  23  1   
 42  22  41  1   
 43  22  42  1   
 44  23  43  1   
 45  23  44  1   
 46  23  45  1   
@<TRIPOS>SUBSTRUCTURE
  1 ****   3 GROUP 4 **** **** 0

# MOE 2024.06 (io_trps.svl 2023.06)
