@<TRIPOS>MOLECULE
NONAME
47 49 1 0 0 
SMALL
USER_CHARGES


@<TRIPOS>ATOM
  1 CL      -0.6390     0.8950     0.3580 Cl    1 <1>  -0.1770 
  2 C       -1.9380    -0.2520     0.1540 C.ar  1 <1>   0.1770 
  3 C       -3.2450     0.1890     0.2220 C.ar  1 <1>  -0.1500 
  4 C       -1.6350    -1.5810    -0.0720 C.ar  1 <1>  -0.1500 
  5 C       -4.2910    -0.7110     0.0620 C.ar  1 <1>   0.1170 
  6 C       -2.6700    -2.4860    -0.2360 C.ar  1 <1>  -0.1500 
  7 N       -5.6070    -0.2360     0.1200 N.am  1 <1>  -0.5470 
  8 C       -3.9830    -2.0500    -0.1700 C.ar  1 <1>  -0.1500 
  9 C       -6.7780    -0.8610     0.4450 C.2   1 <1>   0.6900 
 10 O       -6.7840    -1.9940     0.8890 O.2   1 <1>  -0.5700 
 11 N       -7.9510    -0.1720     0.2870 N.am  1 <1>  -0.6600 
 12 C       -9.1970    -0.6730     0.9310 C.3   1 <1>   0.1400 
 13 C       -8.0920     0.9890    -0.6380 C.3   1 <1>   0.1400 
 14 C      -10.1510     0.4860     1.2330 C.3   1 <1>  -0.1600 
 15 C       -9.5270     1.0830    -1.1570 C.3   1 <1>  -0.1600 
 16 C      -10.5320     1.3380    -0.0090 C.3   1 <1>   0.2800 
 17 O      -10.3310     2.6770     0.3920 O.3   1 <1>  -0.5600 
 18 C      -12.0230     1.0740    -0.4380 C.3   1 <1>   0.2000 
 19 C      -11.1240     3.6710    -0.1760 C.3   1 <1>   0.1200 
 20 O      -12.1980     1.2540    -1.8230 O.3   1 <1>  -0.6800 
 21 C      -13.0180     1.9940     0.3270 C.3   1 <1>   0.2800 
 22 C      -12.6000     3.4730     0.2050 C.3   1 <1>  -0.1600 
 23 O      -12.9960     1.6620     1.6680 O.3   1 <1>  -0.6800 
 24 C      -14.4780     1.7890    -0.0970 C.3   1 <1>  -0.2400 
 25 H       -3.4390     1.2290     0.4030 H     1 <1>   0.1500 
 26 H       -0.6090    -1.8990    -0.1190 H     1 <1>   0.1500 
 27 H       -2.4580    -3.5260    -0.4120 H     1 <1>   0.1500 
 28 H       -5.7240     0.7670     0.0360 H     1 <1>   0.3700 
 29 H       -4.7780    -2.7620    -0.3020 H     1 <1>   0.1500 
 30 H       -9.6710    -1.3830     0.2740 H     1 <1>   0.0800 
 31 H       -8.9510    -1.1820     1.8490 H     1 <1>   0.0800 
 32 H       -7.8400     1.8950    -0.1110 H     1 <1>   0.0800 
 33 H       -7.4210     0.8730    -1.4720 H     1 <1>   0.0800 
 34 H       -9.6830     1.1090     1.9740 H     1 <1>   0.0800 
 35 H      -11.0280     0.0690     1.6900 H     1 <1>   0.0800 
 36 H       -9.7650     0.1620    -1.6590 H     1 <1>   0.0800 
 37 H       -9.5900     1.8680    -1.8870 H     1 <1>   0.0800 
 38 H      -12.2740     0.0460    -0.2490 H     1 <1>   0.0800 
 39 H      -10.7690     4.6200     0.1890 H     1 <1>   0.0800 
 40 H      -10.9860     3.6450    -1.2420 H     1 <1>   0.0800 
 41 H      -11.9720     2.1690    -2.0680 H     1 <1>   0.4000 
 42 H      -13.1840     3.9510    -0.5610 H     1 <1>   0.0800 
 43 H      -12.8040     3.9990     1.1200 H     1 <1>   0.0800 
 44 H      -13.5710     2.2700     2.1670 H     1 <1>   0.4000 
 45 H      -14.6080     2.0390    -1.1340 H     1 <1>   0.0800 
 46 H      -15.1370     2.4110     0.4820 H     1 <1>   0.0800 
 47 H      -14.7570     0.7580     0.0300 H     1 <1>   0.0800 
@<TRIPOS>BOND
  1   1   2  1   
  2   2   3  ar  
  3   2   4  ar  
  4   3   5  ar  
  5   3  25  1   
  6   4   6  ar  
  7   4  26  1   
  8   5   7  1   
  9   5   8  ar  
 10   6   8  ar  
 11   6  27  1   
 12   7   9  am  
 13   7  28  1   
 14   8  29  1   
 15   9  10  2   
 16   9  11  am  
 17  11  12  1   
 18  11  13  1   
 19  12  14  1   
 20  12  30  1   
 21  12  31  1   
 22  13  15  1   
 23  13  32  1   
 24  13  33  1   
 25  14  16  1   
 26  14  34  1   
 27  14  35  1   
 28  15  16  1   
 29  15  36  1   
 30  15  37  1   
 31  16  17  1   
 32  16  18  1   
 33  17  19  1   
 34  18  20  1   
 35  18  21  1   
 36  18  38  1   
 37  19  22  1   
 38  19  39  1   
 39  19  40  1   
 40  20  41  1   
 41  21  22  1   
 42  21  23  1   
 43  21  24  1   
 44  22  42  1   
 45  22  43  1   
 46  23  44  1   
 47  24  45  1   
 48  24  46  1   
 49  24  47  1   
@<TRIPOS>SUBSTRUCTURE
  1 ****  11 GROUP 4 **** **** 0

# MOE 2024.06 (io_trps.svl 2023.06)
