@<TRIPOS>MOLECULE
NONAME
47 50 1 0 0 
SMALL
USER_CHARGES


@<TRIPOS>ATOM
  1 O        0.7560     0.1810    -1.0360 O.2   1 <1>  -0.5700 
  2 C        0.9770     1.3200    -0.7220 C.2   1 <1>   0.4230 
  3 C        2.2430     1.9430    -0.4930 C.ar  1 <1>   0.0860 
  4 C       -0.1240     2.3370    -0.5150 C.3   1 <1>  -0.0990 
  5 C        2.0850     3.2710    -0.1520 C.ar  1 <1>  -0.1440 
  6 C        3.5170     1.3970    -0.5760 C.ar  1 <1>  -0.1500 
  7 C        0.6080     3.6360    -0.1200 C.3   1 <1>  -0.0160 
  8 C        3.1710     4.1070     0.1110 C.ar  1 <1>   0.0860 
  9 C        4.6150     2.1950    -0.3130 C.ar  1 <1>  -0.1500 
 10 C        3.0120     5.5090     0.4510 C.2   1 <1>   0.5440 
 11 C        4.4420     3.5270     0.0270 C.ar  1 <1>  -0.1500 
 12 O        2.1480     5.8600     1.2320 O.2   1 <1>  -0.5700 
 13 N        3.8600     6.4200    -0.1140 N.am  1 <1>  -0.4930 
 14 C        4.1080     7.7780     0.2010 C.2   1 <1>   0.0630 
 15 C        5.4010     8.3120     0.2120 C.2   1 <1>   0.3720 
 16 C        3.3000     8.8150     0.5170 C.2   1 <1>  -0.3320 
 17 N        5.4190     9.5690     0.5290 N.2   1 <1>  -0.7070 
 18 N        6.5590     7.5640    -0.0840 N.pl3 1 <1>  -0.8210 
 19 N        4.1180     9.8780     0.7270 N.pl3 1 <1>   0.3140 
 20 C        1.7840     8.8710     0.6230 C.3   1 <1>  -0.0600 
 21 C        7.4040     7.3810     1.1280 C.3   1 <1>   0.2090 
 22 C        7.3970     8.2150    -1.1320 C.3   1 <1>   0.2090 
 23 C        3.7210    11.2350     1.1210 C.3   1 <1>   0.0160 
 24 C        8.8410     7.5910     0.6770 C.3   1 <1>  -0.1600 
 25 C        8.7150     8.5840    -0.4660 C.3   1 <1>  -0.1600 
 26 H       -0.7820     2.0070     0.2680 H     1 <1>   0.0800 
 27 H       -0.6780     2.4630    -1.4270 H     1 <1>   0.0800 
 28 H        3.6300     0.3600    -0.8430 H     1 <1>   0.1500 
 29 H        0.3200     3.9480     0.8700 H     1 <1>   0.0800 
 30 H        0.3970     4.4280    -0.8180 H     1 <1>   0.0800 
 31 H        5.6070     1.7770    -0.3700 H     1 <1>   0.1500 
 32 H        5.3110     4.1270     0.2390 H     1 <1>   0.1500 
 33 H        4.6480     6.0350    -0.6340 H     1 <1>   0.3700 
 34 H        1.3450     8.0120     0.1510 H     1 <1>   0.0800 
 35 H        1.4010     9.7490     0.1350 H     1 <1>   0.0800 
 36 H        1.4880     8.8800     1.6570 H     1 <1>   0.0800 
 37 H        7.2620     6.3960     1.5380 H     1 <1>   0.0800 
 38 H        7.1470     8.1130     1.8770 H     1 <1>   0.0800 
 39 H        6.9170     9.0860    -1.5480 H     1 <1>   0.0800 
 40 H        7.5690     7.5040    -1.9210 H     1 <1>   0.0800 
 41 H        3.0820    11.1800     1.9820 H     1 <1>   0.0800 
 42 H        3.2030    11.7000     0.3050 H     1 <1>   0.0800 
 43 H        4.6010    11.8030     1.3610 H     1 <1>   0.0800 
 44 H        9.2370     6.6580     0.3160 H     1 <1>   0.0800 
 45 H        9.4600     7.9580     1.4750 H     1 <1>   0.0800 
 46 H        8.6340     9.5830    -0.0750 H     1 <1>   0.0800 
 47 H        9.5410     8.5360    -1.1530 H     1 <1>   0.0800 
@<TRIPOS>BOND
  1   1   2  2   
  2   2   3  1   
  3   2   4  1   
  4   3   5  ar  
  5   3   6  ar  
  6   4   7  1   
  7   4  26  1   
  8   4  27  1   
  9   5   7  1   
 10   5   8  ar  
 11   6   9  ar  
 12   6  28  1   
 13   7  29  1   
 14   7  30  1   
 15   8  10  1   
 16   8  11  ar  
 17   9  11  ar  
 18   9  31  1   
 19  10  12  2   
 20  10  13  am  
 21  11  32  1   
 22  13  14  1   
 23  13  33  1   
 24  14  15  1   
 25  14  16  2   
 26  15  17  2   
 27  15  18  1   
 28  16  19  1   
 29  16  20  1   
 30  17  19  1   
 31  18  21  1   
 32  18  22  1   
 33  19  23  1   
 34  20  34  1   
 35  20  35  1   
 36  20  36  1   
 37  21  24  1   
 38  21  37  1   
 39  21  38  1   
 40  22  25  1   
 41  22  39  1   
 42  22  40  1   
 43  23  41  1   
 44  23  42  1   
 45  23  43  1   
 46  24  25  1   
 47  24  44  1   
 48  24  45  1   
 49  25  46  1   
 50  25  47  1   
@<TRIPOS>SUBSTRUCTURE
  1 ****  13 GROUP 4 **** **** 0

# MOE 2024.06 (io_trps.svl 2023.06)
