@<TRIPOS>MOLECULE
NONAME
57 59 1 0 0 
SMALL
USER_CHARGES


@<TRIPOS>ATOM
  1 F       -2.7190    -2.3330    -0.5950 F     1 <1>  -0.1900 
  2 C       -3.6080    -1.3820    -0.4630 C.ar  1 <1>   0.1900 
  3 C       -3.9080    -0.5430    -1.5320 C.ar  1 <1>   0.0830 
  4 C       -4.2270    -1.2400     0.7630 C.ar  1 <1>  -0.1500 
  5 O       -3.3280    -0.6690    -2.7480 O.3   1 <1>  -0.3630 
  6 C       -4.8360     0.4670    -1.3440 C.ar  1 <1>  -0.1500 
  7 C       -5.1670    -0.2380     0.9240 C.ar  1 <1>  -0.1500 
  8 C       -3.7070    -1.7980    -3.5060 C.3   1 <1>   0.0400 
  9 C       -5.4950     0.6280    -0.1240 C.ar  1 <1>   0.0530 
 10 C       -6.5060     1.6380     0.0390 C.2   1 <1>   0.0870 
 11 O       -6.3810     2.8320    -0.4780 O.3   1 <1>  -0.0190 
 12 C       -7.7090     1.5980     0.6620 C.2   1 <1>  -0.0860 
 13 N       -7.4180     3.5950    -0.2380 N.2   1 <1>  -0.4100 
 14 C       -8.2340     2.8760     0.4550 C.2   1 <1>   0.3720 
 15 C       -8.3220     0.4850     1.3070 C.2   1 <1>   0.7160 
 16 N       -9.4880     3.3220     0.9070 N.pl3 1 <1>  -0.8210 
 17 O       -8.2460     0.3730     2.5190 O.2   1 <1>  -0.5700 
 18 N       -8.9210    -0.5160     0.5730 N.am  1 <1>  -0.6600 
 19 C       -9.9450     4.6410     0.3860 C.3   1 <1>   0.1290 
 20 C       -9.7460     3.1450     2.3650 C.3   1 <1>   0.1290 
 21 C       -9.2530    -0.3860    -0.8670 C.3   1 <1>   0.1400 
 22 C       -9.1090    -1.8840     1.1050 C.3   1 <1>   0.1400 
 23 C       -8.3490    -1.3160    -1.6800 C.3   1 <1>  -0.1600 
 24 C       -8.1770    -2.8340     0.3470 C.3   1 <1>  -0.1600 
 25 C       -8.3900    -2.7860    -1.1890 C.3   1 <1>  -0.0800 
 26 C       -7.4200    -3.7190    -1.9810 C.3   1 <1>   0.2800 
 27 O       -6.1350    -3.2620    -1.8340 O.3   1 <1>  -0.6800 
 28 C       -7.4220    -5.1630    -1.4710 C.3   1 <1>  -0.2400 
 29 C       -7.6960    -3.7200    -3.4880 C.3   1 <1>  -0.2400 
 30 H       -3.9730    -1.9000     1.5740 H     1 <1>   0.1500 
 31 H       -5.0590     1.1260    -2.1630 H     1 <1>   0.1500 
 32 H       -5.6520    -0.1200     1.8790 H     1 <1>   0.1500 
 33 H       -3.2150    -1.7450    -4.4590 H     1 <1>   0.0800 
 34 H       -4.7750    -1.7840    -3.6400 H     1 <1>   0.0800 
 35 H       -3.4110    -2.6930    -2.9890 H     1 <1>   0.0800 
 36 H       -9.8220     4.6760    -0.6830 H     1 <1>   0.0800 
 37 H       -9.3640     5.4320     0.8290 H     1 <1>   0.0800 
 38 H      -10.9860     4.7880     0.6160 H     1 <1>   0.0800 
 39 H      -10.2980     2.2340     2.5240 H     1 <1>   0.0800 
 40 H      -10.3190     3.9670     2.7580 H     1 <1>   0.0800 
 41 H       -8.8160     3.0850     2.9060 H     1 <1>   0.0800 
 42 H       -9.1360     0.6310    -1.2020 H     1 <1>   0.0800 
 43 H      -10.2830    -0.6610    -1.0120 H     1 <1>   0.0800 
 44 H      -10.1350    -2.1780     0.9700 H     1 <1>   0.0800 
 45 H       -8.8870    -1.9180     2.1590 H     1 <1>   0.0800 
 46 H       -7.3420    -0.9420    -1.6340 H     1 <1>   0.0800 
 47 H       -8.6640    -1.2580    -2.7050 H     1 <1>   0.0800 
 48 H       -8.3600    -3.8250     0.7180 H     1 <1>   0.0800 
 49 H       -7.1620    -2.5730     0.5900 H     1 <1>   0.0800 
 50 H       -9.3870    -3.1480    -1.3730 H     1 <1>   0.0800 
 51 H       -5.9320    -3.1760    -0.8850 H     1 <1>   0.4000 
 52 H       -7.0610    -5.2280    -0.4620 H     1 <1>   0.0800 
 53 H       -6.7930    -5.7780    -2.0890 H     1 <1>   0.0800 
 54 H       -8.4190    -5.5640    -1.5070 H     1 <1>   0.0800 
 55 H       -7.5210    -2.7510    -3.9160 H     1 <1>   0.0800 
 56 H       -8.7150    -4.0030    -3.6770 H     1 <1>   0.0800 
 57 H       -7.0530    -4.4240    -3.9860 H     1 <1>   0.0800 
@<TRIPOS>BOND
  1   1   2  1   
  2   2   3  ar  
  3   2   4  ar  
  4   3   5  1   
  5   3   6  ar  
  6   4   7  ar  
  7   4  30  1   
  8   5   8  1   
  9   6   9  ar  
 10   6  31  1   
 11   7   9  ar  
 12   7  32  1   
 13   8  33  1   
 14   8  34  1   
 15   8  35  1   
 16   9  10  1   
 17  10  11  1   
 18  10  12  2   
 19  11  13  1   
 20  12  14  1   
 21  12  15  1   
 22  13  14  2   
 23  14  16  1   
 24  15  17  2   
 25  15  18  am  
 26  16  19  1   
 27  16  20  1   
 28  18  21  1   
 29  18  22  1   
 30  19  36  1   
 31  19  37  1   
 32  19  38  1   
 33  20  39  1   
 34  20  40  1   
 35  20  41  1   
 36  21  23  1   
 37  21  42  1   
 38  21  43  1   
 39  22  24  1   
 40  22  44  1   
 41  22  45  1   
 42  23  25  1   
 43  23  46  1   
 44  23  47  1   
 45  24  25  1   
 46  24  48  1   
 47  24  49  1   
 48  25  26  1   
 49  25  50  1   
 50  26  27  1   
 51  26  28  1   
 52  26  29  1   
 53  27  51  1   
 54  28  52  1   
 55  28  53  1   
 56  28  54  1   
 57  29  55  1   
 58  29  56  1   
 59  29  57  1   
@<TRIPOS>SUBSTRUCTURE
  1 ****   9 GROUP 4 **** **** 0

# MOE 2024.06 (io_trps.svl 2023.06)
