@<TRIPOS>MOLECULE
NONAME
60 64 1 0 0 
SMALL
USER_CHARGES


@<TRIPOS>ATOM
  1 O       -3.7700     0.9390     1.1630 O.3   1 <1>  -0.5600 
  2 C       -3.0150     1.8120     1.9480 C.3   1 <1>   0.1200 
  3 C       -3.0730    -0.2140     0.8000 C.3   1 <1>   0.0400 
  4 C       -3.8660     3.0280     2.3280 C.3   1 <1>   0.0960 
  5 N       -4.1960     3.8740     1.1540 N.pl3 1 <1>   0.0480 
  6 C       -5.0510     3.6630     0.1190 C.2   1 <1>   0.0060 
  7 C       -3.6980     5.1030     0.9290 C.2   1 <1>  -0.3020 
  8 N       -5.1180     4.6590    -0.7160 N.2   1 <1>  -0.5650 
  9 C       -5.8550     2.3820    -0.0620 C.3   1 <1>   0.5230 
 10 C       -4.2630     5.5630    -0.2070 C.2   1 <1>   0.0770 
 11 N       -6.9770     2.6950    -0.9810 N.4   1 <1>  -0.9590 
 12 C       -8.0770     3.4220    -0.2670 C.3   1 <1>   0.3430 
 13 C       -7.4500     1.5300    -1.7700 C.3   1 <1>   0.3430 
 14 C       -9.1580     3.9160    -1.2410 C.3   1 <1>   0.1430 
 15 C       -8.5030     1.9920    -2.7820 C.3   1 <1>  -0.1600 
 16 C      -10.2550     4.5250    -0.4000 C.ar  1 <1>   0.1670 
 17 C       -9.6650     2.7390    -2.1040 C.3   1 <1>  -0.1600 
 18 C       -8.6700     5.1140    -2.1030 C.3   1 <1>  -0.1600 
 19 N      -11.0430     3.8480     0.3980 N.ar  1 <1>  -0.6200 
 20 C      -10.3130     5.8760    -0.5380 C.ar  1 <1>  -0.1430 
 21 C       -9.2610     6.3960    -1.4840 C.3   1 <1>  -0.0170 
 22 C      -11.9590     4.5710     1.0610 C.ar  1 <1>   0.6200 
 23 C      -11.2680     6.5460     0.1820 C.ar  1 <1>   0.1600 
 24 N      -12.0910     5.9020     0.9770 N.ar  1 <1>  -0.6200 
 25 C      -12.8780     3.8560     1.9370 C.ar  1 <1>   0.0000 
 26 C      -12.5270     2.6450     2.5440 C.ar  1 <1>  -0.1500 
 27 C      -14.1570     4.3470     2.2130 C.ar  1 <1>  -0.1500 
 28 C      -13.3990     1.9660     3.3750 C.ar  1 <1>  -0.1500 
 29 C      -15.0350     3.6740     3.0430 C.ar  1 <1>  -0.1500 
 30 C      -14.6580     2.4800     3.6260 C.ar  1 <1>  -0.1500 
 31 H       -2.1410     2.1200     1.3980 H     1 <1>   0.0800 
 32 H       -2.7110     1.2900     2.8390 H     1 <1>   0.0800 
 33 H       -3.7220    -0.8320     0.2050 H     1 <1>   0.0800 
 34 H       -2.7820    -0.7510     1.6870 H     1 <1>   0.0800 
 35 H       -2.2050     0.0580     0.2240 H     1 <1>   0.0800 
 36 H       -3.3170     3.6280     3.0300 H     1 <1>   0.0800 
 37 H       -4.7720     2.7060     2.8070 H     1 <1>   0.0800 
 38 H       -2.9800     5.5830     1.5700 H     1 <1>   0.1500 
 39 H       -6.2180     2.0190     0.8840 H     1 <1>   0.0800 
 40 H       -5.2140     1.6350    -0.4990 H     1 <1>   0.0800 
 41 H       -4.0910     6.5140    -0.6880 H     1 <1>   0.1500 
 42 H       -6.5370     3.3930    -1.6080 H     1 <1>   0.4500 
 43 H       -7.6730     4.2690     0.2640 H     1 <1>   0.0800 
 44 H       -8.5390     2.7650     0.4510 H     1 <1>   0.0800 
 45 H       -7.8850     0.7960    -1.1100 H     1 <1>   0.0800 
 46 H       -6.6230     1.0740    -2.2910 H     1 <1>   0.0800 
 47 H       -8.8900     1.1300    -3.2980 H     1 <1>   0.0800 
 48 H       -8.0350     2.6210    -3.5200 H     1 <1>   0.0800 
 49 H      -10.3630     3.0950    -2.8430 H     1 <1>   0.0800 
 50 H      -10.2000     2.0470    -1.4750 H     1 <1>   0.0800 
 51 H       -9.0540     5.0240    -3.1050 H     1 <1>   0.0800 
 52 H       -7.5980     5.1780    -2.1620 H     1 <1>   0.0800 
 53 H       -9.6900     7.0360    -2.2360 H     1 <1>   0.0800 
 54 H       -8.5100     6.9370    -0.9340 H     1 <1>   0.0800 
 55 H      -11.3590     7.6170     0.1090 H     1 <1>   0.1500 
 56 H      -11.5530     2.2280     2.3630 H     1 <1>   0.1500 
 57 H      -14.4720     5.2760     1.7680 H     1 <1>   0.1500 
 58 H      -13.1010     1.0360     3.8270 H     1 <1>   0.1500 
 59 H      -16.0130     4.0800     3.2340 H     1 <1>   0.1500 
 60 H      -15.3390     1.9530     4.2730 H     1 <1>   0.1500 
@<TRIPOS>BOND
  1   1   2  1   
  2   1   3  1   
  3   2   4  1   
  4   2  31  1   
  5   2  32  1   
  6   3  33  1   
  7   3  34  1   
  8   3  35  1   
  9   4   5  1   
 10   4  36  1   
 11   4  37  1   
 12   5   6  1   
 13   5   7  1   
 14   6   8  2   
 15   6   9  1   
 16   7  10  2   
 17   7  38  1   
 18   8  10  1   
 19   9  11  1   
 20   9  39  1   
 21   9  40  1   
 22  10  41  1   
 23  11  12  1   
 24  11  13  1   
 25  11  42  1   
 26  12  14  1   
 27  12  43  1   
 28  12  44  1   
 29  13  15  1   
 30  13  45  1   
 31  13  46  1   
 32  14  16  1   
 33  14  17  1   
 34  14  18  1   
 35  15  17  1   
 36  15  47  1   
 37  15  48  1   
 38  16  19  ar  
 39  16  20  ar  
 40  17  49  1   
 41  17  50  1   
 42  18  21  1   
 43  18  51  1   
 44  18  52  1   
 45  19  22  ar  
 46  20  21  1   
 47  20  23  ar  
 48  21  53  1   
 49  21  54  1   
 50  22  24  ar  
 51  22  25  1   
 52  23  24  ar  
 53  23  55  1   
 54  25  26  ar  
 55  25  27  ar  
 56  26  28  ar  
 57  26  56  1   
 58  27  29  ar  
 59  27  57  1   
 60  28  30  ar  
 61  28  58  1   
 62  29  30  ar  
 63  29  59  1   
 64  30  60  1   
@<TRIPOS>SUBSTRUCTURE
  1 ****  12 GROUP 4 **** **** 0

# MOE 2024.06 (io_trps.svl 2023.06)
