@<TRIPOS>MOLECULE
NONAME
55 58 1 0 0 
SMALL
USER_CHARGES


@<TRIPOS>ATOM
  1 O        1.2990     0.5300    -0.8270 O.2   1 <1>  -0.5700 
  2 C        2.0990    -0.2980    -0.4030 C.2   1 <1>   0.4690 
  3 C        3.0880     0.0400     0.5760 C.2   1 <1>   0.0290 
  4 C        2.0250    -1.6480    -0.8980 C.ar  1 <1>   0.0860 
  5 C        3.2540     1.3890     1.0680 C.2   1 <1>   0.6160 
  6 C        3.8940    -0.9670     1.0350 C.2   1 <1>  -0.0500 
  7 C        2.8920    -2.6270    -0.3860 C.ar  1 <1>   0.4100 
  8 C        1.1150    -2.0390    -1.8780 C.ar  1 <1>  -0.1500 
  9 O        4.0310     1.6010     1.9870 O.2   1 <1>  -0.5700 
 10 N        2.5810     2.4510     0.5340 N.am  1 <1>  -0.4930 
 11 N        3.8150    -2.2590     0.5950 N.pl3 1 <1>  -0.5690 
 12 N        2.8830    -3.9030    -0.7890 N.ar  1 <1>  -0.6200 
 13 C        1.1160    -3.3490    -2.2840 C.ar  1 <1>  -0.1500 
 14 C        3.0900     3.7680     0.4270 C.2   1 <1>   0.0630 
 15 C        4.7390    -3.2640     1.1900 C.3   1 <1>   0.2090 
 16 C        2.0140    -4.2390    -1.7120 C.ar  1 <1>   0.1670 
 17 C        4.2390     4.1650    -0.2730 C.2   1 <1>   0.3720 
 18 C        2.5840     4.9040     0.9490 C.2   1 <1>  -0.3320 
 19 C        4.0700    -3.9180     2.3970 C.3   1 <1>  -0.2400 
 20 C        2.0270    -5.6890    -2.1470 C.3   1 <1>  -0.0970 
 21 N        4.4410     5.4450    -0.1920 N.2   1 <1>  -0.7070 
 22 N        5.1000     3.2900    -0.9680 N.pl3 1 <1>  -0.8210 
 23 N        3.4190     5.9010     0.5650 N.pl3 1 <1>   0.3140 
 24 C        1.3440     5.0870     1.8100 C.3   1 <1>  -0.0600 
 25 C        6.2340     2.8740    -0.1010 C.3   1 <1>   0.2090 
 26 C        5.6570     3.8540    -2.2280 C.3   1 <1>   0.2090 
 27 C        3.3060     7.3260     0.8970 C.3   1 <1>   0.0160 
 28 C        7.4830     2.9540    -0.9680 C.3   1 <1>  -0.1600 
 29 C        7.1500     4.0270    -1.9900 C.3   1 <1>  -0.1600 
 30 H        4.6410    -0.7520     1.7840 H     1 <1>   0.1500 
 31 H        0.4300    -1.3250    -2.3040 H     1 <1>   0.1500 
 32 H        1.9190     2.1940    -0.2070 H     1 <1>   0.3700 
 33 H        0.4260    -3.6840    -3.0390 H     1 <1>   0.1500 
 34 H        5.6470    -2.7760     1.5000 H     1 <1>   0.0800 
 35 H        5.0070    -4.0100     0.4610 H     1 <1>   0.0800 
 36 H        3.8220    -3.1770     3.1340 H     1 <1>   0.0800 
 37 H        4.7380    -4.6350     2.8380 H     1 <1>   0.0800 
 38 H        3.1760    -4.4290     2.0880 H     1 <1>   0.0800 
 39 H        1.8310    -6.3200    -1.2980 H     1 <1>   0.0800 
 40 H        2.9950    -5.9370    -2.5420 H     1 <1>   0.0800 
 41 H        1.2850    -5.8790    -2.9000 H     1 <1>   0.0800 
 42 H        0.8680     4.1380     1.9810 H     1 <1>   0.0800 
 43 H        0.6430     5.7380     1.3200 H     1 <1>   0.0800 
 44 H        1.6140     5.5070     2.7620 H     1 <1>   0.0800 
 45 H        6.0780     1.8750     0.2670 H     1 <1>   0.0800 
 46 H        6.3240     3.5460     0.7380 H     1 <1>   0.0800 
 47 H        5.1920     4.7870    -2.4990 H     1 <1>   0.0800 
 48 H        5.4890     3.1440    -3.0180 H     1 <1>   0.0800 
 49 H        2.3700     7.7000     0.5290 H     1 <1>   0.0800 
 50 H        4.1160     7.8590     0.4350 H     1 <1>   0.0800 
 51 H        3.3580     7.4430     1.9620 H     1 <1>   0.0800 
 52 H        7.6290     2.0080    -1.4580 H     1 <1>   0.0800 
 53 H        8.3550     3.1930    -0.3860 H     1 <1>   0.0800 
 54 H        7.3170     5.0020    -1.5660 H     1 <1>   0.0800 
 55 H        7.7170     3.9300    -2.8980 H     1 <1>   0.0800 
@<TRIPOS>BOND
  1   1   2  2   
  2   2   3  1   
  3   2   4  1   
  4   3   5  1   
  5   3   6  2   
  6   4   7  ar  
  7   4   8  ar  
  8   5   9  2   
  9   5  10  am  
 10   6  11  1   
 11   6  30  1   
 12   7  11  1   
 13   7  12  ar  
 14   8  13  ar  
 15   8  31  1   
 16  10  14  1   
 17  10  32  1   
 18  11  15  1   
 19  12  16  ar  
 20  13  16  ar  
 21  13  33  1   
 22  14  17  1   
 23  14  18  2   
 24  15  19  1   
 25  15  34  1   
 26  15  35  1   
 27  16  20  1   
 28  17  21  2   
 29  17  22  1   
 30  18  23  1   
 31  18  24  1   
 32  19  36  1   
 33  19  37  1   
 34  19  38  1   
 35  20  39  1   
 36  20  40  1   
 37  20  41  1   
 38  21  23  1   
 39  22  25  1   
 40  22  26  1   
 41  23  27  1   
 42  24  42  1   
 43  24  43  1   
 44  24  44  1   
 45  25  28  1   
 46  25  45  1   
 47  25  46  1   
 48  26  29  1   
 49  26  47  1   
 50  26  48  1   
 51  27  49  1   
 52  27  50  1   
 53  27  51  1   
 54  28  29  1   
 55  28  52  1   
 56  28  53  1   
 57  29  54  1   
 58  29  55  1   
@<TRIPOS>SUBSTRUCTURE
  1 ****   3 GROUP 4 **** **** 0

# MOE 2024.06 (io_trps.svl 2023.06)
