@<TRIPOS>MOLECULE
NONAME
48 50 1 0 0 
SMALL
USER_CHARGES


@<TRIPOS>ATOM
  1 N       -1.1410    -0.0970     1.0540 N.ar  1 <1>  -0.6200 
  2 C       -1.8110    -1.0730     0.4690 C.ar  1 <1>   0.4100 
  3 C        0.0360    -0.5020     1.5170 C.ar  1 <1>   0.1600 
  4 N       -3.0670    -0.7450    -0.0620 N.pl3 1 <1>  -0.8380 
  5 C       -1.3080    -2.4100     0.3610 C.ar  1 <1>   0.4100 
  6 C        0.5150    -1.7960     1.4150 C.ar  1 <1>   0.1600 
  7 C       -3.0240    -0.3020    -1.4800 C.3   1 <1>   0.1290 
  8 C       -3.9340     0.1260     0.7800 C.3   1 <1>   0.1290 
  9 N       -0.1410    -2.7990     0.8400 N.ar  1 <1>  -0.6200 
 10 N       -2.0810    -3.3750    -0.2710 N.pl3 1 <1>  -0.8690 
 11 C       -2.1340    -4.7270     0.2800 C.3   1 <1>   0.2890 
 12 C       -1.2140    -5.6120    -0.5540 C.3   1 <1>  -0.1600 
 13 C       -3.5730    -5.2270     0.2220 C.3   1 <1>  -0.1600 
 14 C       -1.3130    -7.0610    -0.1030 C.3   1 <1>   0.3430 
 15 C       -3.6440    -6.6860     0.6580 C.3   1 <1>   0.3430 
 16 N       -2.7320    -7.5140    -0.1910 N.4   1 <1>  -0.9590 
 17 C       -2.8530    -8.9690     0.1130 C.3   1 <1>   0.4860 
 18 C       -4.2730    -9.4190    -0.1530 C.ar  1 <1>  -0.1430 
 19 C       -4.7210    -9.5710    -1.4570 C.ar  1 <1>   0.1600 
 20 C       -5.1470    -9.6780     0.8870 C.ar  1 <1>  -0.1500 
 21 N       -5.9450    -9.9260    -1.7950 N.ar  1 <1>  -0.6200 
 22 C       -6.4260   -10.0620     0.5460 C.ar  1 <1>  -0.1500 
 23 C       -6.7710   -10.1680    -0.7900 C.ar  1 <1>   0.1600 
 24 H        0.6440     0.2400     2.0030 H     1 <1>   0.1500 
 25 H        1.4840    -2.0220     1.8240 H     1 <1>   0.1500 
 26 H       -2.3830    -0.9520    -2.0510 H     1 <1>   0.0800 
 27 H       -2.6370     0.7020    -1.5380 H     1 <1>   0.0800 
 28 H       -4.0130    -0.3270    -1.9050 H     1 <1>   0.0800 
 29 H       -3.8700    -0.1810     1.8100 H     1 <1>   0.0800 
 30 H       -4.9570     0.0510     0.4570 H     1 <1>   0.0800 
 31 H       -3.6100     1.1510     0.7060 H     1 <1>   0.0800 
 32 H       -3.0010    -2.9520    -0.4540 H     1 <1>   0.4000 
 33 H       -1.8000    -4.7160     1.3060 H     1 <1>   0.0800 
 34 H       -0.1990    -5.2760    -0.4320 H     1 <1>   0.0800 
 35 H       -1.4650    -5.5340    -1.5970 H     1 <1>   0.0800 
 36 H       -3.9640    -5.1320    -0.7760 H     1 <1>   0.0800 
 37 H       -4.1810    -4.6340     0.8820 H     1 <1>   0.0800 
 38 H       -0.9610    -7.1440     0.9140 H     1 <1>   0.0800 
 39 H       -0.6850    -7.6730    -0.7310 H     1 <1>   0.0800 
 40 H       -4.6610    -7.0340     0.5610 H     1 <1>   0.0800 
 41 H       -3.3550    -6.7680     1.6940 H     1 <1>   0.0800 
 42 H       -3.0400    -7.3790    -1.1630 H     1 <1>   0.4500 
 43 H       -2.5990    -9.1560     1.1440 H     1 <1>   0.0800 
 44 H       -2.1790    -9.5360    -0.5100 H     1 <1>   0.0800 
 45 H       -4.0460    -9.3920    -2.2770 H     1 <1>   0.1500 
 46 H       -4.8620    -9.5940     1.9220 H     1 <1>   0.1500 
 47 H       -7.1570   -10.2820     1.3050 H     1 <1>   0.1500 
 48 H       -7.7750   -10.4680    -1.0460 H     1 <1>   0.1500 
@<TRIPOS>BOND
  1   1   2  ar  
  2   1   3  ar  
  3   2   4  1   
  4   2   5  ar  
  5   3   6  ar  
  6   3  24  1   
  7   4   7  1   
  8   4   8  1   
  9   5   9  ar  
 10   5  10  1   
 11   6   9  ar  
 12   6  25  1   
 13   7  26  1   
 14   7  27  1   
 15   7  28  1   
 16   8  29  1   
 17   8  30  1   
 18   8  31  1   
 19  10  11  1   
 20  10  32  1   
 21  11  12  1   
 22  11  13  1   
 23  11  33  1   
 24  12  14  1   
 25  12  34  1   
 26  12  35  1   
 27  13  15  1   
 28  13  36  1   
 29  13  37  1   
 30  14  16  1   
 31  14  38  1   
 32  14  39  1   
 33  15  16  1   
 34  15  40  1   
 35  15  41  1   
 36  16  17  1   
 37  16  42  1   
 38  17  18  1   
 39  17  43  1   
 40  17  44  1   
 41  18  19  ar  
 42  18  20  ar  
 43  19  21  ar  
 44  19  45  1   
 45  20  22  ar  
 46  20  46  1   
 47  21  23  ar  
 48  22  23  ar  
 49  22  47  1   
 50  23  48  1   
@<TRIPOS>SUBSTRUCTURE
  1 ****  13 GROUP 4 **** **** 0

# MOE 2024.06 (io_trps.svl 2023.06)
