@<TRIPOS>MOLECULE
NONAME
45 46 1 0 0 
SMALL
USER_CHARGES


@<TRIPOS>ATOM
  1 S       -0.0420     0.0780    -1.7370 S.o2  1 <1>   1.4470 
  2 O        0.6390    -0.7880    -2.6750 O.2   1 <1>  -0.6500 
  3 O       -1.0350     1.0160    -2.2220 O.2   1 <1>  -0.6500 
  4 N       -0.7880    -0.8840    -0.5570 N.am  1 <1>  -0.8490 
  5 C        1.2120     0.9690    -0.7740 C.ar  1 <1>  -0.0090 
  6 C       -1.5180    -2.0290    -1.1410 C.3   1 <1>   0.1960 
  7 C       -1.6640    -0.1070     0.3240 C.3   1 <1>   0.1960 
  8 C        2.0160     0.3000     0.1410 C.ar  1 <1>  -0.1500 
  9 C        1.4100     2.3360    -0.9320 C.ar  1 <1>  -0.1500 
 10 C       -1.9560    -3.0230    -0.0450 C.3   1 <1>  -0.1060 
 11 C       -2.1680    -0.9730     1.4790 C.3   1 <1>  -0.1600 
 12 C        2.9770     0.9700     0.8790 C.ar  1 <1>  -0.1500 
 13 C        2.3690     3.0120    -0.1970 C.ar  1 <1>  -0.1500 
 14 C       -2.8510    -4.0950    -0.6690 C.2   1 <1>   0.9060 
 15 C       -2.8450    -2.2290     0.9350 C.3   1 <1>   0.2000 
 16 C       -0.7180    -3.6710     0.6570 C.3   1 <1>  -0.1600 
 17 C        3.1570     2.3320     0.7150 C.ar  1 <1>  -0.1440 
 18 O       -2.9850    -4.1520    -1.8960 O.co2 1 <1>  -0.9000 
 19 O       -3.4620    -4.8650     0.0880 O.co2 1 <1>  -0.9000 
 20 O       -3.2180    -3.0240     2.0000 O.3   1 <1>  -0.6800 
 21 C        0.2060    -4.4680    -0.2800 C.3   1 <1>  -0.1600 
 22 C        4.2110     3.0700     1.5200 C.3   1 <1>  -0.0970 
 23 C        1.3220    -5.1580     0.5080 C.3   1 <1>  -0.2400 
 24 H       -2.3830    -1.6700    -1.6760 H     1 <1>   0.0800 
 25 H       -0.9020    -2.5430    -1.8590 H     1 <1>   0.0800 
 26 H       -1.1250     0.7330     0.7270 H     1 <1>   0.0800 
 27 H       -2.5030     0.2700    -0.2390 H     1 <1>   0.0800 
 28 H        1.8830    -0.7610     0.2750 H     1 <1>   0.1500 
 29 H        0.8040     2.8770    -1.6390 H     1 <1>   0.1500 
 30 H       -2.8760    -0.4120     2.0600 H     1 <1>   0.0800 
 31 H       -1.3420    -1.2360     2.1130 H     1 <1>   0.0800 
 32 H        3.5840     0.4230     1.5800 H     1 <1>   0.1500 
 33 H        2.4990     4.0710    -0.3420 H     1 <1>   0.1500 
 34 H       -3.7530    -1.9480     0.4250 H     1 <1>   0.0800 
 35 H       -0.1340    -2.9120     1.1440 H     1 <1>   0.0800 
 36 H       -1.0740    -4.3410     1.4220 H     1 <1>   0.0800 
 37 H       -3.4620    -3.9050     1.5920 H     1 <1>   0.4000 
 38 H       -0.3670    -5.2140    -0.8080 H     1 <1>   0.0800 
 39 H        0.6510    -3.8130    -1.0080 H     1 <1>   0.0800 
 40 H        4.3580     2.5950     2.4730 H     1 <1>   0.0800 
 41 H        3.9090     4.0880     1.6920 H     1 <1>   0.0800 
 42 H        5.1430     3.0700     0.9850 H     1 <1>   0.0800 
 43 H        0.9020    -5.8450     1.2220 H     1 <1>   0.0800 
 44 H        1.9170    -4.4300     1.0300 H     1 <1>   0.0800 
 45 H        1.9580    -5.7070    -0.1640 H     1 <1>   0.0800 
@<TRIPOS>BOND
  1   1   2  2   
  2   1   3  2   
  3   1   4  am  
  4   1   5  1   
  5   4   6  1   
  6   4   7  1   
  7   5   8  ar  
  8   5   9  ar  
  9   6  10  1   
 10   6  24  1   
 11   6  25  1   
 12   7  11  1   
 13   7  26  1   
 14   7  27  1   
 15   8  12  ar  
 16   8  28  1   
 17   9  13  ar  
 18   9  29  1   
 19  10  14  1   
 20  10  15  1   
 21  10  16  1   
 22  11  15  1   
 23  11  30  1   
 24  11  31  1   
 25  12  17  ar  
 26  12  32  1   
 27  13  17  ar  
 28  13  33  1   
 29  14  18  ar  
 30  14  19  ar  
 31  15  20  1   
 32  15  34  1   
 33  16  21  1   
 34  16  35  1   
 35  16  36  1   
 36  17  22  1   
 37  20  37  1   
 38  21  23  1   
 39  21  38  1   
 40  21  39  1   
 41  22  40  1   
 42  22  41  1   
 43  22  42  1   
 44  23  43  1   
 45  23  44  1   
 46  23  45  1   
@<TRIPOS>SUBSTRUCTURE
  1 ****   4 GROUP 4 **** **** 0

# MOE 2024.06 (io_trps.svl 2023.06)
