@<TRIPOS>MOLECULE
NONAME
49 51 1 0 0 
SMALL
USER_CHARGES


@<TRIPOS>ATOM
  1 O       -0.1750     0.7640     0.3830 O.2   1 <1>  -0.5700 
  2 C       -0.0050     1.9520     0.5960 C.2   1 <1>   0.6160 
  3 N       -1.1020     2.7360     0.9010 N.am  1 <1>  -0.6600 
  4 C        1.3180     2.4880     0.4400 C.2   1 <1>   0.0290 
  5 C       -2.4510     2.1450     1.1340 C.3   1 <1>   0.1400 
  6 C       -1.0550     4.2270     0.9580 C.3   1 <1>   0.1400 
  7 C        1.9460     3.1510     1.5400 C.2   1 <1>   0.6160 
  8 C        2.0180     2.3690    -0.7350 C.2   1 <1>  -0.1500 
  9 C       -3.4570     2.5780     0.0310 C.3   1 <1>   0.0000 
 10 C       -2.4190     4.8500     0.6200 C.3   1 <1>  -0.1600 
 11 O        1.4400     3.3170     2.6400 O.2   1 <1>  -0.5700 
 12 N        3.2060     3.6540     1.3630 N.am  1 <1>  -0.5390 
 13 C        3.3170     2.9060    -0.8620 C.2   1 <1>  -0.1500 
 14 C       -4.8830     2.3520     0.5840 C.3   1 <1>   0.2000 
 15 C       -3.1540     4.0300    -0.4500 C.3   1 <1>  -0.1600 
 16 C       -3.3930     1.5790    -1.1410 C.3   1 <1>  -0.1600 
 17 C        3.9070     3.5480     0.1890 C.2   1 <1>  -0.0290 
 18 O       -5.8330     2.9600    -0.2200 O.3   1 <1>  -0.6800 
 19 C       -5.1130     0.8470     0.4610 C.3   1 <1>  -0.1600 
 20 C       -4.2950     0.3960    -0.7580 C.3   1 <1>  -0.1600 
 21 C        5.3060     4.1690     0.1750 C.3   1 <1>   0.0580 
 22 C        5.2020     5.6980     0.1250 C.3   1 <1>  -0.2400 
 23 C        6.1870     3.6720    -0.9800 C.3   1 <1>  -0.2400 
 24 H       -2.3910     1.0720     1.1930 H     1 <1>   0.0800 
 25 H       -2.7940     2.4910     2.0940 H     1 <1>   0.0800 
 26 H       -0.7470     4.5400     1.9420 H     1 <1>   0.0800 
 27 H       -0.3280     4.5820     0.2480 H     1 <1>   0.0800 
 28 H        1.5840     1.8570    -1.5780 H     1 <1>   0.1500 
 29 H       -3.0210     4.9030     1.5110 H     1 <1>   0.0800 
 30 H       -2.2710     5.8580     0.2760 H     1 <1>   0.0800 
 31 H        3.5970     4.1110     2.1880 H     1 <1>   0.3700 
 32 H        3.8110     2.7880    -1.8100 H     1 <1>   0.1500 
 33 H       -5.0140     2.7180     1.5890 H     1 <1>   0.0800 
 34 H       -2.5150     3.9850    -1.3150 H     1 <1>   0.0800 
 35 H       -4.0460     4.5490    -0.7490 H     1 <1>   0.0800 
 36 H       -3.7820     2.0390    -2.0330 H     1 <1>   0.0800 
 37 H       -2.3830     1.2600    -1.3380 H     1 <1>   0.0800 
 38 H       -5.7440     2.6070    -1.1250 H     1 <1>   0.4000 
 39 H       -4.7240     0.3630     1.3400 H     1 <1>   0.0800 
 40 H       -6.1570     0.5990     0.3760 H     1 <1>   0.0800 
 41 H       -3.6990    -0.4650    -0.5060 H     1 <1>   0.0800 
 42 H       -4.9420     0.1390    -1.5800 H     1 <1>   0.0800 
 43 H        5.7980     3.8910     1.0920 H     1 <1>   0.0800 
 44 H        4.7020     6.0080    -0.7750 H     1 <1>   0.0800 
 45 H        6.1810     6.1420     0.1480 H     1 <1>   0.0800 
 46 H        4.6450     6.0640     0.9680 H     1 <1>   0.0800 
 47 H        5.7930     3.9920    -1.9280 H     1 <1>   0.0800 
 48 H        6.2430     2.5980    -0.9670 H     1 <1>   0.0800 
 49 H        7.1840     4.0630    -0.8790 H     1 <1>   0.0800 
@<TRIPOS>BOND
  1   1   2  2   
  2   2   3  am  
  3   2   4  1   
  4   3   5  1   
  5   3   6  1   
  6   4   7  1   
  7   4   8  2   
  8   5   9  1   
  9   5  24  1   
 10   5  25  1   
 11   6  10  1   
 12   6  26  1   
 13   6  27  1   
 14   7  11  2   
 15   7  12  am  
 16   8  13  1   
 17   8  28  1   
 18   9  14  1   
 19   9  15  1   
 20   9  16  1   
 21  10  15  1   
 22  10  29  1   
 23  10  30  1   
 24  12  17  1   
 25  12  31  1   
 26  13  17  2   
 27  13  32  1   
 28  14  18  1   
 29  14  19  1   
 30  14  33  1   
 31  15  34  1   
 32  15  35  1   
 33  16  20  1   
 34  16  36  1   
 35  16  37  1   
 36  17  21  1   
 37  18  38  1   
 38  19  20  1   
 39  19  39  1   
 40  19  40  1   
 41  20  41  1   
 42  20  42  1   
 43  21  22  1   
 44  21  23  1   
 45  21  43  1   
 46  22  44  1   
 47  22  45  1   
 48  22  46  1   
 49  23  47  1   
 50  23  48  1   
 51  23  49  1   
@<TRIPOS>SUBSTRUCTURE
  1 ****   2 GROUP 4 **** **** 0

# MOE 2024.06 (io_trps.svl 2023.06)
