@<TRIPOS>MOLECULE
NONAME
49 52 1 0 0 
SMALL
USER_CHARGES


@<TRIPOS>ATOM
  1 S       -0.1370    -0.2170     0.3260 S.3   1 <1>  -0.0800 
  2 C        0.7080     1.2840     0.6380 C.ar  1 <1>   0.0400 
  3 C       -1.6350     0.6860     0.1190 C.2   1 <1>   0.1980 
  4 C       -0.2100     2.3150     0.5570 C.ar  1 <1>   0.2270 
  5 C        2.0480     1.4760     0.9200 C.ar  1 <1>  -0.1500 
  6 N       -1.5210     1.9440     0.2630 N.2   1 <1>  -0.5650 
  7 C       -2.8700    -0.1360    -0.2040 C.3   1 <1>   0.0200 
  8 C        0.2380     3.6100     0.7710 C.ar  1 <1>  -0.1500 
  9 C        2.4780     2.7750     1.1310 C.ar  1 <1>  -0.1500 
 10 C       -4.1220     0.7400    -0.3820 C.3   1 <1>  -0.0990 
 11 C        1.5770     3.8360     1.0570 C.ar  1 <1>  -0.1500 
 12 C       -5.3820    -0.0510    -0.6990 C.2   1 <1>   0.5690 
 13 O       -5.2930    -1.2540    -0.7880 O.2   1 <1>  -0.5700 
 14 N       -6.5790     0.5990    -0.8700 N.am  1 <1>  -0.6600 
 15 C       -6.7870     2.0720    -0.7750 C.3   1 <1>   0.1400 
 16 C       -7.8330    -0.1490    -1.1710 C.3   1 <1>   0.1400 
 17 C       -7.7920     2.3610     0.3420 C.3   1 <1>  -0.1600 
 18 C       -8.8590     0.1220    -0.0680 C.3   1 <1>  -0.1600 
 19 C       -9.1170     1.6210     0.1140 C.3   1 <1>   0.4180 
 20 O       -9.7000     2.0670    -1.0880 O.3   1 <1>  -0.5600 
 21 C      -10.0740     1.8380     1.2830 C.2   1 <1>  -0.2880 
 22 C      -10.4230     3.2660    -1.0500 C.3   1 <1>   0.1200 
 23 C      -11.2260     2.5080     1.1960 C.2   1 <1>  -0.2760 
 24 C      -11.6390     3.1360    -0.1220 C.3   1 <1>  -0.0220 
 25 C      -12.2020     2.6950     2.3430 C.3   1 <1>  -0.1020 
 26 H        2.7230     0.6400     0.9720 H     1 <1>   0.1500 
 27 H       -3.0350    -0.8390     0.5930 H     1 <1>   0.0800 
 28 H       -2.6900    -0.6910    -1.1080 H     1 <1>   0.0800 
 29 H       -0.4640     4.4210     0.7110 H     1 <1>   0.1500 
 30 H        3.5130     2.9700     1.3540 H     1 <1>   0.1500 
 31 H       -3.9450     1.4360    -1.1810 H     1 <1>   0.0800 
 32 H       -4.2850     1.2930     0.5240 H     1 <1>   0.0800 
 33 H        1.9260     4.8400     1.2230 H     1 <1>   0.1500 
 34 H       -7.1740     2.4310    -1.7140 H     1 <1>   0.0800 
 35 H       -5.8680     2.5920    -0.5760 H     1 <1>   0.0800 
 36 H       -7.6430    -1.2070    -1.2360 H     1 <1>   0.0800 
 37 H       -8.2190     0.1780    -2.1210 H     1 <1>   0.0800 
 38 H       -7.9660     3.4170     0.4190 H     1 <1>   0.0800 
 39 H       -7.3670     2.0420     1.2760 H     1 <1>   0.0800 
 40 H       -8.4920    -0.2970     0.8500 H     1 <1>   0.0800 
 41 H       -9.7850    -0.3690    -0.3040 H     1 <1>   0.0800 
 42 H       -9.7260     1.3850     2.1940 H     1 <1>   0.1500 
 43 H      -10.7410     3.4900    -2.0520 H     1 <1>   0.0800 
 44 H       -9.7720     4.0510    -0.7090 H     1 <1>   0.0800 
 45 H      -12.3930     2.5300    -0.5940 H     1 <1>   0.0800 
 46 H      -12.0490     4.1160     0.0430 H     1 <1>   0.0800 
 47 H      -13.1570     2.2720     2.0880 H     1 <1>   0.0800 
 48 H      -12.3300     3.7410     2.5570 H     1 <1>   0.0800 
 49 H      -11.8390     2.2070     3.2300 H     1 <1>   0.0800 
@<TRIPOS>BOND
  1   1   2  1   
  2   1   3  1   
  3   2   4  ar  
  4   2   5  ar  
  5   3   6  2   
  6   3   7  1   
  7   4   6  1   
  8   4   8  ar  
  9   5   9  ar  
 10   5  26  1   
 11   7  10  1   
 12   7  27  1   
 13   7  28  1   
 14   8  11  ar  
 15   8  29  1   
 16   9  11  ar  
 17   9  30  1   
 18  10  12  1   
 19  10  31  1   
 20  10  32  1   
 21  11  33  1   
 22  12  13  2   
 23  12  14  am  
 24  14  15  1   
 25  14  16  1   
 26  15  17  1   
 27  15  34  1   
 28  15  35  1   
 29  16  18  1   
 30  16  36  1   
 31  16  37  1   
 32  17  19  1   
 33  17  38  1   
 34  17  39  1   
 35  18  19  1   
 36  18  40  1   
 37  18  41  1   
 38  19  20  1   
 39  19  21  1   
 40  20  22  1   
 41  21  23  2   
 42  21  42  1   
 43  22  24  1   
 44  22  43  1   
 45  22  44  1   
 46  23  24  1   
 47  23  25  1   
 48  24  45  1   
 49  24  46  1   
 50  25  47  1   
 51  25  48  1   
 52  25  49  1   
@<TRIPOS>SUBSTRUCTURE
  1 ****  10 GROUP 4 **** **** 0

# MOE 2024.06 (io_trps.svl 2023.06)
