@<TRIPOS>MOLECULE
NONAME
53 56 1 0 0 
SMALL
USER_CHARGES


@<TRIPOS>ATOM
  1 O        0.5830    -0.0430     0.1620 O.3   1 <1>  -0.6800 
  2 C        1.7980    -0.2000    -0.4900 C.3   1 <1>   0.2000 
  3 C        2.5110    -1.4550     0.0050 C.3   1 <1>  -0.0800 
  4 C        2.7590     0.9410    -0.1600 C.3   1 <1>   0.2090 
  5 C        3.9900    -1.1570    -0.2480 C.3   1 <1>   0.2090 
  6 C        2.0310    -2.7520    -0.6650 C.3   1 <1>  -0.0170 
  7 N        4.1180     0.3220    -0.1640 N.pl3 1 <1>  -0.8380 
  8 C        2.8640    -3.9400    -0.2140 C.ar  1 <1>   0.1660 
  9 C        5.2660     1.0330    -0.0380 C.ar  1 <1>   0.4100 
 10 N        3.9110    -4.2370    -0.9210 N.ar  1 <1>  -0.6200 
 11 C        2.4770    -4.6420     0.9390 C.ar  1 <1>  -0.1500 
 12 N        5.1600     2.3360     0.1380 N.ar  1 <1>  -0.6200 
 13 C        6.5240     0.4020    -0.0930 C.ar  1 <1>  -0.1500 
 14 C        4.6610    -5.2980    -0.5230 C.ar  1 <1>   0.3100 
 15 C        3.2180    -5.7000     1.3680 C.ar  1 <1>  -0.1500 
 16 C        6.2670     3.0500     0.2730 C.ar  1 <1>   0.7710 
 17 C        7.6460     1.1470     0.0510 C.ar  1 <1>   0.2180 
 18 C        4.3570    -6.0580     0.6280 C.ar  1 <1>   0.0000 
 19 C        5.7880    -5.6550    -1.2800 C.ar  1 <1>  -0.1500 
 20 N        7.4820     2.4770     0.2380 N.ar  1 <1>  -0.1790 
 21 N        6.1790     4.3980     0.4560 N.pl3 1 <1>  -0.8380 
 22 C        9.0510     0.5720     0.0160 C.3   1 <1>  -0.0970 
 23 C        5.1980    -7.1320     0.9820 C.ar  1 <1>  -0.1500 
 24 C        6.5920    -6.7050    -0.9210 C.ar  1 <1>  -0.1500 
 25 C        4.8480     5.0610     0.6680 C.3   1 <1>   0.1290 
 26 C        7.2980     5.3910     0.4080 C.3   1 <1>   0.1290 
 27 C        6.2930    -7.4490     0.2250 C.ar  1 <1>  -0.1500 
 28 H       -0.0470    -0.7380    -0.1070 H     1 <1>   0.4000 
 29 H        1.6260    -0.2320    -1.5520 H     1 <1>   0.0800 
 30 H        2.3830    -1.5310     1.0720 H     1 <1>   0.0800 
 31 H        2.5530     1.3350     0.8200 H     1 <1>   0.0800 
 32 H        2.6960     1.7240    -0.8950 H     1 <1>   0.0800 
 33 H        4.2770    -1.4800    -1.2350 H     1 <1>   0.0800 
 34 H        4.6070    -1.6490     0.4850 H     1 <1>   0.0800 
 35 H        2.1060    -2.6610    -1.7350 H     1 <1>   0.0800 
 36 H        0.9980    -2.9260    -0.4250 H     1 <1>   0.0800 
 37 H        1.5970    -4.3340     1.4740 H     1 <1>   0.1500 
 38 H        6.5700    -0.6580    -0.2510 H     1 <1>   0.1500 
 39 H        2.9550    -6.2610     2.2470 H     1 <1>   0.1500 
 40 H        5.9990    -5.0750    -2.1590 H     1 <1>   0.1500 
 41 H        8.2590     3.1060     0.3830 H     1 <1>   0.4570 
 42 H        9.0170    -0.4920    -0.1450 H     1 <1>   0.0800 
 43 H        9.5560     0.7530     0.9480 H     1 <1>   0.0800 
 44 H        9.6180     1.0130    -0.7850 H     1 <1>   0.0800 
 45 H        4.9620    -7.7020     1.8620 H     1 <1>   0.1500 
 46 H        7.4530    -6.9700    -1.5110 H     1 <1>   0.1500 
 47 H        4.9460     5.8850     1.3540 H     1 <1>   0.0800 
 48 H        4.1270     4.3750     1.0810 H     1 <1>   0.0800 
 49 H        4.4710     5.4310    -0.2710 H     1 <1>   0.0800 
 50 H        6.9870     6.2620    -0.1470 H     1 <1>   0.0800 
 51 H        8.1700     4.9930    -0.0790 H     1 <1>   0.0800 
 52 H        7.5560     5.7010     1.4070 H     1 <1>   0.0800 
 53 H        6.9330    -8.2710     0.4970 H     1 <1>   0.1500 
@<TRIPOS>BOND
  1   1   2  1   
  2   1  28  1   
  3   2   3  1   
  4   2   4  1   
  5   2  29  1   
  6   3   5  1   
  7   3   6  1   
  8   3  30  1   
  9   4   7  1   
 10   4  31  1   
 11   4  32  1   
 12   5   7  1   
 13   5  33  1   
 14   5  34  1   
 15   6   8  1   
 16   6  35  1   
 17   6  36  1   
 18   7   9  1   
 19   8  10  ar  
 20   8  11  ar  
 21   9  12  ar  
 22   9  13  ar  
 23  10  14  ar  
 24  11  15  ar  
 25  11  37  1   
 26  12  16  ar  
 27  13  17  ar  
 28  13  38  1   
 29  14  18  ar  
 30  14  19  ar  
 31  15  18  ar  
 32  15  39  1   
 33  16  20  ar  
 34  16  21  1   
 35  17  20  ar  
 36  17  22  1   
 37  18  23  ar  
 38  19  24  ar  
 39  19  40  1   
 40  20  41  1   
 41  21  25  1   
 42  21  26  1   
 43  22  42  1   
 44  22  43  1   
 45  22  44  1   
 46  23  27  ar  
 47  23  45  1   
 48  24  27  ar  
 49  24  46  1   
 50  25  47  1   
 51  25  48  1   
 52  25  49  1   
 53  26  50  1   
 54  26  51  1   
 55  26  52  1   
 56  27  53  1   
@<TRIPOS>SUBSTRUCTURE
  1 ****   5 GROUP 4 **** **** 0

# MOE 2024.06 (io_trps.svl 2023.06)
