@<TRIPOS>MOLECULE
NONAME
50 54 1 0 0 
SMALL
USER_CHARGES


@<TRIPOS>ATOM
  1 O        0.9110    -0.7280    -0.6690 O.2   1 <1>  -0.5700 
  2 C       -0.0090    -0.1900    -0.0970 C.2   1 <1>   0.5690 
  3 N       -1.3180    -0.4790    -0.4090 N.am  1 <1>  -0.6600 
  4 C        0.3540     0.8100     0.9940 C.3   1 <1>   0.0440 
  5 C       -1.6590    -1.4130    -1.5200 C.3   1 <1>   0.1400 
  6 C       -2.5180     0.1290     0.2300 C.3   1 <1>   0.1400 
  7 C       -0.0420     2.2440     0.6560 C.ar  1 <1>  -0.1440 
  8 C       -2.5330    -2.5450    -0.9780 C.3   1 <1>  -0.1600 
  9 C       -3.3970    -0.9850     0.8010 C.3   1 <1>  -0.1600 
 10 C       -0.6860     3.0420     1.5920 C.ar  1 <1>   0.1600 
 11 C        0.2310     2.7760    -0.5890 C.ar  1 <1>  -0.1500 
 12 C       -3.7830    -2.0060    -0.2770 C.3   1 <1>   0.4600 
 13 N       -1.0810     4.2870     1.3880 N.ar  1 <1>  -0.6200 
 14 C       -0.1680     4.0750    -0.8190 C.ar  1 <1>  -0.1500 
 15 O       -4.5470    -1.3590    -1.2730 O.3   1 <1>  -0.5600 
 16 C       -4.5940    -3.1520     0.3150 C.2   1 <1>  -0.3320 
 17 C       -0.8120     4.7750     0.1870 C.ar  1 <1>   0.1600 
 18 C       -5.9200    -1.1610    -1.0340 C.3   1 <1>   0.1200 
 19 N       -4.1450    -4.0970     1.1960 N.pl3 1 <1>   0.0330 
 20 C       -5.8920    -3.3870     0.0350 C.2   1 <1>  -0.1810 
 21 C       -6.6640    -2.5010    -0.9100 C.3   1 <1>   0.0210 
 22 C       -5.1870    -4.9480     1.4730 C.ar  1 <1>  -0.1520 
 23 C       -6.3030    -4.5290     0.7540 C.ar  1 <1>   0.0000 
 24 C       -5.2510    -6.0700     2.3030 C.ar  1 <1>  -0.1500 
 25 C       -7.5030    -5.2380     0.8610 C.ar  1 <1>  -0.1500 
 26 C       -6.4390    -6.7580     2.4010 C.ar  1 <1>  -0.1500 
 27 C       -7.5650    -6.3420     1.6800 C.ar  1 <1>  -0.1500 
 28 H        1.4180     0.7790     1.1440 H     1 <1>   0.0800 
 29 H       -0.1060     0.4930     1.9110 H     1 <1>   0.0800 
 30 H       -0.7690    -1.8260    -1.9650 H     1 <1>   0.0800 
 31 H       -2.1910    -0.8720    -2.2850 H     1 <1>   0.0800 
 32 H       -3.0670     0.6850    -0.5120 H     1 <1>   0.0800 
 33 H       -2.2480     0.8060     1.0180 H     1 <1>   0.0800 
 34 H       -1.9470    -3.1250    -0.2900 H     1 <1>   0.0800 
 35 H       -2.8310    -3.1940    -1.7800 H     1 <1>   0.0800 
 36 H       -4.2790    -0.5690     1.2480 H     1 <1>   0.0800 
 37 H       -2.8520    -1.4840     1.5810 H     1 <1>   0.0800 
 38 H       -0.8910     2.6360     2.5680 H     1 <1>   0.1500 
 39 H        0.7340     2.2050    -1.3530 H     1 <1>   0.1500 
 40 H        0.0170     4.5420    -1.7690 H     1 <1>   0.1500 
 41 H       -1.1200     5.7880    -0.0050 H     1 <1>   0.1500 
 42 H       -6.3170    -0.5910    -1.8550 H     1 <1>   0.0800 
 43 H       -6.0320    -0.5880    -0.1310 H     1 <1>   0.0800 
 44 H       -3.1980    -4.1810     1.5770 H     1 <1>   0.2700 
 45 H       -6.7340    -2.9730    -1.8730 H     1 <1>   0.0800 
 46 H       -7.6560    -2.3330    -0.5350 H     1 <1>   0.0800 
 47 H       -4.3820    -6.3830     2.8530 H     1 <1>   0.1500 
 48 H       -8.3580    -4.9080     0.3010 H     1 <1>   0.1500 
 49 H       -6.5140    -7.6250     3.0340 H     1 <1>   0.1500 
 50 H       -8.4810    -6.8980     1.7730 H     1 <1>   0.1500 
@<TRIPOS>BOND
  1   1   2  2   
  2   2   3  am  
  3   2   4  1   
  4   3   5  1   
  5   3   6  1   
  6   4   7  1   
  7   4  28  1   
  8   4  29  1   
  9   5   8  1   
 10   5  30  1   
 11   5  31  1   
 12   6   9  1   
 13   6  32  1   
 14   6  33  1   
 15   7  10  ar  
 16   7  11  ar  
 17   8  12  1   
 18   8  34  1   
 19   8  35  1   
 20   9  12  1   
 21   9  36  1   
 22   9  37  1   
 23  10  13  ar  
 24  10  38  1   
 25  11  14  ar  
 26  11  39  1   
 27  12  15  1   
 28  12  16  1   
 29  13  17  ar  
 30  14  17  ar  
 31  14  40  1   
 32  15  18  1   
 33  16  19  1   
 34  16  20  2   
 35  17  41  1   
 36  18  21  1   
 37  18  42  1   
 38  18  43  1   
 39  19  22  1   
 40  19  44  1   
 41  20  21  1   
 42  20  23  1   
 43  21  45  1   
 44  21  46  1   
 45  22  23  ar  
 46  22  24  ar  
 47  23  25  ar  
 48  24  26  ar  
 49  24  47  1   
 50  25  27  ar  
 51  25  48  1   
 52  26  27  ar  
 53  26  49  1   
 54  27  50  1   
@<TRIPOS>SUBSTRUCTURE
  1 ****   9 GROUP 4 **** **** 0

# MOE 2024.06 (io_trps.svl 2023.06)
