@<TRIPOS>MOLECULE
NONAME
43 44 1 0 0 
SMALL
USER_CHARGES


@<TRIPOS>ATOM
  1 O       -1.0420     0.2250     1.9930 O.2   1 <1>  -0.5700 
  2 C       -1.4090     0.6220     0.9120 C.2   1 <1>   0.5690 
  3 N       -1.9480    -0.2460    -0.0110 N.am  1 <1>  -0.6600 
  4 C       -1.2650     2.1320     0.6710 C.3   1 <1>  -0.0190 
  5 C       -2.2960    -1.6330     0.4040 C.3   1 <1>   0.3210 
  6 C       -2.4010     0.0840    -1.3940 C.3   1 <1>   0.0600 
  7 C       -2.6120     2.8410     0.4090 C.3   1 <1>  -0.1600 
  8 C       -0.1690     2.4920    -0.3630 C.3   1 <1>  -0.1600 
  9 C       -3.8020    -1.7310     0.5690 C.2   1 <1>  -0.1810 
 10 C       -2.4680     4.3760     0.3720 C.3   1 <1>   0.2000 
 11 C       -0.4240     3.8330    -1.0760 C.3   1 <1>  -0.1600 
 12 C       -4.7350    -2.4220    -0.1260 C.2   1 <1>  -0.3320 
 13 C       -4.5190    -1.0480     1.5450 C.2   1 <1>   0.1390 
 14 O       -3.4620     4.8850    -0.4850 O.3   1 <1>  -0.5600 
 15 C       -1.0720     4.8440    -0.1260 C.3   1 <1>   0.2000 
 16 N       -5.9250    -2.1340     0.4460 N.pl3 1 <1>   0.3000 
 17 C       -4.5890    -3.3550    -1.3150 C.3   1 <1>  -0.0600 
 18 N       -5.7940    -1.2800     1.4770 N.2   1 <1>  -0.7070 
 19 C       -4.7370     4.9750     0.0740 C.3   1 <1>   0.0400 
 20 O       -1.2100     6.0370    -0.8050 O.3   1 <1>  -0.6800 
 21 H       -0.9200     2.5330     1.6090 H     1 <1>   0.0800 
 22 H       -1.9560    -2.3260    -0.3440 H     1 <1>   0.0800 
 23 H       -1.8200    -1.8960     1.3320 H     1 <1>   0.0800 
 24 H       -2.0970    -0.6940    -2.0720 H     1 <1>   0.0800 
 25 H       -1.9850     1.0090    -1.7420 H     1 <1>   0.0800 
 26 H       -3.4750     0.1590    -1.4130 H     1 <1>   0.0800 
 27 H       -3.3070     2.5700     1.1840 H     1 <1>   0.0800 
 28 H       -3.0180     2.5160    -0.5290 H     1 <1>   0.0800 
 29 H        0.7710     2.5470     0.1590 H     1 <1>   0.0800 
 30 H       -0.0610     1.7190    -1.1010 H     1 <1>   0.0800 
 31 H       -2.6160     4.7860     1.3570 H     1 <1>   0.0800 
 32 H       -1.0840     3.6720    -1.9110 H     1 <1>   0.0800 
 33 H        0.5060     4.2250    -1.4490 H     1 <1>   0.0800 
 34 H       -4.0690    -0.3960     2.2770 H     1 <1>   0.1500 
 35 H       -0.4170     5.0140     0.7100 H     1 <1>   0.0800 
 36 H       -6.8400    -2.5010     0.1580 H     1 <1>   0.2700 
 37 H       -3.5600    -3.4320    -1.6150 H     1 <1>   0.0800 
 38 H       -5.1590    -2.9850    -2.1490 H     1 <1>   0.0800 
 39 H       -4.9430    -4.3390    -1.0600 H     1 <1>   0.0800 
 40 H       -5.3960     5.3970    -0.6650 H     1 <1>   0.0800 
 41 H       -4.7040     5.6180     0.9360 H     1 <1>   0.0800 
 42 H       -5.0840     3.9930     0.3450 H     1 <1>   0.0800 
 43 H       -2.1340     6.0370    -1.1470 H     1 <1>   0.4000 
@<TRIPOS>BOND
  1   1   2  2   
  2   2   3  am  
  3   2   4  1   
  4   3   5  1   
  5   3   6  1   
  6   4   7  1   
  7   4   8  1   
  8   4  21  1   
  9   5   9  1   
 10   5  22  1   
 11   5  23  1   
 12   6  24  1   
 13   6  25  1   
 14   6  26  1   
 15   7  10  1   
 16   7  27  1   
 17   7  28  1   
 18   8  11  1   
 19   8  29  1   
 20   8  30  1   
 21   9  12  2   
 22   9  13  1   
 23  10  14  1   
 24  10  15  1   
 25  10  31  1   
 26  11  15  1   
 27  11  32  1   
 28  11  33  1   
 29  12  16  1   
 30  12  17  1   
 31  13  18  2   
 32  13  34  1   
 33  14  19  1   
 34  15  20  1   
 35  15  35  1   
 36  16  18  1   
 37  16  36  1   
 38  17  37  1   
 39  17  38  1   
 40  17  39  1   
 41  19  40  1   
 42  19  41  1   
 43  19  42  1   
 44  20  43  1   
@<TRIPOS>SUBSTRUCTURE
  1 ****   3 GROUP 4 **** **** 0

# MOE 2024.06 (io_trps.svl 2023.06)
