@<TRIPOS>MOLECULE
NONAME
54 57 1 0 0 
SMALL
USER_CHARGES


@<TRIPOS>ATOM
  1 O        1.9420    -1.0500     1.2130 O.co2 1 <1>  -0.9000 
  2 C        1.5340    -0.4390     0.2170 C.2   1 <1>   0.9060 
  3 O        0.4620     0.1760     0.2240 O.co2 1 <1>  -0.9000 
  4 C        2.3630    -0.4570    -1.0450 C.3   1 <1>  -0.0850 
  5 C        3.5280     0.5130    -1.0080 C.2   1 <1>   0.1080 
  6 N        4.2550     0.7790    -2.0530 N.2   1 <1>  -0.7070 
  7 C        3.9580     1.2150     0.1130 C.2   1 <1>  -0.1500 
  8 N        5.1650     1.6650    -1.6190 N.pl3 1 <1>   0.3000 
  9 C        5.0100     1.9480    -0.3070 C.2   1 <1>  -0.3320 
 10 C        5.8530     2.8970     0.5180 C.3   1 <1>   0.1000 
 11 C        5.8190     4.3140    -0.0610 C.3   1 <1>  -0.1600 
 12 C        7.2940     2.3930     0.6300 C.3   1 <1>  -0.1600 
 13 C        6.6840     5.2600     0.7680 C.3   1 <1>   0.3430 
 14 C        8.1430     3.3560     1.4560 C.3   1 <1>   0.3430 
 15 N        8.0720     4.7190     0.8630 N.4   1 <1>  -0.9590 
 16 C        8.9950     5.6720     1.5300 C.3   1 <1>   0.4860 
 17 C        9.0910     6.9130     0.6670 C.ar  1 <1>  -0.1430 
 18 C        9.5750     6.8190    -0.6390 C.ar  1 <1>   0.0830 
 19 C        8.6890     8.1390     1.1790 C.ar  1 <1>  -0.1500 
 20 O        9.9480     5.5890    -1.0860 O.3   1 <1>  -0.3630 
 21 C        9.6510     7.9630    -1.4320 C.ar  1 <1>  -0.1500 
 22 C        8.7700     9.2600     0.3770 C.ar  1 <1>  -0.1430 
 23 C       10.6910     5.4500    -2.2820 C.3   1 <1>   0.0400 
 24 C        9.2430     9.1730    -0.9070 C.ar  1 <1>  -0.1430 
 25 C        8.3920    10.6790     0.7270 C.3   1 <1>  -0.0170 
 26 C        9.2420    10.5210    -1.5850 C.3   1 <1>  -0.0170 
 27 C        8.4110    11.3990    -0.6330 C.3   1 <1>  -0.1600 
 28 H        1.7250    -0.2100    -1.8700 H     1 <1>   0.0800 
 29 H        2.7360    -1.4510    -1.1850 H     1 <1>   0.0800 
 30 H        3.5090     1.1470     1.0910 H     1 <1>   0.1500 
 31 H        5.8710     2.0510    -2.2530 H     1 <1>   0.2700 
 32 H        5.4260     2.9260     1.5080 H     1 <1>   0.0800 
 33 H        4.8040     4.6710    -0.0600 H     1 <1>   0.0800 
 34 H        6.1630     4.3170    -1.0800 H     1 <1>   0.0800 
 35 H        7.7290     2.2740    -0.3460 H     1 <1>   0.0800 
 36 H        7.2910     1.4270     1.1040 H     1 <1>   0.0800 
 37 H        6.2630     5.3600     1.7560 H     1 <1>   0.0800 
 38 H        6.6960     6.2340     0.3040 H     1 <1>   0.0800 
 39 H        9.1650     3.0110     1.4720 H     1 <1>   0.0800 
 40 H        7.7740     3.3790     2.4690 H     1 <1>   0.0800 
 41 H        8.4490     4.6800    -0.1010 H     1 <1>   0.4500 
 42 H        9.9760     5.2360     1.6200 H     1 <1>   0.0800 
 43 H        8.6330     5.9240     2.5130 H     1 <1>   0.0800 
 44 H        8.3200     8.2390     2.1850 H     1 <1>   0.1500 
 45 H       10.0160     7.9370    -2.4420 H     1 <1>   0.1500 
 46 H       10.9770     4.4180    -2.3870 H     1 <1>   0.0800 
 47 H       11.5730     6.0650    -2.2210 H     1 <1>   0.0800 
 48 H       10.0780     5.7440    -3.1150 H     1 <1>   0.0800 
 49 H        9.1340    11.0960     1.3850 H     1 <1>   0.0800 
 50 H        7.4220    10.7340     1.1870 H     1 <1>   0.0800 
 51 H        8.8000    10.4750    -2.5650 H     1 <1>   0.0800 
 52 H       10.2510    10.8880    -1.6550 H     1 <1>   0.0800 
 53 H        8.8140    12.3930    -0.5530 H     1 <1>   0.0800 
 54 H        7.4040    11.4600    -1.0070 H     1 <1>   0.0800 
@<TRIPOS>BOND
  1   1   2  ar  
  2   2   3  ar  
  3   2   4  1   
  4   4   5  1   
  5   4  28  1   
  6   4  29  1   
  7   5   6  2   
  8   5   7  1   
  9   6   8  1   
 10   7   9  2   
 11   7  30  1   
 12   8   9  1   
 13   8  31  1   
 14   9  10  1   
 15  10  11  1   
 16  10  12  1   
 17  10  32  1   
 18  11  13  1   
 19  11  33  1   
 20  11  34  1   
 21  12  14  1   
 22  12  35  1   
 23  12  36  1   
 24  13  15  1   
 25  13  37  1   
 26  13  38  1   
 27  14  15  1   
 28  14  39  1   
 29  14  40  1   
 30  15  16  1   
 31  15  41  1   
 32  16  17  1   
 33  16  42  1   
 34  16  43  1   
 35  17  18  ar  
 36  17  19  ar  
 37  18  20  1   
 38  18  21  ar  
 39  19  22  ar  
 40  19  44  1   
 41  20  23  1   
 42  21  24  ar  
 43  21  45  1   
 44  22  24  ar  
 45  22  25  1   
 46  23  46  1   
 47  23  47  1   
 48  23  48  1   
 49  24  26  1   
 50  25  27  1   
 51  25  49  1   
 52  25  50  1   
 53  26  27  1   
 54  26  51  1   
 55  26  52  1   
 56  27  53  1   
 57  27  54  1   
@<TRIPOS>SUBSTRUCTURE
  1 ****  11 GROUP 4 **** **** 0

# MOE 2024.06 (io_trps.svl 2023.06)
