@<TRIPOS>MOLECULE
NONAME
44 45 1 0 0 
SMALL
USER_CHARGES


@<TRIPOS>ATOM
  1 O        0.6470    -2.4560    -1.6300 O.2   1 <1>  -0.5700 
  2 C        0.8890    -2.2590    -0.4460 C.2   1 <1>   0.6900 
  3 N        1.1780    -3.2290     0.4710 N.am  1 <1>  -0.4690 
  4 N        0.8490    -1.0620     0.1730 N.am  1 <1>  -0.5390 
  5 C        1.3550    -2.5820     1.6940 C.2   1 <1>  -0.0410 
  6 C        1.5580    -4.6310     0.1670 C.3   1 <1>   0.1400 
  7 C        1.1500    -1.2660     1.5120 C.2   1 <1>  -0.0410 
  8 C        0.6390    -5.3220    -0.8660 C.3   1 <1>   0.3430 
  9 N       -0.7840    -5.5280    -0.4100 N.4   1 <1>  -0.9590 
 10 C       -1.4130    -6.6260    -1.1940 C.3   1 <1>   0.3430 
 11 C       -1.5840    -4.2620    -0.5170 C.3   1 <1>   0.2630 
 12 C       -2.6610    -7.1290    -0.4760 C.3   1 <1>  -0.1600 
 13 C       -3.1980    -8.4140    -1.1260 C.3   1 <1>   0.0960 
 14 N       -4.2400    -9.0120    -0.2710 N.pl3 1 <1>   0.3140 
 15 N       -3.9140    -9.5000     0.9380 N.2   1 <1>  -0.7070 
 16 C       -5.5640    -9.1360    -0.5150 C.2   1 <1>  -0.3320 
 17 C       -5.0300    -9.9300     1.4350 C.2   1 <1>   0.1080 
 18 C       -6.1000    -9.7300     0.5730 C.2   1 <1>  -0.1500 
 19 C       -6.2810    -8.6900    -1.7780 C.3   1 <1>  -0.0600 
 20 C       -5.1170   -10.5730     2.7990 C.3   1 <1>  -0.0590 
 21 H        0.6900    -0.1840    -0.3240 H     1 <1>   0.3700 
 22 H        1.6220    -3.1100     2.5950 H     1 <1>   0.1500 
 23 H        1.5720    -5.2030     1.0780 H     1 <1>   0.0800 
 24 H        2.5600    -4.6190    -0.2250 H     1 <1>   0.0800 
 25 H        1.2000    -0.4530     2.2200 H     1 <1>   0.1500 
 26 H        1.0740    -6.2840    -1.0810 H     1 <1>   0.0800 
 27 H        0.6520    -4.7590    -1.7860 H     1 <1>   0.0800 
 28 H       -0.7700    -5.8140     0.5800 H     1 <1>   0.4500 
 29 H       -0.7170    -7.4450    -1.2840 H     1 <1>   0.0800 
 30 H       -1.6620    -6.2830    -2.1870 H     1 <1>   0.0800 
 31 H       -1.5120    -3.8550    -1.5130 H     1 <1>   0.0800 
 32 H       -1.2170    -3.5250     0.1780 H     1 <1>   0.0800 
 33 H       -2.6210    -4.4450    -0.2890 H     1 <1>   0.0800 
 34 H       -3.4380    -6.3860    -0.4940 H     1 <1>   0.0800 
 35 H       -2.4060    -7.3460     0.5480 H     1 <1>   0.0800 
 36 H       -2.4130    -9.1420    -1.2250 H     1 <1>   0.0800 
 37 H       -3.6080    -8.2130    -2.0980 H     1 <1>   0.0800 
 38 H       -7.1230   -10.0010     0.7600 H     1 <1>   0.1500 
 39 H       -6.1610    -7.6320    -1.9240 H     1 <1>   0.0800 
 40 H       -7.3320    -8.9050    -1.6990 H     1 <1>   0.0800 
 41 H       -5.8920    -9.2140    -2.6330 H     1 <1>   0.0800 
 42 H       -4.7760    -9.8800     3.5450 H     1 <1>   0.0800 
 43 H       -4.4940   -11.4480     2.8230 H     1 <1>   0.0800 
 44 H       -6.1300   -10.8560     3.0170 H     1 <1>   0.0800 
@<TRIPOS>BOND
  1   1   2  2   
  2   2   3  am  
  3   2   4  am  
  4   3   5  1   
  5   3   6  1   
  6   4   7  1   
  7   4  21  1   
  8   5   7  2   
  9   5  22  1   
 10   6   8  1   
 11   6  23  1   
 12   6  24  1   
 13   7  25  1   
 14   8   9  1   
 15   8  26  1   
 16   8  27  1   
 17   9  10  1   
 18   9  11  1   
 19   9  28  1   
 20  10  12  1   
 21  10  29  1   
 22  10  30  1   
 23  11  31  1   
 24  11  32  1   
 25  11  33  1   
 26  12  13  1   
 27  12  34  1   
 28  12  35  1   
 29  13  14  1   
 30  13  36  1   
 31  13  37  1   
 32  14  15  1   
 33  14  16  1   
 34  15  17  2   
 35  16  18  2   
 36  16  19  1   
 37  17  18  1   
 38  17  20  1   
 39  18  38  1   
 40  19  39  1   
 41  19  40  1   
 42  19  41  1   
 43  20  42  1   
 44  20  43  1   
 45  20  44  1   
@<TRIPOS>SUBSTRUCTURE
  1 ****   9 GROUP 4 **** **** 0

# MOE 2024.06 (io_trps.svl 2023.06)
