@<TRIPOS>MOLECULE
NONAME
45 46 1 0 0 
SMALL
USER_CHARGES


@<TRIPOS>ATOM
  1 F        1.3570     1.7400    -2.5480 F     1 <1>  -0.1900 
  2 C        2.0170     1.6060    -1.4300 C.ar  1 <1>   0.1900 
  3 C        2.2580     0.3280    -0.9350 C.ar  1 <1>   0.0860 
  4 C        2.4330     2.7580    -0.7910 C.ar  1 <1>  -0.1500 
  5 C        2.9570     0.2820     0.2670 C.ar  1 <1>   0.1900 
  6 C        1.8160    -0.8610    -1.6100 C.2   1 <1>   0.5440 
  7 C        3.1260     2.6650     0.4060 C.ar  1 <1>   0.0820 
  8 F        3.2220    -0.8770     0.8040 F     1 <1>  -0.1900 
  9 C        3.3910     1.4080     0.9430 C.ar  1 <1>  -0.1500 
 10 O        2.5890    -1.4280    -2.3600 O.2   1 <1>  -0.5700 
 11 N        0.5450    -1.3680    -1.4280 N.am  1 <1>  -0.6600 
 12 O        3.5040     3.8240     0.9870 O.3   1 <1>  -0.3630 
 13 C        0.1470    -2.7140    -1.9470 C.3   1 <1>   0.1400 
 14 C       -0.5300    -0.6720    -0.6700 C.3   1 <1>   0.1400 
 15 C        4.2290     3.8490     2.1970 C.3   1 <1>   0.0400 
 16 C       -0.3540    -3.6040    -0.8030 C.3   1 <1>   0.2000 
 17 C       -1.0370    -1.5490     0.4830 C.3   1 <1>  -0.1600 
 18 O       -0.7720    -4.8210    -1.3140 O.3   1 <1>  -0.6800 
 19 C       -1.4640    -2.9990     0.1020 C.3   1 <1>  -0.1060 
 20 C       -1.4960    -3.8900     1.3640 C.2   1 <1>   0.9060 
 21 C       -2.9200    -3.0490    -0.4740 C.3   1 <1>  -0.1600 
 22 O       -1.5420    -3.3730     2.4870 O.co2 1 <1>  -0.9000 
 23 O       -1.5060    -5.1240     1.2210 O.co2 1 <1>  -0.9000 
 24 C       -3.3290    -2.1160    -1.6260 C.3   1 <1>  -0.1600 
 25 C       -4.7440    -2.4430    -2.1110 C.3   1 <1>  -0.2400 
 26 H        2.2230     3.7230    -1.2160 H     1 <1>   0.1500 
 27 H        3.9220     1.2820     1.8660 H     1 <1>   0.1500 
 28 H       -0.6130    -2.5970    -2.6930 H     1 <1>   0.0800 
 29 H        0.9890    -3.2000    -2.4060 H     1 <1>   0.0800 
 30 H       -0.1740     0.2560    -0.2610 H     1 <1>   0.0800 
 31 H       -1.3210    -0.4310    -1.3520 H     1 <1>   0.0800 
 32 H        4.4170     4.8760     2.4530 H     1 <1>   0.0800 
 33 H        5.1620     3.3320     2.0570 H     1 <1>   0.0800 
 34 H        3.6410     3.3830     2.9680 H     1 <1>   0.0800 
 35 H        0.5000    -3.8190    -0.1810 H     1 <1>   0.0800 
 36 H       -0.2360    -1.6100     1.2010 H     1 <1>   0.0800 
 37 H       -1.8530    -1.0580     0.9820 H     1 <1>   0.0800 
 38 H       -1.1170    -5.3170    -0.5160 H     1 <1>   0.4000 
 39 H       -3.1270    -4.0630    -0.7710 H     1 <1>   0.0800 
 40 H       -3.5890    -2.8470     0.3460 H     1 <1>   0.0800 
 41 H       -3.3200    -1.0970    -1.2870 H     1 <1>   0.0800 
 42 H       -2.6540    -2.2210    -2.4530 H     1 <1>   0.0800 
 43 H       -5.4500    -2.3380    -1.3060 H     1 <1>   0.0800 
 44 H       -4.7870    -3.4530    -2.4800 H     1 <1>   0.0800 
 45 H       -5.0250    -1.7750    -2.9060 H     1 <1>   0.0800 
@<TRIPOS>BOND
  1   1   2  1   
  2   2   3  ar  
  3   2   4  ar  
  4   3   5  ar  
  5   3   6  1   
  6   4   7  ar  
  7   4  26  1   
  8   5   8  1   
  9   5   9  ar  
 10   6  10  2   
 11   6  11  am  
 12   7   9  ar  
 13   7  12  1   
 14   9  27  1   
 15  11  13  1   
 16  11  14  1   
 17  12  15  1   
 18  13  16  1   
 19  13  28  1   
 20  13  29  1   
 21  14  17  1   
 22  14  30  1   
 23  14  31  1   
 24  15  32  1   
 25  15  33  1   
 26  15  34  1   
 27  16  18  1   
 28  16  19  1   
 29  16  35  1   
 30  17  19  1   
 31  17  36  1   
 32  17  37  1   
 33  18  38  1   
 34  19  20  1   
 35  19  21  1   
 36  20  22  ar  
 37  20  23  ar  
 38  21  24  1   
 39  21  39  1   
 40  21  40  1   
 41  24  25  1   
 42  24  41  1   
 43  24  42  1   
 44  25  43  1   
 45  25  44  1   
 46  25  45  1   
@<TRIPOS>SUBSTRUCTURE
  1 ****  14 GROUP 4 **** **** 0

# MOE 2024.06 (io_trps.svl 2023.06)
