@<TRIPOS>MOLECULE
NONAME
51 53 1 0 0 
SMALL
USER_CHARGES


@<TRIPOS>ATOM
  1 O        1.9950     2.0250     2.4570 O.co2 1 <1>  -0.9000 
  2 C        2.5810     1.1350     1.8420 C.2   1 <1>   0.9060 
  3 O        3.1410     0.1970     2.4310 O.co2 1 <1>  -0.9000 
  4 C        2.5510     1.1570     0.3010 C.3   1 <1>  -0.1060 
  5 C        3.4990     0.0890    -0.2770 C.3   1 <1>   0.4230 
  6 C        2.9840     2.5770    -0.1810 C.3   1 <1>  -0.1600 
  7 C        1.1290     0.8080    -0.1970 C.3   1 <1>  -0.1600 
  8 N        3.1530    -1.2700     0.2550 N.4   1 <1>  -0.9590 
  9 C        4.9570     0.5530    -0.1130 C.3   1 <1>   0.1400 
 10 C        4.0180     2.6010    -1.3150 C.3   1 <1>   0.1400 
 11 C        0.7410    -0.6210     0.2300 C.3   1 <1>  -0.1600 
 12 C        1.7830    -1.6790    -0.1580 C.3   1 <1>   0.3430 
 13 C        4.1690    -2.3300     0.0250 C.3   1 <1>   0.2630 
 14 N        5.2100     1.7460    -0.9950 N.am  1 <1>  -0.6600 
 15 C        6.4830     1.9570    -1.4810 C.2   1 <1>   0.5690 
 16 O        7.3200     1.0860    -1.3980 O.2   1 <1>  -0.5700 
 17 C        6.9110     3.2450    -2.1800 C.3   1 <1>   0.0440 
 18 C        7.7720     4.1250    -1.2750 C.ar  1 <1>  -0.1430 
 19 C        7.2070     5.0420    -0.3910 C.ar  1 <1>   0.0830 
 20 C        9.1520     3.9940    -1.3270 C.ar  1 <1>  -0.1500 
 21 O        5.8550     5.1450    -0.3440 O.3   1 <1>  -0.3620 
 22 C        8.0310     5.8240     0.4140 C.ar  1 <1>  -0.1500 
 23 C        9.9670     4.7710    -0.5230 C.ar  1 <1>  -0.1500 
 24 C        5.2130     5.5260     0.8560 C.3   1 <1>   0.0400 
 25 C        9.4060     5.6880     0.3470 C.ar  1 <1>  -0.1500 
 26 H        3.3330     0.0540    -1.3400 H     1 <1>   0.0800 
 27 H        3.4300     3.1070     0.6440 H     1 <1>   0.0800 
 28 H        2.1220     3.1540    -0.4660 H     1 <1>   0.0800 
 29 H        0.4210     1.5050     0.2230 H     1 <1>   0.0800 
 30 H        1.0820     0.8940    -1.2690 H     1 <1>   0.0800 
 31 H        3.1170    -1.0670     1.2920 H     1 <1>   0.4500 
 32 H        5.6280    -0.2370    -0.3920 H     1 <1>   0.0800 
 33 H        5.1530     0.8250     0.9100 H     1 <1>   0.0800 
 34 H        4.3070     3.6210    -1.4760 H     1 <1>   0.0800 
 35 H        3.5640     2.2400    -2.2220 H     1 <1>   0.0800 
 36 H       -0.2050    -0.8800    -0.2110 H     1 <1>   0.0800 
 37 H        0.6050    -0.6500     1.2990 H     1 <1>   0.0800 
 38 H        1.7620    -1.8190    -1.2260 H     1 <1>   0.0800 
 39 H        1.5260    -2.6150     0.3110 H     1 <1>   0.0800 
 40 H        4.3230    -2.4800    -1.0300 H     1 <1>   0.0800 
 41 H        3.8430    -3.2570     0.4690 H     1 <1>   0.0800 
 42 H        5.1050    -2.0500     0.4810 H     1 <1>   0.0800 
 43 H        7.4870     2.9660    -3.0420 H     1 <1>   0.0800 
 44 H        6.0760     3.8020    -2.5500 H     1 <1>   0.0800 
 45 H        9.6010     3.2760    -1.9920 H     1 <1>   0.1500 
 46 H        7.6170     6.5450     1.0920 H     1 <1>   0.1500 
 47 H       11.0360     4.6590    -0.5740 H     1 <1>   0.1500 
 48 H        4.1570     5.3680     0.7390 H     1 <1>   0.0800 
 49 H        5.4020     6.5680     1.0420 H     1 <1>   0.0800 
 50 H        5.5860     4.9160     1.6600 H     1 <1>   0.0800 
 51 H       10.0400     6.2940     0.9700 H     1 <1>   0.1500 
@<TRIPOS>BOND
  1   1   2  ar  
  2   2   3  ar  
  3   2   4  1   
  4   4   5  1   
  5   4   6  1   
  6   4   7  1   
  7   5   8  1   
  8   5   9  1   
  9   5  26  1   
 10   6  10  1   
 11   6  27  1   
 12   6  28  1   
 13   7  11  1   
 14   7  29  1   
 15   7  30  1   
 16   8  12  1   
 17   8  13  1   
 18   8  31  1   
 19   9  14  1   
 20   9  32  1   
 21   9  33  1   
 22  10  14  1   
 23  10  34  1   
 24  10  35  1   
 25  11  12  1   
 26  11  36  1   
 27  11  37  1   
 28  12  38  1   
 29  12  39  1   
 30  13  40  1   
 31  13  41  1   
 32  13  42  1   
 33  14  15  am  
 34  15  16  2   
 35  15  17  1   
 36  17  18  1   
 37  17  43  1   
 38  17  44  1   
 39  18  19  ar  
 40  18  20  ar  
 41  19  21  1   
 42  19  22  ar  
 43  20  23  ar  
 44  20  45  1   
 45  21  24  1   
 46  22  25  ar  
 47  22  46  1   
 48  23  25  ar  
 49  23  47  1   
 50  24  48  1   
 51  24  49  1   
 52  24  50  1   
 53  25  51  1   
@<TRIPOS>SUBSTRUCTURE
  1 ****  14 GROUP 4 **** **** 0

# MOE 2024.06 (io_trps.svl 2023.06)
