@<TRIPOS>MOLECULE
NONAME
44 47 1 0 0 
SMALL
USER_CHARGES


@<TRIPOS>ATOM
  1 S        0.3090     1.0430    -2.1260 S.3   1 <1>  -0.0800 
  2 C       -0.8140     1.5150    -0.8590 C.2   1 <1>  -0.1400 
  3 C       -0.8200    -0.1690    -2.7180 C.2   1 <1>  -0.1100 
  4 C       -1.9400     0.7940    -0.9320 C.2   1 <1>  -0.1810 
  5 C       -0.5000     2.6060     0.1570 C.3   1 <1>   0.4600 
  6 C       -1.9500    -0.1740    -1.9850 C.2   1 <1>  -0.1500 
  7 C       -3.0540     1.0500     0.0580 C.3   1 <1>   0.0210 
  8 O       -1.5370     2.6410     1.1200 O.3   1 <1>  -0.5600 
  9 C        0.7870     2.2840     0.9240 C.3   1 <1>  -0.1600 
 10 C       -0.3960     3.9840    -0.5110 C.3   1 <1>  -0.1600 
 11 C       -2.8620     2.4480     0.6790 C.3   1 <1>   0.1200 
 12 C        1.1430     3.3910     1.9160 C.3   1 <1>   0.1400 
 13 C       -0.0300     5.0740     0.4970 C.3   1 <1>   0.1400 
 14 N        1.2340     4.6910     1.1900 N.am  1 <1>  -0.6600 
 15 C        2.4450     5.3230     0.9930 C.2   1 <1>   0.5440 
 16 O        3.4740     4.7180     1.2270 O.2   1 <1>  -0.5700 
 17 C        2.5330     6.6700     0.5010 C.ar  1 <1>   0.0860 
 18 C        1.7930     7.7120     1.0290 C.ar  1 <1>   0.1600 
 19 C        3.3730     7.0150    -0.5410 C.ar  1 <1>   0.1600 
 20 N        1.8410     8.9380     0.5650 N.ar  1 <1>  -0.6200 
 21 N        3.4490     8.2290    -1.0310 N.ar  1 <1>  -0.6200 
 22 C        2.6700     9.1370    -0.4510 C.ar  1 <1>   0.7200 
 23 N        2.6940    10.4030    -0.9130 N.pl3 1 <1>  -0.8690 
 24 C        3.5510    10.9620    -1.9880 C.3   1 <1>   0.1290 
 25 H       -0.5120    -0.7570    -3.5640 H     1 <1>   0.1500 
 26 H       -2.7950    -0.8210    -2.1410 H     1 <1>   0.1500 
 27 H       -3.0360     0.3010     0.8290 H     1 <1>   0.0800 
 28 H       -4.0070     1.0080    -0.4370 H     1 <1>   0.0800 
 29 H        1.6050     2.1720     0.2350 H     1 <1>   0.0800 
 30 H        0.6680     1.3500     1.4420 H     1 <1>   0.0800 
 31 H       -1.3190     4.2270    -1.0020 H     1 <1>   0.0800 
 32 H        0.3660     3.9490    -1.2690 H     1 <1>   0.0800 
 33 H       -3.5100     2.5680     1.5280 H     1 <1>   0.0800 
 34 H       -3.0950     3.2110    -0.0420 H     1 <1>   0.0800 
 35 H        2.0750     3.1590     2.4030 H     1 <1>   0.0800 
 36 H        0.3820     3.4630     2.6750 H     1 <1>   0.0800 
 37 H       -0.8150     5.1790     1.2270 H     1 <1>   0.0800 
 38 H        0.0760     6.0090    -0.0230 H     1 <1>   0.0800 
 39 H        1.1410     7.5140     1.8610 H     1 <1>   0.1500 
 40 H        3.9950     6.2510    -0.9760 H     1 <1>   0.1500 
 41 H        2.1020    11.0500    -0.3920 H     1 <1>   0.4000 
 42 H        4.1090    10.1830    -2.4780 H     1 <1>   0.0800 
 43 H        4.2420    11.6710    -1.5670 H     1 <1>   0.0800 
 44 H        2.9360    11.4570    -2.7190 H     1 <1>   0.0800 
@<TRIPOS>BOND
  1   1   2  1   
  2   1   3  1   
  3   2   4  2   
  4   2   5  1   
  5   3   6  2   
  6   3  25  1   
  7   4   6  1   
  8   4   7  1   
  9   5   8  1   
 10   5   9  1   
 11   5  10  1   
 12   6  26  1   
 13   7  11  1   
 14   7  27  1   
 15   7  28  1   
 16   8  11  1   
 17   9  12  1   
 18   9  29  1   
 19   9  30  1   
 20  10  13  1   
 21  10  31  1   
 22  10  32  1   
 23  11  33  1   
 24  11  34  1   
 25  12  14  1   
 26  12  35  1   
 27  12  36  1   
 28  13  14  1   
 29  13  37  1   
 30  13  38  1   
 31  14  15  am  
 32  15  16  2   
 33  15  17  1   
 34  17  18  ar  
 35  17  19  ar  
 36  18  20  ar  
 37  18  39  1   
 38  19  21  ar  
 39  19  40  1   
 40  20  22  ar  
 41  21  22  ar  
 42  22  23  1   
 43  23  24  1   
 44  23  41  1   
 45  24  42  1   
 46  24  43  1   
 47  24  44  1   
@<TRIPOS>SUBSTRUCTURE
  1 ****  13 GROUP 4 **** **** 0

# MOE 2024.06 (io_trps.svl 2023.06)
