@<TRIPOS>MOLECULE
NONAME
57 60 1 0 0 
SMALL
USER_CHARGES


@<TRIPOS>ATOM
  1 O       -1.9880     0.7050    -0.9980 O.2   1 <1>  -0.5700 
  2 C       -1.7430     0.3570     0.1330 C.2   1 <1>   0.5690 
  3 N       -1.9080    -0.9310     0.5340 N.am  1 <1>  -0.7300 
  4 C       -1.2190     1.4270     1.1090 C.3   1 <1>   0.4040 
  5 C       -2.3770    -2.0380    -0.3360 C.3   1 <1>   0.2200 
  6 N       -0.5510     2.5880     0.4080 N.4   1 <1>  -0.9590 
  7 C       -3.8010    -2.4050     0.0560 C.3   1 <1>  -0.0800 
  8 C       -1.6270    -3.3060     0.0460 C.3   1 <1>   0.1200 
  9 C        0.7480     2.1720    -0.1960 C.3   1 <1>   0.3430 
 10 C       -0.4850     3.7910     1.2800 C.3   1 <1>   0.3430 
 11 C       -3.5940    -3.4110     1.2010 C.3   1 <1>   0.1200 
 12 C       -4.5730    -3.0240    -1.1280 C.3   1 <1>  -0.0170 
 13 O       -2.2300    -3.7160     1.2310 O.3   1 <1>  -0.5600 
 14 C        1.0100     2.9870    -1.4610 C.3   1 <1>  -0.1600 
 15 C       -0.0780     5.0460     0.5050 C.3   1 <1>  -0.1600 
 16 C       -6.0160    -3.3450    -0.7510 C.ar  1 <1>  -0.1440 
 17 C        1.6930     4.3480    -1.2380 C.3   1 <1>  -0.1600 
 18 C        1.4020     5.0520     0.0950 C.3   1 <1>  -0.1600 
 19 C       -7.0120    -2.3440    -0.6390 C.ar  1 <1>   0.0000 
 20 C       -6.3900    -4.6340    -0.5050 C.ar  1 <1>  -0.1500 
 21 C       -8.3120    -2.7510    -0.2510 C.ar  1 <1>   0.3100 
 22 C       -6.7980    -0.9690    -0.8940 C.ar  1 <1>  -0.1500 
 23 C       -7.7080    -4.9300    -0.1380 C.ar  1 <1>   0.1600 
 24 N       -8.6420    -4.0440    -0.0050 N.ar  1 <1>  -0.6200 
 25 C       -9.3160    -1.7790    -0.1150 C.ar  1 <1>  -0.1500 
 26 C       -7.8000    -0.0470    -0.7560 C.ar  1 <1>  -0.1500 
 27 C       -9.0760    -0.4540    -0.3580 C.ar  1 <1>  -0.1500 
 28 H       -1.7410    -1.2520     1.4940 H     1 <1>   0.3700 
 29 H       -0.5300     0.9690     1.7970 H     1 <1>   0.0800 
 30 H       -2.0630     1.7880     1.6710 H     1 <1>   0.0800 
 31 H       -2.2650    -1.7870    -1.3780 H     1 <1>   0.0800 
 32 H       -1.1680     2.7970    -0.3950 H     1 <1>   0.4500 
 33 H       -4.3390    -1.5440     0.4080 H     1 <1>   0.0800 
 34 H       -0.5760    -3.1430     0.2090 H     1 <1>   0.0800 
 35 H       -1.7690    -4.0810    -0.6870 H     1 <1>   0.0800 
 36 H        1.5580     2.2860     0.5060 H     1 <1>   0.0800 
 37 H        0.6900     1.1340    -0.4820 H     1 <1>   0.0800 
 38 H       -1.4560     3.9660     1.7150 H     1 <1>   0.0800 
 39 H        0.2140     3.6260     2.0840 H     1 <1>   0.0800 
 40 H       -4.1420    -4.3260     1.0550 H     1 <1>   0.0800 
 41 H       -3.8620    -2.9850     2.1520 H     1 <1>   0.0800 
 42 H       -4.0800    -3.9240    -1.4520 H     1 <1>   0.0800 
 43 H       -4.5690    -2.3500    -1.9670 H     1 <1>   0.0800 
 44 H        1.6520     2.4070    -2.1020 H     1 <1>   0.0800 
 45 H        0.0890     3.1220    -2.0010 H     1 <1>   0.0800 
 46 H       -0.7180     5.2000    -0.3470 H     1 <1>   0.0800 
 47 H       -0.2310     5.8830     1.1640 H     1 <1>   0.0800 
 48 H        2.7600     4.2160    -1.3110 H     1 <1>   0.0800 
 49 H        1.4110     5.0010    -2.0470 H     1 <1>   0.0800 
 50 H        1.7250     6.0760    -0.0050 H     1 <1>   0.0800 
 51 H        2.0010     4.6180     0.8780 H     1 <1>   0.0800 
 52 H       -5.6940    -5.4500    -0.5810 H     1 <1>   0.1500 
 53 H       -5.8280    -0.6320    -1.2080 H     1 <1>   0.1500 
 54 H       -7.9590    -5.9600     0.0480 H     1 <1>   0.1500 
 55 H      -10.2900    -2.1160     0.1890 H     1 <1>   0.1500 
 56 H       -7.6250     0.9960    -0.9530 H     1 <1>   0.1500 
 57 H       -9.8570     0.2790    -0.2510 H     1 <1>   0.1500 
@<TRIPOS>BOND
  1   1   2  2   
  2   2   3  am  
  3   2   4  1   
  4   3   5  1   
  5   3  28  1   
  6   4   6  1   
  7   4  29  1   
  8   4  30  1   
  9   5   7  1   
 10   5   8  1   
 11   5  31  1   
 12   6   9  1   
 13   6  10  1   
 14   6  32  1   
 15   7  11  1   
 16   7  12  1   
 17   7  33  1   
 18   8  13  1   
 19   8  34  1   
 20   8  35  1   
 21   9  14  1   
 22   9  36  1   
 23   9  37  1   
 24  10  15  1   
 25  10  38  1   
 26  10  39  1   
 27  11  13  1   
 28  11  40  1   
 29  11  41  1   
 30  12  16  1   
 31  12  42  1   
 32  12  43  1   
 33  14  17  1   
 34  14  44  1   
 35  14  45  1   
 36  15  18  1   
 37  15  46  1   
 38  15  47  1   
 39  16  19  ar  
 40  16  20  ar  
 41  17  18  1   
 42  17  48  1   
 43  17  49  1   
 44  18  50  1   
 45  18  51  1   
 46  19  21  ar  
 47  19  22  ar  
 48  20  23  ar  
 49  20  52  1   
 50  21  24  ar  
 51  21  25  ar  
 52  22  26  ar  
 53  22  53  1   
 54  23  24  ar  
 55  23  54  1   
 56  25  27  ar  
 57  25  55  1   
 58  26  27  ar  
 59  26  56  1   
 60  27  57  1   
@<TRIPOS>SUBSTRUCTURE
  1 ****   7 GROUP 4 **** **** 0

# MOE 2024.06 (io_trps.svl 2023.06)
