@<TRIPOS>MOLECULE
NONAME
45 47 1 0 0 
SMALL
USER_CHARGES


@<TRIPOS>ATOM
  1 O       -1.4310    -1.1060    -1.9660 O.co2 1 <1>  -0.9000 
  2 C       -1.9920    -2.0320    -1.3670 C.2   1 <1>   0.9060 
  3 O       -2.1040    -3.1650    -1.8360 O.co2 1 <1>  -0.9000 
  4 C       -2.6530    -1.7240    -0.0140 C.3   1 <1>   0.2370 
  5 N       -3.9460    -0.9180    -0.0530 N.4   1 <1>  -0.9590 
  6 C       -4.4880    -0.6070     1.3020 C.3   1 <1>   0.3430 
  7 C       -3.8190     0.2550    -0.9740 C.3   1 <1>   0.3430 
  8 C       -5.9860    -0.2230     1.2320 C.3   1 <1>   0.1900 
  9 C       -5.1350     1.0110    -1.2580 C.3   1 <1>  -0.0800 
 10 N       -6.5730    -0.6960    -0.0620 N.3   1 <1>  -0.8100 
 11 C       -6.1900     1.2780     1.5070 C.3   1 <1>   0.1200 
 12 C       -5.2660     2.2910    -0.4160 C.3   1 <1>   0.1200 
 13 C       -6.4260     0.1660    -1.2450 C.3   1 <1>   0.1100 
 14 C       -7.8650    -1.4010     0.0540 C.3   1 <1>   0.2900 
 15 O       -5.1630     2.0390     0.9460 O.3   1 <1>  -0.5600 
 16 C       -7.7500    -2.7490     0.7760 C.2   1 <1>   0.0060 
 17 N       -6.7380    -3.1850     1.4510 N.2   1 <1>  -0.5650 
 18 N       -8.7440    -3.6520     0.7750 N.pl3 1 <1>   0.3140 
 19 C       -7.1720    -4.3870     1.8480 C.2   1 <1>   0.3660 
 20 N       -8.3650    -4.7080     1.4780 N.2   1 <1>  -0.7070 
 21 C      -10.0780    -3.5950     0.1350 C.3   1 <1>   0.0960 
 22 C      -10.0210    -4.1000    -1.3130 C.3   1 <1>  -0.2400 
 23 H       -1.9220    -1.1900     0.5640 H     1 <1>   0.0800 
 24 H       -2.8350    -2.6690     0.4650 H     1 <1>   0.0800 
 25 H       -4.6890    -1.5080    -0.4710 H     1 <1>   0.4500 
 26 H       -4.4050    -1.4840     1.9200 H     1 <1>   0.0800 
 27 H       -3.9210     0.1840     1.7630 H     1 <1>   0.0800 
 28 H       -3.0830     0.9410    -0.5870 H     1 <1>   0.0800 
 29 H       -3.4470    -0.1000    -1.9220 H     1 <1>   0.0800 
 30 H       -6.4750    -0.7350     2.0410 H     1 <1>   0.0800 
 31 H       -5.0400     1.3710    -2.2660 H     1 <1>   0.0800 
 32 H       -6.1410     1.4460     2.5690 H     1 <1>   0.0800 
 33 H       -7.1450     1.6260     1.1550 H     1 <1>   0.0800 
 34 H       -6.2010     2.7920    -0.6050 H     1 <1>   0.0800 
 35 H       -4.4690     2.9700    -0.6660 H     1 <1>   0.0800 
 36 H       -6.4300    -0.4650    -2.1180 H     1 <1>   0.0800 
 37 H       -7.2780     0.8220    -1.3170 H     1 <1>   0.0800 
 38 H       -8.5700    -0.7730     0.5700 H     1 <1>   0.0800 
 39 H       -8.2440    -1.5860    -0.9360 H     1 <1>   0.0800 
 40 H       -6.5450    -5.0330     2.4430 H     1 <1>   0.1500 
 41 H      -10.7470    -4.2140     0.7070 H     1 <1>   0.0800 
 42 H      -10.4420    -2.5850     0.1680 H     1 <1>   0.0800 
 43 H       -9.6800    -5.1210    -1.3310 H     1 <1>   0.0800 
 44 H       -9.3580    -3.4960    -1.9060 H     1 <1>   0.0800 
 45 H      -11.0020    -4.0640    -1.7510 H     1 <1>   0.0800 
@<TRIPOS>BOND
  1   1   2  ar  
  2   2   3  ar  
  3   2   4  1   
  4   4   5  1   
  5   4  23  1   
  6   4  24  1   
  7   5   6  1   
  8   5   7  1   
  9   5  25  1   
 10   6   8  1   
 11   6  26  1   
 12   6  27  1   
 13   7   9  1   
 14   7  28  1   
 15   7  29  1   
 16   8  10  1   
 17   8  11  1   
 18   8  30  1   
 19   9  12  1   
 20   9  13  1   
 21   9  31  1   
 22  10  13  1   
 23  10  14  1   
 24  11  15  1   
 25  11  32  1   
 26  11  33  1   
 27  12  15  1   
 28  12  34  1   
 29  12  35  1   
 30  13  36  1   
 31  13  37  1   
 32  14  16  1   
 33  14  38  1   
 34  14  39  1   
 35  16  17  2   
 36  16  18  1   
 37  17  19  1   
 38  18  20  1   
 39  18  21  1   
 40  19  20  2   
 41  19  40  1   
 42  21  22  1   
 43  21  41  1   
 44  21  42  1   
 45  22  43  1   
 46  22  44  1   
 47  22  45  1   
@<TRIPOS>SUBSTRUCTURE
  1 ****  10 GROUP 4 **** **** 0

# MOE 2024.06 (io_trps.svl 2023.06)
