@<TRIPOS>MOLECULE
NONAME
48 50 1 0 0 
SMALL
USER_CHARGES


@<TRIPOS>ATOM
  1 S        0.5000     0.4410    -1.3040 S.o2  1 <1>   1.3330 
  2 O        0.6940    -0.9670    -1.5700 O.2   1 <1>  -0.6500 
  3 O       -0.2800     1.2440    -2.2190 O.2   1 <1>  -0.6500 
  4 N       -0.2210     0.5850     0.2280 N.am  1 <1>  -0.8490 
  5 C        2.1150     1.1910    -1.0830 C.3   1 <1>  -0.0550 
  6 C       -1.2310    -0.4530     0.4620 C.3   1 <1>   0.1160 
  7 C       -0.8100     1.9080     0.4690 C.3   1 <1>   0.1160 
  8 C        3.0850     0.3620    -0.2110 C.3   1 <1>  -0.0800 
  9 C        4.5070     0.9010    -0.1290 C.3   1 <1>   0.2200 
 10 C        2.6890     0.2250     1.2650 C.3   1 <1>   0.1200 
 11 N        4.5050     2.3680     0.0800 N.am  1 <1>  -0.7300 
 12 C        4.9750     0.2350     1.1560 C.3   1 <1>   0.1200 
 13 O        3.8730     0.3050     2.0070 O.3   1 <1>  -0.5600 
 14 C        4.6510     3.3030    -0.8950 C.2   1 <1>   0.7150 
 15 O        4.7610     2.9330    -2.0460 O.2   1 <1>  -0.5700 
 16 C        4.6240     4.6990    -0.5570 C.2   1 <1>  -0.2370 
 17 N        4.9480     5.1880     0.6870 N.pl3 1 <1>   0.0330 
 18 C        4.3020     5.7660    -1.3460 C.2   1 <1>  -0.1500 
 19 C        4.8140     6.5490     0.6850 C.ar  1 <1>  -0.1520 
 20 C        4.4080     6.9420    -0.5840 C.ar  1 <1>   0.0000 
 21 C        5.0190     7.4930     1.6940 C.ar  1 <1>  -0.1500 
 22 C        4.1990     8.2990    -0.8550 C.ar  1 <1>  -0.1500 
 23 C        4.8090     8.8220     1.4130 C.ar  1 <1>  -0.1500 
 24 C        4.3970     9.2330     0.1370 C.ar  1 <1>  -0.1440 
 25 C        4.1790    10.7120    -0.1240 C.3   1 <1>  -0.0970 
 26 H        2.5630     1.3090    -2.0520 H     1 <1>   0.0800 
 27 H        1.9950     2.1710    -0.6690 H     1 <1>   0.0800 
 28 H       -1.6620    -0.3420     1.4420 H     1 <1>   0.0800 
 29 H       -0.7770    -1.4290     0.4030 H     1 <1>   0.0800 
 30 H       -2.0110    -0.3900    -0.2800 H     1 <1>   0.0800 
 31 H       -1.1720     1.9730     1.4810 H     1 <1>   0.0800 
 32 H       -1.6310     2.0840    -0.2070 H     1 <1>   0.0800 
 33 H       -0.0730     2.6780     0.3220 H     1 <1>   0.0800 
 34 H        3.1380    -0.6320    -0.6230 H     1 <1>   0.0800 
 35 H        5.1110     0.6330    -0.9810 H     1 <1>   0.0800 
 36 H        2.2110    -0.7190     1.4640 H     1 <1>   0.0800 
 37 H        2.0510     1.0300     1.5880 H     1 <1>   0.0800 
 38 H        4.1910     2.6450     1.0100 H     1 <1>   0.3700 
 39 H        5.8170     0.7320     1.6040 H     1 <1>   0.0800 
 40 H        5.2040    -0.8040     0.9900 H     1 <1>   0.0800 
 41 H        5.3030     4.6410     1.4770 H     1 <1>   0.2700 
 42 H        4.0120     5.7400    -2.3820 H     1 <1>   0.1500 
 43 H        5.3360     7.1780     2.6730 H     1 <1>   0.1500 
 44 H        3.8860     8.5840    -1.8430 H     1 <1>   0.1500 
 45 H        4.9610     9.5640     2.1780 H     1 <1>   0.1500 
 46 H        3.4200    11.0920     0.5360 H     1 <1>   0.0800 
 47 H        3.8660    10.8800    -1.1390 H     1 <1>   0.0800 
 48 H        5.0930    11.2520     0.0470 H     1 <1>   0.0800 
@<TRIPOS>BOND
  1   1   2  2   
  2   1   3  2   
  3   1   4  am  
  4   1   5  1   
  5   4   6  1   
  6   4   7  1   
  7   5   8  1   
  8   5  26  1   
  9   5  27  1   
 10   6  28  1   
 11   6  29  1   
 12   6  30  1   
 13   7  31  1   
 14   7  32  1   
 15   7  33  1   
 16   8   9  1   
 17   8  10  1   
 18   8  34  1   
 19   9  11  1   
 20   9  12  1   
 21   9  35  1   
 22  10  13  1   
 23  10  36  1   
 24  10  37  1   
 25  11  14  am  
 26  11  38  1   
 27  12  13  1   
 28  12  39  1   
 29  12  40  1   
 30  14  15  2   
 31  14  16  1   
 32  16  17  1   
 33  16  18  2   
 34  17  19  1   
 35  17  41  1   
 36  18  20  1   
 37  18  42  1   
 38  19  20  ar  
 39  19  21  ar  
 40  20  22  ar  
 41  21  23  ar  
 42  21  43  1   
 43  22  24  ar  
 44  22  44  1   
 45  23  24  ar  
 46  23  45  1   
 47  24  25  1   
 48  25  46  1   
 49  25  47  1   
 50  25  48  1   
@<TRIPOS>SUBSTRUCTURE
  1 ****  14 GROUP 4 **** **** 0

# MOE 2024.06 (io_trps.svl 2023.06)
