@<TRIPOS>MOLECULE
NONAME
57 60 1 0 0 
SMALL
USER_CHARGES


@<TRIPOS>ATOM
  1 O       -0.7340     0.0290    -0.6450 O.2   1 <1>  -0.5700 
  2 C       -1.8030     0.5580    -0.4520 C.2   1 <1>   0.5690 
  3 N       -2.9630    -0.1640    -0.4880 N.am  1 <1>  -0.6600 
  4 C       -1.8620     2.0580    -0.1810 C.3   1 <1>  -0.0990 
  5 C       -4.3440     0.3700    -0.3950 C.3   1 <1>   0.1400 
  6 C       -2.9750    -1.6220    -0.7460 C.3   1 <1>   0.1400 
  7 C       -0.5020     2.6850     0.1850 C.3   1 <1>  -0.1600 
  8 C       -5.2440    -0.8000    -0.7910 C.3   1 <1>   0.2000 
  9 C       -4.4230    -2.0610    -0.5240 C.3   1 <1>  -0.0800 
 10 C       -0.5960     4.1650     0.6040 C.3   1 <1>  -0.0800 
 11 O       -6.4080    -0.8230    -0.0400 O.3   1 <1>  -0.6800 
 12 C       -4.8460    -3.2460    -1.4080 C.3   1 <1>  -0.0170 
 13 C       -1.0850     5.0690    -0.5450 C.3   1 <1>  -0.1600 
 14 C        0.7780     4.6440     1.1080 C.3   1 <1>  -0.1600 
 15 C       -4.0330    -4.4940    -1.0780 C.ar  1 <1>  -0.1440 
 16 C       -1.1060     6.5480    -0.1360 C.3   1 <1>  -0.1600 
 17 C        0.7510     6.1210     1.5220 C.3   1 <1>  -0.1600 
 18 C       -4.3090    -5.3000     0.0520 C.ar  1 <1>   0.0000 
 19 C       -2.9930    -4.8660    -1.8790 C.ar  1 <1>  -0.1500 
 20 C        0.2660     7.0070     0.3700 C.3   1 <1>  -0.1600 
 21 C       -3.4770    -6.4240     0.2770 C.ar  1 <1>   0.3100 
 22 C       -5.3600    -5.0600     0.9690 C.ar  1 <1>  -0.1500 
 23 C       -2.2360    -6.0020    -1.5690 C.ar  1 <1>   0.1600 
 24 N       -2.4490    -6.7610    -0.5420 N.ar  1 <1>  -0.6200 
 25 C       -3.7190    -7.2360     1.3960 C.ar  1 <1>  -0.1500 
 26 C       -5.5700    -5.8730     2.0490 C.ar  1 <1>  -0.1500 
 27 C       -4.7400    -6.9750     2.2690 C.ar  1 <1>  -0.1500 
 28 H       -2.2510     2.5270    -1.0640 H     1 <1>   0.0800 
 29 H       -2.5470     2.2310     0.6280 H     1 <1>   0.0800 
 30 H       -4.5360     0.6770     0.6190 H     1 <1>   0.0800 
 31 H       -4.4770     1.1980    -1.0690 H     1 <1>   0.0800 
 32 H       -2.6660    -1.7950    -1.7620 H     1 <1>   0.0800 
 33 H       -2.3000    -2.1340    -0.0800 H     1 <1>   0.0800 
 34 H        0.1700     2.5870    -0.6510 H     1 <1>   0.0800 
 35 H       -0.0820     2.1210     1.0000 H     1 <1>   0.0800 
 36 H       -5.5110    -0.7170    -1.8310 H     1 <1>   0.0800 
 37 H       -4.5130    -2.3300     0.5130 H     1 <1>   0.0800 
 38 H       -1.2940     4.2450     1.4210 H     1 <1>   0.0800 
 39 H       -6.2010    -0.9300     0.9080 H     1 <1>   0.4000 
 40 H       -4.7050    -2.9870    -2.4430 H     1 <1>   0.0800 
 41 H       -5.8950    -3.4480    -1.2810 H     1 <1>   0.0800 
 42 H       -0.4360     4.9480    -1.3960 H     1 <1>   0.0800 
 43 H       -2.0790     4.7870    -0.8430 H     1 <1>   0.0800 
 44 H        1.0830     4.0480     1.9510 H     1 <1>   0.0800 
 45 H        1.5110     4.5110     0.3310 H     1 <1>   0.0800 
 46 H       -1.3990     7.1510    -0.9780 H     1 <1>   0.0800 
 47 H       -1.8370     6.6910     0.6420 H     1 <1>   0.0800 
 48 H        0.0940     6.2420     2.3670 H     1 <1>   0.0800 
 49 H        1.7370     6.4280     1.8240 H     1 <1>   0.0800 
 50 H       -2.7250    -4.3060    -2.7560 H     1 <1>   0.1500 
 51 H        0.2060     8.0300     0.7000 H     1 <1>   0.0800 
 52 H        0.9770     6.9620    -0.4380 H     1 <1>   0.0800 
 53 H       -6.0130    -4.2220     0.8170 H     1 <1>   0.1500 
 54 H       -1.4230    -6.2580    -2.2270 H     1 <1>   0.1500 
 55 H       -3.0690    -8.0790     1.5440 H     1 <1>   0.1500 
 56 H       -6.3730    -5.6790     2.7400 H     1 <1>   0.1500 
 57 H       -4.9130    -7.6070     3.1230 H     1 <1>   0.1500 
@<TRIPOS>BOND
  1   1   2  2   
  2   2   3  am  
  3   2   4  1   
  4   3   5  1   
  5   3   6  1   
  6   4   7  1   
  7   4  28  1   
  8   4  29  1   
  9   5   8  1   
 10   5  30  1   
 11   5  31  1   
 12   6   9  1   
 13   6  32  1   
 14   6  33  1   
 15   7  10  1   
 16   7  34  1   
 17   7  35  1   
 18   8   9  1   
 19   8  11  1   
 20   8  36  1   
 21   9  12  1   
 22   9  37  1   
 23  10  13  1   
 24  10  14  1   
 25  10  38  1   
 26  11  39  1   
 27  12  15  1   
 28  12  40  1   
 29  12  41  1   
 30  13  16  1   
 31  13  42  1   
 32  13  43  1   
 33  14  17  1   
 34  14  44  1   
 35  14  45  1   
 36  15  18  ar  
 37  15  19  ar  
 38  16  20  1   
 39  16  46  1   
 40  16  47  1   
 41  17  20  1   
 42  17  48  1   
 43  17  49  1   
 44  18  21  ar  
 45  18  22  ar  
 46  19  23  ar  
 47  19  50  1   
 48  20  51  1   
 49  20  52  1   
 50  21  24  ar  
 51  21  25  ar  
 52  22  26  ar  
 53  22  53  1   
 54  23  24  ar  
 55  23  54  1   
 56  25  27  ar  
 57  25  55  1   
 58  26  27  ar  
 59  26  56  1   
 60  27  57  1   
@<TRIPOS>SUBSTRUCTURE
  1 ****   6 GROUP 4 **** **** 0

# MOE 2024.06 (io_trps.svl 2023.06)
