@<TRIPOS>MOLECULE
NONAME
55 57 1 0 0 
SMALL
USER_CHARGES


@<TRIPOS>ATOM
  1 O       -1.4530     0.0670     2.1330 O.2   1 <1>  -0.5700 
  2 C       -1.7540     0.5670     1.0750 C.2   1 <1>   0.5690 
  3 N       -2.1550    -0.2230     0.0220 N.am  1 <1>  -0.6600 
  4 C       -1.6240     2.1000     1.0090 C.3   1 <1>  -0.0190 
  5 C       -2.0730    -1.7220     0.1580 C.3   1 <1>   0.3640 
  6 C       -2.7130     0.2630    -1.2790 C.3   1 <1>   0.1400 
  7 C       -2.9210     2.8660     0.6750 C.3   1 <1>  -0.1600 
  8 C       -0.4420     2.5680     0.1350 C.3   1 <1>  -0.1600 
  9 C       -0.7100    -2.2680    -0.3100 C.ar  1 <1>  -0.1440 
 10 C       -3.2580    -2.4320    -0.5700 C.3   1 <1>   0.2000 
 11 C       -2.8260    -0.8550    -2.3270 C.3   1 <1>   0.1200 
 12 C       -2.7070     4.3830     0.7790 C.3   1 <1>  -0.1600 
 13 C       -0.2520     4.0900     0.2210 C.3   1 <1>  -0.1600 
 14 C       -0.4220    -3.6070    -0.0730 C.ar  1 <1>  -0.1500 
 15 C        0.2550    -1.4900    -0.9450 C.ar  1 <1>  -0.1500 
 16 O       -3.6040    -1.9030    -1.8350 O.3   1 <1>  -0.5600 
 17 C       -4.5320    -2.3990     0.2840 C.3   1 <1>   0.1200 
 18 C       -1.5480     4.8390    -0.1180 C.3   1 <1>  -0.1600 
 19 C        0.7760    -4.1700    -0.4770 C.ar  1 <1>   0.0820 
 20 C        1.4650    -2.0360    -1.3370 C.ar  1 <1>  -0.1500 
 21 O       -4.4140    -3.2700     1.3630 O.3   1 <1>  -0.6800 
 22 O        0.9480    -5.4960    -0.2490 O.3   1 <1>  -0.3630 
 23 C        1.7420    -3.3700    -1.0950 C.ar  1 <1>   0.0820 
 24 C        1.0860    -6.3190    -1.3870 C.3   1 <1>   0.0400 
 25 O        2.9590    -3.8350    -1.4670 O.3   1 <1>  -0.3630 
 26 C        3.8260    -4.2060    -0.4180 C.3   1 <1>   0.0400 
 27 H       -1.3720     2.3960     2.0140 H     1 <1>   0.0800 
 28 H       -2.1510    -1.9820     1.2000 H     1 <1>   0.0800 
 29 H       -3.7000     0.6570    -1.1110 H     1 <1>   0.0800 
 30 H       -2.0980     1.0440    -1.6800 H     1 <1>   0.0800 
 31 H       -3.2470     2.6500    -0.3230 H     1 <1>   0.0800 
 32 H       -3.7000     2.5650     1.3550 H     1 <1>   0.0800 
 33 H        0.4580     2.0790     0.4680 H     1 <1>   0.0800 
 34 H       -0.5980     2.2970    -0.8910 H     1 <1>   0.0800 
 35 H       -3.0050    -3.4610    -0.7420 H     1 <1>   0.0800 
 36 H       -1.8590    -1.2390    -2.6000 H     1 <1>   0.0800 
 37 H       -3.3060    -0.4840    -3.2140 H     1 <1>   0.0800 
 38 H       -3.6090     4.8950     0.4910 H     1 <1>   0.0800 
 39 H       -2.4920     4.6450     1.8010 H     1 <1>   0.0800 
 40 H        0.0570     4.3530     1.2190 H     1 <1>   0.0800 
 41 H        0.5290     4.3950    -0.4540 H     1 <1>   0.0800 
 42 H       -1.1300    -4.2370     0.4330 H     1 <1>   0.1500 
 43 H        0.0850    -0.4470    -1.1370 H     1 <1>   0.1500 
 44 H       -5.3860    -2.7030    -0.2970 H     1 <1>   0.0800 
 45 H       -4.6940    -1.4090     0.6740 H     1 <1>   0.0800 
 46 H       -1.3930     5.8970     0.0060 H     1 <1>   0.0800 
 47 H       -1.8030     4.6630    -1.1500 H     1 <1>   0.0800 
 48 H        2.2060    -1.4280    -1.8220 H     1 <1>   0.1500 
 49 H       -4.5290    -4.1980     1.0760 H     1 <1>   0.4000 
 50 H        1.0660    -7.3440    -1.0640 H     1 <1>   0.0800 
 51 H        2.0220    -6.1060    -1.8710 H     1 <1>   0.0800 
 52 H        0.2670    -6.1260    -2.0560 H     1 <1>   0.0800 
 53 H        4.7770    -4.4680    -0.8430 H     1 <1>   0.0800 
 54 H        3.4120    -5.0500     0.1050 H     1 <1>   0.0800 
 55 H        3.9360    -3.3710     0.2520 H     1 <1>   0.0800 
@<TRIPOS>BOND
  1   1   2  2   
  2   2   3  am  
  3   2   4  1   
  4   3   5  1   
  5   3   6  1   
  6   4   7  1   
  7   4   8  1   
  8   4  27  1   
  9   5   9  1   
 10   5  10  1   
 11   5  28  1   
 12   6  11  1   
 13   6  29  1   
 14   6  30  1   
 15   7  12  1   
 16   7  31  1   
 17   7  32  1   
 18   8  13  1   
 19   8  33  1   
 20   8  34  1   
 21   9  14  ar  
 22   9  15  ar  
 23  10  16  1   
 24  10  17  1   
 25  10  35  1   
 26  11  16  1   
 27  11  36  1   
 28  11  37  1   
 29  12  18  1   
 30  12  38  1   
 31  12  39  1   
 32  13  18  1   
 33  13  40  1   
 34  13  41  1   
 35  14  19  ar  
 36  14  42  1   
 37  15  20  ar  
 38  15  43  1   
 39  17  21  1   
 40  17  44  1   
 41  17  45  1   
 42  18  46  1   
 43  18  47  1   
 44  19  22  1   
 45  19  23  ar  
 46  20  23  ar  
 47  20  48  1   
 48  21  49  1   
 49  22  24  1   
 50  23  25  1   
 51  24  50  1   
 52  24  51  1   
 53  24  52  1   
 54  25  26  1   
 55  26  53  1   
 56  26  54  1   
 57  26  55  1   
@<TRIPOS>SUBSTRUCTURE
  1 ****   9 GROUP 4 **** **** 0

# MOE 2024.06 (io_trps.svl 2023.06)
