@<TRIPOS>MOLECULE
NONAME
41 42 1 0 0 
SMALL
USER_CHARGES


@<TRIPOS>ATOM
  1 O        0.2400     2.5930     1.0080 O.co2 1 <1>  -0.9000 
  2 C       -0.4420     2.4680    -0.0050 C.2   1 <1>   0.9060 
  3 O       -0.1200     1.8000    -0.9860 O.co2 1 <1>  -0.9000 
  4 C       -1.8210     3.0210     0.0110 C.3   1 <1>  -0.2660 
  5 C       -2.6740     1.7820     0.1070 C.3   1 <1>   0.3430 
  6 N       -4.1100     2.1520     0.1680 N.4   1 <1>  -0.9590 
  7 C       -4.4760     2.8420     1.4360 C.3   1 <1>   0.3430 
  8 C       -4.9880     0.9990    -0.1240 C.3   1 <1>   0.3430 
  9 C       -5.9930     3.0280     1.5540 C.3   1 <1>  -0.1600 
 10 C       -6.4300     1.4770    -0.3410 C.3   1 <1>  -0.1600 
 11 C       -6.7260     2.8880     0.2030 C.3   1 <1>   0.2800 
 12 O       -6.1700     3.7780    -0.7320 O.3   1 <1>  -0.5600 
 13 C       -8.2550     3.0950     0.2750 C.3   1 <1>  -0.1600 
 14 C       -6.4350     5.1440    -0.5740 C.3   1 <1>   0.1200 
 15 C       -8.7000     4.5580     0.3610 C.3   1 <1>   0.2800 
 16 C       -7.9410     5.3950    -0.6680 C.3   1 <1>  -0.1600 
 17 O       -8.3940     5.0340     1.6130 O.3   1 <1>  -0.6800 
 18 C      -10.2120     4.7000     0.2060 C.3   1 <1>  -0.2400 
 19 H       -1.9880     3.5530    -0.9060 H     1 <1>   0.0800 
 20 H       -1.9190     3.6670     0.8600 H     1 <1>   0.0800 
 21 H       -2.3910     1.2170     0.9810 H     1 <1>   0.0800 
 22 H       -2.4810     1.1710    -0.7620 H     1 <1>   0.0800 
 23 H       -4.3070     2.8390    -0.5810 H     1 <1>   0.4500 
 24 H       -4.0040     3.8110     1.4510 H     1 <1>   0.0800 
 25 H       -4.1120     2.2830     2.2830 H     1 <1>   0.0800 
 26 H       -4.9540     0.3100     0.7040 H     1 <1>   0.0800 
 27 H       -4.6430     0.4850    -1.0070 H     1 <1>   0.0800 
 28 H       -6.1860     3.9740     2.0200 H     1 <1>   0.0800 
 29 H       -6.3740     2.2840     2.2300 H     1 <1>   0.0800 
 30 H       -7.0760     0.7640     0.1380 H     1 <1>   0.0800 
 31 H       -6.6610     1.4460    -1.3910 H     1 <1>   0.0800 
 32 H       -8.6680     2.5440     1.1010 H     1 <1>   0.0800 
 33 H       -8.6840     2.6810    -0.6190 H     1 <1>   0.0800 
 34 H       -5.9230     5.6700    -1.3620 H     1 <1>   0.0800 
 35 H       -6.0440     5.4780     0.3710 H     1 <1>   0.0800 
 36 H       -8.2660     5.1300    -1.6590 H     1 <1>   0.0800 
 37 H       -8.1510     6.4400    -0.5290 H     1 <1>   0.0800 
 38 H       -8.8550     5.8820     1.7570 H     1 <1>   0.4000 
 39 H      -10.5200     4.3300    -0.7550 H     1 <1>   0.0800 
 40 H      -10.5110     5.7310     0.2760 H     1 <1>   0.0800 
 41 H      -10.7220     4.1300     0.9630 H     1 <1>   0.0800 
@<TRIPOS>BOND
  1   1   2  ar  
  2   2   3  ar  
  3   2   4  1   
  4   4   5  1   
  5   4  19  1   
  6   4  20  1   
  7   5   6  1   
  8   5  21  1   
  9   5  22  1   
 10   6   7  1   
 11   6   8  1   
 12   6  23  1   
 13   7   9  1   
 14   7  24  1   
 15   7  25  1   
 16   8  10  1   
 17   8  26  1   
 18   8  27  1   
 19   9  11  1   
 20   9  28  1   
 21   9  29  1   
 22  10  11  1   
 23  10  30  1   
 24  10  31  1   
 25  11  12  1   
 26  11  13  1   
 27  12  14  1   
 28  13  15  1   
 29  13  32  1   
 30  13  33  1   
 31  14  16  1   
 32  14  34  1   
 33  14  35  1   
 34  15  16  1   
 35  15  17  1   
 36  15  18  1   
 37  16  36  1   
 38  16  37  1   
 39  17  38  1   
 40  18  39  1   
 41  18  40  1   
 42  18  41  1   
@<TRIPOS>SUBSTRUCTURE
  1 ****   7 GROUP 4 **** **** 0

# MOE 2024.06 (io_trps.svl 2023.06)
