@<TRIPOS>MOLECULE
NONAME
55 58 1 0 0 
SMALL
USER_CHARGES


@<TRIPOS>ATOM
  1 O        0.6800    -0.2020    -0.7290 O.2   1 <1>  -0.5700 
  2 C        1.5100    -0.8230    -0.0900 C.2   1 <1>   0.5440 
  3 N        2.5170    -0.1270     0.5280 N.am  1 <1>  -0.5100 
  4 C        1.4420    -2.2720    -0.0050 C.ar  1 <1>   0.0860 
  5 C        2.8310     1.3300     0.3240 C.3   1 <1>   0.2250 
  6 C        3.9790    -0.4470     0.3990 C.3   1 <1>   0.2250 
  7 C        1.9500    -2.9780     1.0870 C.ar  1 <1>  -0.1500 
  8 C        0.8570    -3.0250    -1.0240 C.ar  1 <1>  -0.1500 
  9 C        4.1630     0.9020    -0.3450 C.3   1 <1>   0.2100 
 10 C        1.8930    -4.3570     1.1470 C.ar  1 <1>  -0.1500 
 11 C        0.7980    -4.4040    -0.9640 C.ar  1 <1>  -0.1500 
 12 N        5.3480     1.6790     0.0770 N.3   1 <1>  -0.7500 
 13 C        1.3180    -5.1000     0.1220 C.ar  1 <1>   0.0000 
 14 C        5.2800     3.0600    -0.4420 C.3   1 <1>   0.1100 
 15 C        6.5920     1.0420    -0.3990 C.3   1 <1>   0.1100 
 16 C        1.2610    -6.5420     0.1840 C.ar  1 <1>   0.0000 
 17 C        6.5490     3.8520    -0.0810 C.3   1 <1>   0.1200 
 18 C        7.8230     1.8930    -0.0380 C.3   1 <1>   0.1200 
 19 C        1.8310    -7.3270    -0.8130 C.ar  1 <1>  -0.1500 
 20 C        0.6340    -7.1910     1.2440 C.ar  1 <1>  -0.1500 
 21 O        7.6880     3.1870    -0.5490 O.3   1 <1>  -0.5600 
 22 C        1.7800    -8.7080    -0.7540 C.ar  1 <1>  -0.1500 
 23 C        0.5810    -8.5720     1.3070 C.ar  1 <1>  -0.1500 
 24 C        1.1560    -9.3410     0.3090 C.ar  1 <1>  -0.1430 
 25 C        1.0990   -10.8590     0.3760 C.3   1 <1>  -0.0170 
 26 C       -0.1640   -11.3820    -0.3180 C.3   1 <1>  -0.1600 
 27 C       -0.2460   -12.9110    -0.2630 C.3   1 <1>  -0.2400 
 28 H        2.9530     1.8310     1.2690 H     1 <1>   0.0000 
 29 H        2.1470     1.8150    -0.3490 H     1 <1>   0.0000 
 30 H        4.1530    -1.3090    -0.2200 H     1 <1>   0.0000 
 31 H        4.4500    -0.4880     1.3650 H     1 <1>   0.0000 
 32 H        2.3940    -2.4360     1.9030 H     1 <1>   0.1500 
 33 H        0.4420    -2.5110    -1.8750 H     1 <1>   0.1500 
 34 H        4.0850     0.8080    -1.4150 H     1 <1>   0.0000 
 35 H        2.2990    -4.8740     1.9990 H     1 <1>   0.1500 
 36 H        0.3380    -4.9540    -1.7660 H     1 <1>   0.1500 
 37 H        4.4270     3.5620    -0.0210 H     1 <1>   0.0800 
 38 H        5.1690     3.0480    -1.5130 H     1 <1>   0.0800 
 39 H        6.5580     0.9170    -1.4690 H     1 <1>   0.0800 
 40 H        6.6970     0.0710     0.0510 H     1 <1>   0.0800 
 41 H        6.6310     3.9690     0.9850 H     1 <1>   0.0800 
 42 H        6.5260     4.8240    -0.5380 H     1 <1>   0.0800 
 43 H        8.7120     1.4630    -0.4630 H     1 <1>   0.0800 
 44 H        7.9410     1.9530     1.0300 H     1 <1>   0.0800 
 45 H        2.3220    -6.8490    -1.6410 H     1 <1>   0.1500 
 46 H        0.1800    -6.6060     2.0230 H     1 <1>   0.1500 
 47 H        2.2290    -9.2910    -1.5390 H     1 <1>   0.1500 
 48 H        0.0890    -9.0480     2.1370 H     1 <1>   0.1500 
 49 H        1.1050   -11.1730     1.4050 H     1 <1>   0.0800 
 50 H        1.9720   -11.2730    -0.0970 H     1 <1>   0.0800 
 51 H       -0.1640   -11.0600    -1.3450 H     1 <1>   0.0800 
 52 H       -1.0320   -10.9600     0.1590 H     1 <1>   0.0800 
 53 H        0.6030   -13.3520    -0.7550 H     1 <1>   0.0800 
 54 H       -1.1400   -13.2480    -0.7560 H     1 <1>   0.0800 
 55 H       -0.2710   -13.2510     0.7580 H     1 <1>   0.0800 
@<TRIPOS>BOND
  1   1   2  2   
  2   2   3  am  
  3   2   4  1   
  4   3   5  1   
  5   3   6  1   
  6   4   7  ar  
  7   4   8  ar  
  8   5   9  1   
  9   5  28  1   
 10   5  29  1   
 11   6   9  1   
 12   6  30  1   
 13   6  31  1   
 14   7  10  ar  
 15   7  32  1   
 16   8  11  ar  
 17   8  33  1   
 18   9  12  1   
 19   9  34  1   
 20  10  13  ar  
 21  10  35  1   
 22  11  13  ar  
 23  11  36  1   
 24  12  14  1   
 25  12  15  1   
 26  13  16  1   
 27  14  17  1   
 28  14  37  1   
 29  14  38  1   
 30  15  18  1   
 31  15  39  1   
 32  15  40  1   
 33  16  19  ar  
 34  16  20  ar  
 35  17  21  1   
 36  17  41  1   
 37  17  42  1   
 38  18  21  1   
 39  18  43  1   
 40  18  44  1   
 41  19  22  ar  
 42  19  45  1   
 43  20  23  ar  
 44  20  46  1   
 45  22  24  ar  
 46  22  47  1   
 47  23  24  ar  
 48  23  48  1   
 49  24  25  1   
 50  25  26  1   
 51  25  49  1   
 52  25  50  1   
 53  26  27  1   
 54  26  51  1   
 55  26  52  1   
 56  27  53  1   
 57  27  54  1   
 58  27  55  1   
@<TRIPOS>SUBSTRUCTURE
  1 ****   7 GROUP 4 **** **** 0

# MOE 2024.06 (io_trps.svl 2023.06)
