@<TRIPOS>MOLECULE
NONAME
27 26 1 0 0 
SMALL
USER_CHARGES


@<TRIPOS>ATOM
  1 O       10.9400     0.4630     0.0030 O.3   1 <1>  -0.5600 
  2 C       12.1140    -0.2890    -0.0340 C.3   1 <1>   0.1200 
  3 C        9.7810    -0.3100    -0.0530 C.3   1 <1>   0.1200 
  4 C       13.3010     0.6660     0.0390 C.3   1 <1>   0.1200 
  5 C        8.5740     0.6220    -0.0070 C.3   1 <1>   0.1200 
  6 O       14.4760    -0.0820    -0.0090 O.3   1 <1>  -0.5600 
  7 O        7.4160    -0.1520    -0.0620 O.3   1 <1>  -0.5600 
  8 C       15.6340     0.6900     0.0560 C.3   1 <1>   0.1200 
  9 C        6.2420     0.5930    -0.0260 C.3   1 <1>   0.0400 
 10 C       16.8410    -0.2470     0.0370 C.3   1 <1>   0.1200 
 11 O       18.0090     0.5040     0.0020 O.3   1 <1>  -0.6800 
 12 H       12.1400    -0.8430    -0.9560 H     1 <1>   0.0800 
 13 H       12.1240    -0.9570     0.8100 H     1 <1>   0.0800 
 14 H        9.7660    -0.9750     0.7930 H     1 <1>   0.0800 
 15 H        9.7800    -0.8680    -0.9730 H     1 <1>   0.0800 
 16 H       13.2760     1.2150     0.9640 H     1 <1>   0.0800 
 17 H       13.2840     1.3400    -0.8000 H     1 <1>   0.0800 
 18 H        8.5860     1.2860    -0.8530 H     1 <1>   0.0800 
 19 H        8.5730     1.1810     0.9130 H     1 <1>   0.0800 
 20 H       15.6210     1.2580     0.9700 H     1 <1>   0.0800 
 21 H       15.6520     1.3460    -0.7970 H     1 <1>   0.0800 
 22 H        5.4120    -0.0880    -0.0730 H     1 <1>   0.0800 
 23 H        6.2160     1.2560    -0.8740 H     1 <1>   0.0800 
 24 H        6.2030     1.1510     0.8940 H     1 <1>   0.0800 
 25 H       16.8210    -0.8840    -0.8310 H     1 <1>   0.0800 
 26 H       16.8600    -0.8470     0.9310 H     1 <1>   0.0800 
 27 H       18.1100     0.9460    -0.8630 H     1 <1>   0.4000 
@<TRIPOS>BOND
  1   1   2  1   
  2   1   3  1   
  3   2   4  1   
  4   2  12  1   
  5   2  13  1   
  6   3   5  1   
  7   3  14  1   
  8   3  15  1   
  9   4   6  1   
 10   4  16  1   
 11   4  17  1   
 12   5   7  1   
 13   5  18  1   
 14   5  19  1   
 15   6   8  1   
 16   7   9  1   
 17   8  10  1   
 18   8  20  1   
 19   8  21  1   
 20   9  22  1   
 21   9  23  1   
 22   9  24  1   
 23  10  11  1   
 24  10  25  1   
 25  10  26  1   
 26  11  27  1   
@<TRIPOS>SUBSTRUCTURE
  1 ****   2 GROUP 4 **** **** 0

# MOE 2024.06 (io_trps.svl 2023.06)
