@<TRIPOS>MOLECULE
NONAME
68 70 1 0 0 
SMALL
USER_CHARGES


@<TRIPOS>ATOM
  1 O       -1.3980     0.7350    -1.8870 O.2   1 <1>  -0.5700 
  2 C       -1.6210     1.1050    -0.7590 C.2   1 <1>   0.5690 
  3 N       -1.8370     0.2320     0.2690 N.am  1 <1>  -0.7300 
  4 C       -1.6710     2.6120    -0.4690 C.3   1 <1>   0.1710 
  5 C       -1.8070    -1.2480     0.2000 C.3   1 <1>   0.2200 
  6 N       -0.3470     3.2540    -0.2180 N.3   1 <1>  -0.8100 
  7 C       -0.4160    -1.7110    -0.2610 C.3   1 <1>  -0.1600 
  8 C       -2.9640    -1.7500    -0.6900 C.3   1 <1>  -0.1600 
  9 C       -0.4500     4.7100    -0.0910 C.3   1 <1>   0.1100 
 10 C        0.3980     2.6390     0.8930 C.3   1 <1>   0.1100 
 11 C        0.0120    -3.0860     0.2780 C.3   1 <1>  -0.1600 
 12 C       -3.9130    -2.7220     0.0290 C.3   1 <1>  -0.1600 
 13 C        0.9500     5.3300    -0.2340 C.3   1 <1>  -0.1600 
 14 C        1.7370     3.3600     1.1140 C.3   1 <1>  -0.1600 
 15 C       -0.8790    -4.2600    -0.1550 C.3   1 <1>  -0.1600 
 16 C       -3.4580    -4.1900     0.0170 C.3   1 <1>  -0.1600 
 17 C        2.0490     4.2710    -0.0790 C.3   1 <1>   0.4230 
 18 C       -2.1250    -4.4730     0.7290 C.3   1 <1>  -0.1600 
 19 N        3.3890     4.9050     0.0120 N.4   1 <1>  -0.9590 
 20 C        4.5020     3.9600    -0.3240 C.3   1 <1>   0.3430 
 21 C        3.7030     5.6640     1.2690 C.3   1 <1>   0.3430 
 22 C        5.8600     4.7000    -0.3960 C.3   1 <1>   0.1100 
 23 C        5.0570     6.4080     1.1430 C.3   1 <1>   0.1100 
 24 N        5.7230     6.1580    -0.1610 N.3   1 <1>  -0.8100 
 25 C        7.0330     6.8360    -0.2750 C.3   1 <1>   0.1100 
 26 C        6.8710     8.3450    -0.4940 C.3   1 <1>   0.1200 
 27 O        8.1210     8.9150    -0.6800 O.3   1 <1>  -0.6800 
 28 H       -2.0750     0.5990     1.1890 H     1 <1>   0.3700 
 29 H       -2.3180     2.7820     0.3730 H     1 <1>   0.0800 
 30 H       -2.1230     3.0790    -1.3260 H     1 <1>   0.0800 
 31 H       -1.9540    -1.6040     1.2040 H     1 <1>   0.0800 
 32 H        0.3140    -1.0000     0.0810 H     1 <1>   0.0800 
 33 H       -0.3710    -1.7150    -1.3370 H     1 <1>   0.0800 
 34 H       -2.5860    -2.2100    -1.5850 H     1 <1>   0.0800 
 35 H       -3.5520    -0.9080    -1.0100 H     1 <1>   0.0800 
 36 H       -0.8780     4.9590     0.8670 H     1 <1>   0.0800 
 37 H       -1.0940     5.1040    -0.8610 H     1 <1>   0.0800 
 38 H        0.5950     1.6070     0.6480 H     1 <1>   0.0800 
 39 H       -0.1910     2.6650     1.7950 H     1 <1>   0.0800 
 40 H        0.0850    -3.0540     1.3510 H     1 <1>   0.0800 
 41 H        1.0050    -3.2750    -0.0940 H     1 <1>   0.0800 
 42 H       -4.8650    -2.6810    -0.4730 H     1 <1>   0.0800 
 43 H       -4.0820    -2.3970     1.0410 H     1 <1>   0.0800 
 44 H        1.0440     6.1110     0.4970 H     1 <1>   0.0800 
 45 H        1.0270     5.7710    -1.2110 H     1 <1>   0.0800 
 46 H        2.5040     2.6200     1.2450 H     1 <1>   0.0800 
 47 H        1.6610     3.9380     2.0170 H     1 <1>   0.0800 
 48 H       -0.2810    -5.1520    -0.0810 H     1 <1>   0.0800 
 49 H       -1.1440    -4.1600    -1.1930 H     1 <1>   0.0800 
 50 H       -3.4160    -4.5490    -0.9970 H     1 <1>   0.0800 
 51 H       -4.2220    -4.7620     0.5140 H     1 <1>   0.0800 
 52 H        2.0170     3.6560    -0.9660 H     1 <1>   0.0800 
 53 H       -2.0630    -3.9120     1.6450 H     1 <1>   0.0800 
 54 H       -2.1360    -5.5120     1.0120 H     1 <1>   0.0800 
 55 H        3.4630     5.6190    -0.7280 H     1 <1>   0.4500 
 56 H        4.3090     3.4940    -1.2770 H     1 <1>   0.0800 
 57 H        4.5620     3.1790     0.4150 H     1 <1>   0.0800 
 58 H        3.7490     4.9870     2.1050 H     1 <1>   0.0800 
 59 H        2.9280     6.3830     1.4710 H     1 <1>   0.0800 
 60 H        6.2900     4.5340    -1.3700 H     1 <1>   0.0800 
 61 H        6.5340     4.2740     0.3290 H     1 <1>   0.0800 
 62 H        5.7010     6.1020     1.9500 H     1 <1>   0.0800 
 63 H        4.8750     7.4630     1.2600 H     1 <1>   0.0800 
 64 H        7.5590     6.4430    -1.1300 H     1 <1>   0.0800 
 65 H        7.6230     6.6500     0.6060 H     1 <1>   0.0800 
 66 H        6.4070     8.8260     0.3480 H     1 <1>   0.0800 
 67 H        6.2940     8.5300    -1.3840 H     1 <1>   0.0800 
 68 H        8.6400     8.9200     0.1470 H     1 <1>   0.4000 
@<TRIPOS>BOND
  1   1   2  2   
  2   2   3  am  
  3   2   4  1   
  4   3   5  1   
  5   3  28  1   
  6   4   6  1   
  7   4  29  1   
  8   4  30  1   
  9   5   7  1   
 10   5   8  1   
 11   5  31  1   
 12   6   9  1   
 13   6  10  1   
 14   7  11  1   
 15   7  32  1   
 16   7  33  1   
 17   8  12  1   
 18   8  34  1   
 19   8  35  1   
 20   9  13  1   
 21   9  36  1   
 22   9  37  1   
 23  10  14  1   
 24  10  38  1   
 25  10  39  1   
 26  11  15  1   
 27  11  40  1   
 28  11  41  1   
 29  12  16  1   
 30  12  42  1   
 31  12  43  1   
 32  13  17  1   
 33  13  44  1   
 34  13  45  1   
 35  14  17  1   
 36  14  46  1   
 37  14  47  1   
 38  15  18  1   
 39  15  48  1   
 40  15  49  1   
 41  16  18  1   
 42  16  50  1   
 43  16  51  1   
 44  17  19  1   
 45  17  52  1   
 46  18  53  1   
 47  18  54  1   
 48  19  20  1   
 49  19  21  1   
 50  19  55  1   
 51  20  22  1   
 52  20  56  1   
 53  20  57  1   
 54  21  23  1   
 55  21  58  1   
 56  21  59  1   
 57  22  24  1   
 58  22  60  1   
 59  22  61  1   
 60  23  24  1   
 61  23  62  1   
 62  23  63  1   
 63  24  25  1   
 64  25  26  1   
 65  25  64  1   
 66  25  65  1   
 67  26  27  1   
 68  26  66  1   
 69  26  67  1   
 70  27  68  1   
@<TRIPOS>SUBSTRUCTURE
  1 ****  10 GROUP 4 **** **** 0

# MOE 2024.06 (io_trps.svl 2023.06)
