@<TRIPOS>MOLECULE
NONAME
56 59 1 0 0 
SMALL
USER_CHARGES


@<TRIPOS>ATOM
  1 O       -0.7150     0.6480     0.2720 O.2   1 <1>  -0.5700 
  2 C       -1.7170     1.1960     0.6920 C.2   1 <1>   0.5440 
  3 N       -2.8070     0.4210     1.0160 N.am  1 <1>  -0.6600 
  4 C       -1.7260     2.6440     0.8080 C.ar  1 <1>   0.0860 
  5 C       -2.6930    -1.0630     1.1940 C.3   1 <1>   0.1400 
  6 C       -4.2200     0.8640     0.8060 C.3   1 <1>   0.1400 
  7 C       -1.0560     3.4220    -0.1350 C.ar  1 <1>  -0.1500 
  8 C       -2.3610     3.3100     1.8550 C.ar  1 <1>  -0.1500 
  9 C       -3.4600    -1.8160     0.0920 C.3   1 <1>   0.3440 
 10 C       -4.9100     0.0040    -0.2730 C.3   1 <1>   0.2950 
 11 C       -1.0050     4.8040    -0.0420 C.ar  1 <1>  -0.1440 
 12 C       -2.3360     4.6890     1.9490 C.ar  1 <1>  -0.1500 
 13 O       -4.7860    -1.3550     0.0280 O.3   1 <1>  -0.5600 
 14 C       -3.4510    -3.3180     0.3640 C.ar  1 <1>  -0.1430 
 15 C       -6.4050     0.3200    -0.3690 C.3   1 <1>  -0.1950 
 16 C       -1.6600     5.4380     1.0030 C.ar  1 <1>  -0.1500 
 17 C       -0.2200     5.6030    -1.0660 C.3   1 <1>   0.4860 
 18 C       -2.4230    -4.0980    -0.1470 C.ar  1 <1>  -0.1500 
 19 C       -4.4420    -3.9260     1.1240 C.ar  1 <1>  -0.1500 
 20 C       -7.1800     0.0160    -1.6120 C.3   1 <1>  -0.2000 
 21 C       -6.9070     1.4420    -1.2230 C.3   1 <1>  -0.2000 
 22 N        1.2290     5.2910    -0.8910 N.4   1 <1>  -0.9590 
 23 C       -2.3840    -5.4600     0.0980 C.ar  1 <1>  -0.1500 
 24 C       -4.4050    -5.2870     1.3690 C.ar  1 <1>  -0.1500 
 25 C        1.7420     5.7740     0.4300 C.3   1 <1>   0.2630 
 26 C        2.0480     5.8240    -2.0200 C.3   1 <1>   0.2630 
 27 C       -3.3750    -6.0560     0.8570 C.ar  1 <1>  -0.1500 
 28 H       -1.6630    -1.3710     1.1810 H     1 <1>   0.0800 
 29 H       -3.0990    -1.3370     2.1520 H     1 <1>   0.0800 
 30 H       -4.7610     0.7720     1.7310 H     1 <1>   0.0800 
 31 H       -4.2560     1.8930     0.4980 H     1 <1>   0.0800 
 32 H       -0.5680     2.9080    -0.9460 H     1 <1>   0.1500 
 33 H       -2.8740     2.7360     2.6080 H     1 <1>   0.1500 
 34 H       -2.9970    -1.6270    -0.8610 H     1 <1>   0.0800 
 35 H       -4.4450     0.1770    -1.2290 H     1 <1>   0.0800 
 36 H       -2.8420     5.1800     2.7640 H     1 <1>   0.1500 
 37 H       -6.9100     0.1550     0.5670 H     1 <1>   0.1000 
 38 H       -1.6510     6.5120     1.0970 H     1 <1>   0.1500 
 39 H       -0.3960     6.6570    -0.9310 H     1 <1>   0.0800 
 40 H       -0.5430     5.3240    -2.0550 H     1 <1>   0.0800 
 41 H       -1.6440    -3.6490    -0.7380 H     1 <1>   0.1500 
 42 H       -5.2500    -3.3370     1.5240 H     1 <1>   0.1500 
 43 H       -6.6600    -0.4100    -2.4530 H     1 <1>   0.1000 
 44 H       -8.1780    -0.3740    -1.5080 H     1 <1>   0.1000 
 45 H       -7.7280     2.0410    -0.8670 H     1 <1>   0.1000 
 46 H       -6.2180     2.0070    -1.8280 H     1 <1>   0.1000 
 47 H        1.2980     4.2610    -0.8840 H     1 <1>   0.4500 
 48 H       -1.5830    -6.0560    -0.3030 H     1 <1>   0.1500 
 49 H       -5.1790    -5.7470     1.9580 H     1 <1>   0.1500 
 50 H        1.6630     6.8470     0.4960 H     1 <1>   0.0800 
 51 H        2.7760     5.4950     0.5550 H     1 <1>   0.0800 
 52 H        1.1730     5.3360     1.2360 H     1 <1>   0.0800 
 53 H        1.9890     6.9000    -2.0520 H     1 <1>   0.0800 
 54 H        1.6970     5.4300    -2.9600 H     1 <1>   0.0800 
 55 H        3.0810     5.5400    -1.8970 H     1 <1>   0.0800 
 56 H       -3.3460    -7.1140     1.0470 H     1 <1>   0.1500 
@<TRIPOS>BOND
  1   1   2  2   
  2   2   3  am  
  3   2   4  1   
  4   3   5  1   
  5   3   6  1   
  6   4   7  ar  
  7   4   8  ar  
  8   5   9  1   
  9   5  28  1   
 10   5  29  1   
 11   6  10  1   
 12   6  30  1   
 13   6  31  1   
 14   7  11  ar  
 15   7  32  1   
 16   8  12  ar  
 17   8  33  1   
 18   9  13  1   
 19   9  14  1   
 20   9  34  1   
 21  10  13  1   
 22  10  15  1   
 23  10  35  1   
 24  11  16  ar  
 25  11  17  1   
 26  12  16  ar  
 27  12  36  1   
 28  14  18  ar  
 29  14  19  ar  
 30  15  20  1   
 31  15  21  1   
 32  15  37  1   
 33  16  38  1   
 34  17  22  1   
 35  17  39  1   
 36  17  40  1   
 37  18  23  ar  
 38  18  41  1   
 39  19  24  ar  
 40  19  42  1   
 41  20  21  1   
 42  20  43  1   
 43  20  44  1   
 44  21  45  1   
 45  21  46  1   
 46  22  25  1   
 47  22  26  1   
 48  22  47  1   
 49  23  27  ar  
 50  23  48  1   
 51  24  27  ar  
 52  24  49  1   
 53  25  50  1   
 54  25  51  1   
 55  25  52  1   
 56  26  53  1   
 57  26  54  1   
 58  26  55  1   
 59  27  56  1   
@<TRIPOS>SUBSTRUCTURE
  1 ****   3 GROUP 4 **** **** 0

# MOE 2024.06 (io_trps.svl 2023.06)
