@<TRIPOS>MOLECULE
NONAME
46 48 1 0 0 
SMALL
USER_CHARGES


@<TRIPOS>ATOM
  1 O        1.2300     0.2330     1.8360 O.2   1 <1>  -0.5700 
  2 C        1.7730    -0.3050     0.9000 C.2   1 <1>   0.5690 
  3 N        2.3300     0.4620    -0.1060 N.am  1 <1>  -0.6600 
  4 C        1.8510    -1.8470     0.9300 C.3   1 <1>   0.2610 
  5 C        3.2180    -0.0730    -1.1800 C.3   1 <1>   0.1400 
  6 C        2.2690     1.9440    -0.0380 C.3   1 <1>   0.1400 
  7 O        3.1320    -2.3520     0.6430 O.3   1 <1>  -0.5600 
  8 C        0.9260    -2.5570    -0.0590 C.3   1 <1>  -0.1600 
  9 C        4.6940    -0.1050    -0.7290 C.3   1 <1>   0.3430 
 10 C        3.3560     2.4750     0.9060 C.3   1 <1>  -0.1600 
 11 C        3.0130    -3.6990     0.3180 C.3   1 <1>   0.1200 
 12 C        1.6990    -3.8120    -0.4490 C.3   1 <1>  -0.1600 
 13 N        5.2100     1.2180    -0.2080 N.4   1 <1>  -0.9590 
 14 C        4.5620     1.5500     1.1030 C.3   1 <1>   0.3430 
 15 C        6.7050     1.1580    -0.0940 C.3   1 <1>   0.3430 
 16 C        7.3400     2.5340     0.1430 C.3   1 <1>   0.0960 
 17 N        8.7990     2.3710     0.1510 N.pl3 1 <1>   0.0480 
 18 C        9.6140     2.2240     1.2210 C.2   1 <1>   0.0360 
 19 C        9.6120     2.2710    -0.9160 C.2   1 <1>  -0.3020 
 20 N       10.8530     2.0360     0.9100 N.2   1 <1>  -0.5650 
 21 C       10.8580     2.0690    -0.4340 C.2   1 <1>   0.0770 
 22 H        1.6100    -2.1730     1.9270 H     1 <1>   0.0800 
 23 H        2.9120    -1.0670    -1.4530 H     1 <1>   0.0800 
 24 H        3.1220     0.5310    -2.0650 H     1 <1>   0.0800 
 25 H        2.3940     2.3580    -1.0240 H     1 <1>   0.0800 
 26 H        1.2970     2.2510     0.3170 H     1 <1>   0.0800 
 27 H       -0.0150    -2.7880     0.4090 H     1 <1>   0.0800 
 28 H        0.7400    -1.9390    -0.9190 H     1 <1>   0.0800 
 29 H        5.2900    -0.4190    -1.5700 H     1 <1>   0.0800 
 30 H        4.8010    -0.8580     0.0360 H     1 <1>   0.0800 
 31 H        2.9000     2.6100     1.8720 H     1 <1>   0.0800 
 32 H        3.6750     3.4490     0.5830 H     1 <1>   0.0800 
 33 H        3.8630    -4.0050    -0.2680 H     1 <1>   0.0800 
 34 H        2.9760    -4.2630     1.2360 H     1 <1>   0.0800 
 35 H        1.8880    -3.8310    -1.5080 H     1 <1>   0.0800 
 36 H        1.1760    -4.7110    -0.1720 H     1 <1>   0.0800 
 37 H        4.9400     1.9440    -0.8840 H     1 <1>   0.4500 
 38 H        4.2380     0.6430     1.5900 H     1 <1>   0.0800 
 39 H        5.2640     2.0380     1.7580 H     1 <1>   0.0800 
 40 H        6.9790     0.4960     0.7120 H     1 <1>   0.0800 
 41 H        7.1130     0.7560    -1.0080 H     1 <1>   0.0800 
 42 H        7.0370     2.9450     1.0870 H     1 <1>   0.0800 
 43 H        7.0800     3.2140    -0.6480 H     1 <1>   0.0800 
 44 H        9.2550     2.2600     2.2350 H     1 <1>   0.1500 
 45 H        9.2890     2.3490    -1.9380 H     1 <1>   0.1500 
 46 H       11.7740     1.9460    -0.9900 H     1 <1>   0.1500 
@<TRIPOS>BOND
  1   1   2  2   
  2   2   3  am  
  3   2   4  1   
  4   3   5  1   
  5   3   6  1   
  6   4   7  1   
  7   4   8  1   
  8   4  22  1   
  9   5   9  1   
 10   5  23  1   
 11   5  24  1   
 12   6  10  1   
 13   6  25  1   
 14   6  26  1   
 15   7  11  1   
 16   8  12  1   
 17   8  27  1   
 18   8  28  1   
 19   9  13  1   
 20   9  29  1   
 21   9  30  1   
 22  10  14  1   
 23  10  31  1   
 24  10  32  1   
 25  11  12  1   
 26  11  33  1   
 27  11  34  1   
 28  12  35  1   
 29  12  36  1   
 30  13  14  1   
 31  13  15  1   
 32  13  37  1   
 33  14  38  1   
 34  14  39  1   
 35  15  16  1   
 36  15  40  1   
 37  15  41  1   
 38  16  17  1   
 39  16  42  1   
 40  16  43  1   
 41  17  18  1   
 42  17  19  1   
 43  18  20  2   
 44  18  44  1   
 45  19  21  2   
 46  19  45  1   
 47  20  21  1   
 48  21  46  1   
@<TRIPOS>SUBSTRUCTURE
  1 ****  13 GROUP 4 **** **** 0

# MOE 2024.06 (io_trps.svl 2023.06)
