@<TRIPOS>MOLECULE
NONAME
57 59 1 0 0 
SMALL
USER_CHARGES


@<TRIPOS>ATOM
  1 O        0.1050     2.4260     2.6430 O.2   1 <1>  -0.5700 
  2 C        0.3640     2.7570     1.4990 C.2   1 <1>   0.5440 
  3 N       -0.6810     2.9090     0.6080 N.am  1 <1>  -0.6600 
  4 C        1.7410     2.9830     1.1170 C.ar  1 <1>   0.0860 
  5 C       -2.0550     2.4360     0.9700 C.3   1 <1>   0.1400 
  6 C       -0.5380     3.6950    -0.6550 C.3   1 <1>   0.1400 
  7 C        2.3380     2.2850     0.0510 C.ar  1 <1>   0.1000 
  8 C        2.5150     3.9040     1.8240 C.ar  1 <1>  -0.1500 
  9 C       -2.9490     2.2000    -0.2710 C.3   1 <1>   0.0000 
 10 C       -1.8340     4.4460    -0.9620 C.3   1 <1>  -0.1600 
 11 N        1.6330     1.3290    -0.6700 N.pl3 1 <1>  -0.8690 
 12 C        3.6600     2.5600    -0.2880 C.ar  1 <1>  -0.1500 
 13 C        3.8280     4.1580     1.4830 C.ar  1 <1>  -0.1500 
 14 C       -4.3270     1.6820     0.1940 C.3   1 <1>   0.2000 
 15 C       -3.0520     3.5120    -1.0970 C.3   1 <1>  -0.1600 
 16 C       -2.4200     1.0090    -1.0980 C.3   1 <1>  -0.1600 
 17 C        2.1900    -0.0310    -0.8440 C.3   1 <1>   0.2090 
 18 C        4.4020     3.4850     0.4170 C.ar  1 <1>  -0.1500 
 19 O       -5.2510     1.8140    -0.8490 O.3   1 <1>  -0.5600 
 20 C       -4.1220     0.1870     0.4680 C.3   1 <1>  -0.1600 
 21 C       -2.9520    -0.2580    -0.4180 C.3   1 <1>  -0.1600 
 22 C        1.1270    -1.0920    -0.5110 C.3   1 <1>  -0.0800 
 23 C       -6.5830     1.8900    -0.4510 C.3   1 <1>   0.0400 
 24 C        0.6660    -1.0110     0.9540 C.3   1 <1>  -0.2400 
 25 C        1.6780    -2.4960    -0.7940 C.3   1 <1>  -0.2400 
 26 H       -1.9690     1.5300     1.5440 H     1 <1>   0.0800 
 27 H       -2.5090     3.1790     1.6010 H     1 <1>   0.0800 
 28 H        0.2690     4.4010    -0.5590 H     1 <1>   0.0800 
 29 H       -0.3050     3.0310    -1.4690 H     1 <1>   0.0800 
 30 H        2.0660     4.4220     2.6540 H     1 <1>   0.1500 
 31 H       -2.0080     5.1480    -0.1650 H     1 <1>   0.0800 
 32 H       -1.7150     5.0140    -1.8680 H     1 <1>   0.0800 
 33 H        0.6370     1.2800    -0.4050 H     1 <1>   0.4000 
 34 H        4.1030     2.0410    -1.1170 H     1 <1>   0.1500 
 35 H        4.4050     4.8750     2.0410 H     1 <1>   0.1500 
 36 H       -4.6830     2.2210     1.0560 H     1 <1>   0.0800 
 37 H       -3.2070     3.2710    -2.1340 H     1 <1>   0.0800 
 38 H       -3.9180     4.0660    -0.7800 H     1 <1>   0.0800 
 39 H       -2.8360     1.0510    -2.0900 H     1 <1>   0.0800 
 40 H       -1.3500     0.9910    -1.1830 H     1 <1>   0.0800 
 41 H        2.5100    -0.1440    -1.8660 H     1 <1>   0.0800 
 42 H        3.0460    -0.1610    -0.2030 H     1 <1>   0.0800 
 43 H        5.4240     3.6840     0.1430 H     1 <1>   0.1500 
 44 H       -3.8510     0.0530     1.5000 H     1 <1>   0.0800 
 45 H       -5.0090    -0.3860     0.2710 H     1 <1>   0.0800 
 46 H       -2.1860    -0.7110     0.1870 H     1 <1>   0.0800 
 47 H       -3.2780    -0.9690    -1.1580 H     1 <1>   0.0800 
 48 H        0.2790    -0.9350    -1.1560 H     1 <1>   0.0800 
 49 H       -7.1910     1.9570    -1.3360 H     1 <1>   0.0800 
 50 H       -6.7220     2.7700     0.1520 H     1 <1>   0.0800 
 51 H       -6.8460     1.0050     0.1020 H     1 <1>   0.0800 
 52 H        1.5050    -1.1080     1.6210 H     1 <1>   0.0800 
 53 H       -0.0370    -1.7950     1.1710 H     1 <1>   0.0800 
 54 H        0.1850    -0.0710     1.1540 H     1 <1>   0.0800 
 55 H        2.5300    -2.7030    -0.1700 H     1 <1>   0.0800 
 56 H        1.9760    -2.5810    -1.8240 H     1 <1>   0.0800 
 57 H        0.9230    -3.2380    -0.6010 H     1 <1>   0.0800 
@<TRIPOS>BOND
  1   1   2  2   
  2   2   3  am  
  3   2   4  1   
  4   3   5  1   
  5   3   6  1   
  6   4   7  ar  
  7   4   8  ar  
  8   5   9  1   
  9   5  26  1   
 10   5  27  1   
 11   6  10  1   
 12   6  28  1   
 13   6  29  1   
 14   7  11  1   
 15   7  12  ar  
 16   8  13  ar  
 17   8  30  1   
 18   9  14  1   
 19   9  15  1   
 20   9  16  1   
 21  10  15  1   
 22  10  31  1   
 23  10  32  1   
 24  11  17  1   
 25  11  33  1   
 26  12  18  ar  
 27  12  34  1   
 28  13  18  ar  
 29  13  35  1   
 30  14  19  1   
 31  14  20  1   
 32  14  36  1   
 33  15  37  1   
 34  15  38  1   
 35  16  21  1   
 36  16  39  1   
 37  16  40  1   
 38  17  22  1   
 39  17  41  1   
 40  17  42  1   
 41  18  43  1   
 42  19  23  1   
 43  20  21  1   
 44  20  44  1   
 45  20  45  1   
 46  21  46  1   
 47  21  47  1   
 48  22  24  1   
 49  22  25  1   
 50  22  48  1   
 51  23  49  1   
 52  23  50  1   
 53  23  51  1   
 54  24  52  1   
 55  24  53  1   
 56  24  54  1   
 57  25  55  1   
 58  25  56  1   
 59  25  57  1   
@<TRIPOS>SUBSTRUCTURE
  1 ****   3 GROUP 4 **** **** 0

# MOE 2024.06 (io_trps.svl 2023.06)
