@<TRIPOS>MOLECULE
NONAME
46 49 1 0 0 
SMALL
USER_CHARGES


@<TRIPOS>ATOM
  1 O       -0.5580     0.2150     2.0900 O.2   1 <1>  -0.5700 
  2 C       -1.4610     0.8310     1.5480 C.2   1 <1>   0.5440 
  3 N       -2.6980     0.2100     1.4760 N.am  1 <1>  -0.6600 
  4 C       -1.1900     2.1720     1.0170 C.ar  1 <1>   0.3960 
  5 C       -2.8340    -1.2790     1.5090 C.3   1 <1>   0.1400 
  6 C       -3.9580     0.8650     1.0150 C.3   1 <1>   0.1400 
  7 N       -1.6900     2.5420    -0.1780 N.ar  1 <1>  -0.6200 
  8 C       -0.3970     3.0400     1.7670 C.ar  1 <1>  -0.1500 
  9 C       -3.3560    -1.7990     0.1550 C.3   1 <1>   0.3440 
 10 C       -4.3960     0.2710    -0.3360 C.3   1 <1>   0.2950 
 11 C       -1.4060     3.7560    -0.6060 C.ar  1 <1>   0.1660 
 12 C       -0.1070     4.3080     1.3150 C.ar  1 <1>  -0.1500 
 13 O       -4.5320    -1.1220    -0.2150 O.3   1 <1>  -0.5600 
 14 C       -3.6330    -3.2990     0.2250 C.ar  1 <1>  -0.1440 
 15 C       -5.7330     0.8790    -0.7960 C.3   1 <1>  -0.1950 
 16 C       -0.6310     4.6660     0.0940 C.ar  1 <1>  -0.1500 
 17 C       -1.9860     4.1320    -1.9540 C.3   1 <1>  -0.0970 
 18 C       -4.8690    -3.7900     0.6210 C.ar  1 <1>  -0.1500 
 19 C       -2.6260    -4.1970    -0.1010 C.ar  1 <1>  -0.1500 
 20 C       -7.0560     0.3780    -0.3030 C.3   1 <1>  -0.2000 
 21 C       -6.6570     0.1680    -1.7380 C.3   1 <1>  -0.2000 
 22 C       -5.0960    -5.1530     0.6920 C.ar  1 <1>  -0.1500 
 23 C       -2.8500    -5.5610    -0.0310 C.ar  1 <1>  -0.1500 
 24 C       -4.0850    -6.0400     0.3660 C.ar  1 <1>  -0.1500 
 25 H       -1.8880    -1.7460     1.7220 H     1 <1>   0.0800 
 26 H       -3.5200    -1.5590     2.2880 H     1 <1>   0.0800 
 27 H       -4.7330     0.6880     1.7400 H     1 <1>   0.0800 
 28 H       -3.8380     1.9290     0.9290 H     1 <1>   0.0800 
 29 H       -0.0080     2.7030     2.7120 H     1 <1>   0.1500 
 30 H       -2.6190    -1.6120    -0.6070 H     1 <1>   0.0800 
 31 H       -3.6450     0.4730    -1.0810 H     1 <1>   0.0800 
 32 H        0.5030     4.9850     1.8880 H     1 <1>   0.1500 
 33 H       -5.6440     1.9410    -0.9390 H     1 <1>   0.1000 
 34 H       -0.4350     5.6430    -0.3090 H     1 <1>   0.1500 
 35 H       -1.7080     5.1330    -2.2310 H     1 <1>   0.0800 
 36 H       -3.0570     4.0670    -1.9160 H     1 <1>   0.0800 
 37 H       -1.6230     3.4520    -2.7030 H     1 <1>   0.0800 
 38 H       -5.6630    -3.1070     0.8730 H     1 <1>   0.1500 
 39 H       -1.6590    -3.8380    -0.4100 H     1 <1>   0.1500 
 40 H       -7.0850    -0.4820     0.3440 H     1 <1>   0.1000 
 41 H       -7.8330     1.0890    -0.0810 H     1 <1>   0.1000 
 42 H       -7.1550     0.7360    -2.5040 H     1 <1>   0.1000 
 43 H       -6.4130    -0.8310    -2.0570 H     1 <1>   0.1000 
 44 H       -6.0590    -5.5220     0.9990 H     1 <1>   0.1500 
 45 H       -2.0630    -6.2490    -0.2860 H     1 <1>   0.1500 
 46 H       -4.2610    -7.1000     0.4210 H     1 <1>   0.1500 
@<TRIPOS>BOND
  1   1   2  2   
  2   2   3  am  
  3   2   4  1   
  4   3   5  1   
  5   3   6  1   
  6   4   7  ar  
  7   4   8  ar  
  8   5   9  1   
  9   5  25  1   
 10   5  26  1   
 11   6  10  1   
 12   6  27  1   
 13   6  28  1   
 14   7  11  ar  
 15   8  12  ar  
 16   8  29  1   
 17   9  13  1   
 18   9  14  1   
 19   9  30  1   
 20  10  13  1   
 21  10  15  1   
 22  10  31  1   
 23  11  16  ar  
 24  11  17  1   
 25  12  16  ar  
 26  12  32  1   
 27  14  18  ar  
 28  14  19  ar  
 29  15  20  1   
 30  15  21  1   
 31  15  33  1   
 32  16  34  1   
 33  17  35  1   
 34  17  36  1   
 35  17  37  1   
 36  18  22  ar  
 37  18  38  1   
 38  19  23  ar  
 39  19  39  1   
 40  20  21  1   
 41  20  40  1   
 42  20  41  1   
 43  21  42  1   
 44  21  43  1   
 45  22  24  ar  
 46  22  44  1   
 47  23  24  ar  
 48  23  45  1   
 49  24  46  1   
@<TRIPOS>SUBSTRUCTURE
  1 ****   3 GROUP 4 **** **** 0

# MOE 2024.06 (io_trps.svl 2023.06)
