@<TRIPOS>MOLECULE
NONAME
54 57 1 0 0 
SMALL
USER_CHARGES


@<TRIPOS>ATOM
  1 O        1.4220     0.4000    -2.3180 O.2   1 <1>  -0.5700 
  2 C        1.9250    -0.3980    -1.5480 C.2   1 <1>   0.4690 
  3 C        2.8840    -0.0130    -0.5490 C.ar  1 <1>   0.0860 
  4 C        1.5710    -1.7690    -1.6010 C.2   1 <1>  -0.1360 
  5 C        3.3950    -1.0040     0.2950 C.ar  1 <1>   0.0820 
  6 C        3.3350     1.2950    -0.3700 C.ar  1 <1>  -0.1500 
  7 C        2.0960    -2.6900    -0.7500 C.2   1 <1>   0.0910 
  8 O        2.9920    -2.2880     0.1720 O.3   1 <1>  -0.1590 
  9 C        4.3230    -0.6930     1.2780 C.ar  1 <1>  -0.1500 
 10 C        4.2590     1.6020     0.6100 C.ar  1 <1>  -0.1500 
 11 C        1.7790    -4.1040    -0.7370 C.2   1 <1>   0.6160 
 12 C        4.7590     0.6090     1.4410 C.ar  1 <1>  -0.1440 
 13 O        2.6000    -4.9280    -0.3740 O.2   1 <1>  -0.5700 
 14 N        0.5360    -4.5800    -1.1000 N.am  1 <1>  -0.6600 
 15 C        5.7750     0.9650     2.5110 C.3   1 <1>  -0.0970 
 16 C        0.3890    -6.0250    -1.4240 C.3   1 <1>   0.1400 
 17 C       -0.7000    -3.9790    -0.5290 C.3   1 <1>   0.1400 
 18 C        0.0980    -6.7950    -0.1160 C.3   1 <1>   0.4230 
 19 C       -1.0360    -4.7220     0.7730 C.3   1 <1>  -0.1600 
 20 N        0.1490    -8.3100    -0.2610 N.4   1 <1>  -0.9590 
 21 C       -1.1820    -6.2640     0.6010 C.3   1 <1>   0.0000 
 22 C       -0.5150    -9.0530     0.8590 C.3   1 <1>   0.3430 
 23 C       -0.3090    -8.8540    -1.5810 C.3   1 <1>   0.2630 
 24 C       -1.2860    -6.9170     2.0120 C.3   1 <1>  -0.1600 
 25 C       -2.4450    -6.5960    -0.2450 C.3   1 <1>   0.1200 
 26 C       -0.4970    -8.2340     2.1480 C.3   1 <1>  -0.1600 
 27 O       -3.5760    -5.9750     0.2580 O.3   1 <1>  -0.6800 
 28 H        0.8630    -2.0370    -2.3620 H     1 <1>   0.1500 
 29 H        2.9520     2.0710    -1.0120 H     1 <1>   0.1500 
 30 H        4.6980    -1.4800     1.9080 H     1 <1>   0.1500 
 31 H        4.5920     2.6190     0.7290 H     1 <1>   0.1500 
 32 H        5.3540     1.6850     3.1900 H     1 <1>   0.0800 
 33 H        6.6530     1.3870     2.0570 H     1 <1>   0.0800 
 34 H        6.0650     0.0950     3.0720 H     1 <1>   0.0800 
 35 H       -0.4010    -6.1430    -2.1430 H     1 <1>   0.0800 
 36 H        1.3050    -6.3840    -1.8620 H     1 <1>   0.0800 
 37 H       -0.5540    -2.9330    -0.3180 H     1 <1>   0.0800 
 38 H       -1.5100    -4.0630    -1.2360 H     1 <1>   0.0800 
 39 H        0.9130    -6.5340     0.5400 H     1 <1>   0.0800 
 40 H       -0.2470    -4.5070     1.4730 H     1 <1>   0.0800 
 41 H       -1.9340    -4.2990     1.1900 H     1 <1>   0.0800 
 42 H        1.1550    -8.5300    -0.1840 H     1 <1>   0.4500 
 43 H       -1.5410    -9.2600     0.6010 H     1 <1>   0.0800 
 44 H       -0.0160    -9.9960     1.0190 H     1 <1>   0.0800 
 45 H       -1.3490    -8.6220    -1.7460 H     1 <1>   0.0800 
 46 H       -0.1890    -9.9250    -1.6040 H     1 <1>   0.0800 
 47 H        0.2720    -8.4340    -2.3870 H     1 <1>   0.0800 
 48 H       -0.9170    -6.2450     2.7690 H     1 <1>   0.0800 
 49 H       -2.3170    -7.1020     2.2590 H     1 <1>   0.0800 
 50 H       -2.6420    -7.6520    -0.2650 H     1 <1>   0.0800 
 51 H       -2.3400    -6.2510    -1.2580 H     1 <1>   0.0800 
 52 H       -0.9240    -8.8180     2.9460 H     1 <1>   0.0800 
 53 H        0.5240    -8.0290     2.4220 H     1 <1>   0.0800 
 54 H       -3.8160    -6.3010     1.1480 H     1 <1>   0.4000 
@<TRIPOS>BOND
  1   1   2  2   
  2   2   3  1   
  3   2   4  1   
  4   3   5  ar  
  5   3   6  ar  
  6   4   7  2   
  7   4  28  1   
  8   5   8  1   
  9   5   9  ar  
 10   6  10  ar  
 11   6  29  1   
 12   7   8  1   
 13   7  11  1   
 14   9  12  ar  
 15   9  30  1   
 16  10  12  ar  
 17  10  31  1   
 18  11  13  2   
 19  11  14  am  
 20  12  15  1   
 21  14  16  1   
 22  14  17  1   
 23  15  32  1   
 24  15  33  1   
 25  15  34  1   
 26  16  18  1   
 27  16  35  1   
 28  16  36  1   
 29  17  19  1   
 30  17  37  1   
 31  17  38  1   
 32  18  20  1   
 33  18  21  1   
 34  18  39  1   
 35  19  21  1   
 36  19  40  1   
 37  19  41  1   
 38  20  22  1   
 39  20  23  1   
 40  20  42  1   
 41  21  24  1   
 42  21  25  1   
 43  22  26  1   
 44  22  43  1   
 45  22  44  1   
 46  23  45  1   
 47  23  46  1   
 48  23  47  1   
 49  24  26  1   
 50  24  48  1   
 51  24  49  1   
 52  25  27  1   
 53  25  50  1   
 54  25  51  1   
 55  26  52  1   
 56  26  53  1   
 57  27  54  1   
@<TRIPOS>SUBSTRUCTURE
  1 ****  11 GROUP 4 **** **** 0

# MOE 2024.06 (io_trps.svl 2023.06)
