@<TRIPOS>MOLECULE
NONAME
43 45 1 0 0 
SMALL
USER_CHARGES


@<TRIPOS>ATOM
  1 O       -0.2620     0.1710    -0.1200 O.2   1 <1>  -0.5700 
  2 C        0.5600     0.9640    -0.5370 C.2   1 <1>   0.7800 
  3 O        1.8680     0.7140    -0.4340 O.3   1 <1>  -0.4300 
  4 N        0.1960     2.1390    -1.1340 N.am  1 <1>  -0.6600 
  5 C        2.4830    -0.4190     0.1410 C.3   1 <1>   0.2800 
  6 C        1.1910     3.1530    -1.5690 C.3   1 <1>   0.2780 
  7 C       -1.2260     2.5030    -1.3590 C.3   1 <1>   0.1400 
  8 C        2.1330    -0.5140     1.6310 C.3   1 <1>  -0.2400 
  9 C        2.0970    -1.6840    -0.6330 C.3   1 <1>  -0.2400 
 10 C        3.9850    -0.1750    -0.0080 C.3   1 <1>  -0.2400 
 11 C        0.6600     4.5600    -1.3500 C.2   1 <1>  -0.2880 
 12 C       -1.5550     3.7790    -0.5800 C.3   1 <1>  -0.0220 
 13 C       -0.5640     4.8930    -0.8960 C.2   1 <1>  -0.0920 
 14 C       -1.0100     6.2590    -0.7120 C.2   1 <1>   0.2430 
 15 N       -0.5260     7.2340    -1.4320 N.2   1 <1>  -0.7070 
 16 C       -1.9840     6.7360     0.2090 C.ar  1 <1>   0.0000 
 17 N       -1.1700     8.3410    -1.0270 N.pl3 1 <1>   0.3000 
 18 C       -2.0650     8.0900    -0.0390 C.ar  1 <1>  -0.1520 
 19 C       -2.7890     6.1970     1.2280 C.ar  1 <1>  -0.1500 
 20 C       -2.9350     8.9280     0.6670 C.ar  1 <1>  -0.1500 
 21 C       -3.6470     7.0100     1.9300 C.ar  1 <1>  -0.1500 
 22 C       -3.7240     8.3790     1.6480 C.ar  1 <1>  -0.1500 
 23 H        1.4070     3.0070    -2.6130 H     1 <1>   0.0800 
 24 H        2.1060     3.0390    -1.0130 H     1 <1>   0.0800 
 25 H       -1.8810     1.7070    -1.0470 H     1 <1>   0.0800 
 26 H       -1.3800     2.6730    -2.4100 H     1 <1>   0.0800 
 27 H        1.0960    -0.7550     1.7720 H     1 <1>   0.0800 
 28 H        2.3500     0.4160     2.1260 H     1 <1>   0.0800 
 29 H        2.7120    -1.2910     2.0950 H     1 <1>   0.0800 
 30 H        1.0600    -1.9250    -0.4920 H     1 <1>   0.0800 
 31 H        2.6740    -2.5190    -0.2820 H     1 <1>   0.0800 
 32 H        2.2900    -1.5540    -1.6830 H     1 <1>   0.0800 
 33 H        4.2700     0.7240     0.5090 H     1 <1>   0.0800 
 34 H        4.2460    -0.0810    -1.0470 H     1 <1>   0.0800 
 35 H        4.5400    -0.9960     0.4080 H     1 <1>   0.0800 
 36 H        1.3840     5.3150    -1.6030 H     1 <1>   0.1500 
 37 H       -1.5270     3.5560     0.4710 H     1 <1>   0.0800 
 38 H       -2.5510     4.0870    -0.8430 H     1 <1>   0.0800 
 39 H       -0.9860     9.2660    -1.4320 H     1 <1>   0.2700 
 40 H       -2.7300     5.1530     1.4630 H     1 <1>   0.1500 
 41 H       -2.9790     9.9790     0.4420 H     1 <1>   0.1500 
 42 H       -4.2680     6.6030     2.7090 H     1 <1>   0.1500 
 43 H       -4.4060     8.9940     2.2110 H     1 <1>   0.1500 
@<TRIPOS>BOND
  1   1   2  2   
  2   2   3  1   
  3   2   4  am  
  4   3   5  1   
  5   4   6  1   
  6   4   7  1   
  7   5   8  1   
  8   5   9  1   
  9   5  10  1   
 10   6  11  1   
 11   6  23  1   
 12   6  24  1   
 13   7  12  1   
 14   7  25  1   
 15   7  26  1   
 16   8  27  1   
 17   8  28  1   
 18   8  29  1   
 19   9  30  1   
 20   9  31  1   
 21   9  32  1   
 22  10  33  1   
 23  10  34  1   
 24  10  35  1   
 25  11  13  2   
 26  11  36  1   
 27  12  13  1   
 28  12  37  1   
 29  12  38  1   
 30  13  14  1   
 31  14  15  2   
 32  14  16  1   
 33  15  17  1   
 34  16  18  ar  
 35  16  19  ar  
 36  17  18  1   
 37  17  39  1   
 38  18  20  ar  
 39  19  21  ar  
 40  19  40  1   
 41  20  22  ar  
 42  20  41  1   
 43  21  22  ar  
 44  21  42  1   
 45  22  43  1   
@<TRIPOS>SUBSTRUCTURE
  1 ****  13 GROUP 4 **** **** 0

# MOE 2024.06 (io_trps.svl 2023.06)
