@<TRIPOS>MOLECULE
NONAME
62 63 1 0 0 
SMALL
USER_CHARGES


@<TRIPOS>ATOM
  1 O       -3.4450     2.4470     1.1980 O.2   1 <1>  -0.5700 
  2 C       -2.8470     1.5120     0.7090 C.2   1 <1>   0.5690 
  3 N       -3.5570     0.4430     0.2280 N.am  1 <1>  -0.6600 
  4 C       -1.2850     1.5690     0.7220 C.3   1 <1>   0.4840 
  5 C       -3.1230    -0.9820     0.4880 C.3   1 <1>   0.3210 
  6 C       -4.9130     0.6540    -0.4060 C.3   1 <1>   0.1400 
  7 N       -0.7370     2.8740     1.2860 N.4   1 <1>  -0.9590 
  8 C       -0.6300     1.2440    -0.6320 C.3   1 <1>  -0.2400 
  9 C       -3.9060    -2.0390    -0.2860 C.2   1 <1>   0.0460 
 10 C       -6.0850     0.4590     0.5770 C.3   1 <1>   0.3430 
 11 C       -0.4470     3.9810     0.3000 C.3   1 <1>   0.4230 
 12 C        0.4110     2.5640     2.2000 C.3   1 <1>   0.2630 
 13 N       -5.1240    -2.4310     0.1430 N.2   1 <1>  -0.5650 
 14 C       -3.5500    -2.7140    -1.4050 C.2   1 <1>  -0.3320 
 15 N       -6.0780     1.4990     1.6530 N.4   1 <1>  -0.9590 
 16 C        0.2860     5.1600     0.9710 C.3   1 <1>  -0.1600 
 17 C       -1.7550     4.4890    -0.3350 C.3   1 <1>  -0.1600 
 18 C       -5.4770    -3.3380    -0.7090 C.2   1 <1>   0.0360 
 19 N       -4.5650    -3.5560    -1.6770 N.pl3 1 <1>   0.0330 
 20 C       -2.3040    -2.6570    -2.2750 C.3   1 <1>  -0.0600 
 21 C       -6.5900     0.9380     2.9380 C.3   1 <1>   0.2630 
 22 C       -6.8360     2.7220     1.2530 C.3   1 <1>   0.2630 
 23 C        0.5280     6.3220    -0.0050 C.3   1 <1>  -0.1600 
 24 C       -1.5100     5.6370    -1.3230 C.3   1 <1>  -0.1600 
 25 C       -0.7790     6.7980    -0.6440 C.3   1 <1>  -0.1600 
 26 H       -0.9910     0.7860     1.3990 H     1 <1>   0.0800 
 27 H       -3.2420    -1.1960     1.5360 H     1 <1>   0.0800 
 28 H       -2.0830    -1.1030     0.2540 H     1 <1>   0.0800 
 29 H       -5.0340    -0.0220    -1.2350 H     1 <1>   0.0800 
 30 H       -4.9650     1.6470    -0.8170 H     1 <1>   0.0800 
 31 H       -1.5150     3.2440     1.8580 H     1 <1>   0.4500 
 32 H       -0.9830     1.8920    -1.4120 H     1 <1>   0.0800 
 33 H       -0.8660     0.2410    -0.9310 H     1 <1>   0.0800 
 34 H        0.4410     1.3130    -0.5630 H     1 <1>   0.0800 
 35 H       -6.0040    -0.5180     1.0210 H     1 <1>   0.0800 
 36 H       -7.0180     0.4940     0.0400 H     1 <1>   0.0800 
 37 H        0.1920     3.6070    -0.4840 H     1 <1>   0.0800 
 38 H        1.2720     2.2560     1.6280 H     1 <1>   0.0800 
 39 H        0.1480     1.7730     2.8830 H     1 <1>   0.0800 
 40 H        0.6760     3.4310     2.7820 H     1 <1>   0.0800 
 41 H       -5.0820     1.7800     1.7710 H     1 <1>   0.4500 
 42 H        1.2520     4.8560     1.3300 H     1 <1>   0.0800 
 43 H       -0.2940     5.5260     1.8010 H     1 <1>   0.0800 
 44 H       -2.4160     4.8430     0.4370 H     1 <1>   0.0800 
 45 H       -2.2530     3.7060    -0.8740 H     1 <1>   0.0800 
 46 H       -6.4050    -3.8850    -0.6690 H     1 <1>   0.1500 
 47 H       -4.6330    -4.2310    -2.4460 H     1 <1>   0.2700 
 48 H       -1.6100    -1.9240    -1.9090 H     1 <1>   0.0800 
 49 H       -2.5690    -2.4000    -3.2850 H     1 <1>   0.0800 
 50 H       -1.8140    -3.6160    -2.2810 H     1 <1>   0.0800 
 51 H       -7.6200     0.6380     2.8320 H     1 <1>   0.0800 
 52 H       -6.5240     1.6760     3.7210 H     1 <1>   0.0800 
 53 H       -6.0100     0.0770     3.2270 H     1 <1>   0.0800 
 54 H       -7.8730     2.4830     1.0820 H     1 <1>   0.0800 
 55 H       -6.4220     3.1400     0.3500 H     1 <1>   0.0800 
 56 H       -6.7770     3.4670     2.0310 H     1 <1>   0.0800 
 57 H        1.2080     6.0090    -0.7800 H     1 <1>   0.0800 
 58 H        0.9880     7.1440     0.5170 H     1 <1>   0.0800 
 59 H       -2.4510     5.9900    -1.7110 H     1 <1>   0.0800 
 60 H       -0.9250     5.2850    -2.1560 H     1 <1>   0.0800 
 61 H       -0.5660     7.5650    -1.3710 H     1 <1>   0.0800 
 62 H       -1.4120     7.2340     0.1110 H     1 <1>   0.0800 
@<TRIPOS>BOND
  1   1   2  2   
  2   2   3  am  
  3   2   4  1   
  4   3   5  1   
  5   3   6  1   
  6   4   7  1   
  7   4   8  1   
  8   4  26  1   
  9   5   9  1   
 10   5  27  1   
 11   5  28  1   
 12   6  10  1   
 13   6  29  1   
 14   6  30  1   
 15   7  11  1   
 16   7  12  1   
 17   7  31  1   
 18   8  32  1   
 19   8  33  1   
 20   8  34  1   
 21   9  13  1   
 22   9  14  2   
 23  10  15  1   
 24  10  35  1   
 25  10  36  1   
 26  11  16  1   
 27  11  17  1   
 28  11  37  1   
 29  12  38  1   
 30  12  39  1   
 31  12  40  1   
 32  13  18  2   
 33  14  19  1   
 34  14  20  1   
 35  15  21  1   
 36  15  22  1   
 37  15  41  1   
 38  16  23  1   
 39  16  42  1   
 40  16  43  1   
 41  17  24  1   
 42  17  44  1   
 43  17  45  1   
 44  18  19  1   
 45  18  46  1   
 46  19  47  1   
 47  20  48  1   
 48  20  49  1   
 49  20  50  1   
 50  21  51  1   
 51  21  52  1   
 52  21  53  1   
 53  22  54  1   
 54  22  55  1   
 55  22  56  1   
 56  23  25  1   
 57  23  57  1   
 58  23  58  1   
 59  24  25  1   
 60  24  59  1   
 61  24  60  1   
 62  25  61  1   
 63  25  62  1   
@<TRIPOS>SUBSTRUCTURE
  1 ****   2 GROUP 4 **** **** 0

# MOE 2024.06 (io_trps.svl 2023.06)
