@<TRIPOS>MOLECULE
NONAME
55 57 1 0 0 
SMALL
USER_CHARGES


@<TRIPOS>ATOM
  1 O       -0.8260     0.5850    -1.0620 O.2   1 <1>  -0.5700 
  2 C       -0.5580     1.6640    -0.5840 C.2   1 <1>   0.5690 
  3 N       -1.5140     2.5880    -0.2470 N.am  1 <1>  -0.5090 
  4 C        0.9220     2.0000    -0.3920 C.3   1 <1>   0.1810 
  5 C       -1.1400     3.9700     0.1930 C.3   1 <1>   0.3640 
  6 C       -2.9660     2.2800    -0.2690 C.3   1 <1>   0.0490 
  7 O        1.1390     3.1250     0.4240 O.3   1 <1>  -0.5600 
  8 C       -1.9230     5.0110    -0.6090 C.ar  1 <1>  -0.1440 
  9 C        0.3760     4.2560     0.0560 C.3   1 <1>   0.2610 
 10 C       -3.7570     2.4440     0.9920 C.3   1 <1>  -0.2000 
 11 C       -3.4760     1.0760     0.4590 C.3   1 <1>  -0.2000 
 12 C       -2.5590     6.0530     0.0520 C.ar  1 <1>   0.1600 
 13 C       -2.0110     4.9510    -1.9880 C.ar  1 <1>  -0.1500 
 14 C        0.7860     5.5020     0.8590 C.2   1 <1>   0.5690 
 15 N       -3.2570     7.0110    -0.5380 N.ar  1 <1>  -0.6200 
 16 C       -2.7320     5.9420    -2.6170 C.ar  1 <1>  -0.1500 
 17 O        0.0860     5.8380     1.7910 O.2   1 <1>  -0.5700 
 18 N        1.8960     6.2370     0.5040 N.am  1 <1>  -0.6600 
 19 C       -3.3270     6.9340    -1.8560 C.ar  1 <1>   0.1600 
 20 C        2.1360     7.5890     1.1060 C.3   1 <1>   0.1400 
 21 C        3.0260     5.6830    -0.2910 C.3   1 <1>   0.1400 
 22 C        1.5590     8.7660     0.2740 C.3   1 <1>   0.0000 
 23 C        4.0090     4.9810     0.6430 C.3   1 <1>  -0.2400 
 24 C        1.8430    10.0730     1.0300 C.3   1 <1>  -0.2400 
 25 C        0.0370     8.6390     0.0940 C.3   1 <1>  -0.2400 
 26 C        2.2130     8.8630    -1.1140 C.3   1 <1>  -0.2400 
 27 H        1.3750     2.1820    -1.3490 H     1 <1>   0.0800 
 28 H        1.4160     1.1650     0.0690 H     1 <1>   0.0800 
 29 H       -1.4090     4.0510     1.2320 H     1 <1>   0.0800 
 30 H       -3.4310     2.5390    -1.2060 H     1 <1>   0.1000 
 31 H        0.5810     4.4590    -0.9780 H     1 <1>   0.0800 
 32 H       -3.2670     2.7320     1.9050 H     1 <1>   0.1000 
 33 H       -4.7620     2.8190     0.9250 H     1 <1>   0.1000 
 34 H       -4.2840     0.5180     0.0190 H     1 <1>   0.1000 
 35 H       -2.7670     0.4460     0.9660 H     1 <1>   0.1000 
 36 H       -2.4860     6.1110     1.1260 H     1 <1>   0.1500 
 37 H       -1.5450     4.1630    -2.5560 H     1 <1>   0.1500 
 38 H       -2.8380     5.9490    -3.6860 H     1 <1>   0.1500 
 39 H       -3.8890     7.7030    -2.3570 H     1 <1>   0.1500 
 40 H        1.6990     7.6170     2.0900 H     1 <1>   0.0800 
 41 H        3.1940     7.7350     1.2360 H     1 <1>   0.0800 
 42 H        2.6690     4.9870    -1.0280 H     1 <1>   0.0800 
 43 H        3.5320     6.4780    -0.8110 H     1 <1>   0.0800 
 44 H        3.5210     4.1790     1.1680 H     1 <1>   0.0800 
 45 H        4.4140     5.6750     1.3580 H     1 <1>   0.0800 
 46 H        4.8200     4.5690     0.0720 H     1 <1>   0.0800 
 47 H        1.4570    10.9180     0.4880 H     1 <1>   0.0800 
 48 H        2.9020    10.2120     1.1630 H     1 <1>   0.0800 
 49 H        1.3770    10.0550     2.0000 H     1 <1>   0.0800 
 50 H       -0.3670     9.5090    -0.3920 H     1 <1>   0.0800 
 51 H       -0.4490     8.5280     1.0470 H     1 <1>   0.0800 
 52 H       -0.2070     7.7830    -0.5080 H     1 <1>   0.0800 
 53 H        1.8560     9.7320    -1.6380 H     1 <1>   0.0800 
 54 H        1.9720     7.9990    -1.7060 H     1 <1>   0.0800 
 55 H        3.2820     8.9360    -1.0240 H     1 <1>   0.0800 
@<TRIPOS>BOND
  1   1   2  2   
  2   2   3  am  
  3   2   4  1   
  4   3   5  1   
  5   3   6  1   
  6   4   7  1   
  7   4  27  1   
  8   4  28  1   
  9   5   8  1   
 10   5   9  1   
 11   5  29  1   
 12   6  10  1   
 13   6  11  1   
 14   6  30  1   
 15   7   9  1   
 16   8  12  ar  
 17   8  13  ar  
 18   9  14  1   
 19   9  31  1   
 20  10  11  1   
 21  10  32  1   
 22  10  33  1   
 23  11  34  1   
 24  11  35  1   
 25  12  15  ar  
 26  12  36  1   
 27  13  16  ar  
 28  13  37  1   
 29  14  17  2   
 30  14  18  am  
 31  15  19  ar  
 32  16  19  ar  
 33  16  38  1   
 34  18  20  1   
 35  18  21  1   
 36  19  39  1   
 37  20  22  1   
 38  20  40  1   
 39  20  41  1   
 40  21  23  1   
 41  21  42  1   
 42  21  43  1   
 43  22  24  1   
 44  22  25  1   
 45  22  26  1   
 46  23  44  1   
 47  23  45  1   
 48  23  46  1   
 49  24  47  1   
 50  24  48  1   
 51  24  49  1   
 52  25  50  1   
 53  25  51  1   
 54  25  52  1   
 55  26  53  1   
 56  26  54  1   
 57  26  55  1   
@<TRIPOS>SUBSTRUCTURE
  1 ****   9 GROUP 4 **** **** 0

# MOE 2024.06 (io_trps.svl 2023.06)
