@<TRIPOS>MOLECULE
NONAME
43 45 1 0 0 
SMALL
USER_CHARGES


@<TRIPOS>ATOM
  1 S       -0.2590     0.4140     1.2420 S.3   1 <1>  -0.0800 
  2 C        1.3210     0.0950     0.5330 C.2   1 <1>   0.3250 
  3 C       -0.6400    -1.2760     1.1830 C.2   1 <1>  -0.1100 
  4 N        1.4930    -1.1610     0.2940 N.2   1 <1>  -0.5650 
  5 C        2.2350     1.1930     0.2870 C.ar  1 <1>   0.0530 
  6 C        0.4050    -1.9330     0.6520 C.2   1 <1>   0.0460 
  7 C        3.4640     0.9520    -0.3290 C.ar  1 <1>  -0.1500 
  8 C        1.9600     2.5170     0.6360 C.ar  1 <1>  -0.1500 
  9 C        0.5460    -3.4330     0.4000 C.3   1 <1>   0.5240 
 10 C        4.3660     1.9680    -0.5850 C.ar  1 <1>  -0.1500 
 11 C        2.8580     3.5380     0.3820 C.ar  1 <1>  -0.1500 
 12 N       -0.7410    -4.1700     0.5570 N.4   1 <1>  -0.9590 
 13 C        4.0770     3.2820    -0.2360 C.ar  1 <1>  -0.1430 
 14 C       -0.4950    -5.6630     0.6530 C.3   1 <1>   0.3430 
 15 C       -1.6940    -3.8430    -0.5470 C.3   1 <1>   0.3430 
 16 C        5.0760     4.4190    -0.5130 C.3   1 <1>   1.1630 
 17 C       -1.6760    -6.5250     0.1630 C.3   1 <1>   0.2000 
 18 C       -3.0740    -4.4180    -0.2130 C.3   1 <1>  -0.1600 
 19 F        5.8720     4.6420     0.5240 F     1 <1>  -0.3400 
 20 F        4.4770     5.5740    -0.7780 F     1 <1>  -0.3400 
 21 F        5.8700     4.1690    -1.5480 F     1 <1>  -0.3400 
 22 O       -1.5490    -6.6910    -1.2060 O.3   1 <1>  -0.6800 
 23 C       -3.0100    -5.8250     0.4400 C.3   1 <1>  -0.1860 
 24 C       -4.1500    -6.7170     0.0030 C.2   1 <1>   0.9060 
 25 O       -5.0230    -6.9850     0.8240 O.co2 1 <1>  -0.9000 
 26 O       -4.1280    -7.1520    -1.1540 O.co2 1 <1>  -0.9000 
 27 H       -1.6030    -1.5730     1.5560 H     1 <1>   0.1500 
 28 H        3.7180    -0.0540    -0.6130 H     1 <1>   0.1500 
 29 H        1.0330     2.7720     1.1170 H     1 <1>   0.1500 
 30 H        1.2770    -3.8200     1.0890 H     1 <1>   0.0800 
 31 H        0.9230    -3.5820    -0.5980 H     1 <1>   0.0800 
 32 H        5.3020     1.7240    -1.0620 H     1 <1>   0.1500 
 33 H        2.6000     4.5440     0.6730 H     1 <1>   0.1500 
 34 H       -1.1880    -3.8740     1.4310 H     1 <1>   0.4500 
 35 H        0.3680    -5.9390     0.0710 H     1 <1>   0.0800 
 36 H       -0.2960    -5.9160     1.6800 H     1 <1>   0.0800 
 37 H       -1.7700    -2.7770    -0.6940 H     1 <1>   0.0800 
 38 H       -1.3420    -4.2870    -1.4650 H     1 <1>   0.0800 
 39 H       -1.6520    -7.5050     0.6100 H     1 <1>   0.0800 
 40 H       -3.6170    -3.7480     0.4290 H     1 <1>   0.0800 
 41 H       -3.6270    -4.4820    -1.1350 H     1 <1>   0.0800 
 42 H       -2.4500    -7.0150    -1.5230 H     1 <1>   0.4000 
 43 H       -3.1050    -5.7120     1.5040 H     1 <1>   0.0800 
@<TRIPOS>BOND
  1   1   2  1   
  2   1   3  1   
  3   2   4  2   
  4   2   5  1   
  5   3   6  2   
  6   3  27  1   
  7   4   6  1   
  8   5   7  ar  
  9   5   8  ar  
 10   6   9  1   
 11   7  10  ar  
 12   7  28  1   
 13   8  11  ar  
 14   8  29  1   
 15   9  12  1   
 16   9  30  1   
 17   9  31  1   
 18  10  13  ar  
 19  10  32  1   
 20  11  13  ar  
 21  11  33  1   
 22  12  14  1   
 23  12  15  1   
 24  12  34  1   
 25  13  16  1   
 26  14  17  1   
 27  14  35  1   
 28  14  36  1   
 29  15  18  1   
 30  15  37  1   
 31  15  38  1   
 32  16  19  1   
 33  16  20  1   
 34  16  21  1   
 35  17  22  1   
 36  17  23  1   
 37  17  39  1   
 38  18  23  1   
 39  18  40  1   
 40  18  41  1   
 41  22  42  1   
 42  23  24  1   
 43  23  43  1   
 44  24  25  ar  
 45  24  26  ar  
@<TRIPOS>SUBSTRUCTURE
  1 ****   4 GROUP 4 **** **** 0

# MOE 2024.06 (io_trps.svl 2023.06)
