@<TRIPOS>MOLECULE
NONAME
36 38 1 0 0 
SMALL
USER_CHARGES


@<TRIPOS>ATOM
  1 O        1.1450    -0.4550    -1.6090 O.2   1 <1>  -0.5700 
  2 C        1.7130    -0.7170    -0.5650 C.2   1 <1>   0.7150 
  3 N        2.5940     0.1900    -0.0790 N.am  1 <1>  -0.7300 
  4 C        1.4890    -1.9400     0.1620 C.2   1 <1>  -0.2370 
  5 C        2.9730     1.4550    -0.7550 C.3   1 <1>   0.3210 
  6 N        0.6290    -2.9430    -0.2250 N.pl3 1 <1>   0.0480 
  7 C        2.0680    -2.3370     1.3440 C.2   1 <1>  -0.1500 
  8 C        4.1580     2.1350    -0.0680 C.2   1 <1>   0.3350 
  9 C        0.6850    -3.9290     0.7030 C.2   1 <1>  -0.3020 
 10 C       -0.2270    -2.9880    -1.4270 C.3   1 <1>   0.0160 
 11 C        1.5610    -3.5870     1.6820 C.2   1 <1>  -0.1500 
 12 N        4.7610     1.7020     0.9700 N.2   1 <1>  -0.4100 
 13 N        4.6600     3.2720    -0.5290 N.2   1 <1>  -0.5650 
 14 O        5.7020     2.5520     1.2500 O.3   1 <1>  -0.0190 
 15 C        5.5950     3.4700     0.3210 C.2   1 <1>   0.2980 
 16 C        6.5920     4.6370     0.3640 C.3   1 <1>   0.3800 
 17 O        6.3880     5.3960     1.5180 O.3   1 <1>  -0.5600 
 18 C        6.4360     5.6590    -0.7610 C.3   1 <1>  -0.1600 
 19 C        5.4020     6.3550     1.2950 C.3   1 <1>   0.1200 
 20 C        5.4280     6.6530    -0.2020 C.3   1 <1>  -0.1600 
 21 H        3.1260    -0.0230     0.7660 H     1 <1>   0.3700 
 22 H        2.1320     2.1240    -0.7470 H     1 <1>   0.0800 
 23 H        3.2320     1.2480    -1.7780 H     1 <1>   0.0800 
 24 H        2.7910    -1.8020     1.9340 H     1 <1>   0.1500 
 25 H        0.1000    -4.8290     0.6280 H     1 <1>   0.1500 
 26 H       -0.9070    -2.1560    -1.4090 H     1 <1>   0.0800 
 27 H       -0.7830    -3.9060    -1.4460 H     1 <1>   0.0800 
 28 H        0.3920    -2.9240    -2.3040 H     1 <1>   0.0800 
 29 H        1.8270    -4.1560     2.5560 H     1 <1>   0.1500 
 30 H        7.5930     4.2450     0.3930 H     1 <1>   0.0800 
 31 H        6.1160     5.2120    -1.6850 H     1 <1>   0.0800 
 32 H        7.3830     6.1440    -0.9180 H     1 <1>   0.0800 
 33 H        5.6270     7.2240     1.8900 H     1 <1>   0.0800 
 34 H        4.4550     5.9380     1.5940 H     1 <1>   0.0800 
 35 H        4.4500     6.4880    -0.6200 H     1 <1>   0.0800 
 36 H        5.7250     7.6690    -0.3930 H     1 <1>   0.0800 
@<TRIPOS>BOND
  1   1   2  2   
  2   2   3  am  
  3   2   4  1   
  4   3   5  1   
  5   3  21  1   
  6   4   6  1   
  7   4   7  2   
  8   5   8  1   
  9   5  22  1   
 10   5  23  1   
 11   6   9  1   
 12   6  10  1   
 13   7  11  1   
 14   7  24  1   
 15   8  12  2   
 16   8  13  1   
 17   9  11  2   
 18   9  25  1   
 19  10  26  1   
 20  10  27  1   
 21  10  28  1   
 22  11  29  1   
 23  12  14  1   
 24  13  15  2   
 25  14  15  1   
 26  15  16  1   
 27  16  17  1   
 28  16  18  1   
 29  16  30  1   
 30  17  19  1   
 31  18  20  1   
 32  18  31  1   
 33  18  32  1   
 34  19  20  1   
 35  19  33  1   
 36  19  34  1   
 37  20  35  1   
 38  20  36  1   
@<TRIPOS>SUBSTRUCTURE
  1 ****   5 GROUP 4 **** **** 0

# MOE 2024.06 (io_trps.svl 2023.06)
