@<TRIPOS>MOLECULE
NONAME
51 52 1 0 0 
SMALL
USER_CHARGES


@<TRIPOS>ATOM
  1 O       -0.3720     0.4540    -0.4710 O.2   1 <1>  -0.5700 
  2 C       -1.3920     1.0980    -0.5630 C.2   1 <1>   0.5690 
  3 N       -2.6280     0.4970    -0.5770 N.am  1 <1>  -0.6600 
  4 C       -1.2700     2.6150    -0.6440 C.3   1 <1>  -0.0990 
  5 C       -3.9250     1.2200    -0.6780 C.3   1 <1>   0.1400 
  6 C       -2.7370    -0.9840    -0.4630 C.3   1 <1>   0.1400 
  7 C        0.1840     3.1270    -0.6270 C.3   1 <1>  -0.0990 
  8 C       -4.7310     1.1100     0.6220 C.3   1 <1>  -0.1600 
  9 C       -2.9360    -1.3720     1.0050 C.3   1 <1>  -0.1600 
 10 C        0.2540     4.6390    -0.6270 C.2   1 <1>   0.5690 
 11 C       -5.3260    -0.2890     0.8460 C.3   1 <1>  -0.1600 
 12 C       -4.3830    -1.2920     1.5300 C.3   1 <1>  -0.1600 
 13 O       -0.3460     5.2620    -1.4680 O.2   1 <1>  -0.5700 
 14 N        1.0000     5.2580     0.3230 N.am  1 <1>  -0.7300 
 15 C        1.1050     6.7310     0.4770 C.3   1 <1>   0.1400 
 16 C        1.9080     7.3350    -0.6770 C.3   1 <1>   0.0960 
 17 N        2.1370     8.7700    -0.4200 N.pl3 1 <1>   0.0480 
 18 C        3.1940     9.3780     0.1760 C.2   1 <1>   0.0070 
 19 C        1.2830     9.7670    -0.7120 C.2   1 <1>  -0.3020 
 20 N        3.0570    10.6620     0.2730 N.2   1 <1>  -0.5650 
 21 C        4.4140     8.6040     0.6720 C.3   1 <1>   0.0200 
 22 C        1.8590    10.9090    -0.2840 C.2   1 <1>   0.0770 
 23 C        5.4170     9.4720     1.4410 C.3   1 <1>  -0.2400 
 24 H       -1.8000     3.0410     0.1870 H     1 <1>   0.0800 
 25 H       -1.7360     2.9460    -1.5540 H     1 <1>   0.0800 
 26 H       -4.4920     0.8130    -1.4970 H     1 <1>   0.0800 
 27 H       -3.7650     2.2600    -0.8950 H     1 <1>   0.0800 
 28 H       -1.8280    -1.4370    -0.8240 H     1 <1>   0.0800 
 29 H       -3.5430    -1.3530    -1.0730 H     1 <1>   0.0800 
 30 H        0.7010     2.7630    -1.4960 H     1 <1>   0.0800 
 31 H        0.6870     2.7440     0.2430 H     1 <1>   0.0800 
 32 H       -5.5480     1.8050     0.5480 H     1 <1>   0.0800 
 33 H       -4.1300     1.4110     1.4620 H     1 <1>   0.0800 
 34 H       -2.2970    -0.7510     1.6090 H     1 <1>   0.0800 
 35 H       -2.5920    -2.3820     1.1350 H     1 <1>   0.0800 
 36 H       -5.6610    -0.6920    -0.0940 H     1 <1>   0.0800 
 37 H       -6.2000    -0.1910     1.4680 H     1 <1>   0.0800 
 38 H       -4.3400    -1.0650     2.5820 H     1 <1>   0.0800 
 39 H       -4.8300    -2.2680     1.4430 H     1 <1>   0.0800 
 40 H        1.4730     4.6930     1.0310 H     1 <1>   0.3700 
 41 H        1.5830     6.9530     1.4150 H     1 <1>   0.0800 
 42 H        0.1140     7.1550     0.4830 H     1 <1>   0.0800 
 43 H        1.3630     7.2330    -1.5980 H     1 <1>   0.0800 
 44 H        2.8550     6.8390    -0.7740 H     1 <1>   0.0800 
 45 H        0.3350     9.6160    -1.1970 H     1 <1>   0.1500 
 46 H        4.9120     8.1680    -0.1760 H     1 <1>   0.0800 
 47 H        4.0850     7.8090     1.3160 H     1 <1>   0.0800 
 48 H        1.4690    11.9110    -0.3490 H     1 <1>   0.1500 
 49 H        5.7830    10.2610     0.8070 H     1 <1>   0.0800 
 50 H        6.2490     8.8790     1.7740 H     1 <1>   0.0800 
 51 H        4.9400     9.9170     2.2960 H     1 <1>   0.0800 
@<TRIPOS>BOND
  1   1   2  2   
  2   2   3  am  
  3   2   4  1   
  4   3   5  1   
  5   3   6  1   
  6   4   7  1   
  7   4  24  1   
  8   4  25  1   
  9   5   8  1   
 10   5  26  1   
 11   5  27  1   
 12   6   9  1   
 13   6  28  1   
 14   6  29  1   
 15   7  10  1   
 16   7  30  1   
 17   7  31  1   
 18   8  11  1   
 19   8  32  1   
 20   8  33  1   
 21   9  12  1   
 22   9  34  1   
 23   9  35  1   
 24  10  13  2   
 25  10  14  am  
 26  11  12  1   
 27  11  36  1   
 28  11  37  1   
 29  12  38  1   
 30  12  39  1   
 31  14  15  1   
 32  14  40  1   
 33  15  16  1   
 34  15  41  1   
 35  15  42  1   
 36  16  17  1   
 37  16  43  1   
 38  16  44  1   
 39  17  18  1   
 40  17  19  1   
 41  18  20  2   
 42  18  21  1   
 43  19  22  2   
 44  19  45  1   
 45  20  22  1   
 46  21  23  1   
 47  21  46  1   
 48  21  47  1   
 49  22  48  1   
 50  23  49  1   
 51  23  50  1   
 52  23  51  1   
@<TRIPOS>SUBSTRUCTURE
  1 ****  10 GROUP 4 **** **** 0

# MOE 2024.06 (io_trps.svl 2023.06)
