@<TRIPOS>MOLECULE
NONAME
46 47 1 0 0 
SMALL
USER_CHARGES


@<TRIPOS>ATOM
  1 O       -0.5700     0.2550    -0.6000 O.2   1 <1>  -0.5700 
  2 C       -1.5900     0.8200    -0.2750 C.2   1 <1>   0.5690 
  3 N       -2.7000     0.1140     0.1200 N.am  1 <1>  -0.6600 
  4 C       -1.6130     2.3560    -0.3210 C.3   1 <1>   0.2010 
  5 C       -2.6660    -1.3800     0.2510 C.3   1 <1>   0.1400 
  6 C       -4.0530     0.6880     0.4020 C.3   1 <1>   0.1400 
  7 N       -0.2690     2.9630    -0.5420 N.am  1 <1>  -0.7300 
  8 C       -3.8380    -2.0350    -0.4990 C.3   1 <1>   0.3440 
  9 C       -5.1560    -0.0780    -0.3660 C.3   1 <1>   0.2000 
 10 C        0.1140     4.2530    -0.4440 C.2   1 <1>   0.5690 
 11 O       -5.0470    -1.4480    -0.0960 O.3   1 <1>  -0.5600 
 12 C       -3.8820    -3.5350    -0.2240 C.ar  1 <1>  -0.1440 
 13 C       -6.5870     0.3720     0.0100 C.3   1 <1>  -0.0800 
 14 O        1.2600     4.5670    -0.6230 O.2   1 <1>  -0.5700 
 15 C       -0.8970     5.3210    -0.1080 C.3   1 <1>  -0.1790 
 16 C       -4.5560    -4.0490     0.8760 C.ar  1 <1>  -0.1500 
 17 C       -3.2250    -4.4090    -1.0790 C.ar  1 <1>  -0.1500 
 18 C       -7.6490    -0.4380    -0.7550 C.3   1 <1>  -0.2400 
 19 C       -6.8230     1.8680    -0.2600 C.3   1 <1>  -0.2400 
 20 C       -4.5710    -5.4120     1.1190 C.ar  1 <1>  -0.1500 
 21 C       -3.2400    -5.7720    -0.8380 C.ar  1 <1>  -0.1500 
 22 C       -3.9130    -6.2750     0.2610 C.ar  1 <1>  -0.1500 
 23 H       -2.0090     2.7210     0.6090 H     1 <1>   0.0800 
 24 H       -2.2640     2.6610    -1.1200 H     1 <1>   0.0800 
 25 H       -1.7430    -1.7790    -0.1330 H     1 <1>   0.0800 
 26 H       -2.7250    -1.6460     1.2920 H     1 <1>   0.0800 
 27 H       -4.2510     0.6200     1.4580 H     1 <1>   0.0800 
 28 H       -4.0860     1.7230     0.1230 H     1 <1>   0.0800 
 29 H        0.4630     2.2740    -0.7590 H     1 <1>   0.3700 
 30 H       -3.7270    -1.8720    -1.5570 H     1 <1>   0.0800 
 31 H       -5.0160     0.0630    -1.4240 H     1 <1>   0.0800 
 32 H       -6.7270     0.1960     1.0640 H     1 <1>   0.0800 
 33 H       -1.6970     5.3060    -0.8230 H     1 <1>   0.0800 
 34 H       -0.4240     6.2860    -0.1380 H     1 <1>   0.0800 
 35 H       -1.2850     5.1570     0.8790 H     1 <1>   0.0800 
 36 H       -5.0740    -3.3860     1.5470 H     1 <1>   0.1500 
 37 H       -2.6970    -4.0350    -1.9380 H     1 <1>   0.1500 
 38 H       -7.5340    -0.3090    -1.8160 H     1 <1>   0.0800 
 39 H       -8.6380    -0.1240    -0.4740 H     1 <1>   0.0800 
 40 H       -7.5590    -1.4860    -0.5280 H     1 <1>   0.0800 
 41 H       -6.6280     2.1020    -1.2920 H     1 <1>   0.0800 
 42 H       -6.1990     2.4800     0.3640 H     1 <1>   0.0800 
 43 H       -7.8460     2.1250    -0.0440 H     1 <1>   0.0800 
 44 H       -5.0980    -5.7990     1.9730 H     1 <1>   0.1500 
 45 H       -2.7280    -6.4430    -1.5060 H     1 <1>   0.1500 
 46 H       -3.9250    -7.3340     0.4490 H     1 <1>   0.1500 
@<TRIPOS>BOND
  1   1   2  2   
  2   2   3  am  
  3   2   4  1   
  4   3   5  1   
  5   3   6  1   
  6   4   7  1   
  7   4  23  1   
  8   4  24  1   
  9   5   8  1   
 10   5  25  1   
 11   5  26  1   
 12   6   9  1   
 13   6  27  1   
 14   6  28  1   
 15   7  10  am  
 16   7  29  1   
 17   8  11  1   
 18   8  12  1   
 19   8  30  1   
 20   9  11  1   
 21   9  13  1   
 22   9  31  1   
 23  10  14  2   
 24  10  15  1   
 25  12  16  ar  
 26  12  17  ar  
 27  13  18  1   
 28  13  19  1   
 29  13  32  1   
 30  15  33  1   
 31  15  34  1   
 32  15  35  1   
 33  16  20  ar  
 34  16  36  1   
 35  17  21  ar  
 36  17  37  1   
 37  18  38  1   
 38  18  39  1   
 39  18  40  1   
 40  19  41  1   
 41  19  42  1   
 42  19  43  1   
 43  20  22  ar  
 44  20  44  1   
 45  21  22  ar  
 46  21  45  1   
 47  22  46  1   
@<TRIPOS>SUBSTRUCTURE
  1 ****   3 GROUP 4 **** **** 0

# MOE 2024.06 (io_trps.svl 2023.06)
