@<TRIPOS>MOLECULE
NONAME
48 50 1 0 0 
SMALL
USER_CHARGES


@<TRIPOS>ATOM
  1 N        0.0290     0.2630     0.6760 N.ar  1 <1>  -0.1790 
  2 C        0.2100     1.5920     0.7220 C.ar  1 <1>   0.4610 
  3 C       -1.2070    -0.3580     0.5690 C.ar  1 <1>   0.3610 
  4 N        1.4610     2.0940     0.8180 N.pl3 1 <1>  -0.8690 
  5 C       -0.9590     2.3960     0.6700 C.ar  1 <1>  -0.1500 
  6 C       -2.3600     0.4410     0.5050 C.ar  1 <1>   0.0000 
  7 C       -1.3290    -1.7520     0.5220 C.ar  1 <1>  -0.1500 
  8 C        1.8680     3.5290     1.1120 C.3   1 <1>   0.2090 
  9 C       -2.2000     1.8500     0.5640 C.ar  1 <1>  -0.1500 
 10 C       -3.6100    -0.1820     0.3920 C.ar  1 <1>  -0.1500 
 11 C       -2.5660    -2.3420     0.4110 C.ar  1 <1>  -0.1500 
 12 C        2.5340     4.3670    -0.0450 C.3   1 <1>   0.5030 
 13 C       -3.7100    -1.5510     0.3450 C.ar  1 <1>  -0.1500 
 14 N        3.6790     3.6570    -0.7440 N.4   1 <1>  -0.9590 
 15 C        3.1440     5.6610     0.5520 C.3   1 <1>  -0.1600 
 16 C        1.4830     4.7600    -1.1160 C.3   1 <1>  -0.1600 
 17 C        3.2930     2.5700    -1.7050 C.3   1 <1>   0.2630 
 18 C        4.7770     3.1790     0.1630 C.3   1 <1>   0.2630 
 19 C        2.1100     6.6950     1.0260 C.3   1 <1>  -0.1600 
 20 C        0.4660     5.8290    -0.6730 C.3   1 <1>  -0.1600 
 21 C        1.1600     7.0700    -0.1120 C.3   1 <1>  -0.1600 
 22 H        0.8330    -0.3520     0.7530 H     1 <1>   0.4570 
 23 H        2.2690     1.4650     0.8710 H     1 <1>   0.4000 
 24 H       -0.8640     3.4600     0.7190 H     1 <1>   0.1500 
 25 H       -0.4570    -2.3790     0.5720 H     1 <1>   0.1500 
 26 H        2.5560     3.5040     1.9400 H     1 <1>   0.0800 
 27 H        1.0170     4.0730     1.4770 H     1 <1>   0.0800 
 28 H       -3.0860     2.4650     0.5240 H     1 <1>   0.1500 
 29 H       -4.5000     0.4230     0.3420 H     1 <1>   0.1500 
 30 H       -2.6680    -3.4150     0.3740 H     1 <1>   0.1500 
 31 H       -4.6750    -2.0250     0.2580 H     1 <1>   0.1500 
 32 H        4.1000     4.3970    -1.3270 H     1 <1>   0.4500 
 33 H        3.7510     6.1450    -0.1940 H     1 <1>   0.0800 
 34 H        3.7780     5.4310     1.3890 H     1 <1>   0.0800 
 35 H        0.9310     3.8920    -1.4300 H     1 <1>   0.0800 
 36 H        1.9930     5.1580    -1.9770 H     1 <1>   0.0800 
 37 H        2.7900     1.7690    -1.1940 H     1 <1>   0.0800 
 38 H        4.1700     2.1720    -2.1890 H     1 <1>   0.0800 
 39 H        2.6370     2.9560    -2.4700 H     1 <1>   0.0800 
 40 H        4.4090     2.4270     0.8410 H     1 <1>   0.0800 
 41 H        5.1790     3.9970     0.7390 H     1 <1>   0.0800 
 42 H        5.5800     2.7530    -0.4170 H     1 <1>   0.0800 
 43 H        2.6200     7.5830     1.3620 H     1 <1>   0.0800 
 44 H        1.5460     6.3180     1.8620 H     1 <1>   0.0800 
 45 H       -0.2010     5.4430     0.0740 H     1 <1>   0.0800 
 46 H       -0.1390     6.1180    -1.5170 H     1 <1>   0.0800 
 47 H        1.7100     7.5640    -0.8960 H     1 <1>   0.0800 
 48 H        0.4210     7.7660     0.2490 H     1 <1>   0.0800 
@<TRIPOS>BOND
  1   1   2  ar  
  2   1   3  ar  
  3   1  22  1   
  4   2   4  1   
  5   2   5  ar  
  6   3   6  ar  
  7   3   7  ar  
  8   4   8  1   
  9   4  23  1   
 10   5   9  ar  
 11   5  24  1   
 12   6   9  ar  
 13   6  10  ar  
 14   7  11  ar  
 15   7  25  1   
 16   8  12  1   
 17   8  26  1   
 18   8  27  1   
 19   9  28  1   
 20  10  13  ar  
 21  10  29  1   
 22  11  13  ar  
 23  11  30  1   
 24  12  14  1   
 25  12  15  1   
 26  12  16  1   
 27  13  31  1   
 28  14  17  1   
 29  14  18  1   
 30  14  32  1   
 31  15  19  1   
 32  15  33  1   
 33  15  34  1   
 34  16  20  1   
 35  16  35  1   
 36  16  36  1   
 37  17  37  1   
 38  17  38  1   
 39  17  39  1   
 40  18  40  1   
 41  18  41  1   
 42  18  42  1   
 43  19  21  1   
 44  19  43  1   
 45  19  44  1   
 46  20  21  1   
 47  20  45  1   
 48  20  46  1   
 49  21  47  1   
 50  21  48  1   
@<TRIPOS>SUBSTRUCTURE
  1 ****   2 GROUP 4 **** **** 0

# MOE 2024.06 (io_trps.svl 2023.06)
