@<TRIPOS>MOLECULE
NONAME
46 48 1 0 0 
SMALL
USER_CHARGES


@<TRIPOS>ATOM
  1 O       -0.0270     2.2420    -2.2240 O.2   1 <1>  -0.5700 
  2 C       -0.1080     2.4590    -1.0310 C.2   1 <1>   0.6160 
  3 N        0.9190     2.0510    -0.2120 N.am  1 <1>  -0.6600 
  4 C       -1.2630     3.1480    -0.5010 C.2   1 <1>  -0.1360 
  5 C        2.0690     1.2660    -0.7140 C.3   1 <1>   0.1400 
  6 C        1.2530     2.6670     1.0900 C.3   1 <1>   0.1400 
  7 C       -2.2440     3.7550    -1.1950 C.2   1 <1>  -0.3000 
  8 C        3.2880     1.9030    -0.0390 C.3   1 <1>   0.0000 
  9 C        2.7220     2.3130     1.3340 C.3   1 <1>  -0.1600 
 10 C        3.7450     3.1360    -0.8510 C.3   1 <1>  -0.1600 
 11 C        4.4580     0.9100     0.0780 C.3   1 <1>  -0.1600 
 12 C        5.0290     3.7600    -0.3070 C.3   1 <1>   0.3430 
 13 C        5.7210     1.5720     0.6280 C.3   1 <1>   0.3430 
 14 N        6.0990     2.7270    -0.2390 N.4   1 <1>  -0.9590 
 15 C        7.4040     3.3160     0.1670 C.3   1 <1>   0.4860 
 16 C        8.4850     2.2710    -0.0300 C.ar  1 <1>  -0.1430 
 17 C        8.9190     1.9440    -1.3070 C.ar  1 <1>  -0.1500 
 18 C        9.0430     1.6290     1.0670 C.ar  1 <1>  -0.1500 
 19 C        9.8910     0.9750    -1.4840 C.ar  1 <1>  -0.1500 
 20 C       10.0140     0.6600     0.8870 C.ar  1 <1>  -0.1500 
 21 C       10.4360     0.3320    -0.3880 C.ar  1 <1>  -0.1500 
 22 H       -1.3130     3.1450     0.5690 H     1 <1>   0.1500 
 23 H        2.1410     1.2940    -1.7890 H     1 <1>   0.0800 
 24 H        1.9460     0.2430    -0.4000 H     1 <1>   0.0800 
 25 H        0.6220     2.2700     1.8680 H     1 <1>   0.0800 
 26 H        1.1240     3.7350     1.0260 H     1 <1>   0.0800 
 27 H       -3.0880     4.2510    -0.7480 H     1 <1>   0.1500 
 28 H       -2.2670     3.7930    -2.2710 H     1 <1>   0.1500 
 29 H        2.7440     1.4750     2.0100 H     1 <1>   0.0800 
 30 H        3.2450     3.1290     1.7960 H     1 <1>   0.0800 
 31 H        2.9690     3.8830    -0.8560 H     1 <1>   0.0800 
 32 H        3.9070     2.8550    -1.8770 H     1 <1>   0.0800 
 33 H        4.6790     0.4890    -0.8880 H     1 <1>   0.0800 
 34 H        4.1840     0.0920     0.7220 H     1 <1>   0.0800 
 35 H        4.8470     4.1630     0.6760 H     1 <1>   0.0800 
 36 H        5.3340     4.5680    -0.9540 H     1 <1>   0.0800 
 37 H        6.5200     0.8460     0.6490 H     1 <1>   0.0800 
 38 H        5.5430     1.9110     1.6360 H     1 <1>   0.0800 
 39 H        6.2400     2.3450    -1.1830 H     1 <1>   0.4500 
 40 H        7.3720     3.6250     1.1980 H     1 <1>   0.0800 
 41 H        7.6310     4.1760    -0.4430 H     1 <1>   0.0800 
 42 H        8.5180     2.4360    -2.1760 H     1 <1>   0.1500 
 43 H        8.7360     1.8720     2.0710 H     1 <1>   0.1500 
 44 H       10.2300     0.7200    -2.4750 H     1 <1>   0.1500 
 45 H       10.4480     0.1610     1.7370 H     1 <1>   0.1500 
 46 H       11.1940    -0.4220    -0.5280 H     1 <1>   0.1500 
@<TRIPOS>BOND
  1   1   2  2   
  2   2   3  am  
  3   2   4  1   
  4   3   5  1   
  5   3   6  1   
  6   4   7  2   
  7   4  22  1   
  8   5   8  1   
  9   5  23  1   
 10   5  24  1   
 11   6   9  1   
 12   6  25  1   
 13   6  26  1   
 14   7  27  1   
 15   7  28  1   
 16   8   9  1   
 17   8  10  1   
 18   8  11  1   
 19   9  29  1   
 20   9  30  1   
 21  10  12  1   
 22  10  31  1   
 23  10  32  1   
 24  11  13  1   
 25  11  33  1   
 26  11  34  1   
 27  12  14  1   
 28  12  35  1   
 29  12  36  1   
 30  13  14  1   
 31  13  37  1   
 32  13  38  1   
 33  14  15  1   
 34  14  39  1   
 35  15  16  1   
 36  15  40  1   
 37  15  41  1   
 38  16  17  ar  
 39  16  18  ar  
 40  17  19  ar  
 41  17  42  1   
 42  18  20  ar  
 43  18  43  1   
 44  19  21  ar  
 45  19  44  1   
 46  20  21  ar  
 47  20  45  1   
 48  21  46  1   
@<TRIPOS>SUBSTRUCTURE
  1 ****  11 GROUP 4 **** **** 0

# MOE 2024.06 (io_trps.svl 2023.06)
