@<TRIPOS>MOLECULE
NONAME
52 54 1 0 0 
SMALL
USER_CHARGES


@<TRIPOS>ATOM
  1 O       -0.4400     0.1210    -0.8160 O.2   1 <1>  -0.5700 
  2 C       -1.3750     0.7050    -0.2980 C.2   1 <1>   0.6160 
  3 N       -2.3590    -0.0410     0.3210 N.am  1 <1>  -0.6600 
  4 C       -1.3900     2.1410    -0.3130 C.2   1 <1>   0.0290 
  5 C       -2.4570    -1.5240     0.1400 C.3   1 <1>   0.1400 
  6 C       -3.5890     0.5360     0.9450 C.3   1 <1>   0.1400 
  7 C       -2.3490     2.7640    -1.1720 C.2   1 <1>   0.6160 
  8 C       -0.5430     2.9380     0.4290 C.2   1 <1>  -0.1380 
  9 C       -3.7800    -1.9020    -0.5500 C.3   1 <1>   0.3440 
 10 C       -4.8530     0.0630     0.1920 C.3   1 <1>   0.2000 
 11 O       -3.1800     2.1630    -1.8380 O.2   1 <1>  -0.5700 
 12 N       -2.3830     4.1290    -1.2390 N.am  1 <1>  -0.5390 
 13 C       -0.6340     4.3440     0.3210 C.2   1 <1>  -0.1500 
 14 C        0.5160     2.3860     1.3770 C.3   1 <1>  -0.1020 
 15 O       -4.8620    -1.3390     0.1450 O.3   1 <1>  -0.5600 
 16 C       -3.9420    -3.4190    -0.6070 C.ar  1 <1>  -0.1430 
 17 C       -6.1700     0.5380     0.8480 C.3   1 <1>  -0.0800 
 18 C       -1.5450     4.9230    -0.5080 C.2   1 <1>  -0.0290 
 19 C       -4.5260    -4.1250     0.4350 C.ar  1 <1>  -0.1500 
 20 C       -3.4840    -4.1150    -1.7170 C.ar  1 <1>  -0.1500 
 21 C       -7.3990    -0.0020     0.0970 C.3   1 <1>  -0.2400 
 22 C       -6.2660     2.0730     0.9040 C.3   1 <1>  -0.2400 
 23 C       -1.6890     6.4220    -0.6760 C.3   1 <1>  -0.1020 
 24 C       -4.6490    -5.5020     0.3710 C.ar  1 <1>  -0.1500 
 25 C       -3.6060    -5.4930    -1.7830 C.ar  1 <1>  -0.1500 
 26 C       -4.1880    -6.1870    -0.7380 C.ar  1 <1>  -0.1500 
 27 H       -1.6390    -1.8960    -0.4490 H     1 <1>   0.0800 
 28 H       -2.4120    -2.0030     1.1020 H     1 <1>   0.0800 
 29 H       -3.6490     0.2130     1.9700 H     1 <1>   0.0800 
 30 H       -3.5450     1.6080     0.9450 H     1 <1>   0.0800 
 31 H       -3.7890    -1.5060    -1.5510 H     1 <1>   0.0800 
 32 H       -4.8220     0.4290    -0.8210 H     1 <1>   0.0800 
 33 H       -3.0760     4.5100    -1.8840 H     1 <1>   0.3700 
 34 H        0.0390     4.9480     0.9060 H     1 <1>   0.1500 
 35 H        0.3970     2.8180     2.3540 H     1 <1>   0.0800 
 36 H        1.4960     2.6310     1.0080 H     1 <1>   0.0800 
 37 H        0.4540     1.3170     1.4760 H     1 <1>   0.0800 
 38 H       -6.1980     0.1620     1.8570 H     1 <1>   0.0800 
 39 H       -4.8910    -3.5990     1.3010 H     1 <1>   0.1500 
 40 H       -3.0280    -3.5870    -2.5370 H     1 <1>   0.1500 
 41 H       -7.3930     0.3320    -0.9260 H     1 <1>   0.0800 
 42 H       -8.3070     0.3320     0.5660 H     1 <1>   0.0800 
 43 H       -7.3990    -1.0780     0.1020 H     1 <1>   0.0800 
 44 H       -6.1550     2.4930    -0.0810 H     1 <1>   0.0800 
 45 H       -5.5090     2.4870     1.5450 H     1 <1>   0.0800 
 46 H       -7.2220     2.3720     1.2950 H     1 <1>   0.0800 
 47 H       -2.6810     6.7300    -0.3970 H     1 <1>   0.0800 
 48 H       -1.5120     6.6950    -1.7010 H     1 <1>   0.0800 
 49 H       -0.9820     6.9430    -0.0560 H     1 <1>   0.0800 
 50 H       -5.1060    -6.0380     1.1850 H     1 <1>   0.1500 
 51 H       -3.2480    -6.0230    -2.6480 H     1 <1>   0.1500 
 52 H       -4.2840    -7.2580    -0.7890 H     1 <1>   0.1500 
@<TRIPOS>BOND
  1   1   2  2   
  2   2   3  am  
  3   2   4  1   
  4   3   5  1   
  5   3   6  1   
  6   4   7  1   
  7   4   8  2   
  8   5   9  1   
  9   5  27  1   
 10   5  28  1   
 11   6  10  1   
 12   6  29  1   
 13   6  30  1   
 14   7  11  2   
 15   7  12  am  
 16   8  13  1   
 17   8  14  1   
 18   9  15  1   
 19   9  16  1   
 20   9  31  1   
 21  10  15  1   
 22  10  17  1   
 23  10  32  1   
 24  12  18  1   
 25  12  33  1   
 26  13  18  2   
 27  13  34  1   
 28  14  35  1   
 29  14  36  1   
 30  14  37  1   
 31  16  19  ar  
 32  16  20  ar  
 33  17  21  1   
 34  17  22  1   
 35  17  38  1   
 36  18  23  1   
 37  19  24  ar  
 38  19  39  1   
 39  20  25  ar  
 40  20  40  1   
 41  21  41  1   
 42  21  42  1   
 43  21  43  1   
 44  22  44  1   
 45  22  45  1   
 46  22  46  1   
 47  23  47  1   
 48  23  48  1   
 49  23  49  1   
 50  24  26  ar  
 51  24  50  1   
 52  25  26  ar  
 53  25  51  1   
 54  26  52  1   
@<TRIPOS>SUBSTRUCTURE
  1 ****   3 GROUP 4 **** **** 0

# MOE 2024.06 (io_trps.svl 2023.06)
