@<TRIPOS>MOLECULE
NONAME
40 42 1 0 0 
SMALL
USER_CHARGES


@<TRIPOS>ATOM
  1 F       -1.3860    -0.1220    -1.6530 F     1 <1>  -0.1900 
  2 C       -2.0100    -0.8060    -0.7170 C.ar  1 <1>   0.1900 
  3 C       -2.6460    -0.1170     0.3370 C.ar  1 <1>  -0.1710 
  4 C       -2.0150    -2.1720    -0.8160 C.ar  1 <1>  -0.1500 
  5 O       -2.6810     1.1320     0.4490 O.3   1 <1>  -0.8290 
  6 C       -3.2710    -0.9030     1.3110 C.ar  1 <1>  -0.1500 
  7 C       -2.6750    -2.9550     0.1440 C.ar  1 <1>   0.0860 
  8 C       -3.2780    -2.2750     1.2160 C.ar  1 <1>  -0.1500 
  9 C       -2.7350    -4.3860     0.0190 C.2   1 <1>   0.5440 
 10 O       -1.7670    -5.0180    -0.3820 O.2   1 <1>  -0.5700 
 11 N       -3.8840    -5.0970     0.3170 N.am  1 <1>  -0.6600 
 12 C       -5.2470    -4.5260     0.1490 C.3   1 <1>   0.1400 
 13 C       -3.9320    -6.5780     0.2280 C.3   1 <1>   0.1400 
 14 C       -6.1110    -5.7020    -0.3000 C.3   1 <1>   0.2000 
 15 C       -5.4160    -6.9410     0.2570 C.3   1 <1>  -0.0800 
 16 O       -7.4020    -5.6130     0.1960 O.3   1 <1>  -0.6800 
 17 C       -5.7500    -8.2250    -0.5160 C.3   1 <1>   0.0210 
 18 C       -4.9590    -9.4010     0.0210 C.2   1 <1>   0.1080 
 19 N       -5.1070    -9.8550     1.2270 N.2   1 <1>  -0.7070 
 20 C       -3.9960   -10.1070    -0.6920 C.2   1 <1>  -0.1500 
 21 N       -4.2340   -10.8760     1.3150 N.pl3 1 <1>   0.3000 
 22 C       -3.5480   -11.0470     0.1650 C.2   1 <1>  -0.3320 
 23 C       -2.4890   -12.1130    -0.0460 C.3   1 <1>  -0.0600 
 24 H       -1.5160    -2.6520    -1.6350 H     1 <1>   0.1500 
 25 H       -3.7360    -0.3820     2.1270 H     1 <1>   0.1500 
 26 H       -3.7560    -2.8480     1.9870 H     1 <1>   0.1500 
 27 H       -5.5870    -4.1430     1.0950 H     1 <1>   0.0800 
 28 H       -5.2480    -3.7430    -0.5900 H     1 <1>   0.0800 
 29 H       -3.4770    -6.8920    -0.6960 H     1 <1>   0.0800 
 30 H       -3.4020    -7.0260     1.0520 H     1 <1>   0.0800 
 31 H       -6.1590    -5.7260    -1.3760 H     1 <1>   0.0800 
 32 H       -5.6870    -7.0730     1.2900 H     1 <1>   0.0800 
 33 H       -7.3950    -5.7030     1.1680 H     1 <1>   0.4000 
 34 H       -5.5330    -8.0970    -1.5610 H     1 <1>   0.0800 
 35 H       -6.7990    -8.4410    -0.4170 H     1 <1>   0.0800 
 36 H       -3.6930    -9.9200    -1.7070 H     1 <1>   0.1500 
 37 H       -4.1310   -11.4350     2.1700 H     1 <1>   0.2700 
 38 H       -2.0890   -12.0440    -1.0430 H     1 <1>   0.0800 
 39 H       -2.9150   -13.0920     0.0840 H     1 <1>   0.0800 
 40 H       -1.6840   -11.9830     0.6550 H     1 <1>   0.0800 
@<TRIPOS>BOND
  1   1   2  1   
  2   2   3  ar  
  3   2   4  ar  
  4   3   5  1   
  5   3   6  ar  
  6   4   7  ar  
  7   4  24  1   
  8   6   8  ar  
  9   6  25  1   
 10   7   8  ar  
 11   7   9  1   
 12   8  26  1   
 13   9  10  2   
 14   9  11  am  
 15  11  12  1   
 16  11  13  1   
 17  12  14  1   
 18  12  27  1   
 19  12  28  1   
 20  13  15  1   
 21  13  29  1   
 22  13  30  1   
 23  14  15  1   
 24  14  16  1   
 25  14  31  1   
 26  15  17  1   
 27  15  32  1   
 28  16  33  1   
 29  17  18  1   
 30  17  34  1   
 31  17  35  1   
 32  18  19  2   
 33  18  20  1   
 34  19  21  1   
 35  20  22  2   
 36  20  36  1   
 37  21  22  1   
 38  21  37  1   
 39  22  23  1   
 40  23  38  1   
 41  23  39  1   
 42  23  40  1   
@<TRIPOS>SUBSTRUCTURE
  1 ****  11 GROUP 4 **** **** 0

# MOE 2024.06 (io_trps.svl 2023.06)
