@<TRIPOS>MOLECULE
NONAME
55 57 1 0 0 
SMALL
USER_CHARGES


@<TRIPOS>ATOM
  1 O       -0.1690     0.1560     0.6630 O.2   1 <1>  -0.5700 
  2 C       -1.1740     0.8340     0.7360 C.2   1 <1>   0.5440 
  3 N       -2.3910     0.1840     0.8030 N.am  1 <1>  -0.6600 
  4 C       -1.0680     2.2670     0.7650 C.ar  1 <1>   0.0860 
  5 C       -2.4260    -1.3020     0.6410 C.3   1 <1>   0.1400 
  6 C       -3.6980     0.8850     1.0070 C.3   1 <1>   0.1400 
  7 C       -1.4160     3.0990    -0.2900 C.ar  1 <1>   0.1660 
  8 C       -0.6200     2.9090     1.9030 C.ar  1 <1>   0.1600 
  9 C       -3.8230    -1.8690     0.9550 C.3   1 <1>   0.4230 
 10 C       -4.7260     0.3300     0.0140 C.3   1 <1>  -0.1600 
 11 N       -1.3830     4.4020    -0.1900 N.ar  1 <1>  -0.6200 
 12 C       -1.8680     2.5620    -1.6380 C.3   1 <1>  -0.0960 
 13 N       -0.5710     4.2110     2.0250 N.ar  1 <1>  -0.6200 
 14 N       -3.8990    -3.3860     1.0290 N.4   1 <1>  -0.9590 
 15 C       -4.9360    -1.2180     0.0840 C.3   1 <1>   0.0000 
 16 C       -0.9680     4.9180     0.9680 C.ar  1 <1>   0.7200 
 17 C       -5.3030    -3.9190     0.9910 C.3   1 <1>   0.3430 
 18 C       -3.0320    -4.1160     0.0440 C.3   1 <1>   0.2630 
 19 C       -6.2900    -1.5470     0.7770 C.3   1 <1>  -0.1600 
 20 C       -4.9050    -1.7720    -1.3690 C.3   1 <1>   0.1200 
 21 N       -0.9510     6.2880     1.0800 N.pl3 1 <1>  -0.8380 
 22 C       -6.3020    -2.8930     1.5380 C.3   1 <1>  -0.1600 
 23 O       -5.8170    -1.1180    -2.1820 O.3   1 <1>  -0.6800 
 24 C       -0.2680     6.9860     2.2060 C.3   1 <1>   0.1290 
 25 C       -1.5740     7.1820     0.0640 C.3   1 <1>   0.1290 
 26 H       -2.1390    -1.5360    -0.3680 H     1 <1>   0.0800 
 27 H       -1.7060    -1.7350     1.3150 H     1 <1>   0.0800 
 28 H       -4.0340     0.7320     2.0190 H     1 <1>   0.0800 
 29 H       -3.5980     1.9460     0.8560 H     1 <1>   0.0800 
 30 H       -0.3000     2.3140     2.7410 H     1 <1>   0.1500 
 31 H       -4.0260    -1.5240     1.9550 H     1 <1>   0.0800 
 32 H       -5.6610     0.8470     0.1490 H     1 <1>   0.0800 
 33 H       -4.3770     0.6170    -0.9640 H     1 <1>   0.0800 
 34 H       -1.6410     1.5190    -1.7560 H     1 <1>   0.0800 
 35 H       -1.3680     3.1020    -2.4220 H     1 <1>   0.0800 
 36 H       -2.9270     2.7080    -1.7480 H     1 <1>   0.0800 
 37 H       -3.5350    -3.6200     1.9640 H     1 <1>   0.4500 
 38 H       -5.5780    -4.1560    -0.0230 H     1 <1>   0.0800 
 39 H       -5.3650    -4.8300     1.5660 H     1 <1>   0.0800 
 40 H       -3.3300    -3.8910    -0.9660 H     1 <1>   0.0800 
 41 H       -3.1120    -5.1810     0.1940 H     1 <1>   0.0800 
 42 H       -1.9980    -3.8360     0.1680 H     1 <1>   0.0800 
 43 H       -6.5300    -0.7790     1.4940 H     1 <1>   0.0800 
 44 H       -7.0880    -1.5380     0.0540 H     1 <1>   0.0800 
 45 H       -5.1350    -2.8190    -1.4180 H     1 <1>   0.0800 
 46 H       -3.9350    -1.6150    -1.8090 H     1 <1>   0.0800 
 47 H       -7.2930    -3.3120     1.4970 H     1 <1>   0.0800 
 48 H       -6.0820    -2.7230     2.5780 H     1 <1>   0.0800 
 49 H       -6.7430    -1.2930    -1.9240 H     1 <1>   0.4000 
 50 H        0.1380     7.9240     1.8690 H     1 <1>   0.0800 
 51 H        0.5420     6.3890     2.5890 H     1 <1>   0.0800 
 52 H       -0.9730     7.1670     2.9980 H     1 <1>   0.0800 
 53 H       -1.9530     8.0710     0.5360 H     1 <1>   0.0800 
 54 H       -2.3940     6.6860    -0.4270 H     1 <1>   0.0800 
 55 H       -0.8390     7.4550    -0.6730 H     1 <1>   0.0800 
@<TRIPOS>BOND
  1   1   2  2   
  2   2   3  am  
  3   2   4  1   
  4   3   5  1   
  5   3   6  1   
  6   4   7  ar  
  7   4   8  ar  
  8   5   9  1   
  9   5  26  1   
 10   5  27  1   
 11   6  10  1   
 12   6  28  1   
 13   6  29  1   
 14   7  11  ar  
 15   7  12  1   
 16   8  13  ar  
 17   8  30  1   
 18   9  14  1   
 19   9  15  1   
 20   9  31  1   
 21  10  15  1   
 22  10  32  1   
 23  10  33  1   
 24  11  16  ar  
 25  12  34  1   
 26  12  35  1   
 27  12  36  1   
 28  13  16  ar  
 29  14  17  1   
 30  14  18  1   
 31  14  37  1   
 32  15  19  1   
 33  15  20  1   
 34  16  21  1   
 35  17  22  1   
 36  17  38  1   
 37  17  39  1   
 38  18  40  1   
 39  18  41  1   
 40  18  42  1   
 41  19  22  1   
 42  19  43  1   
 43  19  44  1   
 44  20  23  1   
 45  20  45  1   
 46  20  46  1   
 47  21  24  1   
 48  21  25  1   
 49  22  47  1   
 50  22  48  1   
 51  23  49  1   
 52  24  50  1   
 53  24  51  1   
 54  24  52  1   
 55  25  53  1   
 56  25  54  1   
 57  25  55  1   
@<TRIPOS>SUBSTRUCTURE
  1 ****   3 GROUP 4 **** **** 0

# MOE 2024.06 (io_trps.svl 2023.06)
