@<TRIPOS>MOLECULE
NONAME
33 33 1 0 0 
SMALL
USER_CHARGES


@<TRIPOS>ATOM
  1 F        0.4950     0.3760    -0.3000 F     1 <1>  -0.3400 
  2 C        1.2370     1.1750     0.4560 C.3   1 <1>   0.2600 
  3 C        2.5940     1.3720    -0.2070 C.3   1 <1>   0.1400 
  4 C        0.5910     2.5530     0.4890 C.3   1 <1>  -0.1600 
  5 N        2.9310     2.7950     0.0440 N.am  1 <1>  -0.6600 
  6 C        1.7630     3.5400     0.5790 C.3   1 <1>   0.2200 
  7 C        4.2160     3.2520     0.1340 C.2   1 <1>   0.7800 
  8 C        1.5200     4.8520    -0.1940 C.3   1 <1>   0.1200 
  9 O        4.4760     4.3540     0.5720 O.2   1 <1>  -0.5700 
 10 O        5.1760     2.4230    -0.2810 O.3   1 <1>  -0.4300 
 11 O        0.3020     5.4220     0.1710 O.3   1 <1>  -0.6800 
 12 C        6.5660     2.6640    -0.2950 C.3   1 <1>   0.2800 
 13 C        7.0830     2.8760     1.1330 C.3   1 <1>  -0.2400 
 14 C        7.1850     1.3890    -0.8710 C.3   1 <1>  -0.2400 
 15 C        6.8910     3.8440    -1.2180 C.3   1 <1>  -0.2400 
 16 H        1.3200     0.7230     1.4280 H     1 <1>   0.0800 
 17 H        2.5280     1.2100    -1.2690 H     1 <1>   0.0800 
 18 H        3.3320     0.7210     0.2270 H     1 <1>   0.0800 
 19 H        0.0490     2.7180    -0.4260 H     1 <1>   0.0800 
 20 H       -0.0710     2.6660     1.3280 H     1 <1>   0.0800 
 21 H        1.9630     3.7770     1.6110 H     1 <1>   0.0800 
 22 H        1.5020     4.6730    -1.2550 H     1 <1>   0.0800 
 23 H        2.2930     5.5650     0.0340 H     1 <1>   0.0800 
 24 H       -0.4450     4.8970    -0.1760 H     1 <1>   0.4000 
 25 H        8.1560     2.9200     1.1310 H     1 <1>   0.0800 
 26 H        6.7760     2.0640     1.7670 H     1 <1>   0.0800 
 27 H        6.7220     3.8010     1.5430 H     1 <1>   0.0800 
 28 H        8.2550     1.4820    -0.9200 H     1 <1>   0.0800 
 29 H        6.8140     1.2100    -1.8640 H     1 <1>   0.0800 
 30 H        6.9470     0.5450    -0.2490 H     1 <1>   0.0800 
 31 H        7.9550     3.9350    -1.3360 H     1 <1>   0.0800 
 32 H        6.5310     4.7690    -0.8070 H     1 <1>   0.0800 
 33 H        6.4520     3.6930    -2.1870 H     1 <1>   0.0800 
@<TRIPOS>BOND
  1   1   2  1   
  2   2   3  1   
  3   2   4  1   
  4   2  16  1   
  5   3   5  1   
  6   3  17  1   
  7   3  18  1   
  8   4   6  1   
  9   4  19  1   
 10   4  20  1   
 11   5   6  1   
 12   5   7  am  
 13   6   8  1   
 14   6  21  1   
 15   7   9  2   
 16   7  10  1   
 17   8  11  1   
 18   8  22  1   
 19   8  23  1   
 20  10  12  1   
 21  11  24  1   
 22  12  13  1   
 23  12  14  1   
 24  12  15  1   
 25  13  25  1   
 26  13  26  1   
 27  13  27  1   
 28  14  28  1   
 29  14  29  1   
 30  14  30  1   
 31  15  31  1   
 32  15  32  1   
 33  15  33  1   
@<TRIPOS>SUBSTRUCTURE
  1 ****   5 GROUP 4 **** **** 0

# MOE 2024.06 (io_trps.svl 2023.06)
