@<TRIPOS>MOLECULE
NONAME
42 44 1 0 0 
SMALL
USER_CHARGES


@<TRIPOS>ATOM
  1 O       -0.3720     0.3590    -0.0130 O.2   1 <1>  -0.5700 
  2 C       -1.4280     0.9350     0.1700 C.2   1 <1>   0.5440 
  3 N       -2.5760     0.1820     0.2740 N.am  1 <1>  -0.6600 
  4 C       -1.4590     2.3840     0.2500 C.ar  1 <1>   0.0860 
  5 C       -3.9430     0.6960     0.0080 C.3   1 <1>   0.1400 
  6 C       -2.5520    -1.3000     0.2020 C.3   1 <1>   0.1400 
  7 C       -0.7940     3.1660    -0.6930 C.ar  1 <1>  -0.1500 
  8 C       -2.1460     3.0510     1.2640 C.ar  1 <1>  -0.1500 
  9 C       -4.7190    -0.5160    -0.5060 C.3   1 <1>   0.2000 
 10 C       -4.0170    -1.7280     0.1000 C.3   1 <1>  -0.0800 
 11 C       -0.8310     4.5470    -0.6410 C.ar  1 <1>  -0.1500 
 12 C       -2.1870     4.4320     1.3210 C.ar  1 <1>  -0.1500 
 13 O       -6.0460    -0.4820    -0.1110 O.3   1 <1>  -0.6800 
 14 C       -4.2250    -3.0130    -0.7150 C.3   1 <1>   0.0200 
 15 C       -1.5320     5.1900     0.3650 C.ar  1 <1>  -0.1430 
 16 C       -3.4540    -4.1690    -0.1100 C.2   1 <1>  -0.0400 
 17 C       -1.5720     6.7060     0.4250 C.3   1 <1>  -0.0970 
 18 O       -3.7480    -4.5940     1.0900 O.3   1 <1>  -0.0190 
 19 C       -2.4400    -4.9140    -0.5750 C.2   1 <1>  -0.1500 
 20 N       -2.9820    -5.5810     1.4540 N.2   1 <1>  -0.4100 
 21 C       -2.1840    -5.7970     0.4710 C.2   1 <1>   0.1080 
 22 C       -1.1140    -6.8650     0.4610 C.3   1 <1>  -0.0590 
 23 H       -4.3690     1.0590     0.9260 H     1 <1>   0.0800 
 24 H       -3.9230     1.4790    -0.7310 H     1 <1>   0.0800 
 25 H       -1.9990    -1.5980    -0.6730 H     1 <1>   0.0800 
 26 H       -2.0780    -1.7140     1.0760 H     1 <1>   0.0800 
 27 H       -0.2400     2.6740    -1.4750 H     1 <1>   0.1500 
 28 H       -2.6480     2.4730     2.0200 H     1 <1>   0.1500 
 29 H       -4.6840    -0.5370    -1.5820 H     1 <1>   0.0800 
 30 H       -4.3710    -1.8820     1.1050 H     1 <1>   0.0800 
 31 H       -0.3070     5.1210    -1.3860 H     1 <1>   0.1500 
 32 H       -2.7270     4.9170     2.1160 H     1 <1>   0.1500 
 33 H       -6.1160    -0.5460     0.8610 H     1 <1>   0.4000 
 34 H       -3.8980    -2.8620    -1.7290 H     1 <1>   0.0800 
 35 H       -5.2720    -3.2620    -0.7350 H     1 <1>   0.0800 
 36 H       -1.5200     7.1230    -0.5650 H     1 <1>   0.0800 
 37 H       -0.7390     7.0690     0.9990 H     1 <1>   0.0800 
 38 H       -2.4840     7.0410     0.8850 H     1 <1>   0.0800 
 39 H       -1.9230    -4.8690    -1.5150 H     1 <1>   0.1500 
 40 H       -1.2850    -7.5460    -0.3520 H     1 <1>   0.0800 
 41 H       -1.1360    -7.4140     1.3850 H     1 <1>   0.0800 
 42 H       -0.1470    -6.4110     0.3480 H     1 <1>   0.0800 
@<TRIPOS>BOND
  1   1   2  2   
  2   2   3  am  
  3   2   4  1   
  4   3   5  1   
  5   3   6  1   
  6   4   7  ar  
  7   4   8  ar  
  8   5   9  1   
  9   5  23  1   
 10   5  24  1   
 11   6  10  1   
 12   6  25  1   
 13   6  26  1   
 14   7  11  ar  
 15   7  27  1   
 16   8  12  ar  
 17   8  28  1   
 18   9  10  1   
 19   9  13  1   
 20   9  29  1   
 21  10  14  1   
 22  10  30  1   
 23  11  15  ar  
 24  11  31  1   
 25  12  15  ar  
 26  12  32  1   
 27  13  33  1   
 28  14  16  1   
 29  14  34  1   
 30  14  35  1   
 31  15  17  1   
 32  16  18  1   
 33  16  19  2   
 34  17  36  1   
 35  17  37  1   
 36  17  38  1   
 37  18  20  1   
 38  19  21  1   
 39  19  39  1   
 40  20  21  2   
 41  21  22  1   
 42  22  40  1   
 43  22  41  1   
 44  22  42  1   
@<TRIPOS>SUBSTRUCTURE
  1 ****   3 GROUP 4 **** **** 0

# MOE 2024.06 (io_trps.svl 2023.06)
