@<TRIPOS>MOLECULE
NONAME
55 58 1 0 0 
SMALL
USER_CHARGES


@<TRIPOS>ATOM
  1 O        0.2290    -0.6680    -1.7250 O.2   1 <1>  -0.5700 
  2 C        0.0880    -1.8220    -1.3920 C.2   1 <1>   0.5690 
  3 N        0.7400    -2.3510    -0.3000 N.am  1 <1>  -0.6600 
  4 C       -0.8450    -2.6850    -2.2560 C.3   1 <1>   0.2010 
  5 C        1.6030    -1.4820     0.5620 C.3   1 <1>   0.2200 
  6 C        0.5450    -3.7830     0.1000 C.3   1 <1>   0.1400 
  7 N       -1.0400    -4.1020    -1.7830 N.am  1 <1>  -0.6600 
  8 C        3.0260    -2.0370     0.7040 C.3   1 <1>  -0.1600 
  9 C        1.0430    -1.3530     1.9860 C.3   1 <1>  -0.1600 
 10 C        0.1510    -4.6680    -1.0890 C.3   1 <1>   0.1400 
 11 C       -2.2350    -4.7420    -1.9770 C.2   1 <1>   0.5690 
 12 C        3.1490    -2.5450     2.1410 C.3   1 <1>  -0.1600 
 13 C        2.2020    -1.6550     2.9380 C.3   1 <1>  -0.1600 
 14 O       -3.1390    -4.2130    -2.5800 O.2   1 <1>  -0.5700 
 15 C       -2.4450    -6.1460    -1.4350 C.3   1 <1>  -0.0990 
 16 C       -3.8480    -6.7140    -1.7030 C.3   1 <1>   0.0200 
 17 C       -4.0200    -8.1160    -1.1360 C.2   1 <1>   0.0060 
 18 N       -3.1300    -8.7600    -0.4630 N.2   1 <1>  -0.5650 
 19 N       -5.1730    -8.8080    -1.3090 N.pl3 1 <1>   0.0330 
 20 C       -3.7170    -9.9590    -0.1650 C.ar  1 <1>   0.2270 
 21 C       -4.9940   -10.0000    -0.6900 C.ar  1 <1>  -0.1520 
 22 C       -3.2110   -11.0530     0.5500 C.ar  1 <1>  -0.1440 
 23 C       -5.8090   -11.1190    -0.5290 C.ar  1 <1>  -0.1500 
 24 C       -4.0120   -12.1740     0.7060 C.ar  1 <1>  -0.1440 
 25 C       -1.7980   -10.9560     1.1170 C.3   1 <1>  -0.0970 
 26 C       -5.3080   -12.1930     0.1670 C.ar  1 <1>  -0.1500 
 27 C       -3.5330   -13.4120     1.4510 C.3   1 <1>  -0.0970 
 28 H       -0.4460    -2.7080    -3.2520 H     1 <1>   0.0800 
 29 H       -1.7970    -2.1850    -2.3000 H     1 <1>   0.0800 
 30 H        1.6750    -0.4970     0.1310 H     1 <1>   0.0800 
 31 H       -0.2270    -3.8390     0.8470 H     1 <1>   0.0800 
 32 H        1.4480    -4.1750     0.5250 H     1 <1>   0.0800 
 33 H        3.7150    -1.2210     0.5730 H     1 <1>   0.0800 
 34 H        3.2570    -2.7920    -0.0250 H     1 <1>   0.0800 
 35 H        0.2440    -2.0500     2.1580 H     1 <1>   0.0800 
 36 H        0.6680    -0.3590     2.1520 H     1 <1>   0.0800 
 37 H       -0.0360    -5.6660    -0.7360 H     1 <1>   0.0800 
 38 H        0.9730    -4.7160    -1.7830 H     1 <1>   0.0800 
 39 H        4.1610    -2.4830     2.5050 H     1 <1>   0.0800 
 40 H        2.8180    -3.5670     2.2030 H     1 <1>   0.0800 
 41 H        1.8690    -2.1280     3.8460 H     1 <1>   0.0800 
 42 H        2.7070    -0.7360     3.1860 H     1 <1>   0.0800 
 43 H       -2.2820    -6.1300    -0.3730 H     1 <1>   0.0800 
 44 H       -1.7200    -6.8000    -1.8830 H     1 <1>   0.0800 
 45 H       -4.0210    -6.7420    -2.7640 H     1 <1>   0.0800 
 46 H       -4.5830    -6.0660    -1.2590 H     1 <1>   0.0800 
 47 H       -6.0130    -8.5030    -1.8060 H     1 <1>   0.2700 
 48 H       -6.8020   -11.1350    -0.9420 H     1 <1>   0.1500 
 49 H       -1.5720    -9.9370     1.3750 H     1 <1>   0.0800 
 50 H       -1.0910   -11.2860     0.3780 H     1 <1>   0.0800 
 51 H       -1.6870   -11.5490     2.0040 H     1 <1>   0.0800 
 52 H       -5.9220   -13.0670     0.3000 H     1 <1>   0.1500 
 53 H       -2.5440   -13.6820     1.1260 H     1 <1>   0.0800 
 54 H       -4.1820   -14.2490     1.2680 H     1 <1>   0.0800 
 55 H       -3.5150   -13.2160     2.5080 H     1 <1>   0.0800 
@<TRIPOS>BOND
  1   1   2  2   
  2   2   3  am  
  3   2   4  1   
  4   3   5  1   
  5   3   6  1   
  6   4   7  1   
  7   4  28  1   
  8   4  29  1   
  9   5   8  1   
 10   5   9  1   
 11   5  30  1   
 12   6  10  1   
 13   6  31  1   
 14   6  32  1   
 15   7  10  1   
 16   7  11  am  
 17   8  12  1   
 18   8  33  1   
 19   8  34  1   
 20   9  13  1   
 21   9  35  1   
 22   9  36  1   
 23  10  37  1   
 24  10  38  1   
 25  11  14  2   
 26  11  15  1   
 27  12  13  1   
 28  12  39  1   
 29  12  40  1   
 30  13  41  1   
 31  13  42  1   
 32  15  16  1   
 33  15  43  1   
 34  15  44  1   
 35  16  17  1   
 36  16  45  1   
 37  16  46  1   
 38  17  18  2   
 39  17  19  1   
 40  18  20  1   
 41  19  21  1   
 42  19  47  1   
 43  20  21  ar  
 44  20  22  ar  
 45  21  23  ar  
 46  22  24  ar  
 47  22  25  1   
 48  23  26  ar  
 49  23  48  1   
 50  24  26  ar  
 51  24  27  1   
 52  25  49  1   
 53  25  50  1   
 54  25  51  1   
 55  26  52  1   
 56  27  53  1   
 57  27  54  1   
 58  27  55  1   
@<TRIPOS>SUBSTRUCTURE
  1 ****  15 GROUP 4 **** **** 0

# MOE 2024.06 (io_trps.svl 2023.06)
