@<TRIPOS>MOLECULE
NONAME
49 50 1 0 0 
SMALL
USER_CHARGES


@<TRIPOS>ATOM
  1 O       -3.9270    -0.7940     1.8980 O.2   1 <1>  -0.5700 
  2 C       -3.5780     0.0750     1.1300 C.2   1 <1>   0.5690 
  3 N       -3.2250    -0.2360    -0.1660 N.am  1 <1>  -0.6600 
  4 C       -3.5700     1.4890     1.6980 C.3   1 <1>  -0.0990 
  5 C       -2.9130     0.7080    -1.2810 C.3   1 <1>   0.1400 
  6 C       -3.1030    -1.6690    -0.5560 C.3   1 <1>   0.1400 
  7 C       -2.5410     2.4490     1.0840 C.3   1 <1>  -0.1600 
  8 C       -3.6780     2.0300    -1.1880 C.3   1 <1>  -0.1600 
  9 C       -4.4670    -2.2080    -0.9820 C.3   1 <1>  -0.0990 
 10 C       -3.0190     3.0470    -0.2450 C.3   1 <1>  -0.1600 
 11 C       -4.4400    -3.7200    -1.0380 C.2   1 <1>   0.5690 
 12 O       -4.1390    -4.2030    -2.1030 O.2   1 <1>  -0.5700 
 13 N       -4.7150    -4.5000     0.0620 N.am  1 <1>  -0.6600 
 14 C       -4.5180    -5.9780    -0.0530 C.3   1 <1>   0.3200 
 15 C       -4.8110    -3.9830     1.4780 C.3   1 <1>   0.1400 
 16 C       -5.8160    -6.6950    -0.3660 C.2   1 <1>  -0.3320 
 17 C       -6.1460    -3.3030     1.8350 C.3   1 <1>   0.1200 
 18 N       -6.9390    -6.6170     0.3700 N.pl3 1 <1>   0.0330 
 19 C       -6.0980    -7.5360    -1.3860 C.2   1 <1>   0.0770 
 20 O       -7.2010    -3.9590     1.2240 O.3   1 <1>  -0.6800 
 21 C       -7.8320    -7.4180    -0.2480 C.2   1 <1>   0.0060 
 22 N       -7.3620    -7.9950    -1.3040 N.2   1 <1>  -0.5650 
 23 C       -9.2470    -7.5970     0.2530 C.3   1 <1>  -0.0600 
 24 H       -3.3510     1.4030     2.7470 H     1 <1>   0.0800 
 25 H       -4.5600     1.9010     1.6190 H     1 <1>   0.0800 
 26 H       -3.1890     0.2390    -2.2100 H     1 <1>   0.0800 
 27 H       -1.8520     0.8900    -1.3120 H     1 <1>   0.0800 
 28 H       -2.7270    -2.2310     0.2810 H     1 <1>   0.0800 
 29 H       -2.3940    -1.7830    -1.3590 H     1 <1>   0.0800 
 30 H       -1.6090     1.9280     0.9460 H     1 <1>   0.0800 
 31 H       -2.3570     3.2550     1.7720 H     1 <1>   0.0800 
 32 H       -4.6950     1.8350    -0.8940 H     1 <1>   0.0800 
 33 H       -3.7150     2.4700    -2.1690 H     1 <1>   0.0800 
 34 H       -4.7030    -1.8330    -1.9610 H     1 <1>   0.0800 
 35 H       -5.2340    -1.8740    -0.3180 H     1 <1>   0.0800 
 36 H       -2.1730     3.4960    -0.7380 H     1 <1>   0.0800 
 37 H       -3.7270     3.8340    -0.0460 H     1 <1>   0.0800 
 38 H       -4.1070    -6.3700     0.8600 H     1 <1>   0.0800 
 39 H       -3.8040    -6.1960    -0.8300 H     1 <1>   0.0800 
 40 H       -4.0090    -3.2940     1.6690 H     1 <1>   0.0800 
 41 H       -4.6720    -4.7970     2.1670 H     1 <1>   0.0800 
 42 H       -6.1580    -2.2750     1.5230 H     1 <1>   0.0800 
 43 H       -6.3030    -3.3240     2.8990 H     1 <1>   0.0800 
 44 H       -7.1100    -6.0090     1.1810 H     1 <1>   0.2700 
 45 H       -5.4470    -7.8410    -2.1880 H     1 <1>   0.1500 
 46 H       -6.9830    -4.0690     0.2700 H     1 <1>   0.4000 
 47 H       -9.7460    -6.6460     0.2920 H     1 <1>   0.0800 
 48 H       -9.2380    -8.0370     1.2330 H     1 <1>   0.0800 
 49 H       -9.7890    -8.2450    -0.4120 H     1 <1>   0.0800 
@<TRIPOS>BOND
  1   1   2  2   
  2   2   3  am  
  3   2   4  1   
  4   3   5  1   
  5   3   6  1   
  6   4   7  1   
  7   4  24  1   
  8   4  25  1   
  9   5   8  1   
 10   5  26  1   
 11   5  27  1   
 12   6   9  1   
 13   6  28  1   
 14   6  29  1   
 15   7  10  1   
 16   7  30  1   
 17   7  31  1   
 18   8  10  1   
 19   8  32  1   
 20   8  33  1   
 21   9  11  1   
 22   9  34  1   
 23   9  35  1   
 24  10  36  1   
 25  10  37  1   
 26  11  12  2   
 27  11  13  am  
 28  13  14  1   
 29  13  15  1   
 30  14  16  1   
 31  14  38  1   
 32  14  39  1   
 33  15  17  1   
 34  15  40  1   
 35  15  41  1   
 36  16  18  1   
 37  16  19  2   
 38  17  20  1   
 39  17  42  1   
 40  17  43  1   
 41  18  21  1   
 42  18  44  1   
 43  19  22  1   
 44  19  45  1   
 45  20  46  1   
 46  21  22  2   
 47  21  23  1   
 48  23  47  1   
 49  23  48  1   
 50  23  49  1   
@<TRIPOS>SUBSTRUCTURE
  1 ****   9 GROUP 4 **** **** 0

# MOE 2024.06 (io_trps.svl 2023.06)
