@<TRIPOS>MOLECULE
NONAME
43 45 1 0 0 
SMALL
USER_CHARGES


@<TRIPOS>ATOM
  1 S        0.4810     0.5450     0.8320 S.3   1 <1>  -0.4600 
  2 C        2.1510    -0.1350     0.9570 C.3   1 <1>   0.0700 
  3 C        0.7890     2.3240     0.8950 C.3   1 <1>   0.0700 
  4 C        3.0350     0.5120    -0.1180 C.3   1 <1>   0.3430 
  5 C        1.8310     2.6900    -0.1710 C.3   1 <1>   0.3430 
  6 N        3.1690     2.0120     0.0380 N.4   1 <1>  -0.9590 
  7 C        4.2560     2.5860    -0.8350 C.3   1 <1>   0.4230 
  8 C        5.6000     1.9050    -0.5090 C.3   1 <1>  -0.1600 
  9 C        4.3360     4.1150    -0.6490 C.3   1 <1>  -0.1600 
 10 C        6.7700     2.5730    -1.2240 C.3   1 <1>   0.2090 
 11 C        5.5470     4.7260    -1.3490 C.3   1 <1>   0.2090 
 12 N        6.7450     4.0060    -0.8690 N.pl3 1 <1>  -0.8380 
 13 C        7.7460     4.6180    -0.1350 C.ar  1 <1>   0.7200 
 14 N        7.7880     5.9450    -0.1670 N.ar  1 <1>  -0.6200 
 15 N        8.5640     3.8160     0.5480 N.ar  1 <1>  -0.6200 
 16 C        8.7430     6.5320     0.5210 C.ar  1 <1>   0.3930 
 17 C        9.5190     4.4100     1.2330 C.ar  1 <1>   0.1600 
 18 O        8.7270     7.8820     0.4340 O.3   1 <1>  -0.3620 
 19 C        9.6510     5.7720     1.2490 C.ar  1 <1>   0.1900 
 20 C        9.6930     8.7340     1.0090 C.3   1 <1>   0.0400 
 21 F       10.6290     6.2920     1.9590 F     1 <1>  -0.1900 
 22 H        2.0680    -1.1970     0.8030 H     1 <1>   0.0800 
 23 H        2.5160     0.0570     1.9500 H     1 <1>   0.0800 
 24 H        1.1240     2.5690     1.8880 H     1 <1>   0.0800 
 25 H       -0.1510     2.8110     0.7020 H     1 <1>   0.0800 
 26 H        2.6260     0.2830    -1.0880 H     1 <1>   0.0800 
 27 H        4.0030     0.0470    -0.0520 H     1 <1>   0.0800 
 28 H        1.9500     3.7580    -0.1400 H     1 <1>   0.0800 
 29 H        1.4400     2.4300    -1.1420 H     1 <1>   0.0800 
 30 H        3.4610     2.1990     1.0060 H     1 <1>   0.4500 
 31 H        4.0240     2.3890    -1.8700 H     1 <1>   0.0800 
 32 H        5.6000     0.8780    -0.8210 H     1 <1>   0.0800 
 33 H        5.7960     1.9490     0.5480 H     1 <1>   0.0800 
 34 H        4.4080     4.3600     0.3970 H     1 <1>   0.0800 
 35 H        3.4720     4.5990    -1.0620 H     1 <1>   0.0800 
 36 H        6.6730     2.4710    -2.2920 H     1 <1>   0.0800 
 37 H        7.6980     2.1070    -0.9370 H     1 <1>   0.0800 
 38 H        5.5940     5.7800    -1.1300 H     1 <1>   0.0800 
 39 H        5.4700     4.6170    -2.4180 H     1 <1>   0.0800 
 40 H       10.2070     3.8000     1.7920 H     1 <1>   0.1500 
 41 H        9.4490     9.7450     0.7370 H     1 <1>   0.0800 
 42 H       10.6630     8.4780     0.6200 H     1 <1>   0.0800 
 43 H        9.6650     8.6290     2.0790 H     1 <1>   0.0800 
@<TRIPOS>BOND
  1   1   2  1   
  2   1   3  1   
  3   2   4  1   
  4   2  22  1   
  5   2  23  1   
  6   3   5  1   
  7   3  24  1   
  8   3  25  1   
  9   4   6  1   
 10   4  26  1   
 11   4  27  1   
 12   5   6  1   
 13   5  28  1   
 14   5  29  1   
 15   6   7  1   
 16   6  30  1   
 17   7   8  1   
 18   7   9  1   
 19   7  31  1   
 20   8  10  1   
 21   8  32  1   
 22   8  33  1   
 23   9  11  1   
 24   9  34  1   
 25   9  35  1   
 26  10  12  1   
 27  10  36  1   
 28  10  37  1   
 29  11  12  1   
 30  11  38  1   
 31  11  39  1   
 32  12  13  1   
 33  13  14  ar  
 34  13  15  ar  
 35  14  16  ar  
 36  15  17  ar  
 37  16  18  1   
 38  16  19  ar  
 39  17  19  ar  
 40  17  40  1   
 41  18  20  1   
 42  19  21  1   
 43  20  41  1   
 44  20  42  1   
 45  20  43  1   
@<TRIPOS>SUBSTRUCTURE
  1 ****  12 GROUP 4 **** **** 0

# MOE 2024.06 (io_trps.svl 2023.06)
