@<TRIPOS>MOLECULE
NONAME
49 51 1 0 0 
SMALL
USER_CHARGES


@<TRIPOS>ATOM
  1 S        0.6000     0.1070     0.5500 S.o2  1 <1>   1.3330 
  2 O        2.0380     0.1660     0.6940 O.2   1 <1>  -0.6500 
  3 O       -0.2420     0.2080     1.7200 O.2   1 <1>  -0.6500 
  4 N        0.2080    -1.3190    -0.2810 N.am  1 <1>  -0.8490 
  5 C        0.0950     1.3940    -0.5880 C.3   1 <1>  -0.0550 
  6 C        1.2400    -1.7440    -1.2340 C.3   1 <1>   0.1160 
  7 C       -0.1140    -2.4220     0.6290 C.3   1 <1>   0.1160 
  8 C        0.1140     2.8000     0.0380 C.3   1 <1>  -0.0800 
  9 C       -0.1700     3.8950    -0.9860 C.3   1 <1>   0.2000 
 10 C        1.4570     3.2020     0.6530 C.3   1 <1>   0.1400 
 11 O       -1.5340     4.0430    -1.1620 O.3   1 <1>  -0.6800 
 12 C        0.4710     5.1630    -0.4230 C.3   1 <1>   0.1400 
 13 N        1.5330     4.6750     0.4960 N.am  1 <1>  -0.6600 
 14 C        2.4190     5.4530     1.1940 C.2   1 <1>   0.5440 
 15 O        3.1640     4.9240     1.9970 O.2   1 <1>  -0.5700 
 16 C        2.5500     6.8710     0.9440 C.ar  1 <1>   0.0860 
 17 C        3.6910     7.4070     0.3130 C.ar  1 <1>   0.0170 
 18 C        1.5250     7.7280     1.3390 C.ar  1 <1>  -0.1500 
 19 C        4.8020     6.5850    -0.1250 C.cat 1 <1>   0.7830 
 20 C        3.7390     8.7900     0.1060 C.ar  1 <1>  -0.1500 
 21 C        1.5940     9.0870     1.1150 C.ar  1 <1>  -0.1500 
 22 N        5.3050     5.5090     0.4740 N.pl3 1 <1>  -0.7000 
 23 N        5.5260     6.7910    -1.2290 N.pl3 1 <1>  -0.7000 
 24 C        2.7070     9.6200     0.4950 C.ar  1 <1>  -0.1500 
 25 C        6.3580     5.0210    -0.2480 C.2   1 <1>   0.2000 
 26 C        6.5000     5.8290    -1.3180 C.2   1 <1>   0.2000 
 27 H        0.7370     1.3730    -1.4470 H     1 <1>   0.0800 
 28 H       -0.9040     1.1880    -0.9230 H     1 <1>   0.0800 
 29 H        0.8980    -2.6000    -1.7910 H     1 <1>   0.0800 
 30 H        2.1480    -2.0030    -0.7150 H     1 <1>   0.0800 
 31 H        1.4520    -0.9500    -1.9300 H     1 <1>   0.0800 
 32 H       -0.3770    -3.3040     0.0700 H     1 <1>   0.0800 
 33 H       -0.9540    -2.1550     1.2490 H     1 <1>   0.0800 
 34 H        0.7280    -2.6420     1.2650 H     1 <1>   0.0800 
 35 H       -0.6170     2.8440     0.8280 H     1 <1>   0.0800 
 36 H        0.2690     3.6630    -1.9420 H     1 <1>   0.0800 
 37 H        2.2780     2.7530     0.1200 H     1 <1>   0.0800 
 38 H        1.5140     2.9200     1.6920 H     1 <1>   0.0800 
 39 H       -1.9900     4.1420    -0.3020 H     1 <1>   0.4000 
 40 H       -0.2500     5.7340     0.1350 H     1 <1>   0.0800 
 41 H        0.8920     5.7610    -1.2130 H     1 <1>   0.0800 
 42 H        0.6600     7.3200     1.8360 H     1 <1>   0.1500 
 43 H        4.5990     9.2420    -0.3590 H     1 <1>   0.1500 
 44 H        0.7880     9.7330     1.4270 H     1 <1>   0.1500 
 45 H        4.8730     5.0950     1.3240 H     1 <1>   0.4500 
 46 H        5.3630     7.5440    -1.9030 H     1 <1>   0.4500 
 47 H        2.7650    10.6830     0.3240 H     1 <1>   0.1500 
 48 H        6.9230     4.1470     0.0390 H     1 <1>   0.1500 
 49 H        7.2190     5.7730    -2.1210 H     1 <1>   0.1500 
@<TRIPOS>BOND
  1   1   2  2   
  2   1   3  2   
  3   1   4  am  
  4   1   5  1   
  5   4   6  1   
  6   4   7  1   
  7   5   8  1   
  8   5  27  1   
  9   5  28  1   
 10   6  29  1   
 11   6  30  1   
 12   6  31  1   
 13   7  32  1   
 14   7  33  1   
 15   7  34  1   
 16   8   9  1   
 17   8  10  1   
 18   8  35  1   
 19   9  11  1   
 20   9  12  1   
 21   9  36  1   
 22  10  13  1   
 23  10  37  1   
 24  10  38  1   
 25  11  39  1   
 26  12  13  1   
 27  12  40  1   
 28  12  41  1   
 29  13  14  am  
 30  14  15  2   
 31  14  16  1   
 32  16  17  ar  
 33  16  18  ar  
 34  17  19  1   
 35  17  20  ar  
 36  18  21  ar  
 37  18  42  1   
 38  19  22  ar  
 39  19  23  ar  
 40  20  24  ar  
 41  20  43  1   
 42  21  24  ar  
 43  21  44  1   
 44  22  25  1   
 45  22  45  1   
 46  23  26  1   
 47  23  46  1   
 48  24  47  1   
 49  25  26  2   
 50  25  48  1   
 51  26  49  1   
@<TRIPOS>SUBSTRUCTURE
  1 ****  13 GROUP 4 **** **** 0

# MOE 2024.06 (io_trps.svl 2023.06)
