@<TRIPOS>MOLECULE
NONAME
58 61 1 0 0 
SMALL
USER_CHARGES


@<TRIPOS>ATOM
  1 O       -2.1990     0.5890    -1.9010 O.2   1 <1>  -0.5700 
  2 C       -2.1320     0.6940    -0.7010 C.2   1 <1>   0.5690 
  3 N       -2.0700    -0.3900     0.1080 N.am  1 <1>  -0.7300 
  4 C       -2.1220     2.0920    -0.0880 C.3   1 <1>  -0.0190 
  5 C       -1.9890    -1.7940    -0.3630 C.3   1 <1>   0.2200 
  6 C       -3.3950     2.8690    -0.4740 C.3   1 <1>  -0.1600 
  7 C       -0.8680     2.8670    -0.5360 C.3   1 <1>  -0.1600 
  8 C       -3.2980    -2.5380    -0.1210 C.3   1 <1>  -0.0800 
  9 C       -1.0630    -2.5610     0.5690 C.3   1 <1>   0.1200 
 10 C       -3.3540     4.3200    -0.0020 C.3   1 <1>   0.3430 
 11 C       -0.8820     4.3190    -0.0660 C.3   1 <1>   0.3430 
 12 C       -3.1680    -3.0100     1.3330 C.3   1 <1>   0.1200 
 13 C       -4.5860    -1.7510    -0.4220 C.3   1 <1>  -0.0170 
 14 O       -1.8350    -2.8030     1.7040 O.3   1 <1>  -0.5600 
 15 N       -2.1340     4.9880    -0.5380 N.4   1 <1>  -0.9590 
 16 C       -5.8120    -2.6350    -0.2570 C.ar  1 <1>  -0.1440 
 17 C       -2.1830     6.4630    -0.2980 C.3   1 <1>   0.4230 
 18 C       -6.2270    -3.4900    -1.2580 C.ar  1 <1>  -0.1500 
 19 C       -6.5710    -2.6340     0.8960 C.ar  1 <1>  -0.1500 
 20 C       -1.0400     7.1780    -1.0210 C.3   1 <1>  -0.1600 
 21 C       -2.0380     6.8310     1.1890 C.3   1 <1>  -0.1600 
 22 C       -7.3450    -4.2830    -1.0620 C.ar  1 <1>   0.1600 
 23 C       -7.6730    -3.4680     0.9910 C.ar  1 <1>   0.1600 
 24 C        0.0100     7.5090     0.0400 C.3   1 <1>  -0.1600 
 25 C       -0.7930     7.7170     1.3190 C.3   1 <1>  -0.1600 
 26 N       -8.0770    -4.2950     0.0410 N.ar  1 <1>  -0.6200 
 27 H       -2.0330    -0.3130     1.1270 H     1 <1>   0.3700 
 28 H       -2.0950     1.9930     0.9830 H     1 <1>   0.0800 
 29 H       -1.6680    -1.8390    -1.3910 H     1 <1>   0.0800 
 30 H       -4.2530     2.3820    -0.0430 H     1 <1>   0.0800 
 31 H       -3.5270     2.8530    -1.5430 H     1 <1>   0.0800 
 32 H       -0.7900     2.8490    -1.6110 H     1 <1>   0.0800 
 33 H        0.0090     2.3800    -0.1470 H     1 <1>   0.0800 
 34 H       -3.2930    -3.4160    -0.7430 H     1 <1>   0.0800 
 35 H       -0.1810    -2.0060     0.8370 H     1 <1>   0.0800 
 36 H       -0.7870    -3.5110     0.1450 H     1 <1>   0.0800 
 37 H       -3.3440     4.3510     1.0760 H     1 <1>   0.0800 
 38 H       -4.2380     4.8330    -0.3470 H     1 <1>   0.0800 
 39 H       -0.0190     4.8250    -0.4650 H     1 <1>   0.0800 
 40 H       -0.8270     4.3540     1.0100 H     1 <1>   0.0800 
 41 H       -3.3990    -4.0570     1.4320 H     1 <1>   0.0800 
 42 H       -3.7860    -2.4360     2.0020 H     1 <1>   0.0800 
 43 H       -4.5490    -1.3800    -1.4330 H     1 <1>   0.0800 
 44 H       -4.6700    -0.9010     0.2310 H     1 <1>   0.0800 
 45 H       -2.1570     4.8610    -1.5580 H     1 <1>   0.4500 
 46 H       -3.1190     6.8480    -0.6710 H     1 <1>   0.0800 
 47 H       -5.6930    -3.5470    -2.1880 H     1 <1>   0.1500 
 48 H       -6.3200    -1.9950     1.7220 H     1 <1>   0.1500 
 49 H       -0.6320     6.6190    -1.8450 H     1 <1>   0.0800 
 50 H       -1.4240     8.1080    -1.4060 H     1 <1>   0.0800 
 51 H       -2.9020     7.3850     1.5120 H     1 <1>   0.0800 
 52 H       -1.9390     5.9670     1.8200 H     1 <1>   0.0800 
 53 H       -7.6540    -4.9430    -1.8540 H     1 <1>   0.1500 
 54 H       -8.2530    -3.4550     1.8980 H     1 <1>   0.1500 
 55 H        0.6930     6.6880     0.1680 H     1 <1>   0.0800 
 56 H        0.5790     8.3870    -0.2190 H     1 <1>   0.0800 
 57 H       -1.0950     8.7500     1.3800 H     1 <1>   0.0800 
 58 H       -0.2150     7.4800     2.1970 H     1 <1>   0.0800 
@<TRIPOS>BOND
  1   1   2  2   
  2   2   3  am  
  3   2   4  1   
  4   3   5  1   
  5   3  27  1   
  6   4   6  1   
  7   4   7  1   
  8   4  28  1   
  9   5   8  1   
 10   5   9  1   
 11   5  29  1   
 12   6  10  1   
 13   6  30  1   
 14   6  31  1   
 15   7  11  1   
 16   7  32  1   
 17   7  33  1   
 18   8  12  1   
 19   8  13  1   
 20   8  34  1   
 21   9  14  1   
 22   9  35  1   
 23   9  36  1   
 24  10  15  1   
 25  10  37  1   
 26  10  38  1   
 27  11  15  1   
 28  11  39  1   
 29  11  40  1   
 30  12  14  1   
 31  12  41  1   
 32  12  42  1   
 33  13  16  1   
 34  13  43  1   
 35  13  44  1   
 36  15  17  1   
 37  15  45  1   
 38  16  18  ar  
 39  16  19  ar  
 40  17  20  1   
 41  17  21  1   
 42  17  46  1   
 43  18  22  ar  
 44  18  47  1   
 45  19  23  ar  
 46  19  48  1   
 47  20  24  1   
 48  20  49  1   
 49  20  50  1   
 50  21  25  1   
 51  21  51  1   
 52  21  52  1   
 53  22  26  ar  
 54  22  53  1   
 55  23  26  ar  
 56  23  54  1   
 57  24  25  1   
 58  24  55  1   
 59  24  56  1   
 60  25  57  1   
 61  25  58  1   
@<TRIPOS>SUBSTRUCTURE
  1 ****   2 GROUP 4 **** **** 0

# MOE 2024.06 (io_trps.svl 2023.06)
