@<TRIPOS>MOLECULE
NONAME
44 46 1 0 0 
SMALL
USER_CHARGES


@<TRIPOS>ATOM
  1 O        0.0860     0.0970     1.2080 O.3   1 <1>  -0.6800 
  2 C        0.8270    -0.2660     0.0910 C.3   1 <1>   0.2000 
  3 C        1.3810    -1.6670     0.3230 C.3   1 <1>  -0.0800 
  4 C        2.0890     0.6080     0.0450 C.3   1 <1>   0.3430 
  5 C        2.5320    -1.3920     1.2980 C.3   1 <1>   0.3430 
  6 C        1.8470    -2.3140    -1.0030 C.3   1 <1>  -0.0170 
  7 N        3.1070    -0.0650     0.9210 N.4   1 <1>  -0.9590 
  8 C        2.7990    -3.4750    -0.7750 C.ar  1 <1>   0.1670 
  9 C        4.4430    -0.2310     0.2830 C.3   1 <1>   0.3430 
 10 N        4.0660    -3.1920    -0.6980 N.ar  1 <1>  -0.6200 
 11 C        2.2770    -4.7710    -0.6490 C.ar  1 <1>  -0.1500 
 12 C        5.1280     1.1230     0.1220 C.3   1 <1>  -0.1600 
 13 C        4.9290    -4.2270    -0.5020 C.ar  1 <1>   0.3100 
 14 C        3.1180    -5.8200    -0.4340 C.ar  1 <1>  -0.1500 
 15 C        6.5440     0.9330    -0.4170 C.3   1 <1>   0.1200 
 16 C        4.4960    -5.5630    -0.3520 C.ar  1 <1>   0.0000 
 17 C        6.3070    -3.9620    -0.4410 C.ar  1 <1>  -0.1500 
 18 O        7.1640     2.1640    -0.4220 O.3   1 <1>  -0.6800 
 19 C        5.4520    -6.5730    -0.1310 C.ar  1 <1>  -0.1500 
 20 C        7.2210    -4.9590    -0.2270 C.ar  1 <1>  -0.1500 
 21 C        6.7870    -6.2790    -0.0680 C.ar  1 <1>  -0.1500 
 22 H       -0.8090    -0.3040     1.1930 H     1 <1>   0.4000 
 23 H        0.2110    -0.1620    -0.7870 H     1 <1>   0.0800 
 24 H        0.6550    -2.3140     0.7830 H     1 <1>   0.0800 
 25 H        1.8710     1.6090     0.3810 H     1 <1>   0.0800 
 26 H        2.4540     0.6460    -0.9670 H     1 <1>   0.0800 
 27 H        3.2740    -2.1740     1.2890 H     1 <1>   0.0800 
 28 H        2.1220    -1.3240     2.2930 H     1 <1>   0.0800 
 29 H        2.3510    -1.5960    -1.6250 H     1 <1>   0.0800 
 30 H        0.9900    -2.6570    -1.5560 H     1 <1>   0.0800 
 31 H        3.2050     0.4850     1.7860 H     1 <1>   0.4500 
 32 H        5.0580    -0.8650     0.9030 H     1 <1>   0.0800 
 33 H        4.3390    -0.7110    -0.6770 H     1 <1>   0.0800 
 34 H        1.2160    -4.9300    -0.7250 H     1 <1>   0.1500 
 35 H        5.1910     1.6050     1.0820 H     1 <1>   0.0800 
 36 H        4.5750     1.7420    -0.5600 H     1 <1>   0.0800 
 37 H        2.7580    -6.8290    -0.3310 H     1 <1>   0.1500 
 38 H        6.5510     0.5400    -1.4200 H     1 <1>   0.0800 
 39 H        7.1190     0.2860     0.2260 H     1 <1>   0.0800 
 40 H        6.6310    -2.9470    -0.5710 H     1 <1>   0.1500 
 41 H        6.8440     2.7320    -1.1500 H     1 <1>   0.4000 
 42 H        5.1140    -7.5880    -0.0130 H     1 <1>   0.1500 
 43 H        8.2760    -4.7460    -0.1810 H     1 <1>   0.1500 
 44 H        7.5160    -7.0530     0.1000 H     1 <1>   0.1500 
@<TRIPOS>BOND
  1   1   2  1   
  2   1  22  1   
  3   2   3  1   
  4   2   4  1   
  5   2  23  1   
  6   3   5  1   
  7   3   6  1   
  8   3  24  1   
  9   4   7  1   
 10   4  25  1   
 11   4  26  1   
 12   5   7  1   
 13   5  27  1   
 14   5  28  1   
 15   6   8  1   
 16   6  29  1   
 17   6  30  1   
 18   7   9  1   
 19   7  31  1   
 20   8  10  ar  
 21   8  11  ar  
 22   9  12  1   
 23   9  32  1   
 24   9  33  1   
 25  10  13  ar  
 26  11  14  ar  
 27  11  34  1   
 28  12  15  1   
 29  12  35  1   
 30  12  36  1   
 31  13  16  ar  
 32  13  17  ar  
 33  14  16  ar  
 34  14  37  1   
 35  15  18  1   
 36  15  38  1   
 37  15  39  1   
 38  16  19  ar  
 39  17  20  ar  
 40  17  40  1   
 41  18  41  1   
 42  19  21  ar  
 43  19  42  1   
 44  20  21  ar  
 45  20  43  1   
 46  21  44  1   
@<TRIPOS>SUBSTRUCTURE
  1 ****  10 GROUP 4 **** **** 0

# MOE 2024.06 (io_trps.svl 2023.06)
