@<TRIPOS>MOLECULE
NONAME
57 59 1 0 0 
SMALL
USER_CHARGES


@<TRIPOS>ATOM
  1 O        1.6490    -1.1780     0.9030 O.co2 1 <1>  -0.9000 
  2 C        1.7120     0.0560     1.0230 C.2   1 <1>   0.9060 
  3 O        1.5480     0.5900     2.1260 O.co2 1 <1>  -0.9000 
  4 C        2.0140     0.9050    -0.2290 C.3   1 <1>  -0.1060 
  5 C        3.2210     0.2890    -0.9830 C.3   1 <1>   0.2000 
  6 C        2.4100     2.3630     0.1470 C.3   1 <1>  -0.1600 
  7 C        0.7760     0.8990    -1.1670 C.3   1 <1>  -0.0160 
  8 O        2.9570    -1.0310    -1.3120 O.3   1 <1>  -0.6800 
  9 C        4.5160     0.3590    -0.1600 C.3   1 <1>   0.1400 
 10 C        3.7140     2.4300     0.9550 C.3   1 <1>   0.1400 
 11 C       -0.3490     1.8540    -0.7720 C.ar  1 <1>  -0.1440 
 12 N        4.8190     1.7860     0.1850 N.am  1 <1>  -0.6600 
 13 C       -0.6320     2.9650    -1.5540 C.ar  1 <1>  -0.1500 
 14 C       -1.1020     1.6240     0.3690 C.ar  1 <1>  -0.1500 
 15 C        5.9760     2.3950    -0.2390 C.2   1 <1>   0.5690 
 16 C       -1.6530     3.8320    -1.2010 C.ar  1 <1>  -0.1500 
 17 C       -2.1200     2.4900     0.7260 C.ar  1 <1>  -0.1500 
 18 O        6.7590     1.8200    -0.9620 O.2   1 <1>  -0.5700 
 19 C        6.3130     3.8360     0.1790 C.3   1 <1>  -0.0190 
 20 C       -2.3980     3.5950    -0.0600 C.ar  1 <1>  -0.1500 
 21 C        5.6190     4.8540    -0.7470 C.3   1 <1>  -0.1600 
 22 C        7.8300     4.1160     0.2080 C.3   1 <1>  -0.1600 
 23 C        5.9140     6.2980    -0.3190 C.3   1 <1>  -0.1600 
 24 C        8.1350     5.5590     0.6370 C.3   1 <1>  -0.1600 
 25 C        7.4260     6.5830    -0.2710 C.3   1 <1>  -0.0800 
 26 C        7.6650     8.0330     0.1890 C.3   1 <1>  -0.1600 
 27 C        9.1340     8.4680     0.1020 C.3   1 <1>  -0.2400 
 28 H        3.3900     0.8110    -1.9080 H     1 <1>   0.0800 
 29 H        1.6290     2.8050     0.7420 H     1 <1>   0.0800 
 30 H        2.5180     2.9570    -0.7420 H     1 <1>   0.0800 
 31 H        1.0940     1.1460    -2.1640 H     1 <1>   0.0800 
 32 H        0.3750    -0.0990    -1.2160 H     1 <1>   0.0800 
 33 H        2.4630    -1.4100    -0.5210 H     1 <1>   0.4000 
 34 H        5.3180    -0.0720    -0.7320 H     1 <1>   0.0800 
 35 H        4.4030    -0.2060     0.7490 H     1 <1>   0.0800 
 36 H        3.5950     1.9150     1.8940 H     1 <1>   0.0800 
 37 H        3.9250     3.4580     1.1770 H     1 <1>   0.0800 
 38 H       -0.0580     3.1580    -2.4420 H     1 <1>   0.1500 
 39 H       -0.8900     0.7700     0.9930 H     1 <1>   0.1500 
 40 H       -1.8650     4.6900    -1.8140 H     1 <1>   0.1500 
 41 H       -2.6890     2.2990     1.6180 H     1 <1>   0.1500 
 42 H        5.9630     3.9800     1.1830 H     1 <1>   0.0800 
 43 H       -3.1890     4.2670     0.2190 H     1 <1>   0.1500 
 44 H        5.9630     4.7010    -1.7560 H     1 <1>   0.0800 
 45 H        4.5560     4.6900    -0.7390 H     1 <1>   0.0800 
 46 H        8.3060     3.4300     0.8870 H     1 <1>   0.0800 
 47 H        8.2450     3.9460    -0.7710 H     1 <1>   0.0800 
 48 H        5.4850     6.4720     0.6530 H     1 <1>   0.0800 
 49 H        5.4420     6.9720    -1.0130 H     1 <1>   0.0800 
 50 H        9.1990     5.7060     0.5970 H     1 <1>   0.0800 
 51 H        7.8200     5.7020     1.6560 H     1 <1>   0.0800 
 52 H        7.8160     6.4760    -1.2700 H     1 <1>   0.0800 
 53 H        7.0850     8.6940    -0.4330 H     1 <1>   0.0800 
 54 H        7.3180     8.1560     1.2010 H     1 <1>   0.0800 
 55 H        9.5160     8.3040    -0.8900 H     1 <1>   0.0800 
 56 H        9.7390     7.9240     0.8040 H     1 <1>   0.0800 
 57 H        9.2170     9.5150     0.3300 H     1 <1>   0.0800 
@<TRIPOS>BOND
  1   1   2  ar  
  2   2   3  ar  
  3   2   4  1   
  4   4   5  1   
  5   4   6  1   
  6   4   7  1   
  7   5   8  1   
  8   5   9  1   
  9   5  28  1   
 10   6  10  1   
 11   6  29  1   
 12   6  30  1   
 13   7  11  1   
 14   7  31  1   
 15   7  32  1   
 16   8  33  1   
 17   9  12  1   
 18   9  34  1   
 19   9  35  1   
 20  10  12  1   
 21  10  36  1   
 22  10  37  1   
 23  11  13  ar  
 24  11  14  ar  
 25  12  15  am  
 26  13  16  ar  
 27  13  38  1   
 28  14  17  ar  
 29  14  39  1   
 30  15  18  2   
 31  15  19  1   
 32  16  20  ar  
 33  16  40  1   
 34  17  20  ar  
 35  17  41  1   
 36  19  21  1   
 37  19  22  1   
 38  19  42  1   
 39  20  43  1   
 40  21  23  1   
 41  21  44  1   
 42  21  45  1   
 43  22  24  1   
 44  22  46  1   
 45  22  47  1   
 46  23  25  1   
 47  23  48  1   
 48  23  49  1   
 49  24  25  1   
 50  24  50  1   
 51  24  51  1   
 52  25  26  1   
 53  25  52  1   
 54  26  27  1   
 55  26  53  1   
 56  26  54  1   
 57  27  55  1   
 58  27  56  1   
 59  27  57  1   
@<TRIPOS>SUBSTRUCTURE
  1 ****   6 GROUP 4 **** **** 0

# MOE 2024.06 (io_trps.svl 2023.06)
