@<TRIPOS>MOLECULE
NONAME
56 58 1 0 0 
SMALL
USER_CHARGES


@<TRIPOS>ATOM
  1 O        1.8070    -3.2920     1.1980 O.2   1 <1>  -0.5700 
  2 C        1.6720    -2.6920     0.1500 C.2   1 <1>   0.7800 
  3 O        2.7160    -2.4490    -0.6370 O.3   1 <1>  -0.4300 
  4 N        0.4830    -2.2410    -0.2860 N.am  1 <1>  -0.7300 
  5 C        4.0130    -2.8750    -0.2740 C.3   1 <1>   0.0400 
  6 C       -0.8310    -2.5870     0.3050 C.3   1 <1>   0.2810 
  7 C       -1.8470    -3.0410    -0.7700 C.2   1 <1>   0.5690 
  8 C       -1.3270    -1.3550     1.0670 C.3   1 <1>  -0.2400 
  9 O       -1.6970    -2.6120    -1.8950 O.2   1 <1>  -0.5700 
 10 N       -2.8860    -3.8960    -0.4680 N.am  1 <1>  -0.6600 
 11 C       -3.2120    -4.4300     0.8850 C.3   1 <1>   0.1400 
 12 C       -3.8130    -4.3900    -1.5250 C.3   1 <1>   0.1400 
 13 C       -3.1230    -5.9580     0.8550 C.3   1 <1>  -0.1600 
 14 C       -3.7390    -5.9180    -1.5840 C.3   1 <1>  -0.1600 
 15 C       -4.0420    -6.5600    -0.2190 C.3   1 <1>   0.4240 
 16 O       -5.3450    -6.1860     0.1630 O.3   1 <1>  -0.5600 
 17 C       -3.8800    -8.0940    -0.2700 C.ar  1 <1>  -0.1430 
 18 C       -6.4050    -6.9370    -0.3450 C.3   1 <1>   0.1200 
 19 C       -4.9590    -8.9420    -0.0570 C.ar  1 <1>  -0.1430 
 20 C       -2.6420    -8.6640    -0.5390 C.ar  1 <1>  -0.1500 
 21 C       -6.3260    -8.3490     0.2270 C.3   1 <1>  -0.0170 
 22 C       -4.7980   -10.3170    -0.1050 C.ar  1 <1>  -0.1500 
 23 C       -2.4600   -10.0350    -0.5850 C.ar  1 <1>   0.0820 
 24 C       -3.5560   -10.8860    -0.3750 C.ar  1 <1>   0.0820 
 25 O       -1.1810   -10.4310    -0.8440 O.3   1 <1>  -0.3620 
 26 O       -3.3980   -12.2400    -0.4570 O.3   1 <1>  -0.3620 
 27 C       -0.6630   -11.6300    -0.3130 C.3   1 <1>   0.0400 
 28 C       -4.4920   -13.1300    -0.4160 C.3   1 <1>   0.0400 
 29 H        0.4240    -1.9030    -1.2490 H     1 <1>   0.3700 
 30 H        4.6990    -2.5750    -1.0460 H     1 <1>   0.0800 
 31 H        4.0130    -3.9470    -0.1740 H     1 <1>   0.0800 
 32 H        4.2810    -2.4150     0.6610 H     1 <1>   0.0800 
 33 H       -0.6800    -3.3950     0.9980 H     1 <1>   0.0800 
 34 H       -1.4610    -0.5310     0.3890 H     1 <1>   0.0800 
 35 H       -0.6170    -1.0820     1.8270 H     1 <1>   0.0800 
 36 H       -2.2690    -1.5650     1.5370 H     1 <1>   0.0800 
 37 H       -4.2140    -4.1300     1.1460 H     1 <1>   0.0800 
 38 H       -2.5520    -4.0450     1.6390 H     1 <1>   0.0800 
 39 H       -3.5550    -3.9800    -2.4870 H     1 <1>   0.0800 
 40 H       -4.8160    -4.0770    -1.2890 H     1 <1>   0.0800 
 41 H       -3.3970    -6.3590     1.8140 H     1 <1>   0.0800 
 42 H       -2.1020    -6.2330     0.6700 H     1 <1>   0.0800 
 43 H       -2.7490    -6.1900    -1.8990 H     1 <1>   0.0800 
 44 H       -4.4170    -6.2910    -2.3280 H     1 <1>   0.0800 
 45 H       -6.3490    -6.9490    -1.4190 H     1 <1>   0.0800 
 46 H       -7.3210    -6.4600    -0.0450 H     1 <1>   0.0800 
 47 H       -1.7830    -8.0440    -0.7180 H     1 <1>   0.1500 
 48 H       -7.0950    -8.9530    -0.2190 H     1 <1>   0.0800 
 49 H       -6.4940    -8.3150     1.2880 H     1 <1>   0.0800 
 50 H       -5.6580   -10.9320     0.0710 H     1 <1>   0.1500 
 51 H        0.4100   -11.5690    -0.3310 H     1 <1>   0.0800 
 52 H       -0.9900   -12.4510    -0.9260 H     1 <1>   0.0800 
 53 H       -1.0100   -11.7460     0.6980 H     1 <1>   0.0800 
 54 H       -4.1170   -14.1260    -0.5670 H     1 <1>   0.0800 
 55 H       -5.1790   -12.8760    -1.2040 H     1 <1>   0.0800 
 56 H       -4.9630   -13.0610     0.5480 H     1 <1>   0.0800 
@<TRIPOS>BOND
  1   1   2  2   
  2   2   3  1   
  3   2   4  am  
  4   3   5  1   
  5   4   6  1   
  6   4  29  1   
  7   5  30  1   
  8   5  31  1   
  9   5  32  1   
 10   6   7  1   
 11   6   8  1   
 12   6  33  1   
 13   7   9  2   
 14   7  10  am  
 15   8  34  1   
 16   8  35  1   
 17   8  36  1   
 18  10  11  1   
 19  10  12  1   
 20  11  13  1   
 21  11  37  1   
 22  11  38  1   
 23  12  14  1   
 24  12  39  1   
 25  12  40  1   
 26  13  15  1   
 27  13  41  1   
 28  13  42  1   
 29  14  15  1   
 30  14  43  1   
 31  14  44  1   
 32  15  16  1   
 33  15  17  1   
 34  16  18  1   
 35  17  19  ar  
 36  17  20  ar  
 37  18  21  1   
 38  18  45  1   
 39  18  46  1   
 40  19  21  1   
 41  19  22  ar  
 42  20  23  ar  
 43  20  47  1   
 44  21  48  1   
 45  21  49  1   
 46  22  24  ar  
 47  22  50  1   
 48  23  24  ar  
 49  23  25  1   
 50  24  26  1   
 51  25  27  1   
 52  26  28  1   
 53  27  51  1   
 54  27  52  1   
 55  27  53  1   
 56  28  54  1   
 57  28  55  1   
 58  28  56  1   
@<TRIPOS>SUBSTRUCTURE
  1 ****  13 GROUP 4 **** **** 0

# MOE 2024.06 (io_trps.svl 2023.06)
