@<TRIPOS>MOLECULE
NONAME
62 64 1 0 0 
SMALL
USER_CHARGES


@<TRIPOS>ATOM
  1 O        0.0560    -1.4360    -1.2800 O.3   1 <1>  -0.5600 
  2 C       -0.2430    -2.2380    -0.1620 C.3   1 <1>   0.2800 
  3 C       -0.3830    -0.1040    -1.2650 C.3   1 <1>   0.1200 
  4 C       -1.7590    -2.2000     0.1330 C.3   1 <1>  -0.1600 
  5 C        0.6560    -1.8230     1.0220 C.3   1 <1>  -0.1600 
  6 C        0.1620    -3.6700    -0.5620 C.3   1 <1>  -0.1600 
  7 C       -1.9060    -0.0540    -1.1430 C.3   1 <1>  -0.1600 
  8 C       -2.3790    -0.8010     0.1020 C.3   1 <1>   0.2800 
  9 C        2.1550    -1.8810     0.7000 C.3   1 <1>   0.3430 
 10 C        1.6760    -3.9110    -0.6210 C.3   1 <1>   0.3430 
 11 O       -1.9490    -0.1110     1.2090 O.3   1 <1>  -0.6800 
 12 C       -3.9020    -0.8540     0.1910 C.3   1 <1>  -0.2400 
 13 N        2.3950    -2.6080    -0.5810 N.4   1 <1>  -0.9590 
 14 C        3.7860    -2.6030    -1.1550 C.3   1 <1>   0.3430 
 15 C        4.9940    -3.0990    -0.2920 C.3   1 <1>   0.0000 
 16 C        6.1200    -3.3890    -1.3420 C.3   1 <1>   0.3430 
 17 C        4.6340    -4.3860     0.4850 C.3   1 <1>  -0.2400 
 18 C        5.4110    -2.0010     0.7140 C.3   1 <1>  -0.2400 
 19 N        7.5710    -3.4960    -0.9240 N.4   1 <1>  -0.9590 
 20 C        7.8720    -4.4060     0.2420 C.3   1 <1>   0.3430 
 21 C        8.2590    -2.1610    -0.7500 C.3   1 <1>   0.3430 
 22 C        9.3800    -4.4600     0.5490 C.3   1 <1>   0.1200 
 23 C        9.7470    -2.3290    -0.3860 C.3   1 <1>   0.1200 
 24 O        9.8770    -3.1660     0.7230 O.3   1 <1>  -0.5600 
 25 H       -0.0740     0.3540    -2.1890 H     1 <1>   0.0800 
 26 H        0.0860     0.4190    -0.4500 H     1 <1>   0.0800 
 27 H       -1.9680    -2.6660     1.0790 H     1 <1>   0.0800 
 28 H       -2.2550    -2.7890    -0.6180 H     1 <1>   0.0800 
 29 H        0.4610    -2.4820     1.8480 H     1 <1>   0.0800 
 30 H        0.4190    -0.8380     1.3750 H     1 <1>   0.0800 
 31 H       -0.2740    -3.9080    -1.5160 H     1 <1>   0.0800 
 32 H       -0.2500    -4.3680     0.1450 H     1 <1>   0.0800 
 33 H       -2.3320    -0.5070    -2.0210 H     1 <1>   0.0800 
 34 H       -2.2390     0.9680    -1.1140 H     1 <1>   0.0800 
 35 H        2.6700    -2.3660     1.5110 H     1 <1>   0.0800 
 36 H        2.5290    -0.8740     0.6120 H     1 <1>   0.0800 
 37 H        1.9130    -4.4420    -1.5290 H     1 <1>   0.0800 
 38 H        1.9740    -4.5190     0.2170 H     1 <1>   0.0800 
 39 H       -2.4910     0.6930     1.3190 H     1 <1>   0.4000 
 40 H       -4.3020    -1.3970    -0.6460 H     1 <1>   0.0800 
 41 H       -4.3220     0.1360     0.1760 H     1 <1>   0.0800 
 42 H       -4.2080    -1.3560     1.0930 H     1 <1>   0.0800 
 43 H        1.8060    -2.0460    -1.2370 H     1 <1>   0.4500 
 44 H        4.0080    -1.5950    -1.4690 H     1 <1>   0.0800 
 45 H        3.7570    -3.1990    -2.0530 H     1 <1>   0.0800 
 46 H        6.0670    -2.6180    -2.0940 H     1 <1>   0.0800 
 47 H        5.8540    -4.3080    -1.8400 H     1 <1>   0.0800 
 48 H        4.3390    -5.1740    -0.1860 H     1 <1>   0.0800 
 49 H        3.8280    -4.2060     1.1730 H     1 <1>   0.0800 
 50 H        5.4500    -4.7460     1.0810 H     1 <1>   0.0800 
 51 H        5.6300    -1.0750     0.2090 H     1 <1>   0.0800 
 52 H        6.2760    -2.2950     1.2790 H     1 <1>   0.0800 
 53 H        4.6440    -1.8060     1.4370 H     1 <1>   0.0800 
 54 H        8.0650    -3.9300    -1.7180 H     1 <1>   0.4500 
 55 H        7.5150    -5.4020     0.0370 H     1 <1>   0.0800 
 56 H        7.3730    -4.0480     1.1260 H     1 <1>   0.0800 
 57 H        7.7910    -1.5990     0.0390 H     1 <1>   0.0800 
 58 H        8.1830    -1.5830    -1.6560 H     1 <1>   0.0800 
 59 H        9.9280    -4.9420    -0.2420 H     1 <1>   0.0800 
 60 H        9.5530    -5.0010     1.4630 H     1 <1>   0.0800 
 61 H       10.1760    -1.3760    -0.1280 H     1 <1>   0.0800 
 62 H       10.3090    -2.7450    -1.2050 H     1 <1>   0.0800 
@<TRIPOS>BOND
  1   1   2  1   
  2   1   3  1   
  3   2   4  1   
  4   2   5  1   
  5   2   6  1   
  6   3   7  1   
  7   3  25  1   
  8   3  26  1   
  9   4   8  1   
 10   4  27  1   
 11   4  28  1   
 12   5   9  1   
 13   5  29  1   
 14   5  30  1   
 15   6  10  1   
 16   6  31  1   
 17   6  32  1   
 18   7   8  1   
 19   7  33  1   
 20   7  34  1   
 21   8  11  1   
 22   8  12  1   
 23   9  13  1   
 24   9  35  1   
 25   9  36  1   
 26  10  13  1   
 27  10  37  1   
 28  10  38  1   
 29  11  39  1   
 30  12  40  1   
 31  12  41  1   
 32  12  42  1   
 33  13  14  1   
 34  13  43  1   
 35  14  15  1   
 36  14  44  1   
 37  14  45  1   
 38  15  16  1   
 39  15  17  1   
 40  15  18  1   
 41  16  19  1   
 42  16  46  1   
 43  16  47  1   
 44  17  48  1   
 45  17  49  1   
 46  17  50  1   
 47  18  51  1   
 48  18  52  1   
 49  18  53  1   
 50  19  20  1   
 51  19  21  1   
 52  19  54  1   
 53  20  22  1   
 54  20  55  1   
 55  20  56  1   
 56  21  23  1   
 57  21  57  1   
 58  21  58  1   
 59  22  24  1   
 60  22  59  1   
 61  22  60  1   
 62  23  24  1   
 63  23  61  1   
 64  23  62  1   
@<TRIPOS>SUBSTRUCTURE
  1 ****  13 GROUP 4 **** **** 0

# MOE 2024.06 (io_trps.svl 2023.06)
