@<TRIPOS>MOLECULE
NONAME
51 53 1 0 0 
SMALL
USER_CHARGES


@<TRIPOS>ATOM
  1 S        0.7860    -0.2870     2.4180 S.o2  1 <1>   1.4470 
  2 O        0.1100     0.5170     3.4130 O.2   1 <1>  -0.6500 
  3 O        1.8930    -1.1260     2.8250 O.2   1 <1>  -0.6500 
  4 N        1.3950     0.7750     1.2430 N.am  1 <1>  -0.8490 
  5 C       -0.4400    -1.2650     1.5030 C.ar  1 <1>  -0.0090 
  6 C        2.0600     1.9500     1.8510 C.3   1 <1>   0.1960 
  7 C        2.2280     0.0770     0.2440 C.3   1 <1>   0.1960 
  8 C       -1.2420    -0.6850     0.5260 C.ar  1 <1>  -0.1500 
  9 C       -0.6140    -2.6190     1.7630 C.ar  1 <1>  -0.1500 
 10 C        2.3880     3.1180     0.8790 C.3   1 <1>   0.2200 
 11 C        2.5320     0.9010    -1.0230 C.3   1 <1>  -0.0190 
 12 C       -2.1740    -1.4310    -0.1740 C.ar  1 <1>  -0.1500 
 13 C       -1.5470    -3.3700     1.0670 C.ar  1 <1>  -0.1500 
 14 N        1.5660     3.0840    -0.3630 N.am  1 <1>  -0.7300 
 15 C        3.8890     3.1670     0.5250 C.3   1 <1>   0.1200 
 16 C        1.5560     2.0440    -1.2220 C.2   1 <1>   0.5690 
 17 C        3.9810     1.4100    -1.0730 C.3   1 <1>   0.1200 
 18 C       -2.3310    -2.7800     0.0920 C.ar  1 <1>  -0.1430 
 19 O        4.4000     1.9180     0.1580 O.3   1 <1>  -0.5600 
 20 O        0.7860     2.0230    -2.1490 O.2   1 <1>  -0.5700 
 21 C       -3.3560    -3.6000    -0.6760 C.3   1 <1>  -0.0170 
 22 C       -4.7130    -3.5670     0.0360 C.3   1 <1>  -0.1600 
 23 C       -5.7670    -4.3870    -0.7200 C.3   1 <1>  -0.1600 
 24 C       -7.1200    -4.3460     0.0010 C.3   1 <1>  -0.1600 
 25 C       -8.1710    -5.1640    -0.7540 C.3   1 <1>  -0.2400 
 26 H        1.4080     2.3630     2.6010 H     1 <1>   0.0800 
 27 H        2.9540     1.6340     2.3640 H     1 <1>   0.0800 
 28 H        3.1460    -0.2560     0.7020 H     1 <1>   0.0800 
 29 H        1.7010    -0.8060    -0.0760 H     1 <1>   0.0800 
 30 H       -1.1340     0.3640     0.3060 H     1 <1>   0.1500 
 31 H       -0.0110    -3.0930     2.5190 H     1 <1>   0.1500 
 32 H        2.1640     4.0380     1.3890 H     1 <1>   0.0800 
 33 H        2.4170     0.2470    -1.8680 H     1 <1>   0.0800 
 34 H       -2.7780    -0.9520    -0.9260 H     1 <1>   0.1500 
 35 H       -1.6590    -4.4170     1.2910 H     1 <1>   0.1500 
 36 H        0.8150     3.7670    -0.4630 H     1 <1>   0.3700 
 37 H        4.4430     3.4780     1.3930 H     1 <1>   0.0800 
 38 H        4.0770     3.8740    -0.2640 H     1 <1>   0.0800 
 39 H        4.1070     2.1660    -1.8310 H     1 <1>   0.0800 
 40 H        4.6370     0.5890    -1.3050 H     1 <1>   0.0800 
 41 H       -3.4580    -3.2070    -1.6720 H     1 <1>   0.0800 
 42 H       -3.0140    -4.6170    -0.7600 H     1 <1>   0.0800 
 43 H       -4.5980    -3.9590     1.0320 H     1 <1>   0.0800 
 44 H       -5.0420    -2.5450     0.1190 H     1 <1>   0.0800 
 45 H       -5.8820    -3.9930    -1.7160 H     1 <1>   0.0800 
 46 H       -5.4380    -5.4090    -0.8010 H     1 <1>   0.0800 
 47 H       -7.0120    -4.7420     0.9960 H     1 <1>   0.0800 
 48 H       -7.4560    -3.3260     0.0820 H     1 <1>   0.0800 
 49 H       -7.8660    -6.1930    -0.8280 H     1 <1>   0.0800 
 50 H       -8.3120    -4.7710    -1.7460 H     1 <1>   0.0800 
 51 H       -9.1120    -5.1230    -0.2340 H     1 <1>   0.0800 
@<TRIPOS>BOND
  1   1   2  2   
  2   1   3  2   
  3   1   4  am  
  4   1   5  1   
  5   4   6  1   
  6   4   7  1   
  7   5   8  ar  
  8   5   9  ar  
  9   6  10  1   
 10   6  26  1   
 11   6  27  1   
 12   7  11  1   
 13   7  28  1   
 14   7  29  1   
 15   8  12  ar  
 16   8  30  1   
 17   9  13  ar  
 18   9  31  1   
 19  10  14  1   
 20  10  15  1   
 21  10  32  1   
 22  11  16  1   
 23  11  17  1   
 24  11  33  1   
 25  12  18  ar  
 26  12  34  1   
 27  13  18  ar  
 28  13  35  1   
 29  14  16  am  
 30  14  36  1   
 31  15  19  1   
 32  15  37  1   
 33  15  38  1   
 34  16  20  2   
 35  17  19  1   
 36  17  39  1   
 37  17  40  1   
 38  18  21  1   
 39  21  22  1   
 40  21  41  1   
 41  21  42  1   
 42  22  23  1   
 43  22  43  1   
 44  22  44  1   
 45  23  24  1   
 46  23  45  1   
 47  23  46  1   
 48  24  25  1   
 49  24  47  1   
 50  24  48  1   
 51  25  49  1   
 52  25  50  1   
 53  25  51  1   
@<TRIPOS>SUBSTRUCTURE
  1 ****   8 GROUP 4 **** **** 0

# MOE 2024.06 (io_trps.svl 2023.06)
