@<TRIPOS>MOLECULE
NONAME
47 49 1 0 0 
SMALL
USER_CHARGES


@<TRIPOS>ATOM
  1 S        1.4490    -0.8790    -0.6800 S.3   1 <1>  -0.0800 
  2 C       -0.0400    -1.4020     0.0230 C.2   1 <1>   0.1980 
  3 C        1.1140     0.6800    -0.0090 C.2   1 <1>   0.1980 
  4 N       -0.6440    -0.4800     0.6580 N.2   1 <1>  -0.3380 
  5 C       -0.4750    -2.8460    -0.1660 C.3   1 <1>   0.5230 
  6 N        0.0180     0.7140     0.6360 N.2   1 <1>  -0.3380 
  7 C        2.1120     1.7920    -0.2460 C.3   1 <1>  -0.0600 
  8 N       -1.9000    -3.0230     0.2760 N.4   1 <1>  -0.9590 
  9 C       -2.2300    -4.4570     0.5920 C.3   1 <1>   0.3430 
 10 C       -2.8420    -2.4260    -0.7210 C.3   1 <1>   0.3430 
 11 C       -3.5400    -4.6450     1.3900 C.3   1 <1>   0.1400 
 12 C       -3.9730    -1.6670    -0.0260 C.3   1 <1>  -0.1600 
 13 N       -4.6900    -3.9010     0.7870 N.am  1 <1>  -0.6600 
 14 C       -4.6990    -2.4400     1.0780 C.3   1 <1>   0.1400 
 15 C       -5.6980    -4.4570     0.0380 C.2   1 <1>   0.5690 
 16 O       -6.5110    -3.7650    -0.5240 O.2   1 <1>  -0.5700 
 17 C       -5.8010    -5.9610    -0.1290 C.3   1 <1>  -0.0990 
 18 C       -6.9130    -6.3740    -1.1090 C.3   1 <1>   0.0960 
 19 N       -6.9630    -7.8430    -1.2510 N.pl3 1 <1>   0.3140 
 20 N       -5.9090    -8.5550    -1.5910 N.2   1 <1>  -0.4180 
 21 C       -7.9690    -8.6830    -1.0670 C.2   1 <1>   0.0070 
 22 N       -6.2900    -9.7810    -1.6050 N.2   1 <1>   0.0000 
 23 N       -7.5740    -9.8790    -1.2790 N.2   1 <1>  -0.3380 
 24 C       -9.3830    -8.3060    -0.6650 C.3   1 <1>  -0.0600 
 25 H        0.1740    -3.4710     0.4250 H     1 <1>   0.0800 
 26 H       -0.3680    -3.1250    -1.2010 H     1 <1>   0.0800 
 27 H        2.2190     1.9720    -1.3000 H     1 <1>   0.0800 
 28 H        3.0670     1.5230     0.1670 H     1 <1>   0.0800 
 29 H        1.7700     2.6950     0.2280 H     1 <1>   0.0800 
 30 H       -1.9900    -2.4450     1.1260 H     1 <1>   0.4500 
 31 H       -1.4280    -4.8920     1.1670 H     1 <1>   0.0800 
 32 H       -2.3070    -5.0170    -0.3260 H     1 <1>   0.0800 
 33 H       -3.2630    -3.2030    -1.3390 H     1 <1>   0.0800 
 34 H       -2.3200    -1.7340    -1.3640 H     1 <1>   0.0800 
 35 H       -3.3920    -4.3050     2.4010 H     1 <1>   0.0800 
 36 H       -3.7610    -5.6950     1.4520 H     1 <1>   0.0800 
 37 H       -4.6990    -1.4070    -0.7770 H     1 <1>   0.0800 
 38 H       -3.6030    -0.7390     0.3720 H     1 <1>   0.0800 
 39 H       -5.7160    -2.0860     1.1570 H     1 <1>   0.0800 
 40 H       -4.2270    -2.2570     2.0290 H     1 <1>   0.0800 
 41 H       -5.9980    -6.3980     0.8330 H     1 <1>   0.0800 
 42 H       -4.8610    -6.3260    -0.4990 H     1 <1>   0.0800 
 43 H       -6.7280    -5.9490    -2.0790 H     1 <1>   0.0800 
 44 H       -7.8640    -6.0170    -0.7580 H     1 <1>   0.0800 
 45 H       -9.8170    -7.6510    -1.3990 H     1 <1>   0.0800 
 46 H       -9.3810    -7.8180     0.2930 H     1 <1>   0.0800 
 47 H       -9.9910    -9.1910    -0.5960 H     1 <1>   0.0800 
@<TRIPOS>BOND
  1   1   2  1   
  2   1   3  1   
  3   2   4  2   
  4   2   5  1   
  5   3   6  2   
  6   3   7  1   
  7   4   6  1   
  8   5   8  1   
  9   5  25  1   
 10   5  26  1   
 11   7  27  1   
 12   7  28  1   
 13   7  29  1   
 14   8   9  1   
 15   8  10  1   
 16   8  30  1   
 17   9  11  1   
 18   9  31  1   
 19   9  32  1   
 20  10  12  1   
 21  10  33  1   
 22  10  34  1   
 23  11  13  1   
 24  11  35  1   
 25  11  36  1   
 26  12  14  1   
 27  12  37  1   
 28  12  38  1   
 29  13  14  1   
 30  13  15  am  
 31  14  39  1   
 32  14  40  1   
 33  15  16  2   
 34  15  17  1   
 35  17  18  1   
 36  17  41  1   
 37  17  42  1   
 38  18  19  1   
 39  18  43  1   
 40  18  44  1   
 41  19  20  1   
 42  19  21  1   
 43  20  22  2   
 44  21  23  2   
 45  21  24  1   
 46  22  23  1   
 47  24  45  1   
 48  24  46  1   
 49  24  47  1   
@<TRIPOS>SUBSTRUCTURE
  1 ****  13 GROUP 4 **** **** 0

# MOE 2024.06 (io_trps.svl 2023.06)
