@<TRIPOS>MOLECULE
NONAME
50 52 1 0 0 
SMALL
USER_CHARGES


@<TRIPOS>ATOM
  1 F       -1.6420     0.6190     1.2340 F     1 <1>  -0.1900 
  2 C       -2.4840     1.2750     0.4840 C.ar  1 <1>   0.1900 
  3 C       -2.3930     2.6540     0.3870 C.ar  1 <1>  -0.1440 
  4 C       -3.4440     0.5370    -0.1830 C.ar  1 <1>  -0.1500 
  5 C       -3.3230     3.2970    -0.4270 C.ar  1 <1>  -0.1500 
  6 C       -1.3040     3.4060     1.1560 C.3   1 <1>   1.1640 
  7 C       -4.3660     1.1920    -0.9840 C.ar  1 <1>  -0.1440 
  8 C       -4.2950     2.5740    -1.1030 C.ar  1 <1>  -0.1500 
  9 F       -1.3510     4.7170     0.9530 F     1 <1>  -0.3400 
 10 F       -0.0800     3.0270     0.8110 F     1 <1>  -0.3400 
 11 F       -1.4040     3.2370     2.4680 F     1 <1>  -0.3400 
 12 C       -5.4420     0.4080    -1.7160 C.3   1 <1>   0.4870 
 13 N       -6.7500     0.6770    -1.0690 N.4   1 <1>  -0.9590 
 14 C       -6.8050     0.2690     0.3650 C.3   1 <1>   0.3430 
 15 C       -7.9180     0.1740    -1.8290 C.3   1 <1>   0.3430 
 16 C       -8.2030     0.5050     0.9480 C.3   1 <1>  -0.1600 
 17 C       -9.1870     0.8740    -1.3310 C.3   1 <1>  -0.1600 
 18 C       -9.0730     1.4520     0.1000 C.3   1 <1>   0.2800 
 19 O       -8.3350     2.6550    -0.0310 O.3   1 <1>  -0.5600 
 20 C      -10.4530     1.6810     0.7870 C.3   1 <1>   0.2000 
 21 C       -8.9100     3.8590     0.4040 C.3   1 <1>   0.1200 
 22 O      -11.2180     0.5100     0.7970 O.3   1 <1>  -0.6800 
 23 C      -11.2460     2.8930     0.2140 C.3   1 <1>   0.2800 
 24 C      -10.2920     4.0150    -0.2350 C.3   1 <1>  -0.1600 
 25 O      -12.0050     3.3870     1.2560 O.3   1 <1>  -0.6800 
 26 C      -12.2520     2.5630    -0.8980 C.3   1 <1>  -0.2400 
 27 H       -3.4500    -0.5330    -0.0640 H     1 <1>   0.1500 
 28 H       -3.2980     4.3700    -0.5440 H     1 <1>   0.1500 
 29 H       -4.9940     3.1090    -1.7250 H     1 <1>   0.1500 
 30 H       -5.2200    -0.6460    -1.6840 H     1 <1>   0.0800 
 31 H       -5.4690     0.7210    -2.7470 H     1 <1>   0.0800 
 32 H       -6.8830     1.7040    -1.0230 H     1 <1>   0.4500 
 33 H       -6.5410    -0.7710     0.4720 H     1 <1>   0.0800 
 34 H       -6.0930     0.8560     0.9230 H     1 <1>   0.0800 
 35 H       -7.7960     0.3630    -2.8830 H     1 <1>   0.0800 
 36 H       -8.0110    -0.8900    -1.6810 H     1 <1>   0.0800 
 37 H       -8.1080     0.8880     1.9480 H     1 <1>   0.0800 
 38 H       -8.7020    -0.4450     1.0310 H     1 <1>   0.0800 
 39 H       -9.9790     0.1500    -1.3760 H     1 <1>   0.0800 
 40 H       -9.4490     1.6600    -2.0150 H     1 <1>   0.0800 
 41 H      -10.2460     1.8980     1.8220 H     1 <1>   0.0800 
 42 H       -8.9720     3.8520     1.4800 H     1 <1>   0.0800 
 43 H       -8.2620     4.6630     0.1010 H     1 <1>   0.0800 
 44 H      -12.0620     0.6990     1.2610 H     1 <1>   0.4000 
 45 H      -10.1580     3.9860    -1.3010 H     1 <1>   0.0800 
 46 H      -10.6990     4.9810     0.0070 H     1 <1>   0.0800 
 47 H      -12.6060     4.0830     0.9280 H     1 <1>   0.4000 
 48 H      -11.7560     2.1060    -1.7320 H     1 <1>   0.0800 
 49 H      -12.7360     3.4560    -1.2510 H     1 <1>   0.0800 
 50 H      -13.0030     1.8780    -0.5460 H     1 <1>   0.0800 
@<TRIPOS>BOND
  1   1   2  1   
  2   2   3  ar  
  3   2   4  ar  
  4   3   5  ar  
  5   3   6  1   
  6   4   7  ar  
  7   4  27  1   
  8   5   8  ar  
  9   5  28  1   
 10   6   9  1   
 11   6  10  1   
 12   6  11  1   
 13   7   8  ar  
 14   7  12  1   
 15   8  29  1   
 16  12  13  1   
 17  12  30  1   
 18  12  31  1   
 19  13  14  1   
 20  13  15  1   
 21  13  32  1   
 22  14  16  1   
 23  14  33  1   
 24  14  34  1   
 25  15  17  1   
 26  15  35  1   
 27  15  36  1   
 28  16  18  1   
 29  16  37  1   
 30  16  38  1   
 31  17  18  1   
 32  17  39  1   
 33  17  40  1   
 34  18  19  1   
 35  18  20  1   
 36  19  21  1   
 37  20  22  1   
 38  20  23  1   
 39  20  41  1   
 40  21  24  1   
 41  21  42  1   
 42  21  43  1   
 43  22  44  1   
 44  23  24  1   
 45  23  25  1   
 46  23  26  1   
 47  24  45  1   
 48  24  46  1   
 49  25  47  1   
 50  26  48  1   
 51  26  49  1   
 52  26  50  1   
@<TRIPOS>SUBSTRUCTURE
  1 ****  13 GROUP 4 **** **** 0

# MOE 2024.06 (io_trps.svl 2023.06)
