@<TRIPOS>MOLECULE
NONAME
42 44 1 0 0 
SMALL
USER_CHARGES


@<TRIPOS>ATOM
  1 O       -0.1460     0.5380    -1.6160 O.co2 1 <1>  -0.9000 
  2 C       -0.1490     1.5110    -2.3830 C.2   1 <1>   0.9060 
  3 O        0.1930     1.4230    -3.5670 O.co2 1 <1>  -0.9000 
  4 C       -0.5930     2.8770    -1.8260 C.3   1 <1>   0.0040 
  5 N        0.3670     3.6190    -0.9320 N.3   1 <1>  -0.8100 
  6 C       -0.2640     4.7970    -0.3070 C.3   1 <1>   0.1100 
  7 C        0.9310     2.7020     0.0920 C.3   1 <1>   0.1100 
  8 C        0.7440     5.5760     0.5740 C.3   1 <1>   0.3430 
  9 C        1.8540     3.4330     1.0890 C.3   1 <1>   0.3430 
 10 N        2.0550     4.8470     0.6490 N.4   1 <1>  -0.9590 
 11 C        3.1520     5.5750     1.3260 C.3   1 <1>   0.4860 
 12 C        3.2930     6.9450     0.6930 C.ar  1 <1>  -0.1440 
 13 C        3.6850     7.0700    -0.6230 C.ar  1 <1>  -0.1500 
 14 C        3.0010     8.0900     1.4510 C.ar  1 <1>  -0.1500 
 15 C        3.7760     8.3390    -1.2000 C.ar  1 <1>   0.0000 
 16 C        3.0920     9.3430     0.8930 C.ar  1 <1>  -0.1500 
 17 C        3.4790     9.4670    -0.4440 C.ar  1 <1>  -0.1520 
 18 C        4.1270     8.7980    -2.4850 C.2   1 <1>  -0.1500 
 19 N        3.6450    10.5770    -1.2390 N.pl3 1 <1>   0.0480 
 20 C        4.0370    10.1490    -2.4750 C.2   1 <1>  -0.3020 
 21 C        3.4500    11.9780    -0.8310 C.3   1 <1>   0.0160 
 22 H       -1.5060     2.6940    -1.2920 H     1 <1>   0.0800 
 23 H       -0.8250     3.4950    -2.6730 H     1 <1>   0.0800 
 24 H       -1.1010     4.4850     0.2940 H     1 <1>   0.0800 
 25 H       -0.6380     5.4510    -1.0760 H     1 <1>   0.0800 
 26 H        1.5120     1.9390    -0.3990 H     1 <1>   0.0800 
 27 H        0.1380     2.2020     0.6220 H     1 <1>   0.0800 
 28 H        0.3310     5.7120     1.5590 H     1 <1>   0.0800 
 29 H        0.8930     6.5520     0.1400 H     1 <1>   0.0800 
 30 H        2.7960     2.9120     1.1300 H     1 <1>   0.0800 
 31 H        1.4110     3.4060     2.0710 H     1 <1>   0.0800 
 32 H        2.2850     4.7390    -0.3540 H     1 <1>   0.4500 
 33 H        4.0770     5.0340     1.2170 H     1 <1>   0.0800 
 34 H        2.9340     5.6780     2.3760 H     1 <1>   0.0800 
 35 H        3.9250     6.2200    -1.2380 H     1 <1>   0.1500 
 36 H        2.7050     7.9960     2.4810 H     1 <1>   0.1500 
 37 H        2.8720    10.2250     1.4690 H     1 <1>   0.1500 
 38 H        4.4090     8.1580    -3.3030 H     1 <1>   0.1500 
 39 H        4.2320    10.8340    -3.2800 H     1 <1>   0.1500 
 40 H        4.1200    12.2080    -0.0230 H     1 <1>   0.0800 
 41 H        2.4340    12.1140    -0.5090 H     1 <1>   0.0800 
 42 H        3.6530    12.6270    -1.6620 H     1 <1>   0.0800 
@<TRIPOS>BOND
  1   1   2  ar  
  2   2   3  ar  
  3   2   4  1   
  4   4   5  1   
  5   4  22  1   
  6   4  23  1   
  7   5   6  1   
  8   5   7  1   
  9   6   8  1   
 10   6  24  1   
 11   6  25  1   
 12   7   9  1   
 13   7  26  1   
 14   7  27  1   
 15   8  10  1   
 16   8  28  1   
 17   8  29  1   
 18   9  10  1   
 19   9  30  1   
 20   9  31  1   
 21  10  11  1   
 22  10  32  1   
 23  11  12  1   
 24  11  33  1   
 25  11  34  1   
 26  12  13  ar  
 27  12  14  ar  
 28  13  15  ar  
 29  13  35  1   
 30  14  16  ar  
 31  14  36  1   
 32  15  17  ar  
 33  15  18  1   
 34  16  17  ar  
 35  16  37  1   
 36  17  19  1   
 37  18  20  2   
 38  18  38  1   
 39  19  20  1   
 40  19  21  1   
 41  20  39  1   
 42  21  40  1   
 43  21  41  1   
 44  21  42  1   
@<TRIPOS>SUBSTRUCTURE
  1 ****  10 GROUP 4 **** **** 0

# MOE 2024.06 (io_trps.svl 2023.06)
