@<TRIPOS>MOLECULE
NONAME
46 49 1 0 0 
SMALL
USER_CHARGES


@<TRIPOS>ATOM
  1 S       -0.7210    -2.0050    -1.1820 S.3   1 <1>  -0.0800 
  2 C       -2.0780    -1.0630    -0.5520 C.2   1 <1>   0.0400 
  3 C        0.0660    -0.5770    -1.8220 C.2   1 <1>  -0.1100 
  4 C       -3.1390    -1.7450     0.1340 C.2   1 <1>   0.4780 
  5 C       -1.8730     0.2450    -0.8510 C.2   1 <1>  -0.1500 
  6 C       -0.6690     0.5200    -1.5640 C.2   1 <1>  -0.1500 
  7 O       -4.1740    -1.0560     0.5810 O.3   1 <1>  -0.2800 
  8 N       -3.2410    -3.0180     0.3890 N.2   1 <1>  -0.5650 
  9 C       -4.9770    -1.9070     1.1490 C.2   1 <1>  -0.0400 
 10 C       -4.4140    -3.1200     1.0430 C.2   1 <1>   0.0460 
 11 C       -6.2690    -1.3970     1.7580 C.3   1 <1>  -0.0600 
 12 C       -4.9120    -4.4770     1.5120 C.3   1 <1>   0.5240 
 13 N       -4.6520    -5.4610     0.4250 N.4   1 <1>  -0.9590 
 14 C       -5.5850    -5.2400    -0.7180 C.3   1 <1>   0.3430 
 15 C       -4.8350    -6.8690     0.8880 C.3   1 <1>   0.3430 
 16 C       -6.6830    -6.2910    -0.5450 C.3   1 <1>   0.2000 
 17 C       -5.9220    -7.4990     0.0000 C.3   1 <1>  -0.0800 
 18 O       -7.5620    -5.8520     0.4420 O.3   1 <1>  -0.6800 
 19 C       -5.3250    -8.3520    -1.1430 C.3   1 <1>  -0.0170 
 20 C       -4.6590    -9.6200    -0.6270 C.ar  1 <1>   0.1670 
 21 N       -3.4970    -9.4640    -0.0140 N.ar  1 <1>  -0.6200 
 22 C       -5.2690   -10.8600    -0.8150 C.ar  1 <1>   0.1600 
 23 C       -2.9850   -10.6190     0.3850 C.ar  1 <1>   0.1600 
 24 N       -4.7650   -12.0100    -0.4060 N.ar  1 <1>  -0.6200 
 25 C       -3.6000   -11.8510     0.1970 C.ar  1 <1>   0.1600 
 26 H        1.0050    -0.7100    -2.3300 H     1 <1>   0.1500 
 27 H       -2.5480     1.0400    -0.5840 H     1 <1>   0.1500 
 28 H       -0.4090     1.5250    -1.8500 H     1 <1>   0.1500 
 29 H       -6.8390    -2.2020     2.1840 H     1 <1>   0.0800 
 30 H       -6.8610    -0.9130     1.0020 H     1 <1>   0.0800 
 31 H       -6.0480    -0.6810     2.5290 H     1 <1>   0.0800 
 32 H       -5.9620    -4.4380     1.7490 H     1 <1>   0.0800 
 33 H       -4.3620    -4.7580     2.3950 H     1 <1>   0.0800 
 34 H       -3.6830    -5.2630     0.1210 H     1 <1>   0.4500 
 35 H       -5.9920    -4.2420    -0.7310 H     1 <1>   0.0800 
 36 H       -5.0640    -5.4190    -1.6440 H     1 <1>   0.0800 
 37 H       -3.9050    -7.4080     0.8310 H     1 <1>   0.0800 
 38 H       -5.1710    -6.8760     1.9120 H     1 <1>   0.0800 
 39 H       -7.2360    -6.4750    -1.4510 H     1 <1>   0.0800 
 40 H       -6.5660    -8.1310     0.5880 H     1 <1>   0.0800 
 41 H       -8.3720    -6.4060     0.4680 H     1 <1>   0.4000 
 42 H       -4.5950    -7.7880    -1.6980 H     1 <1>   0.0800 
 43 H       -6.1070    -8.6260    -1.8290 H     1 <1>   0.0800 
 44 H       -6.2150   -10.9080    -1.3250 H     1 <1>   0.1500 
 45 H       -2.0330   -10.5940     0.8860 H     1 <1>   0.1500 
 46 H       -3.1080   -12.7380     0.5580 H     1 <1>   0.1500 
@<TRIPOS>BOND
  1   1   2  1   
  2   1   3  1   
  3   2   4  1   
  4   2   5  2   
  5   3   6  2   
  6   3  26  1   
  7   4   7  1   
  8   4   8  2   
  9   5   6  1   
 10   5  27  1   
 11   6  28  1   
 12   7   9  1   
 13   8  10  1   
 14   9  10  2   
 15   9  11  1   
 16  10  12  1   
 17  11  29  1   
 18  11  30  1   
 19  11  31  1   
 20  12  13  1   
 21  12  32  1   
 22  12  33  1   
 23  13  14  1   
 24  13  15  1   
 25  13  34  1   
 26  14  16  1   
 27  14  35  1   
 28  14  36  1   
 29  15  17  1   
 30  15  37  1   
 31  15  38  1   
 32  16  17  1   
 33  16  18  1   
 34  16  39  1   
 35  17  19  1   
 36  17  40  1   
 37  18  41  1   
 38  19  20  1   
 39  19  42  1   
 40  19  43  1   
 41  20  21  ar  
 42  20  22  ar  
 43  21  23  ar  
 44  22  24  ar  
 45  22  44  1   
 46  23  25  ar  
 47  23  45  1   
 48  24  25  ar  
 49  25  46  1   
@<TRIPOS>SUBSTRUCTURE
  1 ****  13 GROUP 4 **** **** 0

# MOE 2024.06 (io_trps.svl 2023.06)
