@<TRIPOS>MOLECULE
NONAME
51 52 1 0 0 
SMALL
USER_CHARGES


@<TRIPOS>ATOM
  1 S        1.9900     0.4830     1.5590 S.o2  1 <1>   1.3330 
  2 O        1.9330    -0.9610     1.5350 O.2   1 <1>  -0.6500 
  3 O        2.7080     1.1490     2.6240 O.2   1 <1>  -0.6500 
  4 N        0.3940     1.0610     1.5540 N.am  1 <1>  -0.8490 
  5 C        2.6460     1.0660    -0.0020 C.3   1 <1>  -0.0550 
  6 C       -0.1330     1.2420     2.9100 C.3   1 <1>   0.1160 
  7 C       -0.5250     0.2350     0.7650 C.3   1 <1>   0.1160 
  8 C        4.1420     0.7590    -0.1790 C.3   1 <1>  -0.0800 
  9 C        4.6880     1.2750    -1.4940 C.3   1 <1>   0.2200 
 10 C        4.4980    -0.7200    -0.2520 C.3   1 <1>   0.1200 
 11 N        5.0860     2.6890    -1.3500 N.am  1 <1>  -0.7300 
 12 C        5.8600     0.3390    -1.7800 C.3   1 <1>   0.1200 
 13 O        5.7080    -0.7720    -0.9420 O.3   1 <1>  -0.5600 
 14 C        4.3120     3.7550    -1.7050 C.2   1 <1>   0.5440 
 15 O        3.3260     3.5400    -2.3850 O.2   1 <1>  -0.5700 
 16 C        4.6470     5.1030    -1.2800 C.ar  1 <1>   0.0860 
 17 C        5.2780     5.3920    -0.0580 C.ar  1 <1>   0.0820 
 18 C        4.3230     6.1800    -2.1090 C.ar  1 <1>  -0.1500 
 19 O        5.5760     4.3640     0.7770 O.3   1 <1>  -0.3630 
 20 C        5.5760     6.7090     0.2870 C.ar  1 <1>  -0.1500 
 21 C        4.6170     7.4840    -1.7610 C.ar  1 <1>  -0.1500 
 22 C        5.8680     4.5500     2.1450 C.3   1 <1>   0.1200 
 23 C        5.2480     7.7490    -0.5600 C.ar  1 <1>  -0.1500 
 24 C        5.8900     3.1750     2.8140 C.3   1 <1>  -0.1600 
 25 C        6.2270     3.2860     4.3040 C.3   1 <1>  -0.2400 
 26 H        2.0930     0.6290    -0.8100 H     1 <1>   0.0800 
 27 H        2.5090     2.1290    -0.0540 H     1 <1>   0.0800 
 28 H       -1.1380     1.6270     2.8710 H     1 <1>   0.0800 
 29 H        0.4760     1.9470     3.4510 H     1 <1>   0.0800 
 30 H       -0.1310     0.3040     3.4400 H     1 <1>   0.0800 
 31 H       -1.4980     0.6960     0.7300 H     1 <1>   0.0800 
 32 H       -0.6170    -0.7470     1.1990 H     1 <1>   0.0800 
 33 H       -0.1620     0.1360    -0.2430 H     1 <1>   0.0800 
 34 H        4.6960     1.1860     0.6390 H     1 <1>   0.0800 
 35 H        3.9610     1.1670    -2.2820 H     1 <1>   0.0800 
 36 H        3.7700    -1.2770    -0.8180 H     1 <1>   0.0800 
 37 H        4.6250    -1.1650     0.7210 H     1 <1>   0.0800 
 38 H        5.7830     2.8740    -0.6210 H     1 <1>   0.3700 
 39 H        6.8040     0.8000    -1.5470 H     1 <1>   0.0800 
 40 H        5.8510     0.0010    -2.8010 H     1 <1>   0.0800 
 41 H        3.8290     5.9820    -3.0450 H     1 <1>   0.1500 
 42 H        6.0680     6.9450     1.2110 H     1 <1>   0.1500 
 43 H        4.3540     8.2920    -2.4230 H     1 <1>   0.1500 
 44 H        6.8270     5.0300     2.2270 H     1 <1>   0.0800 
 45 H        5.0990     5.1680     2.5770 H     1 <1>   0.0800 
 46 H        5.4800     8.7650    -0.2880 H     1 <1>   0.1500 
 47 H        4.9220     2.7160     2.7090 H     1 <1>   0.0800 
 48 H        6.6220     2.5520     2.3310 H     1 <1>   0.0800 
 49 H        5.4950     3.8890     4.8120 H     1 <1>   0.0800 
 50 H        7.2000     3.7250     4.4420 H     1 <1>   0.0800 
 51 H        6.2270     2.3060     4.7510 H     1 <1>   0.0800 
@<TRIPOS>BOND
  1   1   2  2   
  2   1   3  2   
  3   1   4  am  
  4   1   5  1   
  5   4   6  1   
  6   4   7  1   
  7   5   8  1   
  8   5  26  1   
  9   5  27  1   
 10   6  28  1   
 11   6  29  1   
 12   6  30  1   
 13   7  31  1   
 14   7  32  1   
 15   7  33  1   
 16   8   9  1   
 17   8  10  1   
 18   8  34  1   
 19   9  11  1   
 20   9  12  1   
 21   9  35  1   
 22  10  13  1   
 23  10  36  1   
 24  10  37  1   
 25  11  14  am  
 26  11  38  1   
 27  12  13  1   
 28  12  39  1   
 29  12  40  1   
 30  14  15  2   
 31  14  16  1   
 32  16  17  ar  
 33  16  18  ar  
 34  17  19  1   
 35  17  20  ar  
 36  18  21  ar  
 37  18  41  1   
 38  19  22  1   
 39  20  23  ar  
 40  20  42  1   
 41  21  23  ar  
 42  21  43  1   
 43  22  24  1   
 44  22  44  1   
 45  22  45  1   
 46  23  46  1   
 47  24  25  1   
 48  24  47  1   
 49  24  48  1   
 50  25  49  1   
 51  25  50  1   
 52  25  51  1   
@<TRIPOS>SUBSTRUCTURE
  1 ****  11 GROUP 4 **** **** 0

# MOE 2024.06 (io_trps.svl 2023.06)
