@<TRIPOS>MOLECULE
NONAME
46 49 1 0 0 
SMALL
USER_CHARGES


@<TRIPOS>ATOM
  1 O       -0.3560     2.3740     2.8970 O.2   1 <1>  -0.5700 
  2 C       -0.1010     2.9020     1.8290 C.2   1 <1>   0.5440 
  3 N       -1.1360     3.3930     1.0570 N.am  1 <1>  -0.6600 
  4 C        1.2820     3.0420     1.4330 C.ar  1 <1>   0.0860 
  5 C       -2.5660     3.1320     1.3970 C.3   1 <1>   0.1400 
  6 C       -0.9500     4.1250    -0.2240 C.3   1 <1>   0.1400 
  7 C        1.8480     2.2600     0.4230 C.ar  1 <1>   0.0820 
  8 C        2.0950     3.9860     2.0630 C.ar  1 <1>  -0.1500 
  9 C       -3.2190     2.2610     0.3080 C.3   1 <1>   0.0000 
 10 C       -1.5870     3.3340    -1.3730 C.3   1 <1>  -0.1600 
 11 O        1.0850     1.3350    -0.2150 O.3   1 <1>  -0.3630 
 12 C        3.1900     2.4280     0.0680 C.ar  1 <1>   0.0820 
 13 C        3.4170     4.1620     1.7010 C.ar  1 <1>  -0.1500 
 14 C       -4.6870     1.9620     0.6680 C.3   1 <1>   0.2000 
 15 C       -3.0510     2.9550    -1.0750 C.3   1 <1>  -0.1600 
 16 C       -2.6280     0.8390     0.2860 C.3   1 <1>  -0.1600 
 17 C        1.5930     0.7390    -1.3920 C.3   1 <1>   0.1200 
 18 O        3.7660     1.6610    -0.8910 O.3   1 <1>  -0.3630 
 19 C        3.9670     3.3820     0.6980 C.ar  1 <1>  -0.1500 
 20 O       -5.5560     2.9680     0.2860 O.3   1 <1>  -0.6800 
 21 C       -5.0500     0.6560    -0.0390 C.3   1 <1>  -0.1600 
 22 C       -3.7180    -0.0580    -0.3100 C.3   1 <1>  -0.1600 
 23 C        3.0940     0.4670    -1.2420 C.3   1 <1>   0.1200 
 24 H       -2.6460     2.6440     2.3530 H     1 <1>   0.0800 
 25 H       -3.0860     4.0710     1.4680 H     1 <1>   0.0800 
 26 H       -1.4250     5.0870    -0.1410 H     1 <1>   0.0800 
 27 H        0.0920     4.2880    -0.4300 H     1 <1>   0.0800 
 28 H        1.6690     4.5850     2.8500 H     1 <1>   0.1500 
 29 H       -1.5470     3.9270    -2.2690 H     1 <1>   0.0800 
 30 H       -1.0030     2.4510    -1.5520 H     1 <1>   0.0800 
 31 H        4.0220     4.9000     2.2000 H     1 <1>   0.1500 
 32 H       -4.7830     1.8280     1.7330 H     1 <1>   0.0800 
 33 H       -3.4250     2.3260    -1.8630 H     1 <1>   0.0800 
 34 H       -3.6210     3.8670    -1.0850 H     1 <1>   0.0800 
 35 H       -1.7040     0.7660    -0.2570 H     1 <1>   0.0800 
 36 H       -2.4340     0.5220     1.2970 H     1 <1>   0.0800 
 37 H        1.0530    -0.1760    -1.5590 H     1 <1>   0.0800 
 38 H        1.4150     1.4110    -2.2120 H     1 <1>   0.0800 
 39 H        4.9950     3.5040     0.4080 H     1 <1>   0.1500 
 40 H       -5.5200     3.0750    -0.6820 H     1 <1>   0.4000 
 41 H       -5.6800     0.0580     0.5950 H     1 <1>   0.0800 
 42 H       -5.5540     0.8430    -0.9710 H     1 <1>   0.0800 
 43 H       -3.6950    -1.0370     0.1370 H     1 <1>   0.0800 
 44 H       -3.5680    -0.1570    -1.3710 H     1 <1>   0.0800 
 45 H        3.5140     0.1090    -2.1650 H     1 <1>   0.0800 
 46 H        3.2690    -0.2570    -0.4670 H     1 <1>   0.0800 
@<TRIPOS>BOND
  1   1   2  2   
  2   2   3  am  
  3   2   4  1   
  4   3   5  1   
  5   3   6  1   
  6   4   7  ar  
  7   4   8  ar  
  8   5   9  1   
  9   5  24  1   
 10   5  25  1   
 11   6  10  1   
 12   6  26  1   
 13   6  27  1   
 14   7  11  1   
 15   7  12  ar  
 16   8  13  ar  
 17   8  28  1   
 18   9  14  1   
 19   9  15  1   
 20   9  16  1   
 21  10  15  1   
 22  10  29  1   
 23  10  30  1   
 24  11  17  1   
 25  12  18  1   
 26  12  19  ar  
 27  13  19  ar  
 28  13  31  1   
 29  14  20  1   
 30  14  21  1   
 31  14  32  1   
 32  15  33  1   
 33  15  34  1   
 34  16  22  1   
 35  16  35  1   
 36  16  36  1   
 37  17  23  1   
 38  17  37  1   
 39  17  38  1   
 40  18  23  1   
 41  19  39  1   
 42  20  40  1   
 43  21  22  1   
 44  21  41  1   
 45  21  42  1   
 46  22  43  1   
 47  22  44  1   
 48  23  45  1   
 49  23  46  1   
@<TRIPOS>SUBSTRUCTURE
  1 ****   3 GROUP 4 **** **** 0

# MOE 2024.06 (io_trps.svl 2023.06)
