@<TRIPOS>MOLECULE
NONAME
23 23 1 0 0 
SMALL
USER_CHARGES


@<TRIPOS>ATOM
  1 N       -5.9410     0.2250     0.2900 N.pl3 1 <1>  -0.8380 
  2 C       -6.8930    -0.6330    -0.2680 C.2   1 <1>  -0.0500 
  3 C       -4.6310    -0.4640     0.0700 C.3   1 <1>   0.5780 
  4 C       -5.9750     1.5950    -0.2760 C.3   1 <1>   0.2090 
  5 C       -6.3480    -1.7440    -0.7520 C.2   1 <1>  -0.0500 
  6 N       -4.9600    -1.7600    -0.6040 N.pl3 1 <1>  -0.8380 
  7 C       -6.9450     2.4500     0.5410 C.3   1 <1>  -0.1600 
  8 C       -4.4830    -2.9380     0.1580 C.3   1 <1>   0.1290 
  9 C       -7.0050     3.8920     0.0240 C.3   1 <1>  -0.2400 
 10 H       -7.9360    -0.3610    -0.2680 H     1 <1>   0.1500 
 11 H       -4.1470    -0.6330     1.0170 H     1 <1>   0.0800 
 12 H       -3.9870     0.1180    -0.5670 H     1 <1>   0.0800 
 13 H       -6.2880     1.5560    -1.3070 H     1 <1>   0.0800 
 14 H       -4.9940     2.0360    -0.2330 H     1 <1>   0.0800 
 15 H       -6.8540    -2.5740    -1.2190 H     1 <1>   0.1500 
 16 H       -6.6280     2.4520     1.5690 H     1 <1>   0.0800 
 17 H       -7.9280     2.0150     0.4910 H     1 <1>   0.0800 
 18 H       -3.4150    -2.8900     0.2800 H     1 <1>   0.0800 
 19 H       -4.7290    -3.8380    -0.3800 H     1 <1>   0.0800 
 20 H       -4.9540    -2.9680     1.1260 H     1 <1>   0.0800 
 21 H       -6.0360     4.3550     0.0850 H     1 <1>   0.0800 
 22 H       -7.6950     4.4650     0.6170 H     1 <1>   0.0800 
 23 H       -7.3370     3.9110    -1.0000 H     1 <1>   0.0800 
@<TRIPOS>BOND
  1   1   2  1   
  2   1   3  1   
  3   1   4  1   
  4   2   5  2   
  5   2  10  1   
  6   3   6  1   
  7   3  11  1   
  8   3  12  1   
  9   4   7  1   
 10   4  13  1   
 11   4  14  1   
 12   5   6  1   
 13   5  15  1   
 14   6   8  1   
 15   7   9  1   
 16   7  16  1   
 17   7  17  1   
 18   8  18  1   
 19   8  19  1   
 20   8  20  1   
 21   9  21  1   
 22   9  22  1   
 23   9  23  1   
@<TRIPOS>SUBSTRUCTURE
  1 ****   1 GROUP 4 **** **** 0

# MOE 2024.06 (io_trps.svl 2023.06)
