@<TRIPOS>MOLECULE
NONAME
45 46 1 0 0 
SMALL
USER_CHARGES


@<TRIPOS>ATOM
  1 F       -0.0310     1.3970     0.6010 F     1 <1>  -0.1900 
  2 C       -0.6470     2.0930    -0.3190 C.ar  1 <1>   0.1900 
  3 C       -0.9980     3.4100    -0.0620 C.ar  1 <1>  -0.1440 
  4 C       -0.9230     1.4690    -1.5220 C.ar  1 <1>  -0.1500 
  5 C       -1.6530     4.1100    -1.0670 C.ar  1 <1>  -0.1500 
  6 C       -0.6940     4.0790     1.2730 C.3   1 <1>   0.2540 
  7 C       -1.5770     2.1840    -2.5100 C.ar  1 <1>  -0.1500 
  8 C       -1.9390     3.5020    -2.2800 C.ar  1 <1>  -0.1500 
  9 N        0.0570     5.3350     1.0830 N.3   1 <1>  -0.8100 
 10 C        0.1570     6.0820     2.3760 C.3   1 <1>   0.1710 
 11 C        1.3990     5.0610     0.5320 C.3   1 <1>   0.0300 
 12 C        0.5960     7.5420     2.2240 C.2   1 <1>   0.5690 
 13 O        1.1010     8.1050     3.1660 O.2   1 <1>  -0.5700 
 14 N        0.3990     8.1170     1.0100 N.am  1 <1>  -0.7300 
 15 C        0.9110     9.3810     0.4540 C.3   1 <1>   0.3640 
 16 C        2.3350     9.1720    -0.0430 C.ar  1 <1>  -0.1430 
 17 C        0.7880    10.5470     1.4350 C.3   1 <1>  -0.2400 
 18 C        2.6090     9.2370    -1.4020 C.ar  1 <1>   0.1600 
 19 C        3.3800     8.9090     0.8220 C.ar  1 <1>  -0.1500 
 20 N        3.8020     9.0680    -1.9490 N.ar  1 <1>  -0.6200 
 21 C        4.6300     8.7300     0.2680 C.ar  1 <1>  -0.1500 
 22 C        4.7880     8.8190    -1.1060 C.ar  1 <1>   0.1670 
 23 C        6.1540     8.6260    -1.7280 C.3   1 <1>  -0.0970 
 24 H       -0.6330     0.4460    -1.6770 H     1 <1>   0.1500 
 25 H       -1.9350     5.1360    -0.9010 H     1 <1>   0.1500 
 26 H       -0.1380     3.4190     1.9180 H     1 <1>   0.0800 
 27 H       -1.6320     4.2950     1.7540 H     1 <1>   0.0800 
 28 H       -1.8040     1.7180    -3.4540 H     1 <1>   0.1500 
 29 H       -2.4460     4.0590    -3.0490 H     1 <1>   0.1500 
 30 H        0.8460     5.5830     3.0360 H     1 <1>   0.0800 
 31 H       -0.8050     6.0980     2.8550 H     1 <1>   0.0800 
 32 H        1.3160     4.5970    -0.4360 H     1 <1>   0.0800 
 33 H        1.9510     4.4060     1.1840 H     1 <1>   0.0800 
 34 H        1.9550     5.9760     0.4110 H     1 <1>   0.0800 
 35 H        0.0840     7.4430     0.3040 H     1 <1>   0.3700 
 36 H        0.2890     9.6220    -0.3920 H     1 <1>   0.0800 
 37 H        1.4500    10.4260     2.2710 H     1 <1>   0.0800 
 38 H       -0.2230    10.6250     1.7910 H     1 <1>   0.0800 
 39 H        1.0490    11.4620     0.9370 H     1 <1>   0.0800 
 40 H        1.8030     9.4390    -2.0850 H     1 <1>   0.1500 
 41 H        3.2300     8.8420     1.8860 H     1 <1>   0.1500 
 42 H        5.4710     8.5240     0.9040 H     1 <1>   0.1500 
 43 H        6.1210     7.7990    -2.4140 H     1 <1>   0.0800 
 44 H        6.8990     8.4290    -0.9790 H     1 <1>   0.0800 
 45 H        6.4290     9.5130    -2.2680 H     1 <1>   0.0800 
@<TRIPOS>BOND
  1   1   2  1   
  2   2   3  ar  
  3   2   4  ar  
  4   3   5  ar  
  5   3   6  1   
  6   4   7  ar  
  7   4  24  1   
  8   5   8  ar  
  9   5  25  1   
 10   6   9  1   
 11   6  26  1   
 12   6  27  1   
 13   7   8  ar  
 14   7  28  1   
 15   8  29  1   
 16   9  10  1   
 17   9  11  1   
 18  10  12  1   
 19  10  30  1   
 20  10  31  1   
 21  11  32  1   
 22  11  33  1   
 23  11  34  1   
 24  12  13  2   
 25  12  14  am  
 26  14  15  1   
 27  14  35  1   
 28  15  16  1   
 29  15  17  1   
 30  15  36  1   
 31  16  18  ar  
 32  16  19  ar  
 33  17  37  1   
 34  17  38  1   
 35  17  39  1   
 36  18  20  ar  
 37  18  40  1   
 38  19  21  ar  
 39  19  41  1   
 40  20  22  ar  
 41  21  22  ar  
 42  21  42  1   
 43  22  23  1   
 44  23  43  1   
 45  23  44  1   
 46  23  45  1   
@<TRIPOS>SUBSTRUCTURE
  1 ****  11 GROUP 4 **** **** 0

# MOE 2024.06 (io_trps.svl 2023.06)
