@<TRIPOS>MOLECULE
NONAME
45 46 1 0 0 
SMALL
USER_CHARGES


@<TRIPOS>ATOM
  1 S        0.4600     0.2660    -1.4260 S.o2  1 <1>   1.3330 
  2 O       -0.3430     1.1650    -2.2230 O.2   1 <1>  -0.6500 
  3 O        0.7270    -1.0700    -1.9100 O.2   1 <1>  -0.6500 
  4 N       -0.3080     0.1210     0.0830 N.am  1 <1>  -0.8490 
  5 C        2.0310     1.0420    -1.0380 C.3   1 <1>  -0.0550 
  6 C       -1.3260    -0.9340     0.0800 C.3   1 <1>   0.1160 
  7 C       -0.9010     1.3790     0.5530 C.3   1 <1>   0.1160 
  8 C        3.0260     0.1250    -0.2940 C.3   1 <1>  -0.0800 
  9 C        4.4000     0.7300    -0.0530 C.3   1 <1>   0.2200 
 10 C        2.6000    -0.3050     1.1140 C.3   1 <1>   0.1200 
 11 N        4.2840     2.1230     0.4390 N.am  1 <1>  -0.7300 
 12 C        4.8890    -0.1490     1.0890 C.3   1 <1>   0.1200 
 13 O        3.7650    -0.3590     1.8890 O.3   1 <1>  -0.5600 
 14 C        4.4420     3.2470    -0.3160 C.2   1 <1>   0.5440 
 15 O        4.6340     3.1220    -1.5100 O.2   1 <1>  -0.5700 
 16 C        4.3390     4.5520     0.2840 C.ar  1 <1>   0.0860 
 17 C        3.1150     5.0430     0.7290 C.ar  1 <1>   0.1900 
 18 C        5.4490     5.3920     0.4510 C.ar  1 <1>   0.0820 
 19 F        2.0450     4.2980     0.6130 F     1 <1>  -0.1900 
 20 C        3.0010     6.3000     1.2970 C.ar  1 <1>   0.1900 
 21 O        6.6760     4.9780     0.0870 O.3   1 <1>  -0.3630 
 22 C        5.3320     6.6540     1.0260 C.ar  1 <1>  -0.1500 
 23 F        1.8350     6.7350     1.7050 F     1 <1>  -0.1900 
 24 C        4.1010     7.1220     1.4530 C.ar  1 <1>  -0.1500 
 25 C        7.1070     5.3180    -1.2130 C.3   1 <1>   0.0400 
 26 H        2.4910     1.3490    -1.9580 H     1 <1>   0.0800 
 27 H        1.8520     1.9280    -0.4650 H     1 <1>   0.0800 
 28 H       -1.7860    -1.0130     1.0500 H     1 <1>   0.0800 
 29 H       -0.8730    -1.8830    -0.1550 H     1 <1>   0.0800 
 30 H       -2.0830    -0.7210    -0.6560 H     1 <1>   0.0800 
 31 H       -1.3030     1.2510     1.5440 H     1 <1>   0.0800 
 32 H       -1.6930     1.6930    -0.1070 H     1 <1>   0.0800 
 33 H       -0.1560     2.1540     0.5900 H     1 <1>   0.0800 
 34 H        3.1590    -0.7700    -0.8790 H     1 <1>   0.0800 
 35 H        5.0410     0.6800    -0.9180 H     1 <1>   0.0800 
 36 H        2.1310    -1.2750     1.1130 H     1 <1>   0.0800 
 37 H        1.9430     0.4160     1.5700 H     1 <1>   0.0800 
 38 H        4.0710     2.1880     1.4370 H     1 <1>   0.3700 
 39 H        5.6700     0.3120     1.6680 H     1 <1>   0.0800 
 40 H        5.2180    -1.1060     0.7220 H     1 <1>   0.0800 
 41 H        6.2130     7.2620     1.1420 H     1 <1>   0.1500 
 42 H        3.9940     8.0960     1.8980 H     1 <1>   0.1500 
 43 H        8.0910     4.9100    -1.3580 H     1 <1>   0.0800 
 44 H        7.1350     6.3900    -1.3040 H     1 <1>   0.0800 
 45 H        6.4270     4.8980    -1.9320 H     1 <1>   0.0800 
@<TRIPOS>BOND
  1   1   2  2   
  2   1   3  2   
  3   1   4  am  
  4   1   5  1   
  5   4   6  1   
  6   4   7  1   
  7   5   8  1   
  8   5  26  1   
  9   5  27  1   
 10   6  28  1   
 11   6  29  1   
 12   6  30  1   
 13   7  31  1   
 14   7  32  1   
 15   7  33  1   
 16   8   9  1   
 17   8  10  1   
 18   8  34  1   
 19   9  11  1   
 20   9  12  1   
 21   9  35  1   
 22  10  13  1   
 23  10  36  1   
 24  10  37  1   
 25  11  14  am  
 26  11  38  1   
 27  12  13  1   
 28  12  39  1   
 29  12  40  1   
 30  14  15  2   
 31  14  16  1   
 32  16  17  ar  
 33  16  18  ar  
 34  17  19  1   
 35  17  20  ar  
 36  18  21  1   
 37  18  22  ar  
 38  20  23  1   
 39  20  24  ar  
 40  21  25  1   
 41  22  24  ar  
 42  22  41  1   
 43  24  42  1   
 44  25  43  1   
 45  25  44  1   
 46  25  45  1   
@<TRIPOS>SUBSTRUCTURE
  1 ****  11 GROUP 4 **** **** 0

# MOE 2024.06 (io_trps.svl 2023.06)
