@<TRIPOS>MOLECULE
NONAME
42 43 1 0 0 
SMALL
USER_CHARGES


@<TRIPOS>ATOM
  1 O       -0.3560    -0.1190    -0.9270 O.2   1 <1>  -0.5700 
  2 C        0.6940    -0.6950    -1.0840 C.2   1 <1>   0.5690 
  3 N        1.9010    -0.0600    -1.1920 N.am  1 <1>  -0.4940 
  4 C        0.6890    -2.2240    -1.1480 C.3   1 <1>   0.2010 
  5 C        2.2790     1.2780    -0.9540 C.2   1 <1>  -0.0880 
  6 N        1.6980    -2.8580    -0.2370 N.am  1 <1>  -0.7300 
  7 N        1.5920     2.4120    -1.2540 N.pl3 1 <1>   0.3140 
  8 C        3.4430     1.6700    -0.3630 C.2   1 <1>  -0.0540 
  9 C        3.0230    -2.9290    -0.5080 C.2   1 <1>   0.5690 
 10 N        2.2750     3.5170    -0.8800 N.2   1 <1>  -0.7070 
 11 C        0.3050     2.5500    -1.9470 C.3   1 <1>   0.0160 
 12 C        4.5010     0.8410     0.1570 C.ar  1 <1>   0.0540 
 13 C        3.3660     3.0670    -0.3560 C.2   1 <1>   0.1080 
 14 O        3.4690    -2.4780    -1.5350 O.2   1 <1>  -0.5700 
 15 C        3.9600    -3.5410     0.5160 C.3   1 <1>  -0.0990 
 16 C        4.8000     0.8320     1.5160 C.ar  1 <1>  -0.1500 
 17 C        5.2460     0.0190    -0.6820 C.ar  1 <1>  -0.1500 
 18 C        4.4300     3.9910     0.1940 C.3   1 <1>  -0.0590 
 19 C        3.6410    -5.0120     0.8280 C.3   1 <1>  -0.2400 
 20 C        5.8090     0.0320     2.0210 C.ar  1 <1>  -0.1500 
 21 C        6.2560    -0.7840    -0.1850 C.ar  1 <1>  -0.1500 
 22 C        6.5400    -0.7790     1.1700 C.ar  1 <1>  -0.1500 
 23 H        2.6900    -0.7200    -1.2790 H     1 <1>   0.3700 
 24 H        0.8950    -2.5190    -2.1620 H     1 <1>   0.0800 
 25 H       -0.2930    -2.5800    -0.8920 H     1 <1>   0.0800 
 26 H        1.3540    -3.1610     0.6760 H     1 <1>   0.3700 
 27 H        0.2170     1.7820    -2.6920 H     1 <1>   0.0800 
 28 H        0.2590     3.5150    -2.4150 H     1 <1>   0.0800 
 29 H       -0.4880     2.4570    -1.2300 H     1 <1>   0.0800 
 30 H        3.9120    -2.9550     1.4160 H     1 <1>   0.0800 
 31 H        4.9650    -3.4720     0.1390 H     1 <1>   0.0800 
 32 H        4.2290     1.4580     2.1770 H     1 <1>   0.1500 
 33 H        5.0270     0.0090    -1.7360 H     1 <1>   0.1500 
 34 H        5.4040     3.5550     0.0700 H     1 <1>   0.0800 
 35 H        4.2480     4.1670     1.2380 H     1 <1>   0.0800 
 36 H        4.3990     4.9290    -0.3290 H     1 <1>   0.0800 
 37 H        2.6580    -5.1090     1.2530 H     1 <1>   0.0800 
 38 H        4.3580    -5.4030     1.5290 H     1 <1>   0.0800 
 39 H        3.6890    -5.5990    -0.0730 H     1 <1>   0.0800 
 40 H        6.0270     0.0400     3.0750 H     1 <1>   0.1500 
 41 H        6.8180    -1.4130    -0.8530 H     1 <1>   0.1500 
 42 H        7.3270    -1.4010     1.5590 H     1 <1>   0.1500 
@<TRIPOS>BOND
  1   1   2  2   
  2   2   3  am  
  3   2   4  1   
  4   3   5  1   
  5   3  23  1   
  6   4   6  1   
  7   4  24  1   
  8   4  25  1   
  9   5   7  1   
 10   5   8  2   
 11   6   9  am  
 12   6  26  1   
 13   7  10  1   
 14   7  11  1   
 15   8  12  1   
 16   8  13  1   
 17   9  14  2   
 18   9  15  1   
 19  10  13  2   
 20  11  27  1   
 21  11  28  1   
 22  11  29  1   
 23  12  16  ar  
 24  12  17  ar  
 25  13  18  1   
 26  15  19  1   
 27  15  30  1   
 28  15  31  1   
 29  16  20  ar  
 30  16  32  1   
 31  17  21  ar  
 32  17  33  1   
 33  18  34  1   
 34  18  35  1   
 35  18  36  1   
 36  19  37  1   
 37  19  38  1   
 38  19  39  1   
 39  20  22  ar  
 40  20  40  1   
 41  21  22  ar  
 42  21  41  1   
 43  22  42  1   
@<TRIPOS>SUBSTRUCTURE
  1 ****   3 GROUP 4 **** **** 0

# MOE 2024.06 (io_trps.svl 2023.06)
