@<TRIPOS>MOLECULE
NONAME
64 68 1 0 0 
SMALL
USER_CHARGES


@<TRIPOS>ATOM
  1 O       -3.6280     1.1710     1.4650 O.2   1 <1>  -0.5700 
  2 C       -3.1890     1.1010     0.3340 C.2   1 <1>   0.5690 
  3 N       -3.6100     0.0470    -0.4390 N.am  1 <1>  -0.6600 
  4 C       -2.1710     2.1780    -0.2190 C.3   1 <1>   0.3310 
  5 C       -5.0260     0.0830    -0.8920 C.3   1 <1>   0.1400 
  6 C       -3.3280    -1.3330     0.0550 C.3   1 <1>   0.1400 
  7 N       -0.7440     1.8910     0.2120 N.3   1 <1>  -0.8100 
  8 C       -2.5530     3.5670     0.3780 C.3   1 <1>  -0.1600 
  9 C       -2.2720     2.2420    -1.7820 C.3   1 <1>  -0.1600 
 10 C       -5.7100    -1.0400    -0.1190 C.3   1 <1>   0.2000 
 11 C       -4.6400    -2.1250    -0.0390 C.3   1 <1>  -0.0800 
 12 C       -0.3770     0.4550     0.2210 C.3   1 <1>   0.1100 
 13 C        0.3390     2.6710    -0.4450 C.3   1 <1>   0.1100 
 14 C       -3.7030     4.2380    -0.3880 C.3   1 <1>  -0.1600 
 15 C       -2.1760     3.6570    -2.3790 C.3   1 <1>  -0.1600 
 16 O       -5.9620    -0.5840     1.1650 O.3   1 <1>  -0.6800 
 17 C       -4.6850    -3.0470    -1.2770 C.3   1 <1>  -0.0160 
 18 C        1.0410     0.2190     0.7730 C.3   1 <1>   0.1200 
 19 C        1.7140     2.3600     0.1670 C.3   1 <1>   0.1200 
 20 C       -3.3000     4.5600    -1.8390 C.3   1 <1>  -0.1600 
 21 C       -3.5670    -4.0860    -1.2650 C.ar  1 <1>  -0.1440 
 22 O        1.9800     0.9910     0.0860 O.3   1 <1>  -0.5600 
 23 C       -3.5760    -5.2090    -0.4030 C.ar  1 <1>   0.0000 
 24 C       -2.5010    -3.9480    -2.1060 C.ar  1 <1>  -0.1500 
 25 C       -2.4640    -6.0850    -0.4520 C.ar  1 <1>   0.3100 
 26 C       -4.6220    -5.5180     0.4990 C.ar  1 <1>  -0.1500 
 27 C       -1.4570    -4.8800    -2.0840 C.ar  1 <1>   0.1600 
 28 N       -1.4160    -5.9060    -1.2950 N.ar  1 <1>  -0.6200 
 29 C       -2.4350    -7.1960     0.4050 C.ar  1 <1>  -0.1500 
 30 C       -4.5630    -6.6110     1.3200 C.ar  1 <1>  -0.1500 
 31 C       -3.4560    -7.4610     1.2770 C.ar  1 <1>  -0.1500 
 32 H       -5.4920     1.0330    -0.6910 H     1 <1>   0.0800 
 33 H       -5.0630    -0.1130    -1.9490 H     1 <1>   0.0800 
 34 H       -2.5370    -1.7760    -0.5220 H     1 <1>   0.0800 
 35 H       -3.0150    -1.2930     1.0860 H     1 <1>   0.0800 
 36 H       -2.8230     3.4650     1.4140 H     1 <1>   0.0800 
 37 H       -1.7210     4.2410     0.3550 H     1 <1>   0.0800 
 38 H       -1.5500     1.5860    -2.2320 H     1 <1>   0.0800 
 39 H       -3.2340     1.8850    -2.0940 H     1 <1>   0.0800 
 40 H       -6.6390    -1.3670    -0.5540 H     1 <1>   0.0800 
 41 H       -4.7730    -2.7200     0.8460 H     1 <1>   0.0800 
 42 H       -1.0470    -0.0880     0.8600 H     1 <1>   0.0800 
 43 H       -0.4430     0.0480    -0.7730 H     1 <1>   0.0800 
 44 H        0.3850     2.4390    -1.4940 H     1 <1>   0.0800 
 45 H        0.1640     3.7240    -0.3400 H     1 <1>   0.0800 
 46 H       -4.5540     3.5790    -0.3870 H     1 <1>   0.0800 
 47 H       -3.9960     5.1440     0.1130 H     1 <1>   0.0800 
 48 H       -1.2250     4.0960    -2.1380 H     1 <1>   0.0800 
 49 H       -2.2410     3.6080    -3.4520 H     1 <1>   0.0800 
 50 H       -5.1900    -0.0420     1.4690 H     1 <1>   0.4000 
 51 H       -4.6020    -2.4530    -2.1700 H     1 <1>   0.0800 
 52 H       -5.6350    -3.5480    -1.3250 H     1 <1>   0.0800 
 53 H        1.3190    -0.8130     0.6600 H     1 <1>   0.0800 
 54 H        1.0830     0.4760     1.8170 H     1 <1>   0.0800 
 55 H        1.7450     2.6610     1.2000 H     1 <1>   0.0800 
 56 H        2.4880     2.8770    -0.3710 H     1 <1>   0.0800 
 57 H       -2.9730     5.5850    -1.9010 H     1 <1>   0.0800 
 58 H       -4.1710     4.4650    -2.4650 H     1 <1>   0.0800 
 59 H       -2.4280    -3.1280    -2.7980 H     1 <1>   0.1500 
 60 H       -5.4870    -4.8850     0.5440 H     1 <1>   0.1500 
 61 H       -0.6350    -4.7330    -2.7630 H     1 <1>   0.1500 
 62 H       -1.5760    -7.8400     0.3510 H     1 <1>   0.1500 
 63 H       -5.3650    -6.8320     2.0040 H     1 <1>   0.1500 
 64 H       -3.4210    -8.3170     1.9280 H     1 <1>   0.1500 
@<TRIPOS>BOND
  1   1   2  2   
  2   2   3  am  
  3   2   4  1   
  4   3   5  1   
  5   3   6  1   
  6   4   7  1   
  7   4   8  1   
  8   4   9  1   
  9   5  10  1   
 10   5  32  1   
 11   5  33  1   
 12   6  11  1   
 13   6  34  1   
 14   6  35  1   
 15   7  12  1   
 16   7  13  1   
 17   8  14  1   
 18   8  36  1   
 19   8  37  1   
 20   9  15  1   
 21   9  38  1   
 22   9  39  1   
 23  10  11  1   
 24  10  16  1   
 25  10  40  1   
 26  11  17  1   
 27  11  41  1   
 28  12  18  1   
 29  12  42  1   
 30  12  43  1   
 31  13  19  1   
 32  13  44  1   
 33  13  45  1   
 34  14  20  1   
 35  14  46  1   
 36  14  47  1   
 37  15  20  1   
 38  15  48  1   
 39  15  49  1   
 40  16  50  1   
 41  17  21  1   
 42  17  51  1   
 43  17  52  1   
 44  18  22  1   
 45  18  53  1   
 46  18  54  1   
 47  19  22  1   
 48  19  55  1   
 49  19  56  1   
 50  20  57  1   
 51  20  58  1   
 52  21  23  ar  
 53  21  24  ar  
 54  23  25  ar  
 55  23  26  ar  
 56  24  27  ar  
 57  24  59  1   
 58  25  28  ar  
 59  25  29  ar  
 60  26  30  ar  
 61  26  60  1   
 62  27  28  ar  
 63  27  61  1   
 64  29  31  ar  
 65  29  62  1   
 66  30  31  ar  
 67  30  63  1   
 68  31  64  1   
@<TRIPOS>SUBSTRUCTURE
  1 ****   6 GROUP 4 **** **** 0

# MOE 2024.06 (io_trps.svl 2023.06)
