@<TRIPOS>MOLECULE
NONAME
47 48 1 0 0 
SMALL
USER_CHARGES


@<TRIPOS>ATOM
  1 O        0.3640     0.3660     1.2460 O.2   1 <1>  -0.5700 
  2 C        0.2400     1.4600     0.7290 C.2   1 <1>   0.7800 
  3 O        1.2420     2.0020     0.0300 O.3   1 <1>  -0.4300 
  4 N       -0.9170     2.1900     0.8380 N.am  1 <1>  -0.6600 
  5 C        2.5120     1.4430    -0.2260 C.3   1 <1>   0.2800 
  6 C       -1.0910     3.5380     0.2320 C.3   1 <1>   0.1400 
  7 C       -2.0980     1.6670     1.5780 C.3   1 <1>   0.1400 
  8 C        2.3690     0.1480    -1.0350 C.3   1 <1>  -0.2400 
  9 C        3.2760     1.2340     1.0860 C.3   1 <1>  -0.2400 
 10 C        3.2420     2.4860    -1.0730 C.3   1 <1>  -0.2400 
 11 C       -2.3100     3.5320    -0.6920 C.3   1 <1>  -0.1600 
 12 C       -3.3220     1.6600     0.6610 C.3   1 <1>  -0.1600 
 13 C       -3.5570     3.0480     0.0510 C.3   1 <1>   0.2000 
 14 O       -4.6070     2.9760    -0.8890 O.3   1 <1>  -0.3630 
 15 C       -5.9180     2.9040    -0.5400 C.ar  1 <1>   0.0820 
 16 C       -6.3970     3.0680     0.7570 C.ar  1 <1>  -0.1500 
 17 C       -6.8140     2.6520    -1.5650 C.ar  1 <1>  -0.1500 
 18 C       -7.7550     2.9750     1.0120 C.ar  1 <1>  -0.1500 
 19 C       -8.1700     2.5590    -1.3070 C.ar  1 <1>  -0.1500 
 20 C       -8.6500     2.7180    -0.0160 C.ar  1 <1>  -0.1440 
 21 C      -10.1390     2.6150     0.2610 C.3   1 <1>   0.2630 
 22 O      -10.7520     3.7090    -0.3130 O.3   1 <1>  -0.6800 
 23 H       -0.2200     3.8270    -0.3300 H     1 <1>   0.0800 
 24 H       -1.2300     4.2580     1.0200 H     1 <1>   0.0800 
 25 H       -2.2790     2.2960     2.4330 H     1 <1>   0.0800 
 26 H       -1.9120     0.6680     1.9350 H     1 <1>   0.0800 
 27 H        1.9230    -0.6310    -0.4440 H     1 <1>   0.0800 
 28 H        3.3370    -0.1970    -1.3490 H     1 <1>   0.0800 
 29 H        1.7660     0.3180    -1.9090 H     1 <1>   0.0800 
 30 H        2.8300     0.4540     1.6750 H     1 <1>   0.0800 
 31 H        3.2930     2.1430     1.6580 H     1 <1>   0.0800 
 32 H        4.2900     0.9420     0.8780 H     1 <1>   0.0800 
 33 H        2.7060     2.6650    -1.9880 H     1 <1>   0.0800 
 34 H        4.2300     2.1430    -1.3200 H     1 <1>   0.0800 
 35 H        3.3300     3.4110    -0.5310 H     1 <1>   0.0800 
 36 H       -2.1090     2.8830    -1.5270 H     1 <1>   0.0800 
 37 H       -2.4780     4.5260    -1.0650 H     1 <1>   0.0800 
 38 H       -4.1810     1.3510     1.2270 H     1 <1>   0.0800 
 39 H       -3.1590     0.9430    -0.1250 H     1 <1>   0.0800 
 40 H       -3.8130     3.7690     0.8060 H     1 <1>   0.0800 
 41 H       -5.7360     3.2690     1.5760 H     1 <1>   0.1500 
 42 H       -6.4420     2.5280    -2.5660 H     1 <1>   0.1500 
 43 H       -8.1120     3.1040     2.0190 H     1 <1>   0.1500 
 44 H       -8.8550     2.3640    -2.1150 H     1 <1>   0.1500 
 45 H      -10.3440     2.6300     1.3170 H     1 <1>   0.0800 
 46 H      -10.5600     1.7240    -0.1740 H     1 <1>   0.0800 
 47 H      -10.1300     4.4620    -0.2850 H     1 <1>   0.4000 
@<TRIPOS>BOND
  1   1   2  2   
  2   2   3  1   
  3   2   4  am  
  4   3   5  1   
  5   4   6  1   
  6   4   7  1   
  7   5   8  1   
  8   5   9  1   
  9   5  10  1   
 10   6  11  1   
 11   6  23  1   
 12   6  24  1   
 13   7  12  1   
 14   7  25  1   
 15   7  26  1   
 16   8  27  1   
 17   8  28  1   
 18   8  29  1   
 19   9  30  1   
 20   9  31  1   
 21   9  32  1   
 22  10  33  1   
 23  10  34  1   
 24  10  35  1   
 25  11  13  1   
 26  11  36  1   
 27  11  37  1   
 28  12  13  1   
 29  12  38  1   
 30  12  39  1   
 31  13  14  1   
 32  13  40  1   
 33  14  15  1   
 34  15  16  ar  
 35  15  17  ar  
 36  16  18  ar  
 37  16  41  1   
 38  17  19  ar  
 39  17  42  1   
 40  18  20  ar  
 41  18  43  1   
 42  19  20  ar  
 43  19  44  1   
 44  20  21  1   
 45  21  22  1   
 46  21  45  1   
 47  21  46  1   
 48  22  47  1   
@<TRIPOS>SUBSTRUCTURE
  1 ****  13 GROUP 4 **** **** 0

# MOE 2024.06 (io_trps.svl 2023.06)
