@<TRIPOS>MOLECULE
NONAME
41 43 1 0 0 
SMALL
USER_CHARGES


@<TRIPOS>ATOM
  1 CL       1.1250     0.8890    -1.2570 Cl    1 <1>  -0.1770 
  2 C        2.1100    -0.2790    -0.4000 C.ar  1 <1>   0.1770 
  3 C        2.0530    -1.6150    -0.7740 C.ar  1 <1>   0.0830 
  4 C        2.9440     0.1460     0.6230 C.ar  1 <1>  -0.1440 
  5 O        1.2450    -2.0320    -1.7660 O.3   1 <1>  -0.5320 
  6 C        2.8440    -2.5420    -0.1180 C.ar  1 <1>  -0.1500 
  7 C        3.7320    -0.7940     1.2770 C.ar  1 <1>  -0.1500 
  8 C        3.0000     1.6090     1.0160 C.3   1 <1>   0.4860 
  9 C        3.6810    -2.1290     0.9050 C.ar  1 <1>  -0.1500 
 10 N        4.2790     2.1920     0.5330 N.4   1 <1>  -0.9590 
 11 C        4.5970     3.5090     1.1920 C.3   1 <1>   0.3430 
 12 C        4.3950     2.1720    -0.9630 C.3   1 <1>   0.3430 
 13 C        6.0390     4.0400     0.9580 C.3   1 <1>   0.2200 
 14 C        5.8190     2.4120    -1.4780 C.3   1 <1>  -0.0190 
 15 N        6.1720     4.6330    -0.4020 N.am  1 <1>  -0.6600 
 16 C        7.1500     2.9930     1.2170 C.3   1 <1>   0.1200 
 17 C        6.0610     3.8980    -1.5480 C.2   1 <1>   0.5690 
 18 C        6.9640     1.6670    -0.7590 C.3   1 <1>   0.1200 
 19 C        6.4870     6.0950    -0.4480 C.3   1 <1>   0.0600 
 20 O        6.8750     1.7440     0.6370 O.3   1 <1>  -0.5600 
 21 O        6.1140     4.3970    -2.6430 O.2   1 <1>  -0.5700 
 22 H        0.6900    -1.3220    -2.1440 H     1 <1>   0.4500 
 23 H        2.7990    -3.5770    -0.4090 H     1 <1>   0.1500 
 24 H        4.3910    -0.5080     2.0800 H     1 <1>   0.1500 
 25 H        2.9450     1.6810     2.0900 H     1 <1>   0.0800 
 26 H        2.1640     2.1480     0.6000 H     1 <1>   0.0800 
 27 H        4.2930    -2.8560     1.4150 H     1 <1>   0.1500 
 28 H        5.0450     1.5570     0.8380 H     1 <1>   0.4500 
 29 H        3.8980     4.2600     0.8630 H     1 <1>   0.0800 
 30 H        4.4690     3.3930     2.2550 H     1 <1>   0.0800 
 31 H        4.0850     1.2050    -1.3220 H     1 <1>   0.0800 
 32 H        3.7310     2.9050    -1.3950 H     1 <1>   0.0800 
 33 H        6.1950     4.8360     1.6660 H     1 <1>   0.0800 
 34 H        5.8330     2.0690    -2.4980 H     1 <1>   0.0800 
 35 H        7.2360     2.8250     2.2770 H     1 <1>   0.0800 
 36 H        8.1030     3.3470     0.8610 H     1 <1>   0.0800 
 37 H        7.9240     2.0460    -1.0700 H     1 <1>   0.0800 
 38 H        6.9240     0.6210    -1.0150 H     1 <1>   0.0800 
 39 H        5.6940     6.6600     0.0110 H     1 <1>   0.0800 
 40 H        6.5990     6.4360    -1.4640 H     1 <1>   0.0800 
 41 H        7.4090     6.2900     0.0730 H     1 <1>   0.0800 
@<TRIPOS>BOND
  1   1   2  1   
  2   2   3  ar  
  3   2   4  ar  
  4   3   5  1   
  5   3   6  ar  
  6   4   7  ar  
  7   4   8  1   
  8   5  22  1   
  9   6   9  ar  
 10   6  23  1   
 11   7   9  ar  
 12   7  24  1   
 13   8  10  1   
 14   8  25  1   
 15   8  26  1   
 16   9  27  1   
 17  10  11  1   
 18  10  12  1   
 19  10  28  1   
 20  11  13  1   
 21  11  29  1   
 22  11  30  1   
 23  12  14  1   
 24  12  31  1   
 25  12  32  1   
 26  13  15  1   
 27  13  16  1   
 28  13  33  1   
 29  14  17  1   
 30  14  18  1   
 31  14  34  1   
 32  15  17  am  
 33  15  19  1   
 34  16  20  1   
 35  16  35  1   
 36  16  36  1   
 37  17  21  2   
 38  18  20  1   
 39  18  37  1   
 40  18  38  1   
 41  19  39  1   
 42  19  40  1   
 43  19  41  1   
@<TRIPOS>SUBSTRUCTURE
  1 ****  12 GROUP 4 **** **** 0

# MOE 2024.06 (io_trps.svl 2023.06)
