@<TRIPOS>MOLECULE
NONAME
49 51 1 0 0 
SMALL
USER_CHARGES


@<TRIPOS>ATOM
  1 S        2.1490    -0.8150    -0.5120 S.3   1 <1>  -0.4600 
  2 C        0.5740    -0.1630    -1.1470 C.3   1 <1>   0.2140 
  3 C        3.3790    -0.2690    -1.7510 C.3   1 <1>   0.1310 
  4 C       -0.4860    -0.3870    -0.0830 C.ar  1 <1>  -0.1440 
  5 C        3.2510     1.2140    -2.0950 C.2   1 <1>   0.5690 
  6 C       -0.7040     0.5820     0.8810 C.ar  1 <1>  -0.1500 
  7 C       -1.2440    -1.5470    -0.0660 C.ar  1 <1>  -0.1500 
  8 O        3.0490     1.4790    -3.2590 O.2   1 <1>  -0.5700 
  9 N        3.3600     2.1950    -1.1380 N.am  1 <1>  -0.5090 
 10 C       -1.6760     0.4070     1.8520 C.ar  1 <1>  -0.1430 
 11 C       -2.2170    -1.7360     0.9010 C.ar  1 <1>  -0.1430 
 12 C        3.7970     1.9420     0.2540 C.3   1 <1>   0.0490 
 13 C        2.8220     3.5590    -1.4200 C.3   1 <1>   0.3200 
 14 C       -2.4310    -0.7540     1.8550 C.ar  1 <1>  -0.1500 
 15 C       -1.9110     1.4810     2.8960 C.3   1 <1>  -0.0970 
 16 C       -3.0440    -3.0090     0.9120 C.3   1 <1>  -0.0970 
 17 C        4.9060     2.7660     0.8350 C.3   1 <1>  -0.2000 
 18 C        5.1470     1.3350     0.4870 C.3   1 <1>  -0.2000 
 19 C        1.4420     3.7590    -0.8000 C.2   1 <1>   0.0070 
 20 N        0.3450     3.4910    -1.4380 N.2   1 <1>  -0.5650 
 21 N        1.2280     4.2480     0.4500 N.pl3 1 <1>   0.0480 
 22 C       -0.6290     3.8110    -0.5700 C.2   1 <1>   0.0770 
 23 C       -0.1100     4.2750     0.5850 C.2   1 <1>  -0.3020 
 24 C        2.1850     4.6870     1.4820 C.3   1 <1>   0.0160 
 25 H        0.3460    -0.6870    -2.0570 H     1 <1>   0.0800 
 26 H        0.7010     0.8840    -1.3500 H     1 <1>   0.0800 
 27 H        3.2090    -0.8620    -2.6310 H     1 <1>   0.0800 
 28 H        4.3510    -0.4930    -1.3580 H     1 <1>   0.0800 
 29 H       -0.1090     1.4770     0.8700 H     1 <1>   0.1500 
 30 H       -1.0710    -2.3050    -0.8090 H     1 <1>   0.1500 
 31 H        2.9840     1.6370     0.8930 H     1 <1>   0.1000 
 32 H        2.7330     3.7060    -2.4820 H     1 <1>   0.0800 
 33 H        3.5080     4.3010    -1.0570 H     1 <1>   0.0800 
 34 H       -3.1900    -0.8950     2.6040 H     1 <1>   0.1500 
 35 H       -1.0060     2.0320     3.0770 H     1 <1>   0.0800 
 36 H       -2.2320     1.0390     3.8220 H     1 <1>   0.0800 
 37 H       -2.6700     2.1600     2.5510 H     1 <1>   0.0800 
 38 H       -2.4690    -3.8320     0.5290 H     1 <1>   0.0800 
 39 H       -3.9180    -2.8780     0.3000 H     1 <1>   0.0800 
 40 H       -3.3520    -3.2470     1.9140 H     1 <1>   0.0800 
 41 H        4.8900     3.0200     1.8800 H     1 <1>   0.1000 
 42 H        5.3940     3.5130     0.2320 H     1 <1>   0.1000 
 43 H        5.7920     1.1250    -0.3480 H     1 <1>   0.1000 
 44 H        5.2550     0.6230     1.2860 H     1 <1>   0.1000 
 45 H       -1.6690     3.6860    -0.8270 H     1 <1>   0.1500 
 46 H       -0.6130     4.6130     1.4720 H     1 <1>   0.1500 
 47 H        3.0730     5.0750     1.0190 H     1 <1>   0.0800 
 48 H        2.4340     3.8520     2.1100 H     1 <1>   0.0800 
 49 H        1.7340     5.4590     2.0790 H     1 <1>   0.0800 
@<TRIPOS>BOND
  1   1   2  1   
  2   1   3  1   
  3   2   4  1   
  4   2  25  1   
  5   2  26  1   
  6   3   5  1   
  7   3  27  1   
  8   3  28  1   
  9   4   6  ar  
 10   4   7  ar  
 11   5   8  2   
 12   5   9  am  
 13   6  10  ar  
 14   6  29  1   
 15   7  11  ar  
 16   7  30  1   
 17   9  12  1   
 18   9  13  1   
 19  10  14  ar  
 20  10  15  1   
 21  11  14  ar  
 22  11  16  1   
 23  12  17  1   
 24  12  18  1   
 25  12  31  1   
 26  13  19  1   
 27  13  32  1   
 28  13  33  1   
 29  14  34  1   
 30  15  35  1   
 31  15  36  1   
 32  15  37  1   
 33  16  38  1   
 34  16  39  1   
 35  16  40  1   
 36  17  18  1   
 37  17  41  1   
 38  17  42  1   
 39  18  43  1   
 40  18  44  1   
 41  19  20  2   
 42  19  21  1   
 43  20  22  1   
 44  21  23  1   
 45  21  24  1   
 46  22  23  2   
 47  22  45  1   
 48  23  46  1   
 49  24  47  1   
 50  24  48  1   
 51  24  49  1   
@<TRIPOS>SUBSTRUCTURE
  1 ****   2 GROUP 4 **** **** 0

# MOE 2024.06 (io_trps.svl 2023.06)
