@<TRIPOS>MOLECULE
NONAME
46 48 1 0 0 
SMALL
USER_CHARGES


@<TRIPOS>ATOM
  1 F       -1.7060    -0.0040    -1.1410 F     1 <1>  -0.1900 
  2 C       -2.3300     0.5910    -0.1590 C.ar  1 <1>   0.1900 
  3 C       -3.6710     0.3180     0.0730 C.ar  1 <1>  -0.1440 
  4 C       -1.6000     1.4800     0.6060 C.ar  1 <1>  -0.1500 
  5 C       -4.3110     0.9840     1.1250 C.ar  1 <1>   0.0860 
  6 C       -4.4480    -0.6790    -0.7860 C.3   1 <1>  -0.0960 
  7 C       -2.2310     2.1300     1.6500 C.ar  1 <1>  -0.1500 
  8 C       -5.7160     0.7850     1.4240 C.2   1 <1>   0.5440 
  9 C       -3.5700     1.8790     1.8990 C.ar  1 <1>  -0.1500 
 10 O       -6.0480    -0.1720     2.0980 O.2   1 <1>  -0.5700 
 11 N       -6.6780     1.6570     0.9580 N.am  1 <1>  -0.6600 
 12 C       -8.1290     1.4900     1.2840 C.3   1 <1>   0.1400 
 13 C       -6.4020     2.7890     0.0330 C.3   1 <1>   0.1400 
 14 C       -8.9590     1.2540    -0.0030 C.3   1 <1>   0.0000 
 15 C       -7.1870     2.5930    -1.2690 C.3   1 <1>  -0.1600 
 16 C      -10.4590     1.1240     0.3150 C.3   1 <1>   0.2000 
 17 C       -8.6910     2.3980    -1.0060 C.3   1 <1>  -0.1600 
 18 C       -8.6470    -0.1320    -0.5940 C.3   1 <1>  -0.1600 
 19 O      -10.8600     2.0480     1.2830 O.3   1 <1>  -0.5600 
 20 C      -10.6580    -0.3170     0.7970 C.3   1 <1>  -0.1600 
 21 C       -9.4880    -1.1230     0.2160 C.3   1 <1>  -0.1600 
 22 C      -12.2380     2.2030     1.4120 C.3   1 <1>   0.0400 
 23 H       -0.5620     1.6550     0.3870 H     1 <1>   0.1500 
 24 H       -4.9490    -1.3950    -0.1570 H     1 <1>   0.0800 
 25 H       -3.8050    -1.2220    -1.4530 H     1 <1>   0.0800 
 26 H       -5.1850    -0.1610    -1.3710 H     1 <1>   0.0800 
 27 H       -1.6850     2.8250     2.2660 H     1 <1>   0.1500 
 28 H       -4.0620     2.3820     2.7140 H     1 <1>   0.1500 
 29 H       -8.2730     0.6770     1.9730 H     1 <1>   0.0800 
 30 H       -8.4680     2.3860     1.7740 H     1 <1>   0.0800 
 31 H       -6.7080     3.7060     0.5070 H     1 <1>   0.0800 
 32 H       -5.3520     2.8640    -0.1900 H     1 <1>   0.0800 
 33 H       -7.0430     3.4530    -1.8990 H     1 <1>   0.0800 
 34 H       -6.7930     1.7400    -1.7900 H     1 <1>   0.0800 
 35 H      -11.0250     1.2900    -0.5860 H     1 <1>   0.0800 
 36 H       -9.1980     2.2060    -1.9350 H     1 <1>   0.0800 
 37 H       -9.0920     3.3110    -0.5990 H     1 <1>   0.0800 
 38 H       -8.9630    -0.1680    -1.6220 H     1 <1>   0.0800 
 39 H       -7.6010    -0.3780    -0.5490 H     1 <1>   0.0800 
 40 H      -10.6210    -0.3580     1.8720 H     1 <1>   0.0800 
 41 H      -11.5990    -0.7040     0.4510 H     1 <1>   0.0800 
 42 H       -8.8940    -1.5250     1.0200 H     1 <1>   0.0800 
 43 H       -9.8300    -1.9350    -0.4020 H     1 <1>   0.0800 
 44 H      -12.4200     2.9490     2.1650 H     1 <1>   0.0800 
 45 H      -12.6780     1.2690     1.7170 H     1 <1>   0.0800 
 46 H      -12.6490     2.5280     0.4730 H     1 <1>   0.0800 
@<TRIPOS>BOND
  1   1   2  1   
  2   2   3  ar  
  3   2   4  ar  
  4   3   5  ar  
  5   3   6  1   
  6   4   7  ar  
  7   4  23  1   
  8   5   8  1   
  9   5   9  ar  
 10   6  24  1   
 11   6  25  1   
 12   6  26  1   
 13   7   9  ar  
 14   7  27  1   
 15   8  10  2   
 16   8  11  am  
 17   9  28  1   
 18  11  12  1   
 19  11  13  1   
 20  12  14  1   
 21  12  29  1   
 22  12  30  1   
 23  13  15  1   
 24  13  31  1   
 25  13  32  1   
 26  14  16  1   
 27  14  17  1   
 28  14  18  1   
 29  15  17  1   
 30  15  33  1   
 31  15  34  1   
 32  16  19  1   
 33  16  20  1   
 34  16  35  1   
 35  17  36  1   
 36  17  37  1   
 37  18  21  1   
 38  18  38  1   
 39  18  39  1   
 40  19  22  1   
 41  20  21  1   
 42  20  40  1   
 43  20  41  1   
 44  21  42  1   
 45  21  43  1   
 46  22  44  1   
 47  22  45  1   
 48  22  46  1   
@<TRIPOS>SUBSTRUCTURE
  1 ****  11 GROUP 4 **** **** 0

# MOE 2024.06 (io_trps.svl 2023.06)
