@<TRIPOS>MOLECULE
NONAME
45 47 1 0 0 
SMALL
USER_CHARGES


@<TRIPOS>ATOM
  1 CL       0.9280     0.4950    -1.3790 Cl    1 <1>  -0.1770 
  2 C        0.4820     1.8310    -0.3410 C.ar  1 <1>   0.1770 
  3 C        1.4210     2.4870     0.4510 C.ar  1 <1>  -0.1440 
  4 C       -0.8490     2.2090    -0.3440 C.ar  1 <1>  -0.1500 
  5 C        0.9850     3.5440     1.2410 C.ar  1 <1>  -0.1500 
  6 C        2.8990     2.1080     0.4860 C.3   1 <1>   0.3640 
  7 C       -1.2650     3.2610     0.4500 C.ar  1 <1>  -0.1500 
  8 C       -0.3460     3.9270     1.2410 C.ar  1 <1>  -0.1500 
  9 N        3.0460     0.7030     0.9310 N.am  1 <1>  -0.7300 
 10 C        3.6230     2.3940    -0.8550 C.3   1 <1>   0.2610 
 11 C        3.8540    -0.1910     0.3180 C.2   1 <1>   0.5690 
 12 O        4.8210     1.6390    -0.9850 O.3   1 <1>  -0.5600 
 13 C        3.8650     3.9040    -0.9870 C.2   1 <1>   0.5690 
 14 O        3.9640    -1.3130     0.7420 O.2   1 <1>  -0.5700 
 15 C        4.6250     0.2420    -0.9330 C.3   1 <1>   0.1810 
 16 O        3.1710     4.4900    -1.7860 O.2   1 <1>  -0.5700 
 17 N        4.7910     4.5870    -0.2270 N.am  1 <1>  -0.6600 
 18 C        5.8010     3.9860     0.7000 C.3   1 <1>   0.1400 
 19 C        5.0690     6.0380    -0.4660 C.3   1 <1>   0.1400 
 20 C        7.2270     4.2780     0.1950 C.3   1 <1>   0.2000 
 21 C        6.5360     6.2430    -0.8940 C.3   1 <1>   0.2000 
 22 O        7.4010     5.6550     0.0350 O.3   1 <1>  -0.5600 
 23 C        8.2930     3.8060     1.1800 C.3   1 <1>  -0.2400 
 24 C        6.9090     7.7200    -0.9750 C.3   1 <1>  -0.2400 
 25 H       -1.5500     1.6830    -0.9670 H     1 <1>   0.1500 
 26 H        1.6770     4.0860     1.8640 H     1 <1>   0.1500 
 27 H        3.3710     2.7150     1.2380 H     1 <1>   0.0800 
 28 H       -2.2990     3.5620     0.4520 H     1 <1>   0.1500 
 29 H       -0.6680     4.7500     1.8580 H     1 <1>   0.1500 
 30 H        2.4840     0.3890     1.7240 H     1 <1>   0.3700 
 31 H        2.9890     2.1080    -1.6730 H     1 <1>   0.0800 
 32 H        4.0850    -0.0610    -1.8110 H     1 <1>   0.0800 
 33 H        5.5910    -0.2270    -0.9380 H     1 <1>   0.0800 
 34 H        5.6820     4.4210     1.6770 H     1 <1>   0.0800 
 35 H        5.6730     2.9260     0.8010 H     1 <1>   0.0800 
 36 H        4.4210     6.4340    -1.2290 H     1 <1>   0.0800 
 37 H        4.8810     6.5880     0.4400 H     1 <1>   0.0800 
 38 H        7.3810     3.8020    -0.7590 H     1 <1>   0.0800 
 39 H        6.7020     5.7780    -1.8510 H     1 <1>   0.0800 
 40 H        8.1730     4.2990     2.1280 H     1 <1>   0.0800 
 41 H        9.2700     4.0250     0.7890 H     1 <1>   0.0800 
 42 H        8.2160     2.7440     1.3270 H     1 <1>   0.0800 
 43 H        6.7810     8.1910    -0.0170 H     1 <1>   0.0800 
 44 H        6.2850     8.2190    -1.6940 H     1 <1>   0.0800 
 45 H        7.9340     7.8200    -1.2850 H     1 <1>   0.0800 
@<TRIPOS>BOND
  1   1   2  1   
  2   2   3  ar  
  3   2   4  ar  
  4   3   5  ar  
  5   3   6  1   
  6   4   7  ar  
  7   4  25  1   
  8   5   8  ar  
  9   5  26  1   
 10   6   9  1   
 11   6  10  1   
 12   6  27  1   
 13   7   8  ar  
 14   7  28  1   
 15   8  29  1   
 16   9  11  am  
 17   9  30  1   
 18  10  12  1   
 19  10  13  1   
 20  10  31  1   
 21  11  14  2   
 22  11  15  1   
 23  12  15  1   
 24  13  16  2   
 25  13  17  am  
 26  15  32  1   
 27  15  33  1   
 28  17  18  1   
 29  17  19  1   
 30  18  20  1   
 31  18  34  1   
 32  18  35  1   
 33  19  21  1   
 34  19  36  1   
 35  19  37  1   
 36  20  22  1   
 37  20  23  1   
 38  20  38  1   
 39  21  22  1   
 40  21  24  1   
 41  21  39  1   
 42  23  40  1   
 43  23  41  1   
 44  23  42  1   
 45  24  43  1   
 46  24  44  1   
 47  24  45  1   
@<TRIPOS>SUBSTRUCTURE
  1 ****  10 GROUP 4 **** **** 0

# MOE 2024.06 (io_trps.svl 2023.06)
