@<TRIPOS>MOLECULE
NONAME
54 56 1 0 0 
SMALL
USER_CHARGES


@<TRIPOS>ATOM
  1 O       -4.5870     3.6820    -0.2790 O.2   1 <1>  -0.5700 
  2 C       -3.4910     3.5520    -0.7650 C.2   1 <1>   0.5690 
  3 N       -3.2230     2.5910    -1.6840 N.am  1 <1>  -0.7300 
  4 C       -2.3470     4.4440    -0.3140 C.3   1 <1>   0.0440 
  5 C       -4.0680     1.4260    -2.0160 C.3   1 <1>   0.2200 
  6 C       -1.1490     3.5810     0.0730 C.ar  1 <1>  -0.1440 
  7 C       -3.4610     0.1480    -1.4410 C.3   1 <1>  -0.0800 
  8 C       -3.9240     1.1490    -3.5060 C.3   1 <1>   0.1200 
  9 C       -0.2370     3.1690    -0.8890 C.ar  1 <1>  -0.1500 
 10 C       -1.0070     3.1440     1.3800 C.ar  1 <1>  -0.1500 
 11 C       -2.4130    -0.2400    -2.4910 C.3   1 <1>   0.1200 
 12 C       -2.9000     0.2510    -0.0090 C.3   1 <1>  -0.0160 
 13 O       -2.6850     0.5180    -3.6350 O.3   1 <1>  -0.5600 
 14 C        0.7890     2.2860    -0.5630 C.ar  1 <1>   0.0830 
 15 C        0.0120     2.2730     1.7230 C.ar  1 <1>   0.0830 
 16 C       -2.2970    -1.0620     0.4610 C.ar  1 <1>  -0.1430 
 17 O        1.6720     1.8190    -1.4910 O.3   1 <1>  -0.3630 
 18 C        0.9180     1.8410     0.7530 C.ar  1 <1>   0.0830 
 19 O        0.0790     1.8650     3.0140 O.3   1 <1>  -0.3630 
 20 C       -0.9390    -1.3030     0.3910 C.ar  1 <1>  -0.1500 
 21 C       -3.0700    -2.0750     0.9910 C.ar  1 <1>  -0.1500 
 22 C        1.4200     1.9410    -2.8740 C.3   1 <1>   0.0400 
 23 O        1.9120     0.9690     1.0700 O.3   1 <1>  -0.3630 
 24 C       -0.2490     0.5140     3.2630 C.3   1 <1>   0.0400 
 25 C       -0.4330    -2.5090     0.8440 C.ar  1 <1>   0.1600 
 26 C       -2.4630    -3.2460     1.4150 C.ar  1 <1>   0.1600 
 27 C        3.0400     1.5490     1.6800 C.3   1 <1>   0.0400 
 28 N       -1.1630    -3.4870     1.3560 N.ar  1 <1>  -0.6200 
 29 H       -2.2670     2.4880    -2.0310 H     1 <1>   0.3700 
 30 H       -2.0880     5.1160    -1.1110 H     1 <1>   0.0800 
 31 H       -2.6680     5.0320     0.5270 H     1 <1>   0.0800 
 32 H       -5.0890     1.5910    -1.7150 H     1 <1>   0.0800 
 33 H       -4.2210    -0.6140    -1.4480 H     1 <1>   0.0800 
 34 H       -3.9420     2.0450    -4.1010 H     1 <1>   0.0800 
 35 H       -4.6830     0.4650    -3.8450 H     1 <1>   0.0800 
 36 H       -0.3400     3.5340    -1.8930 H     1 <1>   0.1500 
 37 H       -1.6980     3.4560     2.1440 H     1 <1>   0.1500 
 38 H       -2.4680    -1.2860    -2.7410 H     1 <1>   0.0800 
 39 H       -1.4150     0.0030    -2.1690 H     1 <1>   0.0800 
 40 H       -3.6840     0.5520     0.6650 H     1 <1>   0.0800 
 41 H       -2.1340     1.0000     0.0360 H     1 <1>   0.0800 
 42 H       -0.2640    -0.5660    -0.0060 H     1 <1>   0.1500 
 43 H       -4.1350    -1.9640     1.0800 H     1 <1>   0.1500 
 44 H        2.1770     1.3870    -3.4000 H     1 <1>   0.0800 
 45 H        1.4730     2.9780    -3.1510 H     1 <1>   0.0800 
 46 H        0.4500     1.5290    -3.0930 H     1 <1>   0.0800 
 47 H       -0.2490     0.3590     4.3270 H     1 <1>   0.0800 
 48 H        0.4830    -0.1230     2.8020 H     1 <1>   0.0800 
 49 H       -1.2260     0.3120     2.8620 H     1 <1>   0.0800 
 50 H        0.6300    -2.6730     0.7830 H     1 <1>   0.1500 
 51 H       -3.0810    -4.0260     1.8270 H     1 <1>   0.1500 
 52 H        3.7590     0.7730     1.8670 H     1 <1>   0.0800 
 53 H        2.7400     2.0090     2.6050 H     1 <1>   0.0800 
 54 H        3.4540     2.2830     1.0110 H     1 <1>   0.0800 
@<TRIPOS>BOND
  1   1   2  2   
  2   2   3  am  
  3   2   4  1   
  4   3   5  1   
  5   3  29  1   
  6   4   6  1   
  7   4  30  1   
  8   4  31  1   
  9   5   7  1   
 10   5   8  1   
 11   5  32  1   
 12   6   9  ar  
 13   6  10  ar  
 14   7  11  1   
 15   7  12  1   
 16   7  33  1   
 17   8  13  1   
 18   8  34  1   
 19   8  35  1   
 20   9  14  ar  
 21   9  36  1   
 22  10  15  ar  
 23  10  37  1   
 24  11  13  1   
 25  11  38  1   
 26  11  39  1   
 27  12  16  1   
 28  12  40  1   
 29  12  41  1   
 30  14  17  1   
 31  14  18  ar  
 32  15  18  ar  
 33  15  19  1   
 34  16  20  ar  
 35  16  21  ar  
 36  17  22  1   
 37  18  23  1   
 38  19  24  1   
 39  20  25  ar  
 40  20  42  1   
 41  21  26  ar  
 42  21  43  1   
 43  22  44  1   
 44  22  45  1   
 45  22  46  1   
 46  23  27  1   
 47  24  47  1   
 48  24  48  1   
 49  24  49  1   
 50  25  28  ar  
 51  25  50  1   
 52  26  28  ar  
 53  26  51  1   
 54  27  52  1   
 55  27  53  1   
 56  27  54  1   
@<TRIPOS>SUBSTRUCTURE
  1 ****  12 GROUP 4 **** **** 0

# MOE 2024.06 (io_trps.svl 2023.06)
