@<TRIPOS>MOLECULE
NONAME
51 53 1 0 0 
SMALL
USER_CHARGES


@<TRIPOS>ATOM
  1 F       -2.8660    -1.1650     2.2520 F     1 <1>  -0.1900 
  2 C       -2.4200    -1.6590     1.1240 C.ar  1 <1>   0.1900 
  3 C       -1.7040    -0.8770     0.2120 C.ar  1 <1>   0.0820 
  4 C       -2.6970    -2.9930     0.8880 C.ar  1 <1>  -0.1500 
  5 O       -1.3770     0.4410     0.3300 O.3   1 <1>  -0.3630 
  6 C       -1.2680    -1.4910    -0.9530 C.ar  1 <1>  -0.1500 
  7 C       -2.2530    -3.5880    -0.2860 C.ar  1 <1>  -0.1430 
  8 C       -1.7500     1.2280     1.4400 C.3   1 <1>   0.0400 
  9 C       -1.5370    -2.8280    -1.2010 C.ar  1 <1>  -0.1500 
 10 C       -2.5480    -5.0510    -0.5780 C.3   1 <1>   0.4870 
 11 N       -4.0050    -5.2760    -0.5830 N.4   1 <1>  -0.9590 
 12 C       -4.4070    -6.7230    -0.7130 C.3   1 <1>   0.3430 
 13 C       -4.8060    -4.3790    -1.4520 C.3   1 <1>   0.3430 
 14 C       -5.9290    -6.9020    -0.9610 C.3   1 <1>   0.2000 
 15 C       -6.2770    -4.4040    -0.9960 C.3   1 <1>  -0.1600 
 16 O       -6.1540    -6.9230    -2.3400 O.3   1 <1>  -0.6800 
 17 C       -6.7170    -5.7420    -0.3120 C.3   1 <1>  -0.1060 
 18 C       -6.2940    -5.8130     1.1630 C.2   1 <1>   0.9060 
 19 C       -8.2510    -5.9460    -0.4270 C.3   1 <1>  -0.0170 
 20 O       -6.5540    -6.8410     1.7870 O.co2 1 <1>  -0.9000 
 21 O       -5.4990    -4.9740     1.6130 O.co2 1 <1>  -0.9000 
 22 C       -9.0550    -4.7520     0.0750 C.ar  1 <1>  -0.1430 
 23 C       -9.2140    -4.5390     1.4350 C.ar  1 <1>  -0.1500 
 24 C       -9.6390    -3.8670    -0.8210 C.ar  1 <1>  -0.1500 
 25 C       -9.9380    -3.4530     1.8960 C.ar  1 <1>  -0.1500 
 26 C      -10.3660    -2.7820    -0.3620 C.ar  1 <1>  -0.1500 
 27 C      -10.5150    -2.5730     0.9970 C.ar  1 <1>  -0.1500 
 28 H       -3.2620    -3.5460     1.6240 H     1 <1>   0.1500 
 29 H       -0.7130    -0.9080    -1.6670 H     1 <1>   0.1500 
 30 H       -1.3820     2.2260     1.2800 H     1 <1>   0.0800 
 31 H       -1.3050     0.8150     2.3280 H     1 <1>   0.0800 
 32 H       -2.8230     1.2430     1.5150 H     1 <1>   0.0800 
 33 H       -1.1790    -3.2650    -2.1180 H     1 <1>   0.1500 
 34 H       -2.0910    -5.6620     0.1840 H     1 <1>   0.0800 
 35 H       -2.1340    -5.3240    -1.5330 H     1 <1>   0.0800 
 36 H       -4.3410    -5.0100     0.3800 H     1 <1>   0.4500 
 37 H       -3.8680    -7.1990    -1.5130 H     1 <1>   0.0800 
 38 H       -4.1620    -7.2240     0.2100 H     1 <1>   0.0800 
 39 H       -4.4380    -3.3670    -1.4040 H     1 <1>   0.0800 
 40 H       -4.7420    -4.7230    -2.4710 H     1 <1>   0.0800 
 41 H       -6.2440    -7.8530    -0.5650 H     1 <1>   0.0800 
 42 H       -6.4510    -3.5830    -0.3200 H     1 <1>   0.0800 
 43 H       -6.8810    -4.2190    -1.8640 H     1 <1>   0.0800 
 44 H       -7.0900    -7.1440    -2.5180 H     1 <1>   0.4000 
 45 H       -8.5210    -6.1290    -1.4500 H     1 <1>   0.0800 
 46 H       -8.5430    -6.8180     0.1350 H     1 <1>   0.0800 
 47 H       -8.7690    -5.2170     2.1460 H     1 <1>   0.1500 
 48 H       -9.5320    -4.0180    -1.8800 H     1 <1>   0.1500 
 49 H      -10.0480    -3.2980     2.9540 H     1 <1>   0.1500 
 50 H      -10.8150    -2.1000    -1.0620 H     1 <1>   0.1500 
 51 H      -11.0760    -1.7300     1.3570 H     1 <1>   0.1500 
@<TRIPOS>BOND
  1   1   2  1   
  2   2   3  ar  
  3   2   4  ar  
  4   3   5  1   
  5   3   6  ar  
  6   4   7  ar  
  7   4  28  1   
  8   5   8  1   
  9   6   9  ar  
 10   6  29  1   
 11   7   9  ar  
 12   7  10  1   
 13   8  30  1   
 14   8  31  1   
 15   8  32  1   
 16   9  33  1   
 17  10  11  1   
 18  10  34  1   
 19  10  35  1   
 20  11  12  1   
 21  11  13  1   
 22  11  36  1   
 23  12  14  1   
 24  12  37  1   
 25  12  38  1   
 26  13  15  1   
 27  13  39  1   
 28  13  40  1   
 29  14  16  1   
 30  14  17  1   
 31  14  41  1   
 32  15  17  1   
 33  15  42  1   
 34  15  43  1   
 35  16  44  1   
 36  17  18  1   
 37  17  19  1   
 38  18  20  ar  
 39  18  21  ar  
 40  19  22  1   
 41  19  45  1   
 42  19  46  1   
 43  22  23  ar  
 44  22  24  ar  
 45  23  25  ar  
 46  23  47  1   
 47  24  26  ar  
 48  24  48  1   
 49  25  27  ar  
 50  25  49  1   
 51  26  27  ar  
 52  26  50  1   
 53  27  51  1   
@<TRIPOS>SUBSTRUCTURE
  1 ****  15 GROUP 4 **** **** 0

# MOE 2024.06 (io_trps.svl 2023.06)
