@<TRIPOS>MOLECULE
NONAME
44 46 1 0 0 
SMALL
USER_CHARGES


@<TRIPOS>ATOM
  1 N       -0.6910    -0.0600     0.1650 N.ar  1 <1>  -0.6200 
  2 C        0.5050     0.4260    -0.1040 C.ar  1 <1>   0.7710 
  3 C       -1.6920     0.7700     0.3540 C.ar  1 <1>   0.4100 
  4 N        0.7170     1.7490    -0.1850 N.ar  1 <1>  -0.1790 
  5 N        1.5390    -0.4380    -0.3060 N.pl3 1 <1>  -0.8380 
  6 N       -2.8900     0.2070     0.6360 N.pl3 1 <1>  -0.8690 
  7 C       -1.5250     2.1710     0.2660 C.ar  1 <1>  -0.1430 
  8 C       -0.2780     2.6490     0.0010 C.ar  1 <1>   0.2170 
  9 C        1.2890    -1.9230    -0.3410 C.3   1 <1>   0.1290 
 10 C        2.9920    -0.1060    -0.4350 C.3   1 <1>   0.1290 
 11 C       -3.1010    -1.2560     0.8650 C.3   1 <1>   0.2090 
 12 C       -2.7170     3.1070     0.4760 C.3   1 <1>  -0.0170 
 13 C        0.0560     4.1340    -0.1070 C.3   1 <1>  -0.0170 
 14 C       -3.1500    -2.0080    -0.4660 C.3   1 <1>   0.0960 
 15 C       -2.4330     4.5390     0.0000 C.3   1 <1>  -0.1600 
 16 C       -1.0570     5.0180     0.4730 C.3   1 <1>  -0.1600 
 17 N       -2.9740    -3.4460    -0.2240 N.pl3 1 <1>   0.3140 
 18 N       -1.7560    -3.9900    -0.0280 N.2   1 <1>  -0.7070 
 19 C       -3.9430    -4.3800    -0.1520 C.2   1 <1>  -0.3020 
 20 C       -1.9840    -5.2540     0.1610 C.2   1 <1>   0.1390 
 21 C       -3.3370    -5.5600     0.0950 C.2   1 <1>  -0.1500 
 22 H        1.6620     2.0190    -0.4150 H     1 <1>   0.4570 
 23 H       -3.7090     0.7940     0.8140 H     1 <1>   0.4000 
 24 H        0.3140    -2.1490    -0.7430 H     1 <1>   0.0800 
 25 H        1.3450    -2.3280     0.6550 H     1 <1>   0.0800 
 26 H        2.0180    -2.4160    -0.9600 H     1 <1>   0.0800 
 27 H        3.2060     0.9010    -0.1270 H     1 <1>   0.0800 
 28 H        3.3070    -0.2410    -1.4560 H     1 <1>   0.0800 
 29 H        3.5700    -0.7700     0.1880 H     1 <1>   0.0800 
 30 H       -4.0150    -1.4100     1.4110 H     1 <1>   0.0800 
 31 H       -2.2850    -1.6370     1.4590 H     1 <1>   0.0800 
 32 H       -2.9610     3.1230     1.5250 H     1 <1>   0.0800 
 33 H       -3.5770     2.7380    -0.0580 H     1 <1>   0.0800 
 34 H        0.1950     4.3830    -1.1450 H     1 <1>   0.0800 
 35 H        0.9720     4.3500     0.4150 H     1 <1>   0.0800 
 36 H       -2.3480    -1.6870    -1.1040 H     1 <1>   0.0800 
 37 H       -4.0870    -1.8420    -0.9600 H     1 <1>   0.0800 
 38 H       -3.1980     5.1980     0.3750 H     1 <1>   0.0800 
 39 H       -2.4740     4.5740    -1.0760 H     1 <1>   0.0800 
 40 H       -0.9020     6.0400     0.1720 H     1 <1>   0.0800 
 41 H       -1.0230     4.9850     1.5500 H     1 <1>   0.0800 
 42 H       -4.9870    -4.1610    -0.2790 H     1 <1>   0.1500 
 43 H       -1.2060    -5.9760     0.3470 H     1 <1>   0.1500 
 44 H       -3.7740    -6.5350     0.2180 H     1 <1>   0.1500 
@<TRIPOS>BOND
  1   1   2  ar  
  2   1   3  ar  
  3   2   4  ar  
  4   2   5  1   
  5   3   6  1   
  6   3   7  ar  
  7   4   8  ar  
  8   4  22  1   
  9   5   9  1   
 10   5  10  1   
 11   6  11  1   
 12   6  23  1   
 13   7   8  ar  
 14   7  12  1   
 15   8  13  1   
 16   9  24  1   
 17   9  25  1   
 18   9  26  1   
 19  10  27  1   
 20  10  28  1   
 21  10  29  1   
 22  11  14  1   
 23  11  30  1   
 24  11  31  1   
 25  12  15  1   
 26  12  32  1   
 27  12  33  1   
 28  13  16  1   
 29  13  34  1   
 30  13  35  1   
 31  14  17  1   
 32  14  36  1   
 33  14  37  1   
 34  15  16  1   
 35  15  38  1   
 36  15  39  1   
 37  16  40  1   
 38  16  41  1   
 39  17  18  1   
 40  17  19  1   
 41  18  20  2   
 42  19  21  2   
 43  19  42  1   
 44  20  21  1   
 45  20  43  1   
 46  21  44  1   
@<TRIPOS>SUBSTRUCTURE
  1 ****   1 GROUP 4 **** **** 0

# MOE 2024.06 (io_trps.svl 2023.06)
