@<TRIPOS>MOLECULE
NONAME
49 51 1 0 0 
SMALL
USER_CHARGES


@<TRIPOS>ATOM
  1 O       -1.8960     0.6490    -1.8120 O.2   1 <1>  -0.5700 
  2 C       -1.6830     0.4760    -0.6390 C.2   1 <1>   0.5690 
  3 N       -1.7570    -0.7450    -0.0660 N.am  1 <1>  -0.7300 
  4 C       -1.3280     1.6680     0.2180 C.3   1 <1>  -0.0990 
  5 C       -2.0210    -2.0120    -0.7940 C.3   1 <1>   0.2200 
  6 C       -0.8690     2.8130    -0.6870 C.3   1 <1>   0.3430 
  7 C       -3.4130    -2.5510    -0.4830 C.3   1 <1>  -0.0800 
  8 C       -1.1620    -3.1060    -0.1760 C.3   1 <1>   0.1200 
  9 N       -0.4480     4.0170     0.0930 N.4   1 <1>  -0.9590 
 10 C       -3.2020    -3.3320     0.8220 C.3   1 <1>   0.1200 
 11 C       -4.5440    -1.5090    -0.4240 C.3   1 <1>  -0.0170 
 12 O       -1.8190    -3.4330     1.0080 O.3   1 <1>  -0.5600 
 13 C       -1.6080     4.7000     0.7740 C.3   1 <1>   0.3430 
 14 C        0.2550     4.9930    -0.8130 C.3   1 <1>   0.3430 
 15 C       -5.8920    -2.1840    -0.2240 C.ar  1 <1>  -0.1430 
 16 C       -1.1770     6.0220     1.4390 C.3   1 <1>   0.1200 
 17 C        0.6060     6.3010    -0.0790 C.3   1 <1>   0.1200 
 18 C       -6.4880    -2.2860     1.0170 C.ar  1 <1>  -0.1500 
 19 C       -6.5900    -2.7330    -1.2810 C.ar  1 <1>  -0.1500 
 20 O       -0.5390     6.8470     0.5090 O.3   1 <1>  -0.5600 
 21 C       -7.7140    -2.9190     1.1390 C.ar  1 <1>   0.1600 
 22 C       -7.8110    -3.3450    -1.0510 C.ar  1 <1>   0.1600 
 23 N       -8.3890    -3.4530     0.1340 N.ar  1 <1>  -0.6200 
 24 H       -1.6040    -0.8970     0.9350 H     1 <1>   0.3700 
 25 H       -2.2030     1.9460     0.7740 H     1 <1>   0.0800 
 26 H       -0.5400     1.3880     0.8910 H     1 <1>   0.0800 
 27 H       -1.8440    -1.8970    -1.8500 H     1 <1>   0.0800 
 28 H       -1.6680     3.0730    -1.3640 H     1 <1>   0.0800 
 29 H       -0.0430     2.4610    -1.2840 H     1 <1>   0.0800 
 30 H       -3.6620    -3.2690    -1.2450 H     1 <1>   0.0800 
 31 H       -0.1580    -2.7840     0.0390 H     1 <1>   0.0800 
 32 H       -1.1420    -3.9820    -0.8000 H     1 <1>   0.0800 
 33 H        0.2260     3.7320     0.8160 H     1 <1>   0.4500 
 34 H       -3.6200    -4.3230     0.7630 H     1 <1>   0.0800 
 35 H       -3.6100    -2.8160     1.6740 H     1 <1>   0.0800 
 36 H       -4.5610    -0.9500    -1.3440 H     1 <1>   0.0800 
 37 H       -4.3740    -0.8120     0.3760 H     1 <1>   0.0800 
 38 H       -2.3750     4.9210     0.0500 H     1 <1>   0.0800 
 39 H       -2.0340     4.0530     1.5210 H     1 <1>   0.0800 
 40 H        1.1580     4.5510    -1.2020 H     1 <1>   0.0800 
 41 H       -0.3800     5.2360    -1.6490 H     1 <1>   0.0800 
 42 H       -0.5090     5.8470     2.2640 H     1 <1>   0.0800 
 43 H       -2.0410     6.5510     1.8050 H     1 <1>   0.0800 
 44 H        0.9910     7.0250    -0.7760 H     1 <1>   0.0800 
 45 H        1.3450     6.1360     0.6860 H     1 <1>   0.0800 
 46 H       -6.0140    -1.8810     1.8920 H     1 <1>   0.1500 
 47 H       -6.1970    -2.6910    -2.2800 H     1 <1>   0.1500 
 48 H       -8.1630    -2.9900     2.1140 H     1 <1>   0.1500 
 49 H       -8.3410    -3.7670    -1.8880 H     1 <1>   0.1500 
@<TRIPOS>BOND
  1   1   2  2   
  2   2   3  am  
  3   2   4  1   
  4   3   5  1   
  5   3  24  1   
  6   4   6  1   
  7   4  25  1   
  8   4  26  1   
  9   5   7  1   
 10   5   8  1   
 11   5  27  1   
 12   6   9  1   
 13   6  28  1   
 14   6  29  1   
 15   7  10  1   
 16   7  11  1   
 17   7  30  1   
 18   8  12  1   
 19   8  31  1   
 20   8  32  1   
 21   9  13  1   
 22   9  14  1   
 23   9  33  1   
 24  10  12  1   
 25  10  34  1   
 26  10  35  1   
 27  11  15  1   
 28  11  36  1   
 29  11  37  1   
 30  13  16  1   
 31  13  38  1   
 32  13  39  1   
 33  14  17  1   
 34  14  40  1   
 35  14  41  1   
 36  15  18  ar  
 37  15  19  ar  
 38  16  20  1   
 39  16  42  1   
 40  16  43  1   
 41  17  20  1   
 42  17  44  1   
 43  17  45  1   
 44  18  21  ar  
 45  18  46  1   
 46  19  22  ar  
 47  19  47  1   
 48  21  23  ar  
 49  21  48  1   
 50  22  23  ar  
 51  22  49  1   
@<TRIPOS>SUBSTRUCTURE
  1 ****   2 GROUP 4 **** **** 0

# MOE 2024.06 (io_trps.svl 2023.06)
