@<TRIPOS>MOLECULE
NONAME
42 44 1 0 0 
SMALL
USER_CHARGES


@<TRIPOS>ATOM
  1 F        0.4900    -2.0050    -2.2520 F     1 <1>  -0.1900 
  2 C        0.0910    -2.6800    -1.2060 C.ar  1 <1>   0.1900 
  3 C        0.9560    -2.9270    -0.1550 C.ar  1 <1>   0.1900 
  4 C       -1.2140    -3.1390    -1.1740 C.ar  1 <1>  -0.1500 
  5 F        2.1870    -2.4880    -0.1910 F     1 <1>  -0.1900 
  6 C        0.5340    -3.6400     0.9510 C.ar  1 <1>  -0.1500 
  7 C       -1.6540    -3.8500    -0.0610 C.ar  1 <1>  -0.1440 
  8 C       -0.7750    -4.1010     0.9920 C.ar  1 <1>  -0.1500 
  9 C       -3.0860    -4.3530    -0.0030 C.3   1 <1>   0.4870 
 10 N       -3.8640    -3.4960     0.9340 N.4   1 <1>  -0.9590 
 11 C       -5.1740    -4.1230     1.3180 C.3   1 <1>   0.3430 
 12 C       -4.0340    -2.0960     0.4100 C.3   1 <1>   0.3430 
 13 C       -6.1610    -4.2690     0.1370 C.3   1 <1>   0.0000 
 14 C       -5.4080    -1.8490    -0.2300 C.3   1 <1>  -0.1600 
 15 C       -7.5820    -4.3750     0.7220 C.3   1 <1>   0.2000 
 16 C       -6.0070    -3.1020    -0.8860 C.3   1 <1>  -0.1600 
 17 C       -6.0660    -5.6170    -0.6000 C.3   1 <1>  -0.1600 
 18 O       -8.0760    -3.1410     1.0930 O.3   1 <1>  -0.6800 
 19 C       -8.4390    -5.0200    -0.3630 C.3   1 <1>  -0.1600 
 20 C       -7.4570    -5.8460    -1.2070 C.3   1 <1>  -0.1600 
 21 H       -1.8550    -2.9340    -2.0140 H     1 <1>   0.1500 
 22 H        1.2210    -3.8290     1.7590 H     1 <1>   0.1500 
 23 H       -1.0930    -4.6640     1.8550 H     1 <1>   0.1500 
 24 H       -3.0880    -5.3740     0.3420 H     1 <1>   0.0800 
 25 H       -3.5270    -4.3260    -0.9850 H     1 <1>   0.0800 
 26 H       -3.2880    -3.4190     1.7810 H     1 <1>   0.4500 
 27 H       -5.0110    -5.0860     1.7730 H     1 <1>   0.0800 
 28 H       -5.6440    -3.4920     2.0560 H     1 <1>   0.0800 
 29 H       -3.9080    -1.3910     1.2170 H     1 <1>   0.0800 
 30 H       -3.2670    -1.8870    -0.3170 H     1 <1>   0.0800 
 31 H       -6.0820    -1.4860     0.5270 H     1 <1>   0.0800 
 32 H       -5.3170    -1.0640    -0.9600 H     1 <1>   0.0800 
 33 H       -7.5840    -5.0110     1.5930 H     1 <1>   0.0800 
 34 H       -5.3630    -3.3930    -1.6970 H     1 <1>   0.0800 
 35 H       -6.9570    -2.8510    -1.3250 H     1 <1>   0.0800 
 36 H       -5.3040    -5.6460    -1.3590 H     1 <1>   0.0800 
 37 H       -5.8720    -6.4080     0.1070 H     1 <1>   0.0800 
 38 H       -9.0350    -3.2030     1.2820 H     1 <1>   0.4000 
 39 H       -9.1950    -5.6500     0.0710 H     1 <1>   0.0800 
 40 H       -8.9050    -4.2720    -0.9820 H     1 <1>   0.0800 
 41 H       -7.7150    -6.8920    -1.2010 H     1 <1>   0.0800 
 42 H       -7.4780    -5.4940    -2.2260 H     1 <1>   0.0800 
@<TRIPOS>BOND
  1   1   2  1   
  2   2   3  ar  
  3   2   4  ar  
  4   3   5  1   
  5   3   6  ar  
  6   4   7  ar  
  7   4  21  1   
  8   6   8  ar  
  9   6  22  1   
 10   7   8  ar  
 11   7   9  1   
 12   8  23  1   
 13   9  10  1   
 14   9  24  1   
 15   9  25  1   
 16  10  11  1   
 17  10  12  1   
 18  10  26  1   
 19  11  13  1   
 20  11  27  1   
 21  11  28  1   
 22  12  14  1   
 23  12  29  1   
 24  12  30  1   
 25  13  15  1   
 26  13  16  1   
 27  13  17  1   
 28  14  16  1   
 29  14  31  1   
 30  14  32  1   
 31  15  18  1   
 32  15  19  1   
 33  15  33  1   
 34  16  34  1   
 35  16  35  1   
 36  17  20  1   
 37  17  36  1   
 38  17  37  1   
 39  18  38  1   
 40  19  20  1   
 41  19  39  1   
 42  19  40  1   
 43  20  41  1   
 44  20  42  1   
@<TRIPOS>SUBSTRUCTURE
  1 ****   9 GROUP 4 **** **** 0

# MOE 2024.06 (io_trps.svl 2023.06)
