@<TRIPOS>MOLECULE
NONAME
47 49 1 0 0 
SMALL
USER_CHARGES


@<TRIPOS>ATOM
  1 S        1.7390    -0.1510     0.2880 S.3   1 <1>  -0.0800 
  2 C        0.3000    -0.6800    -0.5550 C.2   1 <1>   0.4620 
  3 C        1.9020    -1.7490     0.9460 C.2   1 <1>  -0.1100 
  4 N       -0.0100    -1.9010    -0.3560 N.2   1 <1>  -0.5650 
  5 N       -0.3620     0.2060    -1.3360 N.pl3 1 <1>  -0.8840 
  6 C        0.8940    -2.5380     0.5120 C.2   1 <1>   0.1410 
  7 C        0.7540    -3.9480     0.8750 C.2   1 <1>   0.7160 
  8 O        1.7610    -4.6120     1.0430 O.2   1 <1>  -0.5700 
  9 N       -0.4650    -4.5770     1.0420 N.am  1 <1>  -0.6600 
 10 C       -0.6320    -6.0440     0.8110 C.3   1 <1>   0.1400 
 11 C       -1.7790    -3.8810     1.1590 C.3   1 <1>   0.1400 
 12 C       -1.5860    -6.2960    -0.3740 C.3   1 <1>   0.3430 
 13 C       -2.6420    -4.1900    -0.0840 C.3   1 <1>   0.2000 
 14 O       -2.7870    -5.5860    -0.1990 O.3   1 <1>  -0.5600 
 15 C       -1.8910    -7.7850    -0.5120 C.ar  1 <1>  -0.1430 
 16 C       -4.0490    -3.5200    -0.0850 C.3   1 <1>   0.0000 
 17 C       -2.9280    -8.3780     0.1960 C.ar  1 <1>  -0.1500 
 18 C       -1.1120    -8.5710    -1.3490 C.ar  1 <1>  -0.1500 
 19 C       -4.7810    -3.8680    -1.3950 C.3   1 <1>  -0.2400 
 20 C       -3.9220    -1.9870    -0.0170 C.3   1 <1>  -0.2400 
 21 C       -4.9190    -3.9930     1.0950 C.3   1 <1>  -0.2400 
 22 C       -3.1810    -9.7330     0.0700 C.ar  1 <1>  -0.1500 
 23 C       -1.3630    -9.9260    -1.4760 C.ar  1 <1>  -0.1500 
 24 C       -2.3980   -10.5090    -0.7660 C.ar  1 <1>  -0.1500 
 25 H        2.7360    -1.9540     1.5920 H     1 <1>   0.1500 
 26 H        0.0200     1.1300    -1.5390 H     1 <1>   0.4000 
 27 H       -1.1240    -0.1200    -1.9310 H     1 <1>   0.4000 
 28 H        0.3150    -6.5090     0.6030 H     1 <1>   0.0800 
 29 H       -1.0360    -6.5020     1.6960 H     1 <1>   0.0800 
 30 H       -2.2820    -4.2360     2.0400 H     1 <1>   0.0800 
 31 H       -1.6390    -2.8230     1.2750 H     1 <1>   0.0800 
 32 H       -1.1300    -5.9430    -1.2820 H     1 <1>   0.0800 
 33 H       -2.1120    -3.8440    -0.9560 H     1 <1>   0.0800 
 34 H       -3.5450    -7.7810     0.8450 H     1 <1>   0.1500 
 35 H       -0.3030    -8.1320    -1.9070 H     1 <1>   0.1500 
 36 H       -5.7430    -3.3890    -1.4360 H     1 <1>   0.0800 
 37 H       -4.9340    -4.9310    -1.4710 H     1 <1>   0.0800 
 38 H       -4.2050    -3.5500    -2.2460 H     1 <1>   0.0800 
 39 H       -4.8860    -1.5230    -0.1330 H     1 <1>   0.0800 
 40 H       -3.2780    -1.6270    -0.8000 H     1 <1>   0.0800 
 41 H       -3.5190    -1.6690     0.9270 H     1 <1>   0.0800 
 42 H       -5.9030    -3.5620     1.0330 H     1 <1>   0.0800 
 43 H       -4.4890    -3.7060     2.0360 H     1 <1>   0.0800 
 44 H       -5.0210    -5.0640     1.0790 H     1 <1>   0.0800 
 45 H       -3.9890   -10.1820     0.6220 H     1 <1>   0.1500 
 46 H       -0.7540   -10.5280    -2.1270 H     1 <1>   0.1500 
 47 H       -2.5940   -11.5620    -0.8640 H     1 <1>   0.1500 
@<TRIPOS>BOND
  1   1   2  1   
  2   1   3  1   
  3   2   4  2   
  4   2   5  1   
  5   3   6  2   
  6   3  25  1   
  7   4   6  1   
  8   5  26  1   
  9   5  27  1   
 10   6   7  1   
 11   7   8  2   
 12   7   9  am  
 13   9  10  1   
 14   9  11  1   
 15  10  12  1   
 16  10  28  1   
 17  10  29  1   
 18  11  13  1   
 19  11  30  1   
 20  11  31  1   
 21  12  14  1   
 22  12  15  1   
 23  12  32  1   
 24  13  14  1   
 25  13  16  1   
 26  13  33  1   
 27  15  17  ar  
 28  15  18  ar  
 29  16  19  1   
 30  16  20  1   
 31  16  21  1   
 32  17  22  ar  
 33  17  34  1   
 34  18  23  ar  
 35  18  35  1   
 36  19  36  1   
 37  19  37  1   
 38  19  38  1   
 39  20  39  1   
 40  20  40  1   
 41  20  41  1   
 42  21  42  1   
 43  21  43  1   
 44  21  44  1   
 45  22  24  ar  
 46  22  45  1   
 47  23  24  ar  
 48  23  46  1   
 49  24  47  1   
@<TRIPOS>SUBSTRUCTURE
  1 ****  13 GROUP 4 **** **** 0

# MOE 2024.06 (io_trps.svl 2023.06)
