@<TRIPOS>MOLECULE
NONAME
50 53 1 0 0 
SMALL
USER_CHARGES


@<TRIPOS>ATOM
  1 S       -0.7200     0.9110     1.2620 S.o2  1 <1>   1.4470 
  2 O       -0.6770    -0.2430     2.1360 O.2   1 <1>  -0.6500 
  3 O       -1.3670     2.1210     1.7190 O.2   1 <1>  -0.6500 
  4 N       -1.4640     0.4460    -0.1920 N.am  1 <1>  -0.8490 
  5 C        0.9640     1.3250     0.7270 C.ar  1 <1>  -0.0090 
  6 C       -2.9250     0.4560    -0.1200 C.3   1 <1>   0.1960 
  7 C       -1.1170    -0.9080    -0.6200 C.3   1 <1>   0.1960 
  8 C        1.1730     2.1500    -0.3750 C.ar  1 <1>  -0.1500 
  9 C        2.0810     0.8320     1.4120 C.ar  1 <1>  -0.1500 
 10 C       -3.3190    -0.9150     0.4340 C.3   1 <1>  -0.0800 
 11 C       -2.2430    -1.8450    -0.1550 C.3   1 <1>  -0.0800 
 12 C        2.4670     2.4490    -0.7560 C.ar  1 <1>   0.0830 
 13 C        3.3770     1.1370     1.0240 C.ar  1 <1>  -0.1500 
 14 C       -4.7910    -1.3620     0.2160 C.3   1 <1>   0.2800 
 15 C       -2.7730    -2.7070    -1.3130 C.3   1 <1>  -0.1600 
 16 O        2.8800     3.2170    -1.7830 O.3   1 <1>  -0.2330 
 17 C        3.5590     1.9570    -0.0780 C.ar  1 <1>   0.1170 
 18 O       -5.2470    -0.9060    -1.0060 O.3   1 <1>  -0.6800 
 19 C       -4.8600    -2.9010     0.1860 C.3   1 <1>  -0.1600 
 20 C       -5.7630    -0.8290     1.2940 C.3   1 <1>  -0.1600 
 21 C       -3.9840    -3.5600    -0.8990 C.3   1 <1>  -0.1600 
 22 C        4.2140     3.2140    -1.7550 C.2   1 <1>   0.7800 
 23 N        4.6750     2.4470    -0.7190 N.am  1 <1>  -0.4770 
 24 C       -5.8680     0.7000     1.4250 C.3   1 <1>  -0.2400 
 25 O        4.8890     3.8240    -2.5630 O.2   1 <1>  -0.5700 
 26 C        6.0880     2.2070    -0.3540 C.3   1 <1>   0.0600 
 27 H       -3.2940     1.2700     0.4760 H     1 <1>   0.0800 
 28 H       -3.3060     0.5730    -1.1200 H     1 <1>   0.0800 
 29 H       -1.0570    -0.9140    -1.6950 H     1 <1>   0.0800 
 30 H       -0.1620    -1.2200    -0.2300 H     1 <1>   0.0800 
 31 H        0.3400     2.5530    -0.9260 H     1 <1>   0.1500 
 32 H        1.9260     0.1960     2.2690 H     1 <1>   0.1500 
 33 H       -3.1540    -0.8890     1.4970 H     1 <1>   0.0800 
 34 H       -1.8690    -2.4930     0.6190 H     1 <1>   0.0800 
 35 H        4.2260     0.7520     1.5600 H     1 <1>   0.1500 
 36 H       -3.0760    -2.0560    -2.1160 H     1 <1>   0.0800 
 37 H       -1.9940    -3.3460    -1.6910 H     1 <1>   0.0800 
 38 H       -6.1500    -1.2370    -1.1560 H     1 <1>   0.4000 
 39 H       -4.5200    -3.2570     1.1430 H     1 <1>   0.0800 
 40 H       -5.8770    -3.2320     0.0770 H     1 <1>   0.0800 
 41 H       -6.7450    -1.2180     1.0940 H     1 <1>   0.0800 
 42 H       -5.4660    -1.2240     2.2500 H     1 <1>   0.0800 
 43 H       -3.6440    -4.5140    -0.5340 H     1 <1>   0.0800 
 44 H       -4.5810    -3.7450    -1.7760 H     1 <1>   0.0800 
 45 H       -6.0440     1.1580     0.4680 H     1 <1>   0.0800 
 46 H       -4.9710     1.1090     1.8530 H     1 <1>   0.0800 
 47 H       -6.6860     0.9530     2.0770 H     1 <1>   0.0800 
 48 H        6.2990     1.1530    -0.3980 H     1 <1>   0.0800 
 49 H        6.2700     2.5680     0.6430 H     1 <1>   0.0800 
 50 H        6.7370     2.7240    -1.0400 H     1 <1>   0.0800 
@<TRIPOS>BOND
  1   1   2  2   
  2   1   3  2   
  3   1   4  am  
  4   1   5  1   
  5   4   6  1   
  6   4   7  1   
  7   5   8  ar  
  8   5   9  ar  
  9   6  10  1   
 10   6  27  1   
 11   6  28  1   
 12   7  11  1   
 13   7  29  1   
 14   7  30  1   
 15   8  12  ar  
 16   8  31  1   
 17   9  13  ar  
 18   9  32  1   
 19  10  11  1   
 20  10  14  1   
 21  10  33  1   
 22  11  15  1   
 23  11  34  1   
 24  12  16  1   
 25  12  17  ar  
 26  13  17  ar  
 27  13  35  1   
 28  14  18  1   
 29  14  19  1   
 30  14  20  1   
 31  15  21  1   
 32  15  36  1   
 33  15  37  1   
 34  16  22  1   
 35  17  23  1   
 36  18  38  1   
 37  19  21  1   
 38  19  39  1   
 39  19  40  1   
 40  20  24  1   
 41  20  41  1   
 42  20  42  1   
 43  21  43  1   
 44  21  44  1   
 45  22  23  am  
 46  22  25  2   
 47  23  26  1   
 48  24  45  1   
 49  24  46  1   
 50  24  47  1   
 51  26  48  1   
 52  26  49  1   
 53  26  50  1   
@<TRIPOS>SUBSTRUCTURE
  1 ****   4 GROUP 4 **** **** 0

# MOE 2024.06 (io_trps.svl 2023.06)
