@<TRIPOS>MOLECULE
NONAME
47 50 1 0 0 
SMALL
USER_CHARGES


@<TRIPOS>ATOM
  1 O        3.4230     0.0120    -1.2760 O.2   1 <1>  -0.5700 
  2 C        2.6670    -0.5550    -0.5160 C.2   1 <1>   0.9370 
  3 N        2.5520    -1.9550    -0.6500 N.pl3 1 <1>  -0.5760 
  4 C        1.9130     0.1390     0.4780 C.2   1 <1>   0.0290 
  5 C        1.7210    -2.6490     0.1660 C.cat 1 <1>   0.7390 
  6 C        3.2760    -2.6410    -1.6020 C.2   1 <1>   0.1910 
  7 C        2.0050     1.5620     0.6580 C.2   1 <1>   0.6160 
  8 C        1.0990    -0.6120     1.2660 C.2   1 <1>   0.1910 
  9 N        1.0150    -1.9690     1.0990 N.pl3 1 <1>  -0.6450 
 10 C        1.6030    -4.0390     0.0380 C.2   1 <1>  -0.1800 
 11 C        3.1730    -3.9970    -1.7410 C.2   1 <1>  -0.1500 
 12 O        1.3810     2.0410     1.5850 O.2   1 <1>  -0.5700 
 13 N        2.7530     2.3800    -0.1430 N.am  1 <1>  -0.4930 
 14 C        2.3190    -4.7240    -0.9080 C.2   1 <1>  -0.1500 
 15 C        3.1290     3.7320     0.0440 C.2   1 <1>   0.0630 
 16 C        4.4370     4.1730    -0.1770 C.2   1 <1>   0.3720 
 17 C        2.4450     4.8390     0.4090 C.2   1 <1>  -0.3320 
 18 N        4.5800     5.4400     0.0430 N.2   1 <1>  -0.7070 
 19 N        5.4810     3.3280    -0.6040 N.pl3 1 <1>  -0.8210 
 20 N        3.3480     5.8530     0.4170 N.pl3 1 <1>   0.3140 
 21 C        0.9710     5.0140     0.7430 C.3   1 <1>  -0.0600 
 22 C        6.0580     3.7760    -1.9030 C.3   1 <1>   0.2090 
 23 C        6.5870     3.2680     0.3910 C.3   1 <1>   0.2090 
 24 C        3.1030     7.2580     0.7660 C.3   1 <1>   0.0160 
 25 C        7.5150     4.1270    -1.6340 C.3   1 <1>  -0.1600 
 26 C        7.8770     3.2980    -0.4140 C.3   1 <1>  -0.1600 
 27 H        3.9410    -2.0910    -2.2550 H     1 <1>   0.1500 
 28 H        0.4950    -0.1650     2.0470 H     1 <1>   0.1500 
 29 H        0.3920    -2.5130     1.7090 H     1 <1>   0.4500 
 30 H        0.9380    -4.5730     0.6930 H     1 <1>   0.1500 
 31 H        3.7450    -4.5200    -2.4910 H     1 <1>   0.1500 
 32 H        3.4260     1.9240    -0.7750 H     1 <1>   0.3700 
 33 H        2.2400    -5.7950    -1.0210 H     1 <1>   0.1500 
 34 H        0.4140     4.1420     0.4560 H     1 <1>   0.0800 
 35 H        0.5620     5.8570     0.2140 H     1 <1>   0.0800 
 36 H        0.8480     5.1660     1.8000 H     1 <1>   0.0800 
 37 H        5.5270     4.6220    -2.3080 H     1 <1>   0.0800 
 38 H        5.9980     2.9600    -2.6020 H     1 <1>   0.0800 
 39 H        6.5150     2.3700     0.9780 H     1 <1>   0.0800 
 40 H        6.5500     4.1220     1.0490 H     1 <1>   0.0800 
 41 H        2.6100     7.3050     1.7180 H     1 <1>   0.0800 
 42 H        2.4870     7.7060     0.0090 H     1 <1>   0.0800 
 43 H        4.0420     7.7760     0.8200 H     1 <1>   0.0800 
 44 H        7.5770     5.1740    -1.3960 H     1 <1>   0.0800 
 45 H        8.1430     3.9170    -2.4810 H     1 <1>   0.0800 
 46 H        8.1320     2.2950    -0.7080 H     1 <1>   0.0800 
 47 H        8.6880     3.7240     0.1480 H     1 <1>   0.0800 
@<TRIPOS>BOND
  1   1   2  2   
  2   2   3  1   
  3   2   4  1   
  4   3   5  ar  
  5   3   6  1   
  6   4   7  1   
  7   4   8  2   
  8   5   9  ar  
  9   5  10  1   
 10   6  11  2   
 11   6  27  1   
 12   7  12  2   
 13   7  13  am  
 14   8   9  1   
 15   8  28  1   
 16   9  29  1   
 17  10  14  2   
 18  10  30  1   
 19  11  14  1   
 20  11  31  1   
 21  13  15  1   
 22  13  32  1   
 23  14  33  1   
 24  15  16  1   
 25  15  17  2   
 26  16  18  2   
 27  16  19  1   
 28  17  20  1   
 29  17  21  1   
 30  18  20  1   
 31  19  22  1   
 32  19  23  1   
 33  20  24  1   
 34  21  34  1   
 35  21  35  1   
 36  21  36  1   
 37  22  25  1   
 38  22  37  1   
 39  22  38  1   
 40  23  26  1   
 41  23  39  1   
 42  23  40  1   
 43  24  41  1   
 44  24  42  1   
 45  24  43  1   
 46  25  26  1   
 47  25  44  1   
 48  25  45  1   
 49  26  46  1   
 50  26  47  1   
@<TRIPOS>SUBSTRUCTURE
  1 ****  13 GROUP 4 **** **** 0

# MOE 2024.06 (io_trps.svl 2023.06)
