@<TRIPOS>MOLECULE
NONAME
48 50 1 0 0 
SMALL
USER_CHARGES


@<TRIPOS>ATOM
  1 O       -0.7540     0.3240     1.9260 O.2   1 <1>  -0.5700 
  2 C       -1.5580     0.9060     1.2250 C.2   1 <1>   0.5440 
  3 N       -2.5880     0.1830     0.6660 N.am  1 <1>  -0.6600 
  4 C       -1.4080     2.3270     0.9740 C.ar  1 <1>   0.0860 
  5 C       -3.3850     0.6210    -0.5090 C.3   1 <1>   0.1400 
  6 C       -2.7320    -1.2820     0.8660 C.3   1 <1>   0.1400 
  7 C       -0.2150     2.8370     0.4650 C.ar  1 <1>  -0.1500 
  8 C       -2.4400     3.2280     1.2300 C.ar  1 <1>  -0.1500 
  9 C       -4.3430    -0.5390    -0.7750 C.3   1 <1>   0.2000 
 10 C       -3.5480    -1.7730    -0.3370 C.3   1 <1>  -0.0800 
 11 C       -0.0490     4.1870     0.1960 C.ar  1 <1>  -0.1440 
 12 C       -2.2920     4.5770     0.9680 C.ar  1 <1>  -0.1500 
 13 O       -5.4460    -0.3810     0.0500 O.3   1 <1>  -0.6800 
 14 C       -4.3990    -3.0240    -0.0460 C.3   1 <1>   0.0200 
 15 C       -1.1020     5.0540     0.4500 C.ar  1 <1>  -0.1500 
 16 C        1.2780     4.6930    -0.3650 C.3   1 <1>   0.0630 
 17 C       -3.5640    -4.2590     0.2480 C.2   1 <1>  -0.0400 
 18 C        1.9390     5.6780     0.6040 C.3   1 <1>  -0.2400 
 19 C        1.0820     5.3330    -1.7430 C.3   1 <1>  -0.2400 
 20 O       -4.1730    -5.3500     0.6300 O.3   1 <1>  -0.0190 
 21 C       -2.2470    -4.5230     0.2050 C.2   1 <1>  -0.1500 
 22 N       -3.3390    -6.3250     0.8470 N.2   1 <1>  -0.4100 
 23 C       -2.1700    -5.8560     0.6000 C.2   1 <1>   0.1080 
 24 C       -0.8900    -6.6510     0.7250 C.3   1 <1>  -0.0590 
 25 H       -3.9190     1.5370    -0.3210 H     1 <1>   0.0800 
 26 H       -2.7260     0.7550    -1.3490 H     1 <1>   0.0800 
 27 H       -1.7680    -1.7600     0.9130 H     1 <1>   0.0800 
 28 H       -3.2580    -1.4570     1.7890 H     1 <1>   0.0800 
 29 H        0.5910     2.1480     0.2850 H     1 <1>   0.1500 
 30 H       -3.3630     2.8630     1.6440 H     1 <1>   0.1500 
 31 H       -4.6810    -0.5840    -1.7960 H     1 <1>   0.0800 
 32 H       -2.8570    -2.0080    -1.1260 H     1 <1>   0.0800 
 33 H       -3.1000     5.2590     1.1690 H     1 <1>   0.1500 
 34 H       -5.1340    -0.1920     0.9580 H     1 <1>   0.4000 
 35 H       -5.0260    -3.2330    -0.8950 H     1 <1>   0.0800 
 36 H       -5.0430    -2.8440     0.7960 H     1 <1>   0.0800 
 37 H       -0.9990     6.1050     0.2500 H     1 <1>   0.1500 
 38 H        1.9450     3.8560    -0.4850 H     1 <1>   0.0800 
 39 H        1.3370     6.5610     0.7250 H     1 <1>   0.0800 
 40 H        2.9070     5.9690     0.2370 H     1 <1>   0.0800 
 41 H        2.0640     5.2150     1.5660 H     1 <1>   0.0800 
 42 H        0.4640     6.2100    -1.6750 H     1 <1>   0.0800 
 43 H        0.6110     4.6320    -2.4080 H     1 <1>   0.0800 
 44 H        2.0320     5.6150    -2.1600 H     1 <1>   0.0800 
 45 H       -1.4160    -3.8980    -0.0620 H     1 <1>   0.1500 
 46 H       -0.3930    -6.6950    -0.2270 H     1 <1>   0.0800 
 47 H       -1.1110    -7.6530     1.0480 H     1 <1>   0.0800 
 48 H       -0.2420    -6.1880     1.4450 H     1 <1>   0.0800 
@<TRIPOS>BOND
  1   1   2  2   
  2   2   3  am  
  3   2   4  1   
  4   3   5  1   
  5   3   6  1   
  6   4   7  ar  
  7   4   8  ar  
  8   5   9  1   
  9   5  25  1   
 10   5  26  1   
 11   6  10  1   
 12   6  27  1   
 13   6  28  1   
 14   7  11  ar  
 15   7  29  1   
 16   8  12  ar  
 17   8  30  1   
 18   9  10  1   
 19   9  13  1   
 20   9  31  1   
 21  10  14  1   
 22  10  32  1   
 23  11  15  ar  
 24  11  16  1   
 25  12  15  ar  
 26  12  33  1   
 27  13  34  1   
 28  14  17  1   
 29  14  35  1   
 30  14  36  1   
 31  15  37  1   
 32  16  18  1   
 33  16  19  1   
 34  16  38  1   
 35  17  20  1   
 36  17  21  2   
 37  18  39  1   
 38  18  40  1   
 39  18  41  1   
 40  19  42  1   
 41  19  43  1   
 42  19  44  1   
 43  20  22  1   
 44  21  23  1   
 45  21  45  1   
 46  22  23  2   
 47  23  24  1   
 48  24  46  1   
 49  24  47  1   
 50  24  48  1   
@<TRIPOS>SUBSTRUCTURE
  1 ****   3 GROUP 4 **** **** 0

# MOE 2024.06 (io_trps.svl 2023.06)
