@<TRIPOS>MOLECULE
NONAME
42 45 1 0 0 
SMALL
USER_CHARGES


@<TRIPOS>ATOM
  1 O       -1.5540     0.4440    -2.7330 O.2   1 <1>  -0.5700 
  2 C       -1.9380     0.9510    -1.6940 C.2   1 <1>   0.5440 
  3 N       -2.6160     0.1900    -0.7810 N.am  1 <1>  -0.6600 
  4 C       -1.6590     2.3460    -1.4340 C.ar  1 <1>   0.0860 
  5 C       -3.3090     0.7180     0.4300 C.3   1 <1>   0.2350 
  6 C       -3.0080    -1.2290    -1.0100 C.3   1 <1>   0.2350 
  7 C       -2.2210     3.3740    -2.2330 C.ar  1 <1>   0.1660 
  8 C       -0.8400     2.7220    -0.4010 C.ar  1 <1>  -0.1500 
  9 C       -4.4890    -0.2090     0.6550 C.3   1 <1>  -0.2420 
 10 C       -4.2990    -1.4170    -0.2310 C.3   1 <1>  -0.2420 
 11 N       -1.9960     4.6430    -2.0630 N.ar  1 <1>  -0.6200 
 12 C       -3.1630     3.0060    -3.3680 C.3   1 <1>  -0.0970 
 13 C       -0.5750     4.0810    -0.1820 C.ar  1 <1>   0.0000 
 14 C       -5.0190    -0.0620     2.0850 C.2   1 <1>   0.9470 
 15 C       -5.4660    -0.4910    -0.4580 C.3   1 <1>  -0.2000 
 16 C       -4.5660    -2.9020     0.0220 C.2   1 <1>   0.9470 
 17 C       -1.1740     5.0160    -1.0500 C.ar  1 <1>   0.3100 
 18 C        0.2570     4.5460     0.8560 C.ar  1 <1>  -0.1500 
 19 O       -4.2070    -0.0400     3.0210 O.co2 1 <1>  -0.9000 
 20 O       -6.2140     0.2070     2.2710 O.co2 1 <1>  -0.9000 
 21 O       -5.5870    -3.4260    -0.4450 O.co2 1 <1>  -0.9000 
 22 O       -3.6810    -3.5880     0.5510 O.co2 1 <1>  -0.9000 
 23 C       -0.9070     6.3790    -0.8510 C.ar  1 <1>  -0.1500 
 24 C        0.5000     5.8830     1.0300 C.ar  1 <1>  -0.1430 
 25 C       -0.0910     6.8090     0.1620 C.ar  1 <1>  -0.1500 
 26 C        1.3960     6.3910     2.1450 C.3   1 <1>  -0.0970 
 27 H       -2.6360     0.6720     1.2690 H     1 <1>   0.0800 
 28 H       -3.6490     1.7280     0.2890 H     1 <1>   0.0800 
 29 H       -3.1580    -1.4330    -2.0550 H     1 <1>   0.0800 
 30 H       -2.2400    -1.8760    -0.6210 H     1 <1>   0.0800 
 31 H       -0.3980     1.9810     0.2410 H     1 <1>   0.1500 
 32 H       -3.9440     2.3600    -3.0070 H     1 <1>   0.0800 
 33 H       -2.6190     2.5000    -4.1440 H     1 <1>   0.0800 
 34 H       -3.6160     3.8880    -3.7840 H     1 <1>   0.0800 
 35 H       -5.4800     0.1380    -1.3280 H     1 <1>   0.1000 
 36 H       -6.4470    -0.8490    -0.1900 H     1 <1>   0.1000 
 37 H        0.6990     3.8180     1.5130 H     1 <1>   0.1500 
 38 H       -1.3690     7.0770    -1.5250 H     1 <1>   0.1500 
 39 H        0.1010     7.8590     0.2980 H     1 <1>   0.1500 
 40 H        2.2180     6.9470     1.7310 H     1 <1>   0.0800 
 41 H        1.7910     5.5740     2.7230 H     1 <1>   0.0800 
 42 H        0.8360     7.0330     2.8010 H     1 <1>   0.0800 
@<TRIPOS>BOND
  1   1   2  2   
  2   2   3  am  
  3   2   4  1   
  4   3   5  1   
  5   3   6  1   
  6   4   7  ar  
  7   4   8  ar  
  8   5   9  1   
  9   5  27  1   
 10   5  28  1   
 11   6  10  1   
 12   6  29  1   
 13   6  30  1   
 14   7  11  ar  
 15   7  12  1   
 16   8  13  ar  
 17   8  31  1   
 18   9  10  1   
 19   9  14  1   
 20   9  15  1   
 21  10  15  1   
 22  10  16  1   
 23  11  17  ar  
 24  12  32  1   
 25  12  33  1   
 26  12  34  1   
 27  13  17  ar  
 28  13  18  ar  
 29  14  19  ar  
 30  14  20  ar  
 31  15  35  1   
 32  15  36  1   
 33  16  21  ar  
 34  16  22  ar  
 35  17  23  ar  
 36  18  24  ar  
 37  18  37  1   
 38  23  25  ar  
 39  23  38  1   
 40  24  25  ar  
 41  24  26  1   
 42  25  39  1   
 43  26  40  1   
 44  26  41  1   
 45  26  42  1   
@<TRIPOS>SUBSTRUCTURE
  1 ****   5 GROUP 4 **** **** 0

# MOE 2024.06 (io_trps.svl 2023.06)
