@<TRIPOS>MOLECULE
NONAME
47 49 1 0 0 
SMALL
USER_CHARGES


@<TRIPOS>ATOM
  1 O       -0.6590     0.6180     1.7490 O.2   1 <1>  -0.5700 
  2 C       -1.5730     1.2100     1.2090 C.2   1 <1>   0.5440 
  3 N       -2.6420     0.4810     0.7400 N.am  1 <1>  -0.6600 
  4 C       -1.5070     2.6510     1.0540 C.ar  1 <1>   0.0860 
  5 C       -3.6160     0.9580    -0.2780 C.3   1 <1>   0.1400 
  6 C       -2.7000    -1.0010     0.8460 C.3   1 <1>   0.1400 
  7 C       -0.4020     3.2500     0.4570 C.ar  1 <1>  -0.1500 
  8 C       -2.5330     3.4850     1.4990 C.ar  1 <1>  -0.1500 
  9 C       -4.5500    -0.2300    -0.5020 C.3   1 <1>   0.2000 
 10 C       -3.6500    -1.4480    -0.2710 C.3   1 <1>  -0.0800 
 11 C       -0.3190     4.6210     0.2880 C.ar  1 <1>   0.0830 
 12 C       -2.4650     4.8570     1.3350 C.ar  1 <1>  -0.1500 
 13 O       -5.5360    -0.1910     0.4740 O.3   1 <1>  -0.6800 
 14 C       -4.3960    -2.7610     0.0310 C.3   1 <1>   0.0200 
 15 O        0.8020     5.0940    -0.3090 O.3   1 <1>  -0.3630 
 16 C       -1.3630     5.4300     0.7280 C.ar  1 <1>  -0.1500 
 17 C       -3.4730    -3.9660     0.1130 C.2   1 <1>  -0.0400 
 18 C        1.0140     6.4910    -0.4780 C.3   1 <1>   0.1810 
 19 O       -3.9750    -5.1140     0.4860 O.3   1 <1>  -0.0190 
 20 C       -2.1650    -4.1530    -0.1270 C.2   1 <1>  -0.1500 
 21 C        2.3620     6.7800    -1.1300 C.2   1 <1>   0.5690 
 22 N       -3.0750    -6.0540     0.5130 N.2   1 <1>  -0.4100 
 23 C       -1.9740    -5.5040     0.1490 C.2   1 <1>   0.1080 
 24 O        2.6280     7.9090    -1.4520 O.2   1 <1>  -0.5700 
 25 N        3.2540     5.7910    -1.3420 N.am  1 <1>  -0.8000 
 26 C       -0.6540    -6.2330     0.0380 C.3   1 <1>  -0.0590 
 27 H       -4.1580     1.8270     0.0510 H     1 <1>   0.0800 
 28 H       -3.0870     1.1860    -1.1870 H     1 <1>   0.0800 
 29 H       -1.7200    -1.4320     0.7300 H     1 <1>   0.0800 
 30 H       -3.0880    -1.2660     1.8140 H     1 <1>   0.0800 
 31 H        0.4110     2.6300     0.1240 H     1 <1>   0.1500 
 32 H       -3.3880     3.0490     1.9850 H     1 <1>   0.1500 
 33 H       -5.0240    -0.2210    -1.4690 H     1 <1>   0.0800 
 34 H       -3.0640    -1.5880    -1.1620 H     1 <1>   0.0800 
 35 H       -3.2710     5.4810     1.6850 H     1 <1>   0.1500 
 36 H       -5.1100    -0.0580     1.3450 H     1 <1>   0.4000 
 37 H       -5.1230    -2.9440    -0.7400 H     1 <1>   0.0800 
 38 H       -4.9270    -2.6780     0.9630 H     1 <1>   0.0800 
 39 H       -1.3380     6.4980     0.6120 H     1 <1>   0.1500 
 40 H        0.2310     6.8810    -1.1020 H     1 <1>   0.0800 
 41 H        0.9840     6.9590     0.4880 H     1 <1>   0.0800 
 42 H       -1.4080    -3.4650    -0.4530 H     1 <1>   0.1500 
 43 H        4.1530     5.9900    -1.7820 H     1 <1>   0.3700 
 44 H        3.0540     4.8210    -1.0920 H     1 <1>   0.3700 
 45 H       -0.2910    -6.1800    -0.9720 H     1 <1>   0.0800 
 46 H       -0.7820    -7.2660     0.3080 H     1 <1>   0.0800 
 47 H        0.0660    -5.7880     0.6990 H     1 <1>   0.0800 
@<TRIPOS>BOND
  1   1   2  2   
  2   2   3  am  
  3   2   4  1   
  4   3   5  1   
  5   3   6  1   
  6   4   7  ar  
  7   4   8  ar  
  8   5   9  1   
  9   5  27  1   
 10   5  28  1   
 11   6  10  1   
 12   6  29  1   
 13   6  30  1   
 14   7  11  ar  
 15   7  31  1   
 16   8  12  ar  
 17   8  32  1   
 18   9  10  1   
 19   9  13  1   
 20   9  33  1   
 21  10  14  1   
 22  10  34  1   
 23  11  15  1   
 24  11  16  ar  
 25  12  16  ar  
 26  12  35  1   
 27  13  36  1   
 28  14  17  1   
 29  14  37  1   
 30  14  38  1   
 31  15  18  1   
 32  16  39  1   
 33  17  19  1   
 34  17  20  2   
 35  18  21  1   
 36  18  40  1   
 37  18  41  1   
 38  19  22  1   
 39  20  23  1   
 40  20  42  1   
 41  21  24  2   
 42  21  25  am  
 43  22  23  2   
 44  23  26  1   
 45  25  43  1   
 46  25  44  1   
 47  26  45  1   
 48  26  46  1   
 49  26  47  1   
@<TRIPOS>SUBSTRUCTURE
  1 ****   2 GROUP 4 **** **** 0

# MOE 2024.06 (io_trps.svl 2023.06)
