@<TRIPOS>MOLECULE
NONAME
48 50 1 0 0 
SMALL
USER_CHARGES


@<TRIPOS>ATOM
  1 O        2.0040     0.2850    -1.3700 O.co2 1 <1>  -0.9000 
  2 C        2.8780     0.7990    -2.0710 C.2   1 <1>   0.9060 
  3 O        3.8790     0.1820    -2.4460 O.co2 1 <1>  -0.9000 
  4 C        2.7800     2.2720    -2.3770 C.3   1 <1>  -0.2660 
  5 C        2.6970     3.1190    -1.1010 C.3   1 <1>   0.1100 
  6 N        4.0150     3.3910    -0.4820 N.3   1 <1>  -0.8100 
  7 C        3.8450     4.2020     0.7410 C.3   1 <1>   0.1100 
  8 C        4.7360     2.1220    -0.1680 C.3   1 <1>   0.1100 
  9 C        5.2040     4.5720     1.3830 C.3   1 <1>   0.3430 
 10 C        5.9450     2.3070     0.7650 C.3   1 <1>   0.3430 
 11 N        6.3230     3.7520     0.8060 N.4   1 <1>  -0.9590 
 12 C        7.6610     4.0230     1.3700 C.3   1 <1>   0.5240 
 13 C        7.9680     5.4930     1.1850 C.2   1 <1>  -0.1810 
 14 C        8.0690     6.4330     2.2030 C.2   1 <1>   0.1390 
 15 C        8.1910     6.1960     0.0530 C.2   1 <1>  -0.3020 
 16 N        8.3180     7.6160     1.7460 N.2   1 <1>  -0.7070 
 17 N        8.4120     7.4890     0.3970 N.pl3 1 <1>   0.5930 
 18 C        8.6650     8.5630    -0.5020 C.ar  1 <1>  -0.0230 
 19 C        9.8900     9.2350    -0.5250 C.ar  1 <1>  -0.1440 
 20 C        7.6680     8.9470    -1.3960 C.ar  1 <1>  -0.1500 
 21 C       10.0920    10.2630    -1.4330 C.ar  1 <1>  -0.1500 
 22 C       11.0160     8.8660     0.4330 C.3   1 <1>  -0.0970 
 23 C        7.8790     9.9720    -2.2980 C.ar  1 <1>  -0.1500 
 24 C        9.0940    10.6310    -2.3170 C.ar  1 <1>  -0.1500 
 25 H        1.8780     2.4010    -2.9410 H     1 <1>   0.0800 
 26 H        3.6080     2.5770    -2.9880 H     1 <1>   0.0800 
 27 H        2.0470     2.6270    -0.3940 H     1 <1>   0.0800 
 28 H        2.2440     4.0610    -1.3600 H     1 <1>   0.0800 
 29 H        3.2520     3.6530     1.4540 H     1 <1>   0.0800 
 30 H        3.3110     5.1070     0.5050 H     1 <1>   0.0800 
 31 H        5.1140     1.7080    -1.0860 H     1 <1>   0.0800 
 32 H        4.0630     1.3970     0.2610 H     1 <1>   0.0800 
 33 H        5.1420     4.4280     2.4480 H     1 <1>   0.0800 
 34 H        5.3950     5.6170     1.2020 H     1 <1>   0.0800 
 35 H        6.7590     1.7040     0.3970 H     1 <1>   0.0800 
 36 H        5.6870     1.9610     1.7510 H     1 <1>   0.0800 
 37 H        6.3140     4.0230    -0.1900 H     1 <1>   0.4500 
 38 H        8.4040     3.4350     0.8550 H     1 <1>   0.0800 
 39 H        7.6840     3.7680     2.4170 H     1 <1>   0.0800 
 40 H        7.9540     6.2310     3.2560 H     1 <1>   0.1500 
 41 H        8.2140     5.8830    -0.9750 H     1 <1>   0.1500 
 42 H        6.7170     8.4460    -1.3860 H     1 <1>   0.1500 
 43 H       11.0310    10.7890    -1.4580 H     1 <1>   0.1500 
 44 H       11.2360     7.8160     0.3650 H     1 <1>   0.0800 
 45 H       10.7250     9.0960     1.4430 H     1 <1>   0.0800 
 46 H       11.9130     9.4140     0.2070 H     1 <1>   0.0800 
 47 H        7.1010    10.2610    -2.9830 H     1 <1>   0.1500 
 48 H        9.2630    11.4310    -3.0170 H     1 <1>   0.1500 
@<TRIPOS>BOND
  1   1   2  ar  
  2   2   3  ar  
  3   2   4  1   
  4   4   5  1   
  5   4  25  1   
  6   4  26  1   
  7   5   6  1   
  8   5  27  1   
  9   5  28  1   
 10   6   7  1   
 11   6   8  1   
 12   7   9  1   
 13   7  29  1   
 14   7  30  1   
 15   8  10  1   
 16   8  31  1   
 17   8  32  1   
 18   9  11  1   
 19   9  33  1   
 20   9  34  1   
 21  10  11  1   
 22  10  35  1   
 23  10  36  1   
 24  11  12  1   
 25  11  37  1   
 26  12  13  1   
 27  12  38  1   
 28  12  39  1   
 29  13  14  1   
 30  13  15  2   
 31  14  16  2   
 32  14  40  1   
 33  15  17  1   
 34  15  41  1   
 35  16  17  1   
 36  17  18  1   
 37  18  19  ar  
 38  18  20  ar  
 39  19  21  ar  
 40  19  22  1   
 41  20  23  ar  
 42  20  42  1   
 43  21  24  ar  
 44  21  43  1   
 45  22  44  1   
 46  22  45  1   
 47  22  46  1   
 48  23  24  ar  
 49  23  47  1   
 50  24  48  1   
@<TRIPOS>SUBSTRUCTURE
  1 ****  15 GROUP 4 **** **** 0

# MOE 2024.06 (io_trps.svl 2023.06)
