@<TRIPOS>MOLECULE
NONAME
49 51 1 0 0 
SMALL
USER_CHARGES


@<TRIPOS>ATOM
  1 O        2.0290    -0.5560     2.2680 O.2   1 <1>  -0.5700 
  2 C        2.1860    -0.9200     1.1160 C.2   1 <1>   0.5440 
  3 N        2.7240    -0.0200     0.2090 N.am  1 <1>  -0.6600 
  4 C        1.7910    -2.2620     0.7180 C.ar  1 <1>   0.0860 
  5 C        2.8950     1.4150     0.6080 C.3   1 <1>   0.1400 
  6 C        3.3030    -0.4910    -1.0890 C.3   1 <1>   0.1400 
  7 C        0.5950    -2.4690     0.0190 C.ar  1 <1>  -0.1440 
  8 C        2.5960    -3.3750     0.9950 C.ar  1 <1>  -0.1430 
  9 C        4.3640     1.8390     0.8550 C.3   1 <1>   0.4230 
 10 C        4.7210     0.0350    -1.4030 C.3   1 <1>  -0.0800 
 11 C        0.2430    -3.7360    -0.4130 C.ar  1 <1>  -0.1500 
 12 C       -0.3510    -1.3090    -0.2710 C.3   1 <1>  -0.0960 
 13 C        2.2270    -4.6350     0.5550 C.ar  1 <1>  -0.1500 
 14 C        3.8960    -3.2420     1.7790 C.3   1 <1>  -0.0960 
 15 N        5.0620     2.3270    -0.3910 N.4   1 <1>  -0.9590 
 16 C        5.2300     0.7720     1.5770 C.3   1 <1>   0.1200 
 17 C        5.8350    -0.4520    -0.4510 C.3   1 <1>   0.1200 
 18 C        4.7280     1.5490    -1.6210 C.3   1 <1>   0.3430 
 19 C        1.0560    -4.8230    -0.1550 C.ar  1 <1>  -0.1430 
 20 C        4.8310     3.7880    -0.6140 C.3   1 <1>   0.2630 
 21 O        5.4440    -0.4320     0.8840 O.3   1 <1>  -0.5600 
 22 C        0.6610    -6.2090    -0.6310 C.3   1 <1>  -0.0970 
 23 H        2.4430     2.0460    -0.1340 H     1 <1>   0.0800 
 24 H        2.3530     1.5980     1.5190 H     1 <1>   0.0800 
 25 H        3.3490    -1.5670    -1.0960 H     1 <1>   0.0800 
 26 H        2.6300    -0.2040    -1.8790 H     1 <1>   0.0800 
 27 H        4.3150     2.6750     1.5330 H     1 <1>   0.0800 
 28 H        4.9620    -0.3800    -2.3650 H     1 <1>   0.0800 
 29 H       -0.6760    -3.8840    -0.9530 H     1 <1>   0.1500 
 30 H       -1.2800    -1.6610    -0.6830 H     1 <1>   0.0800 
 31 H        0.0970    -0.6310    -0.9730 H     1 <1>   0.0800 
 32 H       -0.5700    -0.7770     0.6380 H     1 <1>   0.0800 
 33 H        2.8540    -5.4820     0.7690 H     1 <1>   0.1500 
 34 H        4.1780    -4.1840     2.2130 H     1 <1>   0.0800 
 35 H        3.7930    -2.5320     2.5810 H     1 <1>   0.0800 
 36 H        4.6850    -2.9170     1.1270 H     1 <1>   0.0800 
 37 H        6.0640     2.1810    -0.2120 H     1 <1>   0.4500 
 38 H        4.7430     0.5040     2.4990 H     1 <1>   0.0800 
 39 H        6.1920     1.1820     1.8260 H     1 <1>   0.0800 
 40 H        6.7450     0.1120    -0.5600 H     1 <1>   0.0800 
 41 H        6.0580    -1.4810    -0.6780 H     1 <1>   0.0800 
 42 H        3.7600     1.8480    -1.9920 H     1 <1>   0.0800 
 43 H        5.4530     1.7830    -2.3840 H     1 <1>   0.0800 
 44 H        3.7860     3.9800    -0.7970 H     1 <1>   0.0800 
 45 H        5.3980     4.1320    -1.4650 H     1 <1>   0.0800 
 46 H        5.1400     4.3540     0.2510 H     1 <1>   0.0800 
 47 H        0.0830    -6.1460    -1.5350 H     1 <1>   0.0800 
 48 H        0.0730    -6.6980     0.1250 H     1 <1>   0.0800 
 49 H        1.5360    -6.8030    -0.8280 H     1 <1>   0.0800 
@<TRIPOS>BOND
  1   1   2  2   
  2   2   3  am  
  3   2   4  1   
  4   3   5  1   
  5   3   6  1   
  6   4   7  ar  
  7   4   8  ar  
  8   5   9  1   
  9   5  23  1   
 10   5  24  1   
 11   6  10  1   
 12   6  25  1   
 13   6  26  1   
 14   7  11  ar  
 15   7  12  1   
 16   8  13  ar  
 17   8  14  1   
 18   9  15  1   
 19   9  16  1   
 20   9  27  1   
 21  10  17  1   
 22  10  18  1   
 23  10  28  1   
 24  11  19  ar  
 25  11  29  1   
 26  12  30  1   
 27  12  31  1   
 28  12  32  1   
 29  13  19  ar  
 30  13  33  1   
 31  14  34  1   
 32  14  35  1   
 33  14  36  1   
 34  15  18  1   
 35  15  20  1   
 36  15  37  1   
 37  16  21  1   
 38  16  38  1   
 39  16  39  1   
 40  17  21  1   
 41  17  40  1   
 42  17  41  1   
 43  18  42  1   
 44  18  43  1   
 45  19  22  1   
 46  20  44  1   
 47  20  45  1   
 48  20  46  1   
 49  22  47  1   
 50  22  48  1   
 51  22  49  1   
@<TRIPOS>SUBSTRUCTURE
  1 ****   3 GROUP 4 **** **** 0

# MOE 2024.06 (io_trps.svl 2023.06)
