@<TRIPOS>MOLECULE
NONAME
46 47 1 0 0 
SMALL
USER_CHARGES


@<TRIPOS>ATOM
  1 O        3.5220     3.4330    -2.3030 O.2   1 <1>  -0.5700 
  2 C        3.7520     3.6770    -1.1400 C.2   1 <1>   0.5690 
  3 N        4.4210     4.8470    -0.8230 N.am  1 <1>  -0.6600 
  4 C        3.2550     2.6110    -0.1090 C.3   1 <1>   0.0610 
  5 C        4.6700     5.8650    -1.8910 C.3   1 <1>   0.0600 
  6 C        5.0190     5.2720     0.4750 C.3   1 <1>   0.0600 
  7 C        2.3290     1.5780    -0.8230 C.3   1 <1>  -0.1600 
  8 C        4.4790     1.7980     0.3910 C.3   1 <1>  -0.1600 
  9 C        2.4780     3.2380     1.1000 C.3   1 <1>  -0.1600 
 10 C        1.9430     0.3920     0.0520 C.3   1 <1>   0.3430 
 11 C        4.1200     0.5610     1.2210 C.3   1 <1>   0.3430 
 12 C        1.0970     3.8780     0.8320 C.3   1 <1>  -0.1600 
 13 N        3.1840    -0.3110     0.4650 N.4   1 <1>  -0.9060 
 14 C        1.1000     5.0760    -0.1300 C.3   1 <1>  -0.0170 
 15 C       -0.2860     5.6950    -0.1940 C.ar  1 <1>  -0.1440 
 16 C       -0.7310     6.5920     0.7550 C.ar  1 <1>  -0.1500 
 17 C       -1.1730     5.3880    -1.2070 C.ar  1 <1>  -0.1500 
 18 C       -2.0070     7.1220     0.6510 C.ar  1 <1>   0.1600 
 19 C       -2.4270     5.9750    -1.2180 C.ar  1 <1>   0.1600 
 20 N       -2.8670     6.8330    -0.3120 N.ar  1 <1>  -0.6200 
 21 H        4.0080     5.7220    -2.7280 H     1 <1>   0.0800 
 22 H        5.6850     5.7860    -2.2380 H     1 <1>   0.0800 
 23 H        4.5050     6.8560    -1.5040 H     1 <1>   0.0800 
 24 H        5.1290     4.4590     1.1600 H     1 <1>   0.0800 
 25 H        4.4000     6.0290     0.9260 H     1 <1>   0.0800 
 26 H        5.9970     5.6890     0.3030 H     1 <1>   0.0800 
 27 H        2.8200     1.1830    -1.6970 H     1 <1>   0.0800 
 28 H        1.4390     2.0620    -1.1840 H     1 <1>   0.0800 
 29 H        5.1240     2.4110     0.9880 H     1 <1>   0.0800 
 30 H        5.0620     1.4830    -0.4580 H     1 <1>   0.0800 
 31 H        3.0810     3.9790     1.5830 H     1 <1>   0.0800 
 32 H        2.3130     2.4850     1.8480 H     1 <1>   0.0800 
 33 H        1.3060    -0.2770    -0.5070 H     1 <1>   0.0800 
 34 H        1.3990     0.7340     0.9180 H     1 <1>   0.0800 
 35 H        3.6630     0.8680     2.1480 H     1 <1>   0.0800 
 36 H        5.0200     0.0150     1.4590 H     1 <1>   0.0800 
 37 H        0.7120     4.2240     1.7770 H     1 <1>   0.0800 
 38 H        0.3970     3.1450     0.4750 H     1 <1>   0.0800 
 39 H        3.6600    -0.6490    -0.3810 H     1 <1>   0.4500 
 40 H        2.9460    -1.1410     1.0240 H     1 <1>   0.4500 
 41 H        1.3800     4.7670    -1.1200 H     1 <1>   0.0800 
 42 H        1.8060     5.8170     0.2000 H     1 <1>   0.0800 
 43 H       -0.1000     6.8860     1.5730 H     1 <1>   0.1500 
 44 H       -0.9010     4.7020    -1.9880 H     1 <1>   0.1500 
 45 H       -2.3370     7.8200     1.4010 H     1 <1>   0.1500 
 46 H       -3.1050     5.7240    -2.0160 H     1 <1>   0.1500 
@<TRIPOS>BOND
  1   1   2  2   
  2   2   3  am  
  3   2   4  1   
  4   3   5  1   
  5   3   6  1   
  6   4   7  1   
  7   4   8  1   
  8   4   9  1   
  9   5  21  1   
 10   5  22  1   
 11   5  23  1   
 12   6  24  1   
 13   6  25  1   
 14   6  26  1   
 15   7  10  1   
 16   7  27  1   
 17   7  28  1   
 18   8  11  1   
 19   8  29  1   
 20   8  30  1   
 21   9  12  1   
 22   9  31  1   
 23   9  32  1   
 24  10  13  1   
 25  10  33  1   
 26  10  34  1   
 27  11  13  1   
 28  11  35  1   
 29  11  36  1   
 30  12  14  1   
 31  12  37  1   
 32  12  38  1   
 33  13  39  1   
 34  13  40  1   
 35  14  15  1   
 36  14  41  1   
 37  14  42  1   
 38  15  16  ar  
 39  15  17  ar  
 40  16  18  ar  
 41  16  43  1   
 42  17  19  ar  
 43  17  44  1   
 44  18  20  ar  
 45  18  45  1   
 46  19  20  ar  
 47  19  46  1   
@<TRIPOS>SUBSTRUCTURE
  1 ****  12 GROUP 4 **** **** 0

# MOE 2024.06 (io_trps.svl 2023.06)
