@<TRIPOS>MOLECULE
NONAME
39 41 1 0 0 
SMALL
USER_CHARGES


@<TRIPOS>ATOM
  1 C       -0.5630    -0.5760    -0.6420 C.2   1 <1>  -0.2760 
  2 C       -0.8610    -0.1920    -1.8880 C.2   1 <1>  -0.3000 
  3 C        0.0610    -1.8920    -0.1780 C.3   1 <1>   0.1380 
  4 C       -0.7760     0.2460     0.6200 C.3   1 <1>   0.0580 
  5 C        0.1970    -1.6280     1.3560 C.3   1 <1>  -0.0800 
  6 C        1.4080    -2.1890    -0.8780 C.3   1 <1>  -0.1600 
  7 C       -0.8890    -3.0470    -0.5600 C.3   1 <1>  -0.2400 
  8 C        0.4460    -0.1110     1.4620 C.3   1 <1>  -0.0800 
  9 C       -1.9010    -0.4430     1.4170 C.3   1 <1>  -0.1600 
 10 C       -1.1980    -1.6770     2.0230 C.3   1 <1>  -0.1600 
 11 C        2.6600    -1.4450    -0.4020 C.3   1 <1>  -0.1600 
 12 C        1.8310     0.5070     1.1000 C.3   1 <1>   0.0000 
 13 C        2.4540     0.0640    -0.2430 C.3   1 <1>  -0.1600 
 14 C        2.8090     0.1930     2.2530 C.3   1 <1>  -0.2400 
 15 C        1.7000     2.0410     1.0500 C.3   1 <1>  -0.2400 
 16 H       -0.6940    -0.7980    -2.7610 H     1 <1>   0.1500 
 17 H       -1.2970     0.7590    -2.1350 H     1 <1>   0.1500 
 18 H       -0.9550     1.2930     0.4480 H     1 <1>   0.0800 
 19 H        0.9210    -2.2490     1.8510 H     1 <1>   0.0800 
 20 H        1.6210    -3.2390    -0.7780 H     1 <1>   0.0800 
 21 H        1.2870    -2.0010    -1.9300 H     1 <1>   0.0800 
 22 H       -0.6190    -3.9440    -0.0330 H     1 <1>   0.0800 
 23 H       -0.8330    -3.2380    -1.6160 H     1 <1>   0.0800 
 24 H       -1.9120    -2.8040    -0.3420 H     1 <1>   0.0800 
 25 H        0.2570     0.2150     2.4720 H     1 <1>   0.0800 
 26 H       -2.2660     0.2020     2.1960 H     1 <1>   0.0800 
 27 H       -2.7160    -0.7190     0.7710 H     1 <1>   0.0800 
 28 H       -1.7350    -2.5920     1.8550 H     1 <1>   0.0800 
 29 H       -1.0950    -1.5530     3.0870 H     1 <1>   0.0800 
 30 H        3.0170    -1.8850     0.5090 H     1 <1>   0.0800 
 31 H        3.4290    -1.6040    -1.1380 H     1 <1>   0.0800 
 32 H        1.8640     0.4290    -1.0640 H     1 <1>   0.0800 
 33 H        3.4180     0.5340    -0.3350 H     1 <1>   0.0800 
 34 H        3.7960     0.5550     2.0260 H     1 <1>   0.0800 
 35 H        2.8700    -0.8620     2.4410 H     1 <1>   0.0800 
 36 H        2.4840     0.6640     3.1640 H     1 <1>   0.0800 
 37 H        2.6660     2.5010     0.9420 H     1 <1>   0.0800 
 38 H        1.2470     2.4170     1.9500 H     1 <1>   0.0800 
 39 H        1.0970     2.3460     0.2140 H     1 <1>   0.0800 
@<TRIPOS>BOND
  1   1   2  2   
  2   1   3  1   
  3   1   4  1   
  4   2  16  1   
  5   2  17  1   
  6   3   5  1   
  7   3   6  1   
  8   3   7  1   
  9   4   8  1   
 10   4   9  1   
 11   4  18  1   
 12   5   8  1   
 13   5  10  1   
 14   5  19  1   
 15   6  11  1   
 16   6  20  1   
 17   6  21  1   
 18   7  22  1   
 19   7  23  1   
 20   7  24  1   
 21   8  12  1   
 22   8  25  1   
 23   9  10  1   
 24   9  26  1   
 25   9  27  1   
 26  10  28  1   
 27  10  29  1   
 28  11  13  1   
 29  11  30  1   
 30  11  31  1   
 31  12  13  1   
 32  12  14  1   
 33  12  15  1   
 34  13  32  1   
 35  13  33  1   
 36  14  34  1   
 37  14  35  1   
 38  14  36  1   
 39  15  37  1   
 40  15  38  1   
 41  15  39  1   
@<TRIPOS>SUBSTRUCTURE
  1 ****   8 GROUP 4 **** **** 0

# MOE 2024.06 (io_trps.svl 2023.06)
