@<TRIPOS>MOLECULE
NONAME
52 54 1 0 0 
SMALL
USER_CHARGES


@<TRIPOS>ATOM
  1 O       -1.7370     1.3460    -2.7620 O.2   1 <1>  -0.5700 
  2 C       -1.8860     1.6870    -1.6110 C.2   1 <1>   0.5690 
  3 N       -2.0230     0.7560    -0.6130 N.am  1 <1>  -0.6600 
  4 C       -1.9540     3.1740    -1.3330 C.3   1 <1>   0.1570 
  5 C       -2.1310     1.0300     0.8450 C.3   1 <1>   0.1400 
  6 C       -1.9940    -0.7040    -0.8710 C.3   1 <1>   0.1400 
  7 N       -0.8730     3.6020    -0.4350 N.pl3 1 <1>   0.3140 
  8 C       -2.4320    -0.3290     1.4730 C.3   1 <1>   0.2000 
  9 C       -1.8520    -1.3570     0.5050 C.3   1 <1>  -0.0800 
 10 N       -1.1620     4.1220     0.7730 N.2   1 <1>  -0.7070 
 11 C        0.4640     3.5660    -0.6480 C.2   1 <1>  -0.3320 
 12 O       -1.8480    -0.4600     2.7220 O.3   1 <1>  -0.6800 
 13 C       -2.5330    -2.7300     0.6080 C.3   1 <1>   0.0210 
 14 C       -0.0140     4.4020     1.3010 C.2   1 <1>   0.1080 
 15 C        1.0470     4.0800     0.4580 C.2   1 <1>  -0.1810 
 16 C        1.1110     3.0280    -1.9170 C.3   1 <1>  -0.0600 
 17 C       -2.0270    -3.6760    -0.4640 C.2   1 <1>   0.1080 
 18 C        0.1030     5.0150     2.6780 C.3   1 <1>  -0.0590 
 19 C        2.5250     4.2750     0.7510 C.3   1 <1>   0.0210 
 20 N       -0.8150    -4.1360    -0.4840 N.2   1 <1>  -0.7070 
 21 C       -2.7840    -4.1400    -1.5350 C.2   1 <1>  -0.1500 
 22 C        3.1060     3.0250     1.4150 C.3   1 <1>  -0.2400 
 23 N       -0.7660    -4.9180    -1.5790 N.pl3 1 <1>   0.3000 
 24 C       -1.9460    -4.9330    -2.2340 C.2   1 <1>  -0.3320 
 25 C       -2.2040    -5.7180    -3.5070 C.3   1 <1>  -0.0600 
 26 H       -2.8970     3.4090    -0.8800 H     1 <1>   0.0800 
 27 H       -1.8670     3.7170    -2.2530 H     1 <1>   0.0800 
 28 H       -1.1900     1.4110     1.2040 H     1 <1>   0.0800 
 29 H       -2.9170     1.7360     1.0480 H     1 <1>   0.0800 
 30 H       -2.9170    -0.9920    -1.3440 H     1 <1>   0.0800 
 31 H       -1.1700    -0.9660    -1.5150 H     1 <1>   0.0800 
 32 H       -3.4970    -0.4480     1.5820 H     1 <1>   0.0800 
 33 H       -0.7980    -1.4750     0.6890 H     1 <1>   0.0800 
 34 H       -0.8760    -0.3920     2.6460 H     1 <1>   0.4000 
 35 H       -3.5980    -2.6240     0.5120 H     1 <1>   0.0800 
 36 H       -2.3260    -3.1600     1.5730 H     1 <1>   0.0800 
 37 H        2.1760     3.1680    -1.8920 H     1 <1>   0.0800 
 38 H        0.7220     3.5370    -2.7800 H     1 <1>   0.0800 
 39 H        0.9160     1.9750    -2.0160 H     1 <1>   0.0800 
 40 H        0.8460     4.4950     3.2520 H     1 <1>   0.0800 
 41 H       -0.8410     4.9480     3.1880 H     1 <1>   0.0800 
 42 H        0.3780     6.0490     2.5890 H     1 <1>   0.0800 
 43 H        3.0500     4.4740    -0.1660 H     1 <1>   0.0800 
 44 H        2.6590     5.1270     1.3920 H     1 <1>   0.0800 
 45 H       -3.8120    -3.9000    -1.7390 H     1 <1>   0.1500 
 46 H        2.9870     2.1770     0.7650 H     1 <1>   0.0800 
 47 H        2.5950     2.8240     2.3390 H     1 <1>   0.0800 
 48 H        4.1520     3.1650     1.6180 H     1 <1>   0.0800 
 49 H        0.0850    -5.4240    -1.8510 H     1 <1>   0.2700 
 50 H       -3.2180    -5.5690    -3.8340 H     1 <1>   0.0800 
 51 H       -2.0510    -6.7680    -3.3350 H     1 <1>   0.0800 
 52 H       -1.5420    -5.3890    -4.2880 H     1 <1>   0.0800 
@<TRIPOS>BOND
  1   1   2  2   
  2   2   3  am  
  3   2   4  1   
  4   3   5  1   
  5   3   6  1   
  6   4   7  1   
  7   4  26  1   
  8   4  27  1   
  9   5   8  1   
 10   5  28  1   
 11   5  29  1   
 12   6   9  1   
 13   6  30  1   
 14   6  31  1   
 15   7  10  1   
 16   7  11  1   
 17   8   9  1   
 18   8  12  1   
 19   8  32  1   
 20   9  13  1   
 21   9  33  1   
 22  10  14  2   
 23  11  15  2   
 24  11  16  1   
 25  12  34  1   
 26  13  17  1   
 27  13  35  1   
 28  13  36  1   
 29  14  15  1   
 30  14  18  1   
 31  15  19  1   
 32  16  37  1   
 33  16  38  1   
 34  16  39  1   
 35  17  20  2   
 36  17  21  1   
 37  18  40  1   
 38  18  41  1   
 39  18  42  1   
 40  19  22  1   
 41  19  43  1   
 42  19  44  1   
 43  20  23  1   
 44  21  24  2   
 45  21  45  1   
 46  22  46  1   
 47  22  47  1   
 48  22  48  1   
 49  23  24  1   
 50  23  49  1   
 51  24  25  1   
 52  25  50  1   
 53  25  51  1   
 54  25  52  1   
@<TRIPOS>SUBSTRUCTURE
  1 ****   3 GROUP 4 **** **** 0

# MOE 2024.06 (io_trps.svl 2023.06)
