@<TRIPOS>MOLECULE
NONAME
64 66 1 0 0 
SMALL
USER_CHARGES


@<TRIPOS>ATOM
  1 O       -1.6940    -0.2080    -3.3010 O.2   1 <1>  -0.5700 
  2 C       -2.1160     0.6340    -2.5440 C.2   1 <1>   0.5690 
  3 N       -3.1910     0.3830    -1.7210 N.am  1 <1>  -0.6600 
  4 C       -1.3920     1.9940    -2.5360 C.3   1 <1>   0.1710 
  5 C       -3.9280    -0.9190    -1.8080 C.3   1 <1>   0.3210 
  6 C       -3.6900     1.3200    -0.6740 C.3   1 <1>   0.1400 
  7 N       -0.8240     2.3730    -1.2130 N.3   1 <1>  -0.8100 
  8 C       -3.7500    -1.7580    -0.5440 C.2   1 <1>   0.0460 
  9 C       -2.9120     1.1340     0.6430 C.3   1 <1>   0.3430 
 10 C       -0.3750     3.7760    -1.1670 C.3   1 <1>   0.1100 
 11 C        0.3260     1.5110    -0.8600 C.3   1 <1>   0.1100 
 12 N       -4.5080    -1.5590     0.5620 N.2   1 <1>  -0.5650 
 13 C       -2.8830    -2.7800    -0.3520 C.2   1 <1>  -0.3320 
 14 N       -3.5310     1.8640     1.7950 N.4   1 <1>  -0.9590 
 15 C        0.0210     4.1800     0.2660 C.3   1 <1>   0.2090 
 16 C        0.8140     1.7670     0.5800 C.3   1 <1>   0.2090 
 17 C       -4.1100    -2.4830     1.3770 C.2   1 <1>   0.0360 
 18 N       -3.1200    -3.2560     0.8830 N.pl3 1 <1>   0.0330 
 19 C       -1.8270    -3.3710    -1.2730 C.3   1 <1>  -0.0600 
 20 C       -2.5100     2.0450     2.8710 C.3   1 <1>   0.2630 
 21 C       -4.7230     1.1110     2.2990 C.3   1 <1>   0.2630 
 22 N        0.9680     3.2190     0.9190 N.pl3 1 <1>  -0.8380 
 23 C        2.2710     3.6770     1.0880 C.ar  1 <1>   0.1000 
 24 C        2.6900     4.1190     2.3350 C.ar  1 <1>  -0.1500 
 25 C        3.1700     3.7100     0.0290 C.ar  1 <1>  -0.1500 
 26 C        3.9800     4.5850     2.5320 C.ar  1 <1>  -0.1440 
 27 C        4.4590     4.1720     0.2150 C.ar  1 <1>  -0.1500 
 28 C        4.8640     4.6090     1.4650 C.ar  1 <1>  -0.1500 
 29 C        4.4340     5.0660     3.8970 C.3   1 <1>  -0.0970 
 30 H       -2.1020     2.7380    -2.8460 H     1 <1>   0.0800 
 31 H       -0.6070     1.9700    -3.2710 H     1 <1>   0.0800 
 32 H       -3.5900    -1.4870    -2.6560 H     1 <1>   0.0800 
 33 H       -4.9760    -0.7280    -1.9580 H     1 <1>   0.0800 
 34 H       -4.7360     1.1280    -0.5120 H     1 <1>   0.0800 
 35 H       -3.5810     2.3340    -1.0150 H     1 <1>   0.0800 
 36 H       -1.9110     1.4920     0.5060 H     1 <1>   0.0800 
 37 H       -2.8500     0.0860     0.8760 H     1 <1>   0.0800 
 38 H       -1.1660     4.4240    -1.5000 H     1 <1>   0.0800 
 39 H        0.4690     3.9190    -1.8210 H     1 <1>   0.0800 
 40 H        1.1410     1.6880    -1.5420 H     1 <1>   0.0800 
 41 H        0.0510     0.4740    -0.9460 H     1 <1>   0.0800 
 42 H       -3.8230     2.7950     1.4660 H     1 <1>   0.4500 
 43 H       -0.8670     4.2450     0.8670 H     1 <1>   0.0800 
 44 H        0.4670     5.1600     0.2430 H     1 <1>   0.0800 
 45 H        1.7560     1.2640     0.7240 H     1 <1>   0.0800 
 46 H        0.1160     1.3300     1.2680 H     1 <1>   0.0800 
 47 H       -4.5160    -2.6480     2.3600 H     1 <1>   0.1500 
 48 H       -2.6640    -4.0510     1.3420 H     1 <1>   0.2700 
 49 H       -1.7560    -2.8060    -2.1870 H     1 <1>   0.0800 
 50 H       -2.0770    -4.3870    -1.5220 H     1 <1>   0.0800 
 51 H       -0.8640    -3.3550    -0.7960 H     1 <1>   0.0800 
 52 H       -2.1800     1.0870     3.2380 H     1 <1>   0.0800 
 53 H       -2.9240     2.6070     3.6920 H     1 <1>   0.0800 
 54 H       -1.6530     2.5780     2.4870 H     1 <1>   0.0800 
 55 H       -4.4300     0.1270     2.6280 H     1 <1>   0.0800 
 56 H       -5.4550     0.9950     1.5160 H     1 <1>   0.0800 
 57 H       -5.1790     1.6330     3.1250 H     1 <1>   0.0800 
 58 H        1.9890     4.0910     3.1460 H     1 <1>   0.1500 
 59 H        2.8550     3.3730    -0.9400 H     1 <1>   0.1500 
 60 H        5.1500     4.1940    -0.6100 H     1 <1>   0.1500 
 61 H        5.8680     4.9680     1.6050 H     1 <1>   0.1500 
 62 H        3.6380     4.9900     4.6160 H     1 <1>   0.0800 
 63 H        4.7440     6.0940     3.8370 H     1 <1>   0.0800 
 64 H        5.2620     4.4710     4.2370 H     1 <1>   0.0800 
@<TRIPOS>BOND
  1   1   2  2   
  2   2   3  am  
  3   2   4  1   
  4   3   5  1   
  5   3   6  1   
  6   4   7  1   
  7   4  30  1   
  8   4  31  1   
  9   5   8  1   
 10   5  32  1   
 11   5  33  1   
 12   6   9  1   
 13   6  34  1   
 14   6  35  1   
 15   7  10  1   
 16   7  11  1   
 17   8  12  1   
 18   8  13  2   
 19   9  14  1   
 20   9  36  1   
 21   9  37  1   
 22  10  15  1   
 23  10  38  1   
 24  10  39  1   
 25  11  16  1   
 26  11  40  1   
 27  11  41  1   
 28  12  17  2   
 29  13  18  1   
 30  13  19  1   
 31  14  20  1   
 32  14  21  1   
 33  14  42  1   
 34  15  22  1   
 35  15  43  1   
 36  15  44  1   
 37  16  22  1   
 38  16  45  1   
 39  16  46  1   
 40  17  18  1   
 41  17  47  1   
 42  18  48  1   
 43  19  49  1   
 44  19  50  1   
 45  19  51  1   
 46  20  52  1   
 47  20  53  1   
 48  20  54  1   
 49  21  55  1   
 50  21  56  1   
 51  21  57  1   
 52  22  23  1   
 53  23  24  ar  
 54  23  25  ar  
 55  24  26  ar  
 56  24  58  1   
 57  25  27  ar  
 58  25  59  1   
 59  26  28  ar  
 60  26  29  1   
 61  27  28  ar  
 62  27  60  1   
 63  28  61  1   
 64  29  62  1   
 65  29  63  1   
 66  29  64  1   
@<TRIPOS>SUBSTRUCTURE
  1 ****  11 GROUP 4 **** **** 0

# MOE 2024.06 (io_trps.svl 2023.06)
