@<TRIPOS>MOLECULE
NONAME
46 48 1 0 0 
SMALL
USER_CHARGES


@<TRIPOS>ATOM
  1 O       -0.3460     2.0280     0.1180 O.2   1 <1>  -0.5700 
  2 C       -0.7360     3.1620     0.2580 C.2   1 <1>   0.5690 
  3 N        0.0340     4.2730     0.2880 N.am  1 <1>  -0.6600 
  4 C       -2.1880     3.5150     0.4290 C.3   1 <1>  -0.0990 
  5 C       -0.7510     5.5080     0.4770 C.3   1 <1>   0.1400 
  6 C        1.5050     4.3030     0.1070 C.3   1 <1>   0.1400 
  7 C       -2.1580     5.0020     0.8270 C.3   1 <1>  -0.1600 
  8 C        1.8890     5.3090    -0.9770 C.3   1 <1>  -0.1600 
  9 C        3.3840     5.2690    -1.2760 C.3   1 <1>   0.2090 
 10 N        3.6900     6.3640    -2.2110 N.pl3 1 <1>  -0.8520 
 11 C        4.3810     7.4340    -1.6630 C.2   1 <1>   0.3720 
 12 N        5.5590     7.3390    -1.1610 N.2   1 <1>  -0.4100 
 13 C        3.8810     8.7340    -1.5780 C.2   1 <1>  -0.2330 
 14 O        5.8560     8.5440    -0.7560 O.3   1 <1>  -0.0190 
 15 C        4.8950     9.4140    -0.9740 C.2   1 <1>   0.0870 
 16 C        2.5860     9.1310    -2.0510 C.2   1 <1>   1.0330 
 17 C        5.0970    10.7790    -0.5470 C.ar  1 <1>   0.0530 
 18 O        2.2710    10.3260    -2.1550 O.co2 1 <1>  -0.9000 
 19 O        1.7280     8.2760    -2.3500 O.co2 1 <1>  -0.9000 
 20 C        6.3710    11.3500    -0.5760 C.ar  1 <1>  -0.1500 
 21 C        4.0570    11.5770    -0.0690 C.ar  1 <1>  -0.1500 
 22 C        6.5950    12.6470    -0.1530 C.ar  1 <1>  -0.1500 
 23 C        4.2690    12.8770     0.3530 C.ar  1 <1>  -0.1500 
 24 C        5.5480    13.4240     0.3150 C.ar  1 <1>   0.0820 
 25 O        5.8430    14.6860     0.7080 O.3   1 <1>  -0.3620 
 26 C        4.8310    15.5770     1.1210 C.3   1 <1>   0.0400 
 27 H       -2.6400     2.9030     1.1870 H     1 <1>   0.0800 
 28 H       -2.6900     3.3750    -0.5100 H     1 <1>   0.0800 
 29 H       -0.7650     6.0720    -0.4420 H     1 <1>   0.0800 
 30 H       -0.3360     6.1080     1.2680 H     1 <1>   0.0800 
 31 H        1.8460     3.3190    -0.1710 H     1 <1>   0.0800 
 32 H        1.9690     4.5710     1.0400 H     1 <1>   0.0800 
 33 H       -2.3060     5.0960     1.8880 H     1 <1>   0.0800 
 34 H       -2.9150     5.5720     0.3180 H     1 <1>   0.0800 
 35 H        1.6370     6.2990    -0.6410 H     1 <1>   0.0800 
 36 H        1.3460     5.0930    -1.8800 H     1 <1>   0.0800 
 37 H        3.6530     4.3310    -1.7300 H     1 <1>   0.0800 
 38 H        3.9500     5.3870    -0.3660 H     1 <1>   0.0800 
 39 H        2.7860     6.7690    -2.5400 H     1 <1>   0.4000 
 40 H        7.1950    10.7640    -0.9410 H     1 <1>   0.1500 
 41 H        3.0620    11.1710    -0.0320 H     1 <1>   0.1500 
 42 H        7.5830    13.0670    -0.1840 H     1 <1>   0.1500 
 43 H        3.4270    13.4410     0.7020 H     1 <1>   0.1500 
 44 H        5.2900    16.5200     1.3540 H     1 <1>   0.0800 
 45 H        4.3500    15.1760     1.9960 H     1 <1>   0.0800 
 46 H        4.1270    15.7000     0.3160 H     1 <1>   0.0800 
@<TRIPOS>BOND
  1   1   2  2   
  2   2   3  am  
  3   2   4  1   
  4   3   5  1   
  5   3   6  1   
  6   4   7  1   
  7   4  27  1   
  8   4  28  1   
  9   5   7  1   
 10   5  29  1   
 11   5  30  1   
 12   6   8  1   
 13   6  31  1   
 14   6  32  1   
 15   7  33  1   
 16   7  34  1   
 17   8   9  1   
 18   8  35  1   
 19   8  36  1   
 20   9  10  1   
 21   9  37  1   
 22   9  38  1   
 23  10  11  1   
 24  10  39  1   
 25  11  12  2   
 26  11  13  1   
 27  12  14  1   
 28  13  15  2   
 29  13  16  1   
 30  14  15  1   
 31  15  17  1   
 32  16  18  ar  
 33  16  19  ar  
 34  17  20  ar  
 35  17  21  ar  
 36  20  22  ar  
 37  20  40  1   
 38  21  23  ar  
 39  21  41  1   
 40  22  24  ar  
 41  22  42  1   
 42  23  24  ar  
 43  23  43  1   
 44  24  25  1   
 45  25  26  1   
 46  26  44  1   
 47  26  45  1   
 48  26  46  1   
@<TRIPOS>SUBSTRUCTURE
  1 ****  13 GROUP 4 **** **** 0

# MOE 2024.06 (io_trps.svl 2023.06)
