@<TRIPOS>MOLECULE
NONAME
54 57 1 0 0 
SMALL
USER_CHARGES


@<TRIPOS>ATOM
  1 O       -1.1530     0.8120    -0.6990 O.2   1 <1>  -0.5700 
  2 C       -0.7390     1.9480    -0.5430 C.2   1 <1>   0.5410 
  3 C        0.5980     2.3200    -0.1400 C.2   1 <1>   0.0910 
  4 C       -1.6280     3.0400    -0.7560 C.2   1 <1>  -0.1360 
  5 O        1.5960     1.4160     0.1170 O.3   1 <1>  -0.3570 
  6 C        0.9050     3.6310     0.0140 C.2   1 <1>  -0.0730 
  7 C       -1.2360     4.3250    -0.5750 C.2   1 <1>  -0.0610 
  8 C        1.6170     0.1620    -0.5360 C.3   1 <1>   0.0400 
  9 O        0.0130     4.6100    -0.1960 O.3   1 <1>  -0.1530 
 10 C       -2.1320     5.5340    -0.7870 C.3   1 <1>   0.4810 
 11 N       -2.4890     6.1430     0.5320 N.4   1 <1>  -0.9590 
 12 C       -3.8230     6.8630     0.6280 C.3   1 <1>   0.4230 
 13 C       -1.3390     6.9130     1.1040 C.3   1 <1>   0.3430 
 14 C       -3.8420     8.4230     0.6710 C.3   1 <1>   0.1380 
 15 C       -4.9170     6.3330    -0.3130 C.3   1 <1>  -0.1600 
 16 C       -1.7990     7.9040     2.1730 C.3   1 <1>  -0.1600 
 17 C       -3.7660     9.0830    -0.7430 C.2   1 <1>  -0.2760 
 18 C       -5.2050     8.7170     1.3820 C.3   1 <1>   0.1200 
 19 C       -2.7040     8.9910     1.5700 C.3   1 <1>  -0.1600 
 20 C       -6.2190     7.1170    -0.0840 C.3   1 <1>   0.1200 
 21 C       -4.7100     9.8590    -1.3030 C.2   1 <1>  -0.2880 
 22 C       -2.5070     8.8270    -1.5810 C.3   1 <1>  -0.0220 
 23 O       -6.1750     7.7130     1.1760 O.3   1 <1>  -0.5600 
 24 C       -4.6210    10.4650    -2.7020 C.3   1 <1>   0.2580 
 25 C       -2.3740     9.8390    -2.7260 C.3   1 <1>   0.1200 
 26 O       -3.5790     9.8730    -3.4150 O.3   1 <1>  -0.5600 
 27 H       -2.6200     2.7650    -1.0670 H     1 <1>   0.1500 
 28 H        1.8810     3.9720     0.3130 H     1 <1>   0.1500 
 29 H        2.5920    -0.2690    -0.4030 H     1 <1>   0.0800 
 30 H        1.4160     0.3020    -1.5840 H     1 <1>   0.0800 
 31 H        0.8760    -0.4780    -0.0890 H     1 <1>   0.0800 
 32 H       -3.0190     5.2040    -1.3000 H     1 <1>   0.0800 
 33 H       -1.6230     6.2480    -1.4110 H     1 <1>   0.0800 
 34 H       -2.6040     5.3330     1.1540 H     1 <1>   0.4500 
 35 H       -4.1830     6.6000     1.6100 H     1 <1>   0.0800 
 36 H       -0.6220     6.2290     1.5320 H     1 <1>   0.0800 
 37 H       -0.8400     7.4590     0.3210 H     1 <1>   0.0800 
 38 H       -5.1030     5.2940    -0.1120 H     1 <1>   0.0800 
 39 H       -4.6510     6.4520    -1.3470 H     1 <1>   0.0800 
 40 H       -2.3070     7.3800     2.9650 H     1 <1>   0.0800 
 41 H       -0.9330     8.3740     2.6080 H     1 <1>   0.0800 
 42 H       -5.6240     9.6680     1.1150 H     1 <1>   0.0800 
 43 H       -5.0640     8.7430     2.4480 H     1 <1>   0.0800 
 44 H       -2.0940     9.6720     1.0040 H     1 <1>   0.0800 
 45 H       -3.1030     9.5870     2.3740 H     1 <1>   0.0800 
 46 H       -7.0720     6.4600    -0.1110 H     1 <1>   0.0800 
 47 H       -6.3610     7.8870    -0.8220 H     1 <1>   0.0800 
 48 H       -5.6390    10.1450    -0.8470 H     1 <1>   0.1500 
 49 H       -2.5710     7.8590    -2.0310 H     1 <1>   0.0800 
 50 H       -1.6100     8.8850    -0.9970 H     1 <1>   0.0800 
 51 H       -4.4480    11.5260    -2.6540 H     1 <1>   0.0800 
 52 H       -5.5280    10.2820    -3.2510 H     1 <1>   0.0800 
 53 H       -1.6050     9.5410    -3.4160 H     1 <1>   0.0800 
 54 H       -2.1550    10.8270    -2.3570 H     1 <1>   0.0800 
@<TRIPOS>BOND
  1   1   2  2   
  2   2   3  1   
  3   2   4  1   
  4   3   5  1   
  5   3   6  2   
  6   4   7  2   
  7   4  27  1   
  8   5   8  1   
  9   6   9  1   
 10   6  28  1   
 11   7   9  1   
 12   7  10  1   
 13   8  29  1   
 14   8  30  1   
 15   8  31  1   
 16  10  11  1   
 17  10  32  1   
 18  10  33  1   
 19  11  12  1   
 20  11  13  1   
 21  11  34  1   
 22  12  14  1   
 23  12  15  1   
 24  12  35  1   
 25  13  16  1   
 26  13  36  1   
 27  13  37  1   
 28  14  17  1   
 29  14  18  1   
 30  14  19  1   
 31  15  20  1   
 32  15  38  1   
 33  15  39  1   
 34  16  19  1   
 35  16  40  1   
 36  16  41  1   
 37  17  21  2   
 38  17  22  1   
 39  18  23  1   
 40  18  42  1   
 41  18  43  1   
 42  19  44  1   
 43  19  45  1   
 44  20  23  1   
 45  20  46  1   
 46  20  47  1   
 47  21  24  1   
 48  21  48  1   
 49  22  25  1   
 50  22  49  1   
 51  22  50  1   
 52  24  26  1   
 53  24  51  1   
 54  24  52  1   
 55  25  26  1   
 56  25  53  1   
 57  25  54  1   
@<TRIPOS>SUBSTRUCTURE
  1 ****  11 GROUP 4 **** **** 0

# MOE 2024.06 (io_trps.svl 2023.06)
