@<TRIPOS>MOLECULE
NONAME
47 50 1 0 0 
SMALL
USER_CHARGES


@<TRIPOS>ATOM
  1 O       -2.1420    -4.2220     1.3710 O.2   1 <1>  -0.5700 
  2 C       -0.9670    -3.9280     1.4340 C.2   1 <1>   0.6900 
  3 N       -0.2630    -3.3180     0.4390 N.am  1 <1>  -0.6600 
  4 N       -0.1680    -4.2640     2.4670 N.am  1 <1>  -0.4900 
  5 C        1.1850    -3.3520     0.8080 C.3   1 <1>   0.2010 
  6 C       -0.6800    -3.3320    -1.0010 C.3   1 <1>   0.2010 
  7 C        1.1220    -3.9870     2.1880 C.2   1 <1>   0.5690 
  8 C       -0.6810    -4.7430    -1.5880 C.2   1 <1>   0.5690 
  9 O        2.0610    -4.2110     2.9050 O.2   1 <1>  -0.5700 
 10 O        0.0630    -5.0190    -2.4980 O.2   1 <1>  -0.5700 
 11 N       -1.4820    -5.6680    -1.0090 N.am  1 <1>  -0.7300 
 12 C       -1.3170    -7.1310    -1.1290 C.3   1 <1>   0.2200 
 13 C       -2.4410    -7.8590    -0.3990 C.3   1 <1>  -0.0800 
 14 C       -0.1180    -7.5660    -0.2930 C.3   1 <1>   0.1200 
 15 C       -1.9480    -7.8720     1.0550 C.3   1 <1>   0.1200 
 16 C       -3.8480    -7.2460    -0.5670 C.3   1 <1>  -0.0170 
 17 O       -0.5760    -7.6030     1.0260 O.3   1 <1>  -0.5600 
 18 C       -5.0000    -7.9990     0.1080 C.ar  1 <1>  -0.1440 
 19 C       -6.2510    -7.3570     0.2880 C.ar  1 <1>   0.0000 
 20 C       -4.8970    -9.2880     0.5550 C.ar  1 <1>  -0.1500 
 21 C       -7.2790    -8.0770     0.9440 C.ar  1 <1>   0.3100 
 22 C       -6.5480    -6.0430    -0.1480 C.ar  1 <1>  -0.1500 
 23 C       -5.9820    -9.9130     1.1800 C.ar  1 <1>   0.1600 
 24 N       -7.1290    -9.3520     1.3820 N.ar  1 <1>  -0.6200 
 25 C       -8.5220    -7.4580     1.1540 C.ar  1 <1>  -0.1500 
 26 C       -7.7710    -5.4680     0.0690 C.ar  1 <1>  -0.1500 
 27 C       -8.7720    -6.1810     0.7310 C.ar  1 <1>  -0.1500 
 28 H       -0.4800    -4.8160     3.2570 H     1 <1>   0.3700 
 29 H        1.7470    -3.9730     0.1320 H     1 <1>   0.0800 
 30 H        1.5950    -2.3600     0.8600 H     1 <1>   0.0800 
 31 H       -1.6720    -2.9260    -1.0830 H     1 <1>   0.0800 
 32 H       -0.0140    -2.7120    -1.5750 H     1 <1>   0.0800 
 33 H       -1.9590    -5.3790    -0.1420 H     1 <1>   0.3700 
 34 H       -1.2210    -7.4140    -2.1640 H     1 <1>   0.0800 
 35 H       -2.4500    -8.8690    -0.7650 H     1 <1>   0.0800 
 36 H        0.7150    -6.8900    -0.3700 H     1 <1>   0.0800 
 37 H        0.1930    -8.5600    -0.5620 H     1 <1>   0.0800 
 38 H       -2.1040    -8.8260     1.5280 H     1 <1>   0.0800 
 39 H       -2.4170    -7.0980     1.6390 H     1 <1>   0.0800 
 40 H       -4.0690    -7.1570    -1.6160 H     1 <1>   0.0800 
 41 H       -3.8250    -6.2550    -0.1520 H     1 <1>   0.0800 
 42 H       -4.0030    -9.8710     0.4510 H     1 <1>   0.1500 
 43 H       -5.8010    -5.4710    -0.6660 H     1 <1>   0.1500 
 44 H       -5.8520   -10.9280     1.5170 H     1 <1>   0.1500 
 45 H       -9.2770    -8.0270     1.6630 H     1 <1>   0.1500 
 46 H       -7.9760    -4.4660    -0.2660 H     1 <1>   0.1500 
 47 H       -9.7290    -5.7190     0.8990 H     1 <1>   0.1500 
@<TRIPOS>BOND
  1   1   2  2   
  2   2   3  am  
  3   2   4  am  
  4   3   5  1   
  5   3   6  1   
  6   4   7  am  
  7   4  28  1   
  8   5   7  1   
  9   5  29  1   
 10   5  30  1   
 11   6   8  1   
 12   6  31  1   
 13   6  32  1   
 14   7   9  2   
 15   8  10  2   
 16   8  11  am  
 17  11  12  1   
 18  11  33  1   
 19  12  13  1   
 20  12  14  1   
 21  12  34  1   
 22  13  15  1   
 23  13  16  1   
 24  13  35  1   
 25  14  17  1   
 26  14  36  1   
 27  14  37  1   
 28  15  17  1   
 29  15  38  1   
 30  15  39  1   
 31  16  18  1   
 32  16  40  1   
 33  16  41  1   
 34  18  19  ar  
 35  18  20  ar  
 36  19  21  ar  
 37  19  22  ar  
 38  20  23  ar  
 39  20  42  1   
 40  21  24  ar  
 41  21  25  ar  
 42  22  26  ar  
 43  22  43  1   
 44  23  24  ar  
 45  23  44  1   
 46  25  27  ar  
 47  25  45  1   
 48  26  27  ar  
 49  26  46  1   
 50  27  47  1   
@<TRIPOS>SUBSTRUCTURE
  1 ****  16 GROUP 4 **** **** 0

# MOE 2024.06 (io_trps.svl 2023.06)
