@<TRIPOS>MOLECULE
NONAME
20 20 1 0 0 
SMALL
USER_CHARGES


@<TRIPOS>ATOM
  1 N        6.7750    -1.4960     0.2590 N.pl3 1 <1>  -0.8380 
  2 C        5.8340    -2.3720    -0.2890 C.2   1 <1>  -0.0500 
  3 C        8.0910    -2.1840     0.0680 C.3   1 <1>   0.5780 
  4 C        6.7390    -0.1410    -0.3350 C.3   1 <1>   0.2090 
  5 C        6.3900    -3.4900    -0.7450 C.2   1 <1>  -0.0500 
  6 N        7.7760    -3.4940    -0.5840 N.pl3 1 <1>  -0.8380 
  7 C        5.7570     0.7120     0.4590 C.3   1 <1>  -0.2400 
  8 C        8.2530    -4.6540     0.2060 C.3   1 <1>   0.1290 
  9 H        4.7900    -2.1060    -0.3050 H     1 <1>   0.1500 
 10 H        8.5650    -2.3310     1.0240 H     1 <1>   0.0800 
 11 H        8.7390    -1.6110    -0.5730 H     1 <1>   0.0800 
 12 H        6.4350    -0.2000    -1.3670 H     1 <1>   0.0800 
 13 H        7.7160     0.3100    -0.2900 H     1 <1>   0.0800 
 14 H        5.8940    -4.3320    -1.1990 H     1 <1>   0.1500 
 15 H        4.7700     0.2930     0.4010 H     1 <1>   0.0800 
 16 H        5.7330     1.7090     0.0580 H     1 <1>   0.0800 
 17 H        6.0620     0.7600     1.4890 H     1 <1>   0.0800 
 18 H        9.3190    -4.5970     0.3380 H     1 <1>   0.0800 
 19 H        8.0180    -5.5660    -0.3160 H     1 <1>   0.0800 
 20 H        7.7720    -4.6680     1.1700 H     1 <1>   0.0800 
@<TRIPOS>BOND
  1   1   2  1   
  2   1   3  1   
  3   1   4  1   
  4   2   5  2   
  5   2   9  1   
  6   3   6  1   
  7   3  10  1   
  8   3  11  1   
  9   4   7  1   
 10   4  12  1   
 11   4  13  1   
 12   5   6  1   
 13   5  14  1   
 14   6   8  1   
 15   7  15  1   
 16   7  16  1   
 17   7  17  1   
 18   8  18  1   
 19   8  19  1   
 20   8  20  1   
@<TRIPOS>SUBSTRUCTURE
  1 ****   1 GROUP 4 **** **** 0

# MOE 2024.06 (io_trps.svl 2023.06)
