@<TRIPOS>MOLECULE
NONAME
45 48 1 0 0 
SMALL
USER_CHARGES


@<TRIPOS>ATOM
  1 O       -3.0320     1.9490    -1.6000 O.2   1 <1>  -0.5700 
  2 C       -2.4080     1.5120    -0.6630 C.2   1 <1>   0.5690 
  3 N       -2.2670     0.1760    -0.4690 N.am  1 <1>  -0.7300 
  4 C       -1.8000     2.4920     0.3170 C.3   1 <1>   0.1570 
  5 C       -2.7620    -0.8940    -1.3630 C.3   1 <1>   0.2200 
  6 N       -0.5100     1.9920     0.8150 N.pl3 1 <1>   0.3140 
  7 C       -3.8260    -1.7380    -0.6770 C.3   1 <1>  -0.0800 
  8 C       -1.6630    -1.9280    -1.5690 C.3   1 <1>   0.1200 
  9 N       -0.4370     1.0140     1.7420 N.2   1 <1>  -0.7070 
 10 C        0.7190     2.3940     0.4340 C.2   1 <1>  -0.3020 
 11 C       -3.0000    -2.7640     0.1040 C.3   1 <1>   0.1200 
 12 C       -4.8420    -0.9650     0.1870 C.3   1 <1>  -0.0170 
 13 O       -1.7200    -2.7700    -0.4570 O.3   1 <1>  -0.5600 
 14 C        0.8350     0.8240     1.9260 C.2   1 <1>   0.1390 
 15 C        1.6100     1.6600     1.1330 C.2   1 <1>  -0.1500 
 16 C       -5.9330    -1.8940     0.7100 C.ar  1 <1>  -0.1440 
 17 C       -7.0120    -2.3280    -0.0970 C.ar  1 <1>   0.0000 
 18 C       -5.8890    -2.3450     1.9970 C.ar  1 <1>  -0.1500 
 19 C       -7.9540    -3.2110     0.4840 C.ar  1 <1>   0.3100 
 20 C       -7.2120    -1.9370    -1.4420 C.ar  1 <1>  -0.1500 
 21 C       -6.8780    -3.2120     2.4760 C.ar  1 <1>   0.1600 
 22 N       -7.8740    -3.6420     1.7680 N.ar  1 <1>  -0.6200 
 23 C       -9.0280    -3.6680    -0.2970 C.ar  1 <1>  -0.1500 
 24 C       -8.2710    -2.3990    -2.1750 C.ar  1 <1>  -0.1500 
 25 C       -9.1910    -3.2770    -1.5980 C.ar  1 <1>  -0.1500 
 26 H       -1.6810    -0.1470     0.3190 H     1 <1>   0.3700 
 27 H       -2.4640     2.6210     1.1490 H     1 <1>   0.0800 
 28 H       -1.6490     3.4380    -0.1650 H     1 <1>   0.0800 
 29 H       -3.1040    -0.4780    -2.2960 H     1 <1>   0.0800 
 30 H       -4.3590    -2.2750    -1.4400 H     1 <1>   0.0800 
 31 H       -0.6850    -1.4880    -1.6410 H     1 <1>   0.0800 
 32 H       -1.8630    -2.5260    -2.4410 H     1 <1>   0.0800 
 33 H        0.8910     3.1620    -0.2980 H     1 <1>   0.1500 
 34 H       -3.4200    -3.7530     0.0340 H     1 <1>   0.0800 
 35 H       -2.8960    -2.4850     1.1380 H     1 <1>   0.0800 
 36 H       -5.2810    -0.1660    -0.3830 H     1 <1>   0.0800 
 37 H       -4.3370    -0.5090     1.0200 H     1 <1>   0.0800 
 38 H        1.2340     0.0980     2.6160 H     1 <1>   0.1500 
 39 H        2.6850     1.6910     1.1050 H     1 <1>   0.1500 
 40 H       -5.1030    -2.0540     2.6700 H     1 <1>   0.1500 
 41 H       -6.5200    -1.2580    -1.9040 H     1 <1>   0.1500 
 42 H       -6.8050    -3.5430     3.4980 H     1 <1>   0.1500 
 43 H       -9.7240    -4.3410     0.1680 H     1 <1>   0.1500 
 44 H       -8.4100    -2.0940    -3.1980 H     1 <1>   0.1500 
 45 H      -10.0190    -3.6360    -2.1850 H     1 <1>   0.1500 
@<TRIPOS>BOND
  1   1   2  2   
  2   2   3  am  
  3   2   4  1   
  4   3   5  1   
  5   3  26  1   
  6   4   6  1   
  7   4  27  1   
  8   4  28  1   
  9   5   7  1   
 10   5   8  1   
 11   5  29  1   
 12   6   9  1   
 13   6  10  1   
 14   7  11  1   
 15   7  12  1   
 16   7  30  1   
 17   8  13  1   
 18   8  31  1   
 19   8  32  1   
 20   9  14  2   
 21  10  15  2   
 22  10  33  1   
 23  11  13  1   
 24  11  34  1   
 25  11  35  1   
 26  12  16  1   
 27  12  36  1   
 28  12  37  1   
 29  14  15  1   
 30  14  38  1   
 31  15  39  1   
 32  16  17  ar  
 33  16  18  ar  
 34  17  19  ar  
 35  17  20  ar  
 36  18  21  ar  
 37  18  40  1   
 38  19  22  ar  
 39  19  23  ar  
 40  20  24  ar  
 41  20  41  1   
 42  21  22  ar  
 43  21  42  1   
 44  23  25  ar  
 45  23  43  1   
 46  24  25  ar  
 47  24  44  1   
 48  25  45  1   
@<TRIPOS>SUBSTRUCTURE
  1 ****  12 GROUP 4 **** **** 0

# MOE 2024.06 (io_trps.svl 2023.06)
