@<TRIPOS>MOLECULE
NONAME
49 51 1 0 0 
SMALL
USER_CHARGES


@<TRIPOS>ATOM
  1 S       -0.6480     0.1170    -0.3260 S.3   1 <1>  -0.4600 
  2 C       -1.6940     1.4330     0.3290 C.3   1 <1>   0.0700 
  3 C       -1.4710    -1.3830     0.2500 C.3   1 <1>   0.0700 
  4 C       -3.1100     1.2070    -0.2060 C.3   1 <1>  -0.1600 
  5 C       -2.9090    -1.3510    -0.2710 C.3   1 <1>  -0.1600 
  6 C       -3.6870    -0.1400     0.2620 C.3   1 <1>   0.4230 
  7 N       -5.1240    -0.2680    -0.1130 N.4   1 <1>  -0.9590 
  8 C       -5.4070    -0.1450    -1.5830 C.3   1 <1>   0.3430 
  9 C       -6.0220     0.5800     0.7210 C.3   1 <1>   0.3430 
 10 C       -6.7830    -0.7290    -1.9790 C.3   1 <1>   0.1400 
 11 C       -7.2340    -0.2160     1.2160 C.3   1 <1>  -0.1600 
 12 N       -7.4500    -1.5030    -0.8810 N.am  1 <1>  -0.6600 
 13 C       -8.1910    -0.6920     0.1150 C.3   1 <1>   0.1400 
 14 C       -7.0480    -2.7810    -0.5760 C.2   1 <1>   0.5440 
 15 O       -5.8480    -2.9890    -0.5960 O.2   1 <1>  -0.5700 
 16 C       -7.9870    -3.8130    -0.1680 C.ar  1 <1>   0.0860 
 17 C       -9.3170    -3.7960    -0.5860 C.ar  1 <1>  -0.1500 
 18 C       -7.5870    -4.8660     0.6620 C.ar  1 <1>  -0.1500 
 19 C      -10.1810    -4.7840    -0.1640 C.ar  1 <1>   0.1900 
 20 C       -8.4640    -5.8560     1.0810 C.ar  1 <1>  -0.1430 
 21 F      -11.4230    -4.7420    -0.5620 F     1 <1>  -0.1900 
 22 C       -9.7830    -5.8150     0.6630 C.ar  1 <1>  -0.1500 
 23 C       -7.9900    -6.9830     1.9820 C.3   1 <1>  -0.0970 
 24 H       -1.2800     2.3660    -0.0170 H     1 <1>   0.0800 
 25 H       -1.6440     1.3860     1.4030 H     1 <1>   0.0800 
 26 H       -1.4220    -1.3920     1.3250 H     1 <1>   0.0800 
 27 H       -0.9220    -2.2190    -0.1490 H     1 <1>   0.0800 
 28 H       -3.0700     1.2510    -1.2790 H     1 <1>   0.0800 
 29 H       -3.7230     2.0150     0.1470 H     1 <1>   0.0800 
 30 H       -3.3900    -2.2580     0.0490 H     1 <1>   0.0800 
 31 H       -2.8750    -1.3470    -1.3450 H     1 <1>   0.0800 
 32 H       -3.6210    -0.1710     1.3380 H     1 <1>   0.0800 
 33 H       -5.3890    -1.2590     0.0710 H     1 <1>   0.4500 
 34 H       -4.6600    -0.6900    -2.1340 H     1 <1>   0.0800 
 35 H       -5.3470     0.8840    -1.8930 H     1 <1>   0.0800 
 36 H       -6.3480     1.4390     0.1580 H     1 <1>   0.0800 
 37 H       -5.4790     0.9370     1.5820 H     1 <1>   0.0800 
 38 H       -6.6440    -1.3790    -2.8260 H     1 <1>   0.0800 
 39 H       -7.4290     0.0690    -2.3010 H     1 <1>   0.0800 
 40 H       -7.7940     0.4140     1.8840 H     1 <1>   0.0800 
 41 H       -6.9010    -1.0590     1.7960 H     1 <1>   0.0800 
 42 H       -8.6550     0.1500    -0.3710 H     1 <1>   0.0800 
 43 H       -8.9750    -1.2850     0.5570 H     1 <1>   0.0800 
 44 H       -9.6810    -3.0230    -1.2390 H     1 <1>   0.1500 
 45 H       -6.5590    -4.9060     0.9810 H     1 <1>   0.1500 
 46 H      -10.4920    -6.5650     0.9650 H     1 <1>   0.1500 
 47 H       -7.0630    -6.7270     2.4630 H     1 <1>   0.0800 
 48 H       -7.8420    -7.8760     1.4020 H     1 <1>   0.0800 
 49 H       -8.7230    -7.1820     2.7440 H     1 <1>   0.0800 
@<TRIPOS>BOND
  1   1   2  1   
  2   1   3  1   
  3   2   4  1   
  4   2  24  1   
  5   2  25  1   
  6   3   5  1   
  7   3  26  1   
  8   3  27  1   
  9   4   6  1   
 10   4  28  1   
 11   4  29  1   
 12   5   6  1   
 13   5  30  1   
 14   5  31  1   
 15   6   7  1   
 16   6  32  1   
 17   7   8  1   
 18   7   9  1   
 19   7  33  1   
 20   8  10  1   
 21   8  34  1   
 22   8  35  1   
 23   9  11  1   
 24   9  36  1   
 25   9  37  1   
 26  10  12  1   
 27  10  38  1   
 28  10  39  1   
 29  11  13  1   
 30  11  40  1   
 31  11  41  1   
 32  12  13  1   
 33  12  14  am  
 34  13  42  1   
 35  13  43  1   
 36  14  15  2   
 37  14  16  1   
 38  16  17  ar  
 39  16  18  ar  
 40  17  19  ar  
 41  17  44  1   
 42  18  20  ar  
 43  18  45  1   
 44  19  21  1   
 45  19  22  ar  
 46  20  22  ar  
 47  20  23  1   
 48  22  46  1   
 49  23  47  1   
 50  23  48  1   
 51  23  49  1   
@<TRIPOS>SUBSTRUCTURE
  1 ****  14 GROUP 4 **** **** 0

# MOE 2024.06 (io_trps.svl 2023.06)
