@<TRIPOS>MOLECULE
NONAME
25 25 1 0 0 
SMALL
USER_CHARGES


@<TRIPOS>ATOM
  1 CL       0.0530     0.0880     0.9350 Cl    1 <1>  -0.1770 
  2 C       -0.0340     1.7670     0.4680 C.ar  1 <1>   0.1770 
  3 C        0.8470     2.6720     1.0280 C.ar  1 <1>  -0.1500 
  4 C       -0.9830     2.1660    -0.4540 C.ar  1 <1>  -0.1500 
  5 C        0.7750     4.0040     0.6550 C.ar  1 <1>  -0.1500 
  6 C       -1.0500     3.5000    -0.8210 C.ar  1 <1>  -0.1500 
  7 C       -0.1720     4.4230    -0.2690 C.ar  1 <1>  -0.1430 
  8 C       -0.2490     5.8870    -0.6720 C.3   1 <1>  -0.0160 
  9 C       -1.2160     6.6440     0.2500 C.3   1 <1>  -0.1600 
 10 C       -1.3850     8.1150    -0.1470 C.3   1 <1>   0.2000 
 11 O       -0.1650     8.7450    -0.0590 O.3   1 <1>  -0.6800 
 12 C       -2.3460     8.8570     0.7760 C.3   1 <1>  -0.2400 
 13 H        1.5770     2.3370     1.7420 H     1 <1>   0.1500 
 14 H       -1.6570     1.4430    -0.8740 H     1 <1>   0.1500 
 15 H        1.4590     4.7140     1.0880 H     1 <1>   0.1500 
 16 H       -1.7870     3.8170    -1.5380 H     1 <1>   0.1500 
 17 H        0.7320     6.3260    -0.6200 H     1 <1>   0.0800 
 18 H       -0.5830     5.9650    -1.6920 H     1 <1>   0.0800 
 19 H       -0.8750     6.5770     1.2680 H     1 <1>   0.0800 
 20 H       -2.1780     6.1660     0.2020 H     1 <1>   0.0800 
 21 H       -1.7180     8.1910    -1.1690 H     1 <1>   0.0800 
 22 H        0.1280     8.7670     0.8700 H     1 <1>   0.4000 
 23 H       -2.0180     8.8030     1.7980 H     1 <1>   0.0800 
 24 H       -3.3240     8.4170     0.7090 H     1 <1>   0.0800 
 25 H       -2.4210     9.8870     0.4760 H     1 <1>   0.0800 
@<TRIPOS>BOND
  1   1   2  1   
  2   2   3  ar  
  3   2   4  ar  
  4   3   5  ar  
  5   3  13  1   
  6   4   6  ar  
  7   4  14  1   
  8   5   7  ar  
  9   5  15  1   
 10   6   7  ar  
 11   6  16  1   
 12   7   8  1   
 13   8   9  1   
 14   8  17  1   
 15   8  18  1   
 16   9  10  1   
 17   9  19  1   
 18   9  20  1   
 19  10  11  1   
 20  10  12  1   
 21  10  21  1   
 22  11  22  1   
 23  12  23  1   
 24  12  24  1   
 25  12  25  1   
@<TRIPOS>SUBSTRUCTURE
  1 ****   7 GROUP 4 **** **** 0

# MOE 2024.06 (io_trps.svl 2023.06)
