@<TRIPOS>MOLECULE
NONAME
40 42 1 0 0 
SMALL
USER_CHARGES


@<TRIPOS>ATOM
  1 CL      -0.1940    -0.1280     0.4470 Cl    1 <1>  -0.1770 
  2 C       -1.2670     1.1940     0.0570 C.ar  1 <1>   0.1770 
  3 C       -1.1310     2.4520     0.6320 C.ar  1 <1>  -0.0090 
  4 C       -2.2550     0.9120    -0.8700 C.ar  1 <1>  -0.1500 
  5 S        0.1580     2.8890     1.8320 S.o2  1 <1>   1.4470 
  6 C       -2.0330     3.4260     0.2150 C.ar  1 <1>  -0.1500 
  7 C       -3.1540     1.8900    -1.2700 C.ar  1 <1>   0.0730 
  8 O        0.7420     1.7480     2.4990 O.2   1 <1>  -0.6500 
  9 O       -0.3690     3.9590     2.6510 O.2   1 <1>  -0.6500 
 10 N        1.3660     3.5680     0.8530 N.am  1 <1>  -0.8490 
 11 C       -3.0250     3.1550    -0.7120 C.ar  1 <1>  -0.1500 
 12 C       -4.1820     1.6030    -2.2310 C.1   1 <1>   0.4840 
 13 C        2.1960     4.5520     1.5880 C.3   1 <1>   0.1960 
 14 C        2.1700     2.5430     0.1610 C.3   1 <1>   0.1960 
 15 N       -4.9990     1.3710    -2.9910 N.1   1 <1>  -0.5570 
 16 C        3.1290     5.4390     0.7190 C.3   1 <1>   0.2200 
 17 C        3.0650     3.0800    -0.9710 C.3   1 <1>  -0.0190 
 18 N        2.6890     5.5370    -0.7090 N.am  1 <1>  -0.6600 
 19 C        4.6050     5.0030     0.8120 C.3   1 <1>   0.1200 
 20 C        2.6070     4.4250    -1.5040 C.2   1 <1>   0.5690 
 21 C        4.5570     3.1080    -0.6070 C.3   1 <1>   0.1200 
 22 C        2.2080     6.8710    -1.1630 C.3   1 <1>   0.0600 
 23 O        4.7700     3.6230     0.6700 O.3   1 <1>  -0.5600 
 24 O        2.1990     4.4700    -2.6410 O.2   1 <1>  -0.5700 
 25 H       -2.3190    -0.0810    -1.2830 H     1 <1>   0.1500 
 26 H       -1.9570     4.4210     0.6260 H     1 <1>   0.1500 
 27 H       -3.7040     3.9390    -1.0060 H     1 <1>   0.1500 
 28 H        1.5440     5.2360     2.1020 H     1 <1>   0.0800 
 29 H        2.7700     4.0470     2.3470 H     1 <1>   0.0800 
 30 H        2.7630     1.9960     0.8770 H     1 <1>   0.0800 
 31 H        1.4960     1.8390    -0.2920 H     1 <1>   0.0800 
 32 H        3.0950     6.4290     1.1380 H     1 <1>   0.0800 
 33 H        2.9840     2.3870    -1.7880 H     1 <1>   0.0800 
 34 H        4.9820     5.2540     1.7870 H     1 <1>   0.0800 
 35 H        5.2050     5.5120     0.0770 H     1 <1>   0.0800 
 36 H        5.1240     3.6810    -1.3210 H     1 <1>   0.0800 
 37 H        4.9390     2.1020    -0.6000 H     1 <1>   0.0800 
 38 H        2.9930     7.5990    -1.0540 H     1 <1>   0.0800 
 39 H        1.3580     7.1690    -0.5750 H     1 <1>   0.0800 
 40 H        1.9140     6.8380    -2.1980 H     1 <1>   0.0800 
@<TRIPOS>BOND
  1   1   2  1   
  2   2   3  ar  
  3   2   4  ar  
  4   3   5  1   
  5   3   6  ar  
  6   4   7  ar  
  7   4  25  1   
  8   5   8  2   
  9   5   9  2   
 10   5  10  am  
 11   6  11  ar  
 12   6  26  1   
 13   7  11  ar  
 14   7  12  1   
 15  10  13  1   
 16  10  14  1   
 17  11  27  1   
 18  12  15  3   
 19  13  16  1   
 20  13  28  1   
 21  13  29  1   
 22  14  17  1   
 23  14  30  1   
 24  14  31  1   
 25  16  18  1   
 26  16  19  1   
 27  16  32  1   
 28  17  20  1   
 29  17  21  1   
 30  17  33  1   
 31  18  20  am  
 32  18  22  1   
 33  19  23  1   
 34  19  34  1   
 35  19  35  1   
 36  20  24  2   
 37  21  23  1   
 38  21  36  1   
 39  21  37  1   
 40  22  38  1   
 41  22  39  1   
 42  22  40  1   
@<TRIPOS>SUBSTRUCTURE
  1 ****  10 GROUP 4 **** **** 0

# MOE 2024.06 (io_trps.svl 2023.06)
