@<TRIPOS>MOLECULE
NONAME
44 46 1 0 0 
SMALL
USER_CHARGES


@<TRIPOS>ATOM
  1 O        3.5730    -0.9030    -0.0740 O.2   1 <1>  -0.5700 
  2 C        2.5280    -0.9850     0.5330 C.2   1 <1>   0.5690 
  3 N        1.7060     0.0940     0.7240 N.am  1 <1>  -0.4930 
  4 C        2.1250    -2.3780     1.1000 C.3   1 <1>   0.6280 
  5 C        1.8440     1.4130     0.2220 C.2   1 <1>   0.0630 
  6 N        2.7320    -3.5980     0.4370 N.4   1 <1>  -0.9590 
  7 C        0.6160    -2.5790     1.1100 C.ar  1 <1>  -0.1430 
  8 C        2.9610     2.2510     0.1230 C.2   1 <1>   0.1080 
  9 C        0.8270     2.1500    -0.2680 C.2   1 <1>  -0.3020 
 10 C        4.1860    -3.7520     0.7010 C.3   1 <1>   0.3430 
 11 C        2.6060    -3.6280    -1.0440 C.3   1 <1>   0.3430 
 12 C        0.0150    -3.0360     2.2750 C.ar  1 <1>   0.1600 
 13 C       -0.1850    -2.3240     0.0080 C.ar  1 <1>  -0.1500 
 14 N        2.6600     3.4010    -0.3930 N.2   1 <1>  -0.7070 
 15 C        4.3780     1.9430     0.5550 C.3   1 <1>  -0.0590 
 16 N        1.3430     3.3410    -0.6370 N.pl3 1 <1>   0.3140 
 17 C        4.6600    -4.7370    -0.3580 C.3   1 <1>  -0.1600 
 18 C        3.6280    -4.6640    -1.4870 C.3   1 <1>  -0.1600 
 19 N       -1.2760    -3.2550     2.4180 N.ar  1 <1>  -0.6200 
 20 C       -1.5370    -2.5500     0.1480 C.ar  1 <1>  -0.1500 
 21 C        0.6200     4.4680    -1.2370 C.3   1 <1>   0.0160 
 22 C       -2.0270    -3.0110     1.3570 C.ar  1 <1>   0.1600 
 23 H        0.7950    -0.0630     1.1630 H     1 <1>   0.3700 
 24 H        2.4490    -2.3760     2.1270 H     1 <1>   0.0800 
 25 H        2.2500    -4.4310     0.7960 H     1 <1>   0.4500 
 26 H       -0.2120     1.9090    -0.3790 H     1 <1>   0.1500 
 27 H        4.3810    -4.1150     1.6980 H     1 <1>   0.0800 
 28 H        4.6920    -2.8100     0.5570 H     1 <1>   0.0800 
 29 H        2.8730    -2.6690    -1.4600 H     1 <1>   0.0800 
 30 H        1.6080    -3.8930    -1.3590 H     1 <1>   0.0800 
 31 H        0.6170    -3.2370     3.1470 H     1 <1>   0.1500 
 32 H        0.2030    -1.9580    -0.9300 H     1 <1>   0.1500 
 33 H        4.3770     1.2990     1.4130 H     1 <1>   0.0800 
 34 H        4.8850     2.8570     0.8080 H     1 <1>   0.0800 
 35 H        4.9040     1.4670    -0.2510 H     1 <1>   0.0800 
 36 H        4.7000    -5.7310     0.0540 H     1 <1>   0.0800 
 37 H        5.6450    -4.4690    -0.7010 H     1 <1>   0.0800 
 38 H        4.0770    -4.3710    -2.4200 H     1 <1>   0.0800 
 39 H        3.1480    -5.6180    -1.6230 H     1 <1>   0.0800 
 40 H       -2.2150    -2.3720    -0.6690 H     1 <1>   0.1500 
 41 H       -0.3490     4.5540    -0.7830 H     1 <1>   0.0800 
 42 H        0.5200     4.2970    -2.2920 H     1 <1>   0.0800 
 43 H        1.1790     5.3700    -1.0700 H     1 <1>   0.0800 
 44 H       -3.0860    -3.1860     1.4580 H     1 <1>   0.1500 
@<TRIPOS>BOND
  1   1   2  2   
  2   2   3  am  
  3   2   4  1   
  4   3   5  1   
  5   3  23  1   
  6   4   6  1   
  7   4   7  1   
  8   4  24  1   
  9   5   8  1   
 10   5   9  2   
 11   6  10  1   
 12   6  11  1   
 13   6  25  1   
 14   7  12  ar  
 15   7  13  ar  
 16   8  14  2   
 17   8  15  1   
 18   9  16  1   
 19   9  26  1   
 20  10  17  1   
 21  10  27  1   
 22  10  28  1   
 23  11  18  1   
 24  11  29  1   
 25  11  30  1   
 26  12  19  ar  
 27  12  31  1   
 28  13  20  ar  
 29  13  32  1   
 30  14  16  1   
 31  15  33  1   
 32  15  34  1   
 33  15  35  1   
 34  16  21  1   
 35  17  18  1   
 36  17  36  1   
 37  17  37  1   
 38  18  38  1   
 39  18  39  1   
 40  19  22  ar  
 41  20  22  ar  
 42  20  40  1   
 43  21  41  1   
 44  21  42  1   
 45  21  43  1   
 46  22  44  1   
@<TRIPOS>SUBSTRUCTURE
  1 ****   2 GROUP 4 **** **** 0

# MOE 2024.06 (io_trps.svl 2023.06)
