@<TRIPOS>MOLECULE
NONAME
47 49 1 0 0 
SMALL
USER_CHARGES


@<TRIPOS>ATOM
  1 S       -0.3600     0.1630     1.1380 S.3   1 <1>  -0.0800 
  2 C        0.9310    -0.8680     0.5590 C.2   1 <1>  -0.0450 
  3 C        0.4620     1.5620     0.4940 C.2   1 <1>   0.1980 
  4 C        1.8410    -0.0610    -0.0350 C.2   1 <1>   0.0460 
  5 C        0.8790    -2.2870     0.7960 C.2   1 <1>   0.7150 
  6 N        1.5670     1.2890    -0.0770 N.2   1 <1>  -0.5650 
  7 C       -0.2200     2.9150     0.6830 C.3   1 <1>   0.1000 
  8 C        3.1490    -0.4910    -0.6660 C.3   1 <1>  -0.0590 
  9 O        1.8700    -2.8650     1.2020 O.2   1 <1>  -0.5700 
 10 N       -0.2530    -3.0350     0.5490 N.am  1 <1>  -0.6600 
 11 C       -1.3550     3.0930    -0.3350 C.3   1 <1>  -0.2400 
 12 C        0.7760     4.0770     0.5630 C.3   1 <1>  -0.2400 
 13 C       -1.3250    -2.6430    -0.4070 C.3   1 <1>   0.1400 
 14 C       -0.3040    -4.5020     0.7920 C.3   1 <1>   0.1400 
 15 C       -2.2580    -3.8520    -0.4670 C.3   1 <1>   0.2000 
 16 C       -1.3300    -5.0420    -0.2100 C.3   1 <1>  -0.0800 
 17 O       -3.1710    -3.7420     0.5710 O.3   1 <1>  -0.6800 
 18 C       -2.0360    -6.3300     0.2540 C.3   1 <1>   0.0200 
 19 C       -1.0940    -7.5190     0.3650 C.2   1 <1>  -0.0400 
 20 O       -1.5450    -8.6260     0.8930 O.3   1 <1>  -0.0190 
 21 C        0.1880    -7.7240     0.0220 C.2   1 <1>  -0.1500 
 22 N       -0.6350    -9.5560     0.9260 N.2   1 <1>  -0.4100 
 23 C        0.4200    -9.0410     0.4070 C.2   1 <1>   0.1080 
 24 C        1.7320    -9.7750     0.2440 C.3   1 <1>  -0.0590 
 25 H       -0.6390     2.9380     1.6740 H     1 <1>   0.0800 
 26 H        3.2770    -1.5560    -0.6100 H     1 <1>   0.0800 
 27 H        3.9660    -0.0180    -0.1530 H     1 <1>   0.0800 
 28 H        3.1680    -0.1910    -1.6980 H     1 <1>   0.0800 
 29 H       -0.9620     3.0540    -1.3360 H     1 <1>   0.0800 
 30 H       -1.8450     4.0390    -0.1910 H     1 <1>   0.0800 
 31 H       -2.0830     2.3100    -0.2230 H     1 <1>   0.0800 
 32 H        1.2110     4.0960    -0.4210 H     1 <1>   0.0800 
 33 H        1.5680     3.9550     1.2800 H     1 <1>   0.0800 
 34 H        0.2870     5.0170     0.7460 H     1 <1>   0.0800 
 35 H       -1.8560    -1.7630    -0.0890 H     1 <1>   0.0800 
 36 H       -0.8860    -2.4680    -1.3740 H     1 <1>   0.0800 
 37 H        0.6630    -4.9550     0.6470 H     1 <1>   0.0800 
 38 H       -0.6260    -4.6760     1.8040 H     1 <1>   0.0800 
 39 H       -2.8010    -3.9220    -1.3940 H     1 <1>   0.0800 
 40 H       -0.8120    -5.2510    -1.1300 H     1 <1>   0.0800 
 41 H       -2.6950    -3.4990     1.3920 H     1 <1>   0.4000 
 42 H       -2.8170    -6.5800    -0.4420 H     1 <1>   0.0800 
 43 H       -2.4950    -6.1730     1.2140 H     1 <1>   0.0800 
 44 H        0.9030    -7.0690    -0.4400 H     1 <1>   0.1500 
 45 H        2.5080    -9.2600     0.7800 H     1 <1>   0.0800 
 46 H        1.9940    -9.8270    -0.7970 H     1 <1>   0.0800 
 47 H        1.6440   -10.7740     0.6310 H     1 <1>   0.0800 
@<TRIPOS>BOND
  1   1   2  1   
  2   1   3  1   
  3   2   4  2   
  4   2   5  1   
  5   3   6  2   
  6   3   7  1   
  7   4   6  1   
  8   4   8  1   
  9   5   9  2   
 10   5  10  am  
 11   7  11  1   
 12   7  12  1   
 13   7  25  1   
 14   8  26  1   
 15   8  27  1   
 16   8  28  1   
 17  10  13  1   
 18  10  14  1   
 19  11  29  1   
 20  11  30  1   
 21  11  31  1   
 22  12  32  1   
 23  12  33  1   
 24  12  34  1   
 25  13  15  1   
 26  13  35  1   
 27  13  36  1   
 28  14  16  1   
 29  14  37  1   
 30  14  38  1   
 31  15  16  1   
 32  15  17  1   
 33  15  39  1   
 34  16  18  1   
 35  16  40  1   
 36  17  41  1   
 37  18  19  1   
 38  18  42  1   
 39  18  43  1   
 40  19  20  1   
 41  19  21  2   
 42  20  22  1   
 43  21  23  1   
 44  21  44  1   
 45  22  23  2   
 46  23  24  1   
 47  24  45  1   
 48  24  46  1   
 49  24  47  1   
@<TRIPOS>SUBSTRUCTURE
  1 ****  10 GROUP 4 **** **** 0

# MOE 2024.06 (io_trps.svl 2023.06)
