@<TRIPOS>MOLECULE
NONAME
40 42 1 0 0 
SMALL
USER_CHARGES


@<TRIPOS>ATOM
  1 O       -2.0140    -0.6700    -2.7650 O.2   1 <1>  -0.5700 
  2 C       -2.1660    -0.9860    -1.6180 C.2   1 <1>   0.5690 
  3 N       -2.1130    -0.0600    -0.6450 N.am  1 <1>  -0.7300 
  4 C       -2.4590    -2.4200    -1.2720 C.3   1 <1>  -0.0190 
  5 C       -2.2900    -0.3150     0.8030 C.3   1 <1>   0.2200 
  6 C       -1.3660    -3.0220    -0.3590 C.3   1 <1>   0.1200 
  7 C       -3.9070    -2.5150    -0.7710 C.3   1 <1>   0.3430 
  8 C       -1.2120    -1.3060     1.3110 C.3   1 <1>   0.1200 
  9 C       -3.7470    -0.7710     1.1010 C.3   1 <1>   0.3430 
 10 O       -1.4980    -2.6440     0.9860 O.3   1 <1>  -0.5600 
 11 N       -4.0740    -2.1830     0.6860 N.4   1 <1>  -0.9590 
 12 C       -5.3710    -2.6590     1.2350 C.3   1 <1>   0.4860 
 13 C       -5.4490    -4.1600     1.0430 C.ar  1 <1>  -0.1440 
 14 C       -6.3660    -4.6980     0.1510 C.ar  1 <1>  -0.1500 
 15 C       -4.5960    -5.0040     1.7400 C.ar  1 <1>  -0.1500 
 16 C       -6.4270    -6.0660    -0.0550 C.ar  1 <1>  -0.1440 
 17 C       -4.6540    -6.3700     1.5350 C.ar  1 <1>  -0.1500 
 18 C       -5.5650    -6.8980     0.6380 C.ar  1 <1>  -0.1500 
 19 C       -7.4280    -6.6600    -1.0300 C.3   1 <1>  -0.0970 
 20 H       -1.8570     0.8890    -0.9430 H     1 <1>   0.3700 
 21 H       -2.4160    -2.9590    -2.2010 H     1 <1>   0.0800 
 22 H       -2.1300     0.6230     1.3060 H     1 <1>   0.0800 
 23 H       -0.3830    -2.7450    -0.7030 H     1 <1>   0.0800 
 24 H       -1.4340    -4.0960    -0.3860 H     1 <1>   0.0800 
 25 H       -4.2330    -3.5290    -0.9350 H     1 <1>   0.0800 
 26 H       -4.5340    -1.8730    -1.3700 H     1 <1>   0.0800 
 27 H       -1.1640    -1.2550     2.3850 H     1 <1>   0.0800 
 28 H       -0.2390    -1.0500     0.9260 H     1 <1>   0.0800 
 29 H       -4.4260    -0.0840     0.6240 H     1 <1>   0.0800 
 30 H       -3.8980    -0.6880     2.1640 H     1 <1>   0.0800 
 31 H       -3.3360    -2.7620     1.1340 H     1 <1>   0.4500 
 32 H       -5.4360    -2.4360     2.2880 H     1 <1>   0.0800 
 33 H       -6.1910    -2.1780     0.7290 H     1 <1>   0.0800 
 34 H       -7.0420    -4.0590    -0.3910 H     1 <1>   0.1500 
 35 H       -3.8800    -4.6180     2.4460 H     1 <1>   0.1500 
 36 H       -3.9930    -7.0280     2.0730 H     1 <1>   0.1500 
 37 H       -5.6030    -7.9640     0.4860 H     1 <1>   0.1500 
 38 H       -7.8330    -7.5750    -0.6350 H     1 <1>   0.0800 
 39 H       -6.9450    -6.8730    -1.9660 H     1 <1>   0.0800 
 40 H       -8.2430    -5.9810    -1.2060 H     1 <1>   0.0800 
@<TRIPOS>BOND
  1   1   2  2   
  2   2   3  am  
  3   2   4  1   
  4   3   5  1   
  5   3  20  1   
  6   4   6  1   
  7   4   7  1   
  8   4  21  1   
  9   5   8  1   
 10   5   9  1   
 11   5  22  1   
 12   6  10  1   
 13   6  23  1   
 14   6  24  1   
 15   7  11  1   
 16   7  25  1   
 17   7  26  1   
 18   8  10  1   
 19   8  27  1   
 20   8  28  1   
 21   9  11  1   
 22   9  29  1   
 23   9  30  1   
 24  11  12  1   
 25  11  31  1   
 26  12  13  1   
 27  12  32  1   
 28  12  33  1   
 29  13  14  ar  
 30  13  15  ar  
 31  14  16  ar  
 32  14  34  1   
 33  15  17  ar  
 34  15  35  1   
 35  16  18  ar  
 36  16  19  1   
 37  17  18  ar  
 38  17  36  1   
 39  18  37  1   
 40  19  38  1   
 41  19  39  1   
 42  19  40  1   
@<TRIPOS>SUBSTRUCTURE
  1 ****   7 GROUP 4 **** **** 0

# MOE 2024.06 (io_trps.svl 2023.06)
