@<TRIPOS>MOLECULE
NONAME
43 44 1 0 0 
SMALL
USER_CHARGES


@<TRIPOS>ATOM
  1 S        0.2320    -0.0810    -1.2390 S.o2  1 <1>   1.3330 
  2 O        1.4390     0.3280    -1.9280 O.2   1 <1>  -0.6500 
  3 O       -0.6060    -1.1150    -1.7960 O.2   1 <1>  -0.6500 
  4 N        0.6880    -0.5580     0.3250 N.am  1 <1>  -0.8490 
  5 C       -0.7450     1.4010    -0.9590 C.3   1 <1>  -0.0550 
  6 C        1.8090    -1.5050     0.2920 C.3   1 <1>   0.1160 
  7 C       -0.4160    -1.1600     1.0850 C.3   1 <1>   0.1160 
  8 C       -0.0100     2.4880    -0.1460 C.3   1 <1>  -0.0800 
  9 C       -0.8380     3.7560     0.0270 C.3   1 <1>   0.2000 
 10 C        1.2860     2.9780    -0.7900 C.3   1 <1>   0.2090 
 11 O       -1.7080     3.6020     1.0940 O.3   1 <1>  -0.6800 
 12 C        0.1790     4.8780     0.2580 C.3   1 <1>   0.2090 
 13 N        1.4660     4.3750    -0.3170 N.pl3 1 <1>  -0.8380 
 14 C        2.5900     5.1300    -0.3500 C.ar  1 <1>   0.7710 
 15 N        2.5590     6.3470     0.1740 N.ar  1 <1>  -0.6200 
 16 N        3.7000     4.6210    -0.9170 N.ar  1 <1>  -0.1790 
 17 C        3.6610     7.0610     0.1350 C.ar  1 <1>   0.4100 
 18 C        4.8510     5.3330    -0.9800 C.ar  1 <1>   0.2110 
 19 N        3.5630     8.2800     0.6870 N.pl3 1 <1>  -0.8690 
 20 C        4.8470     6.5780    -0.4490 C.ar  1 <1>  -0.1500 
 21 C        4.5920     9.3330     0.8940 C.3   1 <1>   0.1290 
 22 H       -1.0360     1.8050    -1.9090 H     1 <1>   0.0800 
 23 H       -1.6450     1.1360    -0.4390 H     1 <1>   0.0800 
 24 H        2.0960    -1.7800     1.2920 H     1 <1>   0.0800 
 25 H        2.6610    -1.0560    -0.1910 H     1 <1>   0.0800 
 26 H        1.5340    -2.3930    -0.2540 H     1 <1>   0.0800 
 27 H       -0.0890    -1.4030     2.0820 H     1 <1>   0.0800 
 28 H       -0.7610    -2.0610     0.6030 H     1 <1>   0.0800 
 29 H       -1.2400    -0.4720     1.1620 H     1 <1>   0.0800 
 30 H        0.2450     2.0970     0.8240 H     1 <1>   0.0800 
 31 H       -1.4200     3.9700    -0.8530 H     1 <1>   0.0800 
 32 H        1.1920     2.9760    -1.8650 H     1 <1>   0.0800 
 33 H        2.1100     2.3490    -0.4930 H     1 <1>   0.0800 
 34 H       -1.2240     3.4680     1.9330 H     1 <1>   0.4000 
 35 H        0.3070     5.0710     1.3100 H     1 <1>   0.0800 
 36 H       -0.1320     5.7810    -0.2410 H     1 <1>   0.0800 
 37 H        3.6110     3.6840    -1.2970 H     1 <1>   0.4570 
 38 H        5.7200     4.8950    -1.4450 H     1 <1>   0.1500 
 39 H        2.6290     8.5300     1.0330 H     1 <1>   0.4000 
 40 H        5.7190     7.2030    -0.4660 H     1 <1>   0.1500 
 41 H        5.5820     8.9120     0.9020 H     1 <1>   0.0800 
 42 H        4.4250     9.8190     1.8400 H     1 <1>   0.0800 
 43 H        4.5250    10.0680     0.1100 H     1 <1>   0.0800 
@<TRIPOS>BOND
  1   1   2  2   
  2   1   3  2   
  3   1   4  am  
  4   1   5  1   
  5   4   6  1   
  6   4   7  1   
  7   5   8  1   
  8   5  22  1   
  9   5  23  1   
 10   6  24  1   
 11   6  25  1   
 12   6  26  1   
 13   7  27  1   
 14   7  28  1   
 15   7  29  1   
 16   8   9  1   
 17   8  10  1   
 18   8  30  1   
 19   9  11  1   
 20   9  12  1   
 21   9  31  1   
 22  10  13  1   
 23  10  32  1   
 24  10  33  1   
 25  11  34  1   
 26  12  13  1   
 27  12  35  1   
 28  12  36  1   
 29  13  14  1   
 30  14  15  ar  
 31  14  16  ar  
 32  15  17  ar  
 33  16  18  ar  
 34  16  37  1   
 35  17  19  1   
 36  17  20  ar  
 37  18  20  ar  
 38  18  38  1   
 39  19  21  1   
 40  19  39  1   
 41  20  40  1   
 42  21  41  1   
 43  21  42  1   
 44  21  43  1   
@<TRIPOS>SUBSTRUCTURE
  1 ****  10 GROUP 4 **** **** 0

# MOE 2024.06 (io_trps.svl 2023.06)
