@<TRIPOS>MOLECULE
NONAME
58 61 1 0 0 
SMALL
USER_CHARGES


@<TRIPOS>ATOM
  1 O        1.2400     1.0700     2.0380 O.co2 1 <1>  -0.9000 
  2 C        1.6710     0.4800     1.0390 C.2   1 <1>   0.9060 
  3 O        1.5430    -0.7470     0.9280 O.co2 1 <1>  -0.9000 
  4 C        2.3990     1.2440    -0.0800 C.3   1 <1>  -0.1060 
  5 C        3.6750     0.4240    -0.3990 C.3   1 <1>   0.2000 
  6 C        2.8240     2.6740     0.3700 C.3   1 <1>  -0.1600 
  7 C        1.4720     1.3000    -1.3260 C.3   1 <1>  -0.0160 
  8 O        4.3630     0.9810    -1.4750 O.3   1 <1>  -0.6800 
  9 C        4.6470     0.4200     0.7990 C.3   1 <1>   0.2090 
 10 C        3.8220     2.6630     1.5370 C.3   1 <1>   0.2090 
 11 C        0.3120     2.2900    -1.2320 C.ar  1 <1>  -0.1440 
 12 N        5.0060     1.8220     1.2020 N.pl3 1 <1>  -0.8380 
 13 C       -0.7740     2.0330    -0.4100 C.ar  1 <1>  -0.1500 
 14 C        0.3310     3.4600    -1.9770 C.ar  1 <1>  -0.1500 
 15 C        6.2050     2.4130     0.8580 C.ar  1 <1>   0.4100 
 16 C       -1.8260     2.9300    -0.3340 C.ar  1 <1>  -0.1500 
 17 C       -0.7200     4.3580    -1.9050 C.ar  1 <1>  -0.1500 
 18 N        6.7150     2.1050    -0.3280 N.ar  1 <1>  -0.6200 
 19 C        6.8180     3.3010     1.7370 C.ar  1 <1>  -0.1500 
 20 C       -1.8010     4.0930    -1.0830 C.ar  1 <1>  -0.1500 
 21 C        7.8510     2.6990    -0.6450 C.ar  1 <1>   0.1600 
 22 C        7.9990     3.9160     1.3940 C.ar  1 <1>  -0.1500 
 23 C        8.5290     3.6030     0.1560 C.ar  1 <1>  -0.1430 
 24 C        9.8270     4.2450    -0.3180 C.3   1 <1>   0.2390 
 25 N        9.7480     5.7230    -0.3050 N.pl3 1 <1>   0.3140 
 26 N       10.6270     6.4520     0.4120 N.2   1 <1>  -0.7070 
 27 C        8.8830     6.5250    -0.9750 C.2   1 <1>  -0.3320 
 28 C       10.3040     7.6850     0.1880 C.2   1 <1>   0.1080 
 29 C        9.2200     7.7970    -0.6730 C.2   1 <1>  -0.1500 
 30 C        7.7580     6.0520    -1.8810 C.3   1 <1>  -0.0600 
 31 C       11.0480     8.8420     0.8120 C.3   1 <1>  -0.0590 
 32 H        3.4150    -0.5850    -0.6690 H     1 <1>   0.0800 
 33 H        1.9530     3.2230     0.6840 H     1 <1>   0.0800 
 34 H        3.2610     3.2040    -0.4560 H     1 <1>   0.0800 
 35 H        2.0520     1.5540    -2.1940 H     1 <1>   0.0800 
 36 H        1.0730     0.3160    -1.5050 H     1 <1>   0.0800 
 37 H        5.0720     1.5510    -1.0740 H     1 <1>   0.4000 
 38 H        5.5330    -0.1330     0.5420 H     1 <1>   0.0800 
 39 H        4.1850    -0.0770     1.6350 H     1 <1>   0.0800 
 40 H        3.3520     2.2700     2.4230 H     1 <1>   0.0800 
 41 H        4.1290     3.6720     1.7460 H     1 <1>   0.0800 
 42 H       -0.7980     1.1340     0.1840 H     1 <1>   0.1500 
 43 H        1.1710     3.6730    -2.6140 H     1 <1>   0.1500 
 44 H       -2.6570     2.7160     0.3140 H     1 <1>   0.1500 
 45 H       -0.6940     5.2620    -2.4870 H     1 <1>   0.1500 
 46 H        6.3520     3.4920     2.6850 H     1 <1>   0.1500 
 47 H       -2.6180     4.7890    -1.0220 H     1 <1>   0.1500 
 48 H        8.2600     2.4460    -1.6080 H     1 <1>   0.1500 
 49 H        8.4850     4.6120     2.0580 H     1 <1>   0.1500 
 50 H       10.0640     3.9340    -1.3180 H     1 <1>   0.0800 
 51 H       10.6310     3.9470     0.3290 H     1 <1>   0.0800 
 52 H        8.7680     8.7120    -1.0070 H     1 <1>   0.1500 
 53 H        7.2730     6.8960    -2.3390 H     1 <1>   0.0800 
 54 H        7.0230     5.5090    -1.3130 H     1 <1>   0.0800 
 55 H        8.1430     5.4170    -2.6590 H     1 <1>   0.0800 
 56 H       10.6240     9.7760     0.4940 H     1 <1>   0.0800 
 57 H       12.0800     8.8030     0.5180 H     1 <1>   0.0800 
 58 H       10.9870     8.7700     1.8820 H     1 <1>   0.0800 
@<TRIPOS>BOND
  1   1   2  ar  
  2   2   3  ar  
  3   2   4  1   
  4   4   5  1   
  5   4   6  1   
  6   4   7  1   
  7   5   8  1   
  8   5   9  1   
  9   5  32  1   
 10   6  10  1   
 11   6  33  1   
 12   6  34  1   
 13   7  11  1   
 14   7  35  1   
 15   7  36  1   
 16   8  37  1   
 17   9  12  1   
 18   9  38  1   
 19   9  39  1   
 20  10  12  1   
 21  10  40  1   
 22  10  41  1   
 23  11  13  ar  
 24  11  14  ar  
 25  12  15  1   
 26  13  16  ar  
 27  13  42  1   
 28  14  17  ar  
 29  14  43  1   
 30  15  18  ar  
 31  15  19  ar  
 32  16  20  ar  
 33  16  44  1   
 34  17  20  ar  
 35  17  45  1   
 36  18  21  ar  
 37  19  22  ar  
 38  19  46  1   
 39  20  47  1   
 40  21  23  ar  
 41  21  48  1   
 42  22  23  ar  
 43  22  49  1   
 44  23  24  1   
 45  24  25  1   
 46  24  50  1   
 47  24  51  1   
 48  25  26  1   
 49  25  27  1   
 50  26  28  2   
 51  27  29  2   
 52  27  30  1   
 53  28  29  1   
 54  28  31  1   
 55  29  52  1   
 56  30  53  1   
 57  30  54  1   
 58  30  55  1   
 59  31  56  1   
 60  31  57  1   
 61  31  58  1   
@<TRIPOS>SUBSTRUCTURE
  1 ****  15 GROUP 4 **** **** 0

# MOE 2024.06 (io_trps.svl 2023.06)
