@<TRIPOS>MOLECULE
NONAME
45 48 1 0 0 
SMALL
USER_CHARGES


@<TRIPOS>ATOM
  1 S        1.3600    -0.0850     0.0240 S.3   1 <1>  -0.0800 
  2 C        0.6620     1.5140    -0.1280 C.2   1 <1>  -0.1400 
  3 C        2.8840     0.6110     0.5540 C.2   1 <1>  -0.1100 
  4 C        1.5390     2.4750     0.1890 C.2   1 <1>  -0.1810 
  5 C       -0.7610     1.7420    -0.5600 C.3   1 <1>   0.0200 
  6 C        2.8160     1.9560     0.5890 C.2   1 <1>  -0.1500 
  7 C        1.1510     3.9530     0.1110 C.3   1 <1>   0.4610 
  8 C       -1.1350     3.1770    -0.1540 C.3   1 <1>   0.1200 
  9 O       -0.1190     4.0870    -0.5040 O.3   1 <1>  -0.5600 
 10 C        2.1310     4.7140    -0.7890 C.3   1 <1>  -0.1600 
 11 C        1.1030     4.5880     1.5090 C.3   1 <1>  -0.1600 
 12 C        1.8140     6.2090    -0.8300 C.3   1 <1>   0.1400 
 13 C        0.7960     6.0840     1.4400 C.3   1 <1>   0.1400 
 14 N        1.8010     6.7420     0.5600 N.am  1 <1>  -0.6600 
 15 C        2.6390     7.7360     1.0220 C.2   1 <1>   0.5440 
 16 O        2.4800     8.1800     2.1430 O.2   1 <1>  -0.5700 
 17 C        3.6890     8.2950     0.2030 C.ar  1 <1>   0.0860 
 18 C        4.8650     7.5950    -0.0680 C.ar  1 <1>   0.1900 
 19 C        3.5500     9.5710    -0.3480 C.ar  1 <1>  -0.1500 
 20 F        4.9750     6.3940     0.4410 F     1 <1>  -0.1900 
 21 C        5.8920     8.1120    -0.8620 C.ar  1 <1>   0.0830 
 22 C        4.5390    10.1150    -1.1470 C.ar  1 <1>  -0.1500 
 23 O        7.0660     7.4770    -1.1610 O.3   1 <1>  -0.3630 
 24 C        5.6850     9.3800    -1.3930 C.ar  1 <1>   0.1900 
 25 C        7.6690     6.5670    -0.2650 C.3   1 <1>   0.0400 
 26 F        6.5990     9.9220    -2.1540 F     1 <1>  -0.1900 
 27 H        3.6820    -0.0720     0.7880 H     1 <1>   0.1500 
 28 H       -1.4180     1.0420    -0.0760 H     1 <1>   0.0800 
 29 H       -0.8460     1.6210    -1.6250 H     1 <1>   0.0800 
 30 H        3.6180     2.6100     0.8840 H     1 <1>   0.1500 
 31 H       -1.2950     3.2350     0.9080 H     1 <1>   0.0800 
 32 H       -2.0370     3.4810    -0.6550 H     1 <1>   0.0800 
 33 H        2.0910     4.3010    -1.7800 H     1 <1>   0.0800 
 34 H        3.1330     4.5860    -0.4240 H     1 <1>   0.0800 
 35 H        2.0570     4.4620     1.9860 H     1 <1>   0.0800 
 36 H        0.3770     4.0880     2.1210 H     1 <1>   0.0800 
 37 H        0.8440     6.3630    -1.2730 H     1 <1>   0.0800 
 38 H        2.5390     6.7180    -1.4390 H     1 <1>   0.0800 
 39 H        0.8190     6.5030     2.4310 H     1 <1>   0.0800 
 40 H       -0.1880     6.2430     1.0330 H     1 <1>   0.0800 
 41 H        2.6540    10.1320    -0.1380 H     1 <1>   0.1500 
 42 H        4.4310    11.0960    -1.5750 H     1 <1>   0.1500 
 43 H        8.6990     6.4540    -0.5490 H     1 <1>   0.0800 
 44 H        7.1680     5.6190    -0.3390 H     1 <1>   0.0800 
 45 H        7.6060     6.9600     0.7350 H     1 <1>   0.0800 
@<TRIPOS>BOND
  1   1   2  1   
  2   1   3  1   
  3   2   4  2   
  4   2   5  1   
  5   3   6  2   
  6   3  27  1   
  7   4   6  1   
  8   4   7  1   
  9   5   8  1   
 10   5  28  1   
 11   5  29  1   
 12   6  30  1   
 13   7   9  1   
 14   7  10  1   
 15   7  11  1   
 16   8   9  1   
 17   8  31  1   
 18   8  32  1   
 19  10  12  1   
 20  10  33  1   
 21  10  34  1   
 22  11  13  1   
 23  11  35  1   
 24  11  36  1   
 25  12  14  1   
 26  12  37  1   
 27  12  38  1   
 28  13  14  1   
 29  13  39  1   
 30  13  40  1   
 31  14  15  am  
 32  15  16  2   
 33  15  17  1   
 34  17  18  ar  
 35  17  19  ar  
 36  18  20  1   
 37  18  21  ar  
 38  19  22  ar  
 39  19  41  1   
 40  21  23  1   
 41  21  24  ar  
 42  22  24  ar  
 43  22  42  1   
 44  23  25  1   
 45  24  26  1   
 46  25  43  1   
 47  25  44  1   
 48  25  45  1   
@<TRIPOS>SUBSTRUCTURE
  1 ****  10 GROUP 4 **** **** 0

# MOE 2024.06 (io_trps.svl 2023.06)
