@<TRIPOS>MOLECULE
NONAME
48 51 1 0 0 
SMALL
USER_CHARGES


@<TRIPOS>ATOM
  1 F       -0.0530    -1.5120    -0.0780 F     1 <1>  -0.1900 
  2 C       -1.0150    -2.3880    -0.2270 C.ar  1 <1>   0.1900 
  3 C       -2.2910    -2.0460     0.1470 C.ar  1 <1>  -0.1500 
  4 C       -0.6840    -3.6360    -0.7640 C.ar  1 <1>  -0.1500 
  5 C       -3.2980    -3.0010    -0.0220 C.ar  1 <1>   0.0000 
  6 C       -1.6750    -4.5760    -0.9320 C.ar  1 <1>  -0.1500 
  7 C       -2.9840    -4.2490    -0.5580 C.ar  1 <1>  -0.1520 
  8 C       -4.6840    -3.0160     0.2430 C.2   1 <1>  -0.1500 
  9 N       -4.1380    -4.9880    -0.6170 N.pl3 1 <1>   0.0330 
 10 C       -5.1610    -4.2300    -0.1270 C.2   1 <1>  -0.3320 
 11 C       -6.5700    -4.7860    -0.0580 C.3   1 <1>   0.3890 
 12 N       -6.5320    -6.0950     0.6510 N.pl3 1 <1>  -0.8380 
 13 C       -7.4440    -7.0790     0.3140 C.ar  1 <1>   0.4100 
 14 C       -6.0270    -6.0180     2.0530 C.3   1 <1>   0.1290 
 15 N       -8.5520    -6.7110    -0.3030 N.ar  1 <1>  -0.6200 
 16 C       -7.2130    -8.4010     0.6150 C.ar  1 <1>  -0.1500 
 17 C       -9.3970    -7.6850    -0.5790 C.ar  1 <1>   0.4700 
 18 C       -8.1630    -9.3340     0.2740 C.ar  1 <1>   0.4100 
 19 N       -9.2800    -8.9730    -0.3300 N.ar  1 <1>  -0.6200 
 20 N       -7.9820   -10.6770     0.5490 N.pl3 1 <1>  -0.8380 
 21 C       -9.1490   -11.5490     0.8610 C.3   1 <1>   0.2090 
 22 C       -6.7700   -11.3810     0.0520 C.3   1 <1>   0.2090 
 23 C       -9.5140   -12.3910    -0.3630 C.3   1 <1>  -0.1600 
 24 C       -7.1300   -12.2160    -1.1770 C.3   1 <1>  -0.1600 
 25 C       -8.2920   -13.1570    -0.8640 C.3   1 <1>   0.2000 
 26 O       -8.6370   -13.8240    -2.0180 O.3   1 <1>  -0.6800 
 27 H       -2.5170    -1.0810     0.5570 H     1 <1>   0.1500 
 28 H        0.3360    -3.8370    -1.0350 H     1 <1>   0.1500 
 29 H       -1.4590    -5.5470    -1.3420 H     1 <1>   0.1500 
 30 H       -5.2230    -2.1860     0.6650 H     1 <1>   0.1500 
 31 H       -4.2270    -5.9650    -0.9180 H     1 <1>   0.2700 
 32 H       -6.9450    -4.9160    -1.0590 H     1 <1>   0.0800 
 33 H       -7.2220    -4.1070     0.4650 H     1 <1>   0.0800 
 34 H       -4.9510    -6.0400     2.0530 H     1 <1>   0.0800 
 35 H       -6.3940    -6.8430     2.6390 H     1 <1>   0.0800 
 36 H       -6.3560    -5.1030     2.5130 H     1 <1>   0.0800 
 37 H       -6.3140    -8.6990     1.1100 H     1 <1>   0.1500 
 38 H      -10.3050    -7.3880    -1.0760 H     1 <1>   0.1500 
 39 H       -9.9930   -10.9490     1.1580 H     1 <1>   0.0800 
 40 H       -8.8940   -12.1920     1.6860 H     1 <1>   0.0800 
 41 H       -6.3890   -12.0170     0.8330 H     1 <1>   0.0800 
 42 H       -6.0050   -10.6700    -0.2090 H     1 <1>   0.0800 
 43 H       -9.8830   -11.7310    -1.1270 H     1 <1>   0.0800 
 44 H      -10.2930   -13.0820    -0.0960 H     1 <1>   0.0800 
 45 H       -6.2720   -12.7880    -1.4790 H     1 <1>   0.0800 
 46 H       -7.3990   -11.5460    -1.9740 H     1 <1>   0.0800 
 47 H       -7.9890   -13.8930    -0.1380 H     1 <1>   0.0800 
 48 H       -8.9490   -13.1810    -2.6830 H     1 <1>   0.4000 
@<TRIPOS>BOND
  1   1   2  1   
  2   2   3  ar  
  3   2   4  ar  
  4   3   5  ar  
  5   3  27  1   
  6   4   6  ar  
  7   4  28  1   
  8   5   7  ar  
  9   5   8  1   
 10   6   7  ar  
 11   6  29  1   
 12   7   9  1   
 13   8  10  2   
 14   8  30  1   
 15   9  10  1   
 16   9  31  1   
 17  10  11  1   
 18  11  12  1   
 19  11  32  1   
 20  11  33  1   
 21  12  13  1   
 22  12  14  1   
 23  13  15  ar  
 24  13  16  ar  
 25  14  34  1   
 26  14  35  1   
 27  14  36  1   
 28  15  17  ar  
 29  16  18  ar  
 30  16  37  1   
 31  17  19  ar  
 32  17  38  1   
 33  18  19  ar  
 34  18  20  1   
 35  20  21  1   
 36  20  22  1   
 37  21  23  1   
 38  21  39  1   
 39  21  40  1   
 40  22  24  1   
 41  22  41  1   
 42  22  42  1   
 43  23  25  1   
 44  23  43  1   
 45  23  44  1   
 46  24  25  1   
 47  24  45  1   
 48  24  46  1   
 49  25  26  1   
 50  25  47  1   
 51  26  48  1   
@<TRIPOS>SUBSTRUCTURE
  1 ****  12 GROUP 4 **** **** 0

# MOE 2024.06 (io_trps.svl 2023.06)
