@<TRIPOS>MOLECULE
NONAME
56 59 1 0 0 
SMALL
USER_CHARGES


@<TRIPOS>ATOM
  1 S        0.3190     0.4740     1.4740 S.o2  1 <1>   1.5760 
  2 O        1.4490     0.2190     2.3390 O.2   1 <1>  -0.6500 
  3 O       -0.9990     0.6940     2.0270 O.2   1 <1>  -0.6500 
  4 N        0.7150     1.7480     0.4370 N.am  1 <1>  -0.8490 
  5 N        0.2110    -0.7820     0.3550 N.am  1 <1>  -0.8490 
  6 C        2.0850     1.5790    -0.0830 C.3   1 <1>   0.1960 
  7 C        0.5270     3.0430     1.0970 C.3   1 <1>   0.1960 
  8 C       -0.9120    -0.6580    -0.5580 C.3   1 <1>   0.1960 
  9 C        0.0510    -2.0760     0.9880 C.3   1 <1>   0.1960 
 10 C        2.4920     2.6110    -1.1470 C.3   1 <1>   0.2090 
 11 C        0.3320     4.1470     0.0530 C.3   1 <1>  -0.1600 
 12 C       -1.0520    -2.0470    -1.1670 C.3   1 <1>  -0.1600 
 13 C       -0.4370    -2.9890    -0.1310 C.3   1 <1>  -0.1600 
 14 N        2.7860     3.9440    -0.5390 N.pl3 1 <1>  -0.7880 
 15 C        1.6240     4.8600    -0.3610 C.3   1 <1>   0.2090 
 16 C        4.0620     4.3890    -0.3090 C.2   1 <1>   0.4860 
 17 N        4.2600     5.7020    -0.3130 N.2   1 <1>  -0.6210 
 18 C        5.1240     3.4910    -0.0770 C.2   1 <1>  -0.1360 
 19 C        5.4920     6.1770    -0.1130 C.2   1 <1>   0.2710 
 20 C        6.3740     3.9690     0.1300 C.2   1 <1>  -0.0380 
 21 N        6.5190     5.3080     0.1020 N.pl3 1 <1>  -0.6000 
 22 C        5.7320     7.5880    -0.1250 C.2   1 <1>   0.0140 
 23 C        7.5990     3.1210     0.3930 C.3   1 <1>  -0.1020 
 24 C        7.0110     8.1710     0.1250 C.2   1 <1>   0.5410 
 25 C        4.6810     8.4910    -0.3940 C.2   1 <1>  -0.1500 
 26 O        8.0410     7.5020     0.3720 O.2   1 <1>  -0.5700 
 27 C        7.1580     9.5740     0.0980 C.2   1 <1>  -0.1360 
 28 C        4.8500     9.8530    -0.4160 C.2   1 <1>  -0.1500 
 29 C        6.1070    10.4050    -0.1660 C.2   1 <1>  -0.1500 
 30 H        2.1610     0.6070    -0.5390 H     1 <1>   0.0800 
 31 H        2.7960     1.6120     0.7260 H     1 <1>   0.0800 
 32 H        1.3530     3.2640     1.7550 H     1 <1>   0.0800 
 33 H       -0.3690     3.0120     1.6940 H     1 <1>   0.0800 
 34 H       -0.7230     0.0970    -1.3030 H     1 <1>   0.0800 
 35 H       -1.8120    -0.4100    -0.0180 H     1 <1>   0.0800 
 36 H       -0.6960    -2.0170     1.7630 H     1 <1>   0.0800 
 37 H        0.9820    -2.4140     1.4120 H     1 <1>   0.0800 
 38 H        1.7140     2.7000    -1.8850 H     1 <1>   0.0800 
 39 H        3.3690     2.2570    -1.6590 H     1 <1>   0.0800 
 40 H       -0.3170     4.8940     0.4710 H     1 <1>   0.0800 
 41 H       -0.1710     3.7510    -0.8110 H     1 <1>   0.0800 
 42 H       -0.4980    -2.0940    -2.0880 H     1 <1>   0.0800 
 43 H       -2.0840    -2.2760    -1.3650 H     1 <1>   0.0800 
 44 H       -1.1530    -3.6990     0.2450 H     1 <1>   0.0800 
 45 H        0.3960    -3.5210    -0.5560 H     1 <1>   0.0800 
 46 H        1.8660     5.5760     0.4070 H     1 <1>   0.0800 
 47 H        1.4630     5.4050    -1.2750 H     1 <1>   0.0800 
 48 H        4.9330     2.4400    -0.0560 H     1 <1>   0.1500 
 49 H        7.4430     5.7430     0.2600 H     1 <1>   0.4000 
 50 H        8.0190     3.3750     1.3490 H     1 <1>   0.0800 
 51 H        8.3350     3.2970    -0.3700 H     1 <1>   0.0800 
 52 H        7.3440     2.0770     0.3950 H     1 <1>   0.0800 
 53 H        3.7000     8.0960    -0.5930 H     1 <1>   0.1500 
 54 H        8.1400     9.9620     0.2940 H     1 <1>   0.1500 
 55 H        4.0200    10.5070    -0.6260 H     1 <1>   0.1500 
 56 H        6.2300    11.4750    -0.1850 H     1 <1>   0.1500 
@<TRIPOS>BOND
  1   1   2  2   
  2   1   3  2   
  3   1   4  am  
  4   1   5  am  
  5   4   6  1   
  6   4   7  1   
  7   5   8  1   
  8   5   9  1   
  9   6  10  1   
 10   6  30  1   
 11   6  31  1   
 12   7  11  1   
 13   7  32  1   
 14   7  33  1   
 15   8  12  1   
 16   8  34  1   
 17   8  35  1   
 18   9  13  1   
 19   9  36  1   
 20   9  37  1   
 21  10  14  1   
 22  10  38  1   
 23  10  39  1   
 24  11  15  1   
 25  11  40  1   
 26  11  41  1   
 27  12  13  1   
 28  12  42  1   
 29  12  43  1   
 30  13  44  1   
 31  13  45  1   
 32  14  15  1   
 33  14  16  1   
 34  15  46  1   
 35  15  47  1   
 36  16  17  2   
 37  16  18  1   
 38  17  19  1   
 39  18  20  2   
 40  18  48  1   
 41  19  21  1   
 42  19  22  2   
 43  20  21  1   
 44  20  23  1   
 45  21  49  1   
 46  22  24  1   
 47  22  25  1   
 48  23  50  1   
 49  23  51  1   
 50  23  52  1   
 51  24  26  2   
 52  24  27  1   
 53  25  28  2   
 54  25  53  1   
 55  27  29  2   
 56  27  54  1   
 57  28  29  1   
 58  28  55  1   
 59  29  56  1   
@<TRIPOS>SUBSTRUCTURE
  1 ****  14 GROUP 4 **** **** 0

# MOE 2024.06 (io_trps.svl 2023.06)
