@<TRIPOS>MOLECULE
NONAME
21 21 1 0 0 
SMALL
USER_CHARGES


@<TRIPOS>ATOM
  1 O        7.0920    -0.3050     2.2170 O.co2 1 <1>  -0.9000 
  2 C        7.8300    -0.6920     1.3000 C.2   1 <1>   0.9060 
  3 O        9.0480    -0.6030     1.3940 O.co2 1 <1>  -0.9000 
  4 C        7.2220    -0.8590    -0.0910 C.3   1 <1>  -0.1860 
  5 C        5.6830    -0.9360    -0.0840 C.3   1 <1>  -0.1600 
  6 C        7.4650     0.4380    -0.8800 C.3   1 <1>  -0.1600 
  7 C        5.2140     0.5270     0.0110 C.3   1 <1>   0.2000 
  8 C        6.4400     1.4180    -0.3060 C.3   1 <1>   0.4230 
  9 O        4.2250     0.7550    -0.9330 O.3   1 <1>  -0.6800 
 10 N        6.9930     2.0270     0.9290 N.4   1 <1>  -0.8530 
 11 H        7.6720    -1.7140    -0.5640 H     1 <1>   0.0800 
 12 H        5.3290    -1.5210     0.7480 H     1 <1>   0.0800 
 13 H        5.3500    -1.3880    -1.0030 H     1 <1>   0.0800 
 14 H        7.2410     0.2640    -1.9190 H     1 <1>   0.0800 
 15 H        8.4810     0.7890    -0.8040 H     1 <1>   0.0800 
 16 H        4.8100     0.7440     0.9860 H     1 <1>   0.0800 
 17 H        6.1870     2.1820    -1.0230 H     1 <1>   0.0800 
 18 H        3.4880     0.1230    -0.8040 H     1 <1>   0.4000 
 19 H        7.0350     1.2600     1.6460 H     1 <1>   0.4500 
 20 H        6.4200     2.7730     1.3170 H     1 <1>   0.4500 
 21 H        7.9700     2.3000     0.8140 H     1 <1>   0.4500 
@<TRIPOS>BOND
  1   1   2  ar  
  2   2   3  ar  
  3   2   4  1   
  4   4   5  1   
  5   4   6  1   
  6   4  11  1   
  7   5   7  1   
  8   5  12  1   
  9   5  13  1   
 10   6   8  1   
 11   6  14  1   
 12   6  15  1   
 13   7   8  1   
 14   7   9  1   
 15   7  16  1   
 16   8  10  1   
 17   8  17  1   
 18   9  18  1   
 19  10  19  1   
 20  10  20  1   
 21  10  21  1   
@<TRIPOS>SUBSTRUCTURE
  1 ****   4 GROUP 4 **** **** 0

# MOE 2024.06 (io_trps.svl 2023.06)
