@<TRIPOS>MOLECULE
NONAME
45 47 1 0 0 
SMALL
USER_CHARGES


@<TRIPOS>ATOM
  1 O       -2.5740     0.6690     2.9600 O.2   1 <1>  -0.5700 
  2 C       -2.5920     1.0980     1.8220 C.2   1 <1>   0.5440 
  3 N       -3.2850     0.3910     0.8690 N.am  1 <1>  -0.6600 
  4 C       -1.9430     2.3500     1.5210 C.ar  1 <1>   0.0860 
  5 C       -3.6470     0.8740    -0.4850 C.3   1 <1>   0.1400 
  6 C       -3.6330    -1.0420     1.0230 C.3   1 <1>   0.1400 
  7 C       -0.8940     2.4340     0.5970 C.ar  1 <1>   0.3920 
  8 C       -2.3340     3.5210     2.1540 C.ar  1 <1>  -0.1500 
  9 C       -4.6300    -0.1760    -1.0010 C.3   1 <1>   0.2000 
 10 C       -4.1660    -1.4820    -0.3500 C.3   1 <1>  -0.0800 
 11 O       -0.4860     1.2940     0.0030 O.3   1 <1>  -0.3630 
 12 N       -0.2630     3.5600     0.2620 N.ar  1 <1>  -0.6200 
 13 C       -1.6840     4.6890     1.8220 C.ar  1 <1>  -0.1500 
 14 O       -5.8880     0.1250    -0.5070 O.3   1 <1>  -0.6800 
 15 C       -3.0750    -2.1550    -1.2080 C.3   1 <1>  -0.0170 
 16 C        0.6450     1.2420    -0.8380 C.3   1 <1>   0.1200 
 17 C       -0.6710     4.6530     0.8810 C.ar  1 <1>   0.1600 
 18 C       -2.6200    -3.4830    -0.6270 C.ar  1 <1>   0.1670 
 19 C        0.8010    -0.1950    -1.3270 C.3   1 <1>  -0.2400 
 20 N       -1.4560    -3.4830     0.0020 N.ar  1 <1>  -0.6200 
 21 C       -3.4200    -4.6070    -0.7770 C.ar  1 <1>  -0.1500 
 22 C       -1.0750    -4.6440     0.5090 C.ar  1 <1>   0.1600 
 23 C       -3.0110    -5.8110    -0.2460 C.ar  1 <1>  -0.1500 
 24 C       -1.8020    -5.8190     0.4150 C.ar  1 <1>  -0.1500 
 25 H       -4.0850     1.8560    -0.4570 H     1 <1>   0.0800 
 26 H       -2.7680     0.8850    -1.1040 H     1 <1>   0.0800 
 27 H       -2.7690    -1.6050     1.3350 H     1 <1>   0.0800 
 28 H       -4.3980    -1.1370     1.7740 H     1 <1>   0.0800 
 29 H       -3.1230     3.5030     2.8870 H     1 <1>   0.1500 
 30 H       -4.6880    -0.2140    -2.0760 H     1 <1>   0.0800 
 31 H       -4.9870    -2.1690    -0.2390 H     1 <1>   0.0800 
 32 H       -1.9560     5.6190     2.2880 H     1 <1>   0.1500 
 33 H       -5.8100     0.2860     0.4560 H     1 <1>   0.4000 
 34 H       -2.2230    -1.5030    -1.2990 H     1 <1>   0.0800 
 35 H       -3.4540    -2.3310    -2.1980 H     1 <1>   0.0800 
 36 H        0.4920     1.9170    -1.6620 H     1 <1>   0.0800 
 37 H        1.5040     1.5520    -0.2660 H     1 <1>   0.0800 
 38 H       -0.1700     5.5730     0.6270 H     1 <1>   0.1500 
 39 H       -0.0500    -0.4810    -1.9160 H     1 <1>   0.0800 
 40 H        0.8950    -0.8630    -0.4890 H     1 <1>   0.0800 
 41 H        1.6830    -0.2780    -1.9350 H     1 <1>   0.0800 
 42 H       -4.3550    -4.5420    -1.3020 H     1 <1>   0.1500 
 43 H       -0.1320    -4.6600     1.0270 H     1 <1>   0.1500 
 44 H       -3.6070    -6.7020    -0.3420 H     1 <1>   0.1500 
 45 H       -1.4240    -6.7230     0.8550 H     1 <1>   0.1500 
@<TRIPOS>BOND
  1   1   2  2   
  2   2   3  am  
  3   2   4  1   
  4   3   5  1   
  5   3   6  1   
  6   4   7  ar  
  7   4   8  ar  
  8   5   9  1   
  9   5  25  1   
 10   5  26  1   
 11   6  10  1   
 12   6  27  1   
 13   6  28  1   
 14   7  11  1   
 15   7  12  ar  
 16   8  13  ar  
 17   8  29  1   
 18   9  10  1   
 19   9  14  1   
 20   9  30  1   
 21  10  15  1   
 22  10  31  1   
 23  11  16  1   
 24  12  17  ar  
 25  13  17  ar  
 26  13  32  1   
 27  14  33  1   
 28  15  18  1   
 29  15  34  1   
 30  15  35  1   
 31  16  19  1   
 32  16  36  1   
 33  16  37  1   
 34  17  38  1   
 35  18  20  ar  
 36  18  21  ar  
 37  19  39  1   
 38  19  40  1   
 39  19  41  1   
 40  20  22  ar  
 41  21  23  ar  
 42  21  42  1   
 43  22  24  ar  
 44  22  43  1   
 45  23  24  ar  
 46  23  44  1   
 47  24  45  1   
@<TRIPOS>SUBSTRUCTURE
  1 ****   3 GROUP 4 **** **** 0

# MOE 2024.06 (io_trps.svl 2023.06)
