@<TRIPOS>MOLECULE
NONAME
49 51 1 0 0 
SMALL
USER_CHARGES


@<TRIPOS>ATOM
  1 S       -0.3420     0.3330     1.6870 S.o2  1 <1>   1.4470 
  2 O       -0.6200     1.3780     2.6440 O.2   1 <1>  -0.6500 
  3 O       -0.1880    -1.0380     2.1380 O.2   1 <1>  -0.6500 
  4 N       -1.6810     0.2530     0.6450 N.am  1 <1>  -0.8490 
  5 C        1.0080     0.7780     0.5650 C.ar  1 <1>  -0.0090 
  6 C       -1.5690    -0.8620    -0.3180 C.3   1 <1>   0.1960 
  7 C       -2.9470     0.2920     1.4130 C.3   1 <1>   0.1960 
  8 C        0.8550     1.7840    -0.3800 C.ar  1 <1>  -0.1500 
  9 C        2.2180     0.0970     0.5940 C.ar  1 <1>  -0.1500 
 10 C       -2.2960    -2.0980     0.2430 C.3   1 <1>   0.4230 
 11 C       -4.1060    -0.3820     0.6580 C.3   1 <1>  -0.1600 
 12 C        1.8550     2.0650    -1.2920 C.ar  1 <1>  -0.1500 
 13 C        3.2190     0.3810    -0.3170 C.ar  1 <1>  -0.1500 
 14 N       -1.8640    -3.4560    -0.2650 N.4   1 <1>  -0.9590 
 15 C       -3.8280    -1.8650     0.2510 C.3   1 <1>   0.0000 
 16 C        3.0570     1.3600    -1.2950 C.ar  1 <1>  -0.1790 
 17 C       -2.8190    -4.5500     0.1270 C.3   1 <1>   0.3430 
 18 C       -1.5230    -3.5170    -1.7240 C.3   1 <1>   0.2630 
 19 C       -4.4060    -2.8620     1.2930 C.3   1 <1>  -0.1600 
 20 C       -4.4570    -2.1080    -1.1490 C.3   1 <1>   0.1200 
 21 C        4.0960     1.6310    -2.2820 C.2   1 <1>   0.9790 
 22 C       -3.6070    -4.1860     1.3960 C.3   1 <1>  -0.1600 
 23 O       -5.7920    -1.7400    -1.1710 O.3   1 <1>  -0.6800 
 24 O        3.9040     2.4620    -3.1860 O.co2 1 <1>  -0.9000 
 25 O        5.1770     1.0170    -2.2460 O.co2 1 <1>  -0.9000 
 26 H       -2.0180    -0.5590    -1.2480 H     1 <1>   0.0800 
 27 H       -0.5330    -1.0880    -0.5080 H     1 <1>   0.0800 
 28 H       -2.8200    -0.2090     2.3600 H     1 <1>   0.0800 
 29 H       -3.1940     1.3200     1.6260 H     1 <1>   0.0800 
 30 H       -0.0610     2.3500    -0.4140 H     1 <1>   0.1500 
 31 H        2.3850    -0.6710     1.3300 H     1 <1>   0.1500 
 32 H       -2.0210    -2.1030     1.2850 H     1 <1>   0.0800 
 33 H       -5.0020    -0.3200     1.2520 H     1 <1>   0.0800 
 34 H       -4.2900     0.2200    -0.2170 H     1 <1>   0.0800 
 35 H        1.7160     2.8430    -2.0260 H     1 <1>   0.1500 
 36 H        4.1520    -0.1610    -0.2860 H     1 <1>   0.1500 
 37 H       -0.9900    -3.6450     0.2530 H     1 <1>   0.4500 
 38 H       -3.5210    -4.7240    -0.6710 H     1 <1>   0.0800 
 39 H       -2.2760    -5.4680     0.2880 H     1 <1>   0.0800 
 40 H       -2.3890    -3.2980    -2.3270 H     1 <1>   0.0800 
 41 H       -1.1670    -4.5020    -1.9830 H     1 <1>   0.0800 
 42 H       -0.7480    -2.8060    -1.9630 H     1 <1>   0.0800 
 43 H       -4.4030    -2.4070     2.2700 H     1 <1>   0.0800 
 44 H       -5.4350    -3.0810     1.0660 H     1 <1>   0.0800 
 45 H       -4.4090    -3.1370    -1.4500 H     1 <1>   0.0800 
 46 H       -3.9630    -1.5110    -1.8960 H     1 <1>   0.0800 
 47 H       -4.2850    -4.9890     1.6310 H     1 <1>   0.0800 
 48 H       -2.9120    -4.1220     2.2180 H     1 <1>   0.0800 
 49 H       -6.3380    -2.2750    -0.5630 H     1 <1>   0.4000 
@<TRIPOS>BOND
  1   1   2  2   
  2   1   3  2   
  3   1   4  am  
  4   1   5  1   
  5   4   6  1   
  6   4   7  1   
  7   5   8  ar  
  8   5   9  ar  
  9   6  10  1   
 10   6  26  1   
 11   6  27  1   
 12   7  11  1   
 13   7  28  1   
 14   7  29  1   
 15   8  12  ar  
 16   8  30  1   
 17   9  13  ar  
 18   9  31  1   
 19  10  14  1   
 20  10  15  1   
 21  10  32  1   
 22  11  15  1   
 23  11  33  1   
 24  11  34  1   
 25  12  16  ar  
 26  12  35  1   
 27  13  16  ar  
 28  13  36  1   
 29  14  17  1   
 30  14  18  1   
 31  14  37  1   
 32  15  19  1   
 33  15  20  1   
 34  16  21  1   
 35  17  22  1   
 36  17  38  1   
 37  17  39  1   
 38  18  40  1   
 39  18  41  1   
 40  18  42  1   
 41  19  22  1   
 42  19  43  1   
 43  19  44  1   
 44  20  23  1   
 45  20  45  1   
 46  20  46  1   
 47  21  24  ar  
 48  21  25  ar  
 49  22  47  1   
 50  22  48  1   
 51  23  49  1   
@<TRIPOS>SUBSTRUCTURE
  1 ****   6 GROUP 4 **** **** 0

# MOE 2024.06 (io_trps.svl 2023.06)
