@<TRIPOS>MOLECULE
NONAME
54 57 1 0 0 
SMALL
USER_CHARGES


@<TRIPOS>ATOM
  1 O       -0.6250    -0.0410    -1.0930 O.2   1 <1>  -0.5700 
  2 C       -1.3980     0.6770    -0.5010 C.2   1 <1>   0.5690 
  3 N       -2.5960     0.1670    -0.0460 N.am  1 <1>  -0.6600 
  4 C       -0.9640     2.1630    -0.2820 C.3   1 <1>   0.3410 
  5 C       -2.8160    -1.3180     0.0460 C.3   1 <1>   0.1400 
  6 C       -3.8770     0.9320     0.1230 C.3   1 <1>   0.1400 
  7 O       -1.5990     2.7210     0.8370 O.3   1 <1>  -0.6800 
  8 C        0.5530     2.2930    -0.0050 C.3   1 <1>  -0.1600 
  9 C       -1.3220     3.0330    -1.4980 C.3   1 <1>  -0.1600 
 10 C       -3.9940    -1.7780    -0.8320 C.3   1 <1>   0.3430 
 11 C       -4.9990     0.3460    -0.7600 C.3   1 <1>   0.2950 
 12 C        1.1290     3.6970    -0.2260 C.3   1 <1>   0.3430 
 13 C       -0.9100     4.5060    -1.3600 C.3   1 <1>   0.3430 
 14 O       -5.1360    -1.0220    -0.5300 O.3   1 <1>  -0.5600 
 15 C       -4.2820    -3.2600    -0.6060 C.ar  1 <1>  -0.1440 
 16 C       -6.3490     1.0020    -0.4570 C.3   1 <1>  -0.1950 
 17 N        0.0400     4.7070    -0.2280 N.4   1 <1>  -0.9590 
 18 C       -3.6420    -4.2080    -1.3910 C.ar  1 <1>  -0.1500 
 19 C       -5.1620    -3.6860     0.3800 C.ar  1 <1>  -0.1500 
 20 C       -7.4630     0.9700    -1.4540 C.3   1 <1>  -0.2000 
 21 C       -6.7700     2.2660    -1.1400 C.3   1 <1>  -0.2000 
 22 C        0.5510     6.1070    -0.1540 C.3   1 <1>   0.2630 
 23 C       -3.8750    -5.5590    -1.1930 C.ar  1 <1>  -0.1500 
 24 C       -5.3960    -5.0360     0.5790 C.ar  1 <1>  -0.1500 
 25 C       -4.7520    -5.9730    -0.2070 C.ar  1 <1>  -0.1500 
 26 H       -1.9320    -1.8580    -0.2480 H     1 <1>   0.0800 
 27 H       -3.0260    -1.5820     1.0670 H     1 <1>   0.0800 
 28 H       -4.1840     0.8850     1.1530 H     1 <1>   0.0800 
 29 H       -3.7510     1.9650    -0.1400 H     1 <1>   0.0800 
 30 H       -1.7790     2.0020     1.4820 H     1 <1>   0.4000 
 31 H        0.7710     1.9590     0.9940 H     1 <1>   0.0800 
 32 H        1.1020     1.6410    -0.6620 H     1 <1>   0.0800 
 33 H       -0.8250     2.6260    -2.3610 H     1 <1>   0.0800 
 34 H       -2.3750     2.9750    -1.7020 H     1 <1>   0.0800 
 35 H       -3.7560    -1.6210    -1.8700 H     1 <1>   0.0800 
 36 H       -4.7590     0.4870    -1.8000 H     1 <1>   0.0800 
 37 H        1.6450     3.7290    -1.1720 H     1 <1>   0.0800 
 38 H        1.8420     3.9160     0.5530 H     1 <1>   0.0800 
 39 H       -1.7920     5.1010    -1.1850 H     1 <1>   0.0800 
 40 H       -0.4620     4.8390    -2.2830 H     1 <1>   0.0800 
 41 H       -6.6270     0.8880     0.5770 H     1 <1>   0.1000 
 42 H       -0.5230     4.4940     0.6200 H     1 <1>   0.4500 
 43 H       -2.9560    -3.9040    -2.1620 H     1 <1>   0.1500 
 44 H       -5.6730    -2.9660     0.9960 H     1 <1>   0.1500 
 45 H       -7.2900     0.4960    -2.4050 H     1 <1>   0.1000 
 46 H       -8.4650     0.8100    -1.0940 H     1 <1>   0.1000 
 47 H       -7.3110     3.0080    -0.5770 H     1 <1>   0.1000 
 48 H       -6.1520     2.7010    -1.9060 H     1 <1>   0.1000 
 49 H        1.1340     6.3400    -1.0300 H     1 <1>   0.0800 
 50 H        1.1730     6.2320     0.7180 H     1 <1>   0.0800 
 51 H       -0.2710     6.8020    -0.0900 H     1 <1>   0.0800 
 52 H       -3.3740    -6.2870    -1.8070 H     1 <1>   0.1500 
 53 H       -6.0820    -5.3550     1.3450 H     1 <1>   0.1500 
 54 H       -4.9340    -7.0230    -0.0540 H     1 <1>   0.1500 
@<TRIPOS>BOND
  1   1   2  2   
  2   2   3  am  
  3   2   4  1   
  4   3   5  1   
  5   3   6  1   
  6   4   7  1   
  7   4   8  1   
  8   4   9  1   
  9   5  10  1   
 10   5  26  1   
 11   5  27  1   
 12   6  11  1   
 13   6  28  1   
 14   6  29  1   
 15   7  30  1   
 16   8  12  1   
 17   8  31  1   
 18   8  32  1   
 19   9  13  1   
 20   9  33  1   
 21   9  34  1   
 22  10  14  1   
 23  10  15  1   
 24  10  35  1   
 25  11  14  1   
 26  11  16  1   
 27  11  36  1   
 28  12  17  1   
 29  12  37  1   
 30  12  38  1   
 31  13  17  1   
 32  13  39  1   
 33  13  40  1   
 34  15  18  ar  
 35  15  19  ar  
 36  16  20  1   
 37  16  21  1   
 38  16  41  1   
 39  17  22  1   
 40  17  42  1   
 41  18  23  ar  
 42  18  43  1   
 43  19  24  ar  
 44  19  44  1   
 45  20  21  1   
 46  20  45  1   
 47  20  46  1   
 48  21  47  1   
 49  21  48  1   
 50  22  49  1   
 51  22  50  1   
 52  22  51  1   
 53  23  25  ar  
 54  23  52  1   
 55  24  25  ar  
 56  24  53  1   
 57  25  54  1   
@<TRIPOS>SUBSTRUCTURE
  1 ****   3 GROUP 4 **** **** 0

# MOE 2024.06 (io_trps.svl 2023.06)
