@<TRIPOS>MOLECULE
NONAME
48 50 1 0 0 
SMALL
USER_CHARGES


@<TRIPOS>ATOM
  1 S       -0.4970    -0.3880     1.8550 S.o2  1 <1>   1.3330 
  2 O       -1.3940    -1.5040     2.0580 O.2   1 <1>  -0.6500 
  3 O        0.0670     0.2790     3.0070 O.2   1 <1>  -0.6500 
  4 N       -1.3380     0.7590     0.9310 N.am  1 <1>  -0.8490 
  5 C        0.8530    -0.9250     0.7960 C.3   1 <1>  -0.0550 
  6 C       -2.0420     1.7310     1.7710 C.3   1 <1>   0.1960 
  7 C       -2.2400     0.1430    -0.0460 C.3   1 <1>   0.1960 
  8 C        1.9190     0.1440     0.4890 C.3   1 <1>  -0.0800 
  9 C       -2.6170     2.8550     0.9090 C.3   1 <1>  -0.1600 
 10 C       -2.8230     1.2110    -0.9700 C.3   1 <1>  -0.1600 
 11 C        1.4540     1.2590    -0.4510 C.3   1 <1>  -0.1600 
 12 C        3.1330    -0.4430    -0.2280 C.3   1 <1>  -0.1600 
 13 C       -3.5360     2.3140    -0.1890 C.3   1 <1>   0.4180 
 14 C        2.7160     1.7770    -1.1480 C.3   1 <1>  -0.1600 
 15 C        3.8270     0.7650    -0.8510 C.3   1 <1>  -0.1600 
 16 O       -3.7770     3.3340    -1.1210 O.3   1 <1>  -0.5600 
 17 C       -4.8610     1.8050     0.3870 C.2   1 <1>  -0.2880 
 18 C       -4.7360     4.2980    -0.7870 C.3   1 <1>   0.1200 
 19 C       -6.0420     2.3900     0.1720 C.2   1 <1>  -0.2760 
 20 C       -6.1230     3.6540    -0.6650 C.3   1 <1>  -0.0220 
 21 C       -7.3670     1.8750     0.7060 C.3   1 <1>  -0.1020 
 22 H        0.4570    -1.3050    -0.1250 H     1 <1>   0.0800 
 23 H        1.3450    -1.7420     1.2880 H     1 <1>   0.0800 
 24 H       -1.3560     2.1680     2.4770 H     1 <1>   0.0800 
 25 H       -2.8230     1.2380     2.3270 H     1 <1>   0.0800 
 26 H       -3.0290    -0.3860     0.4610 H     1 <1>   0.0800 
 27 H       -1.6970    -0.5700    -0.6430 H     1 <1>   0.0800 
 28 H        2.2560     0.5890     1.4110 H     1 <1>   0.0800 
 29 H       -1.8000     3.3910     0.4600 H     1 <1>   0.0800 
 30 H       -3.1620     3.5290     1.5430 H     1 <1>   0.0800 
 31 H       -3.5170     0.7550    -1.6520 H     1 <1>   0.0800 
 32 H       -2.0190     1.6410    -1.5400 H     1 <1>   0.0800 
 33 H        0.9520     2.0450     0.0870 H     1 <1>   0.0800 
 34 H        0.7820     0.8620    -1.1920 H     1 <1>   0.0800 
 35 H        2.8120    -1.1080    -1.0120 H     1 <1>   0.0800 
 36 H        3.7830    -0.9750     0.4450 H     1 <1>   0.0800 
 37 H        2.9880     2.7460    -0.7650 H     1 <1>   0.0800 
 38 H        2.5470     1.8590    -2.2080 H     1 <1>   0.0800 
 39 H        4.3730     0.4960    -1.7380 H     1 <1>   0.0800 
 40 H        4.5110     1.1900    -0.1360 H     1 <1>   0.0800 
 41 H       -4.7580     0.9200     0.9860 H     1 <1>   0.1500 
 42 H       -4.7370     5.0430    -1.5630 H     1 <1>   0.0800 
 43 H       -4.4500     4.7620     0.1390 H     1 <1>   0.0800 
 44 H       -6.5020     3.4190    -1.6440 H     1 <1>   0.0800 
 45 H       -6.7900     4.3620    -0.2080 H     1 <1>   0.0800 
 46 H       -7.8200     2.6100     1.3470 H     1 <1>   0.0800 
 47 H       -7.2200     0.9730     1.2720 H     1 <1>   0.0800 
 48 H       -8.0350     1.6620    -0.1090 H     1 <1>   0.0800 
@<TRIPOS>BOND
  1   1   2  2   
  2   1   3  2   
  3   1   4  am  
  4   1   5  1   
  5   4   6  1   
  6   4   7  1   
  7   5   8  1   
  8   5  22  1   
  9   5  23  1   
 10   6   9  1   
 11   6  24  1   
 12   6  25  1   
 13   7  10  1   
 14   7  26  1   
 15   7  27  1   
 16   8  11  1   
 17   8  12  1   
 18   8  28  1   
 19   9  13  1   
 20   9  29  1   
 21   9  30  1   
 22  10  13  1   
 23  10  31  1   
 24  10  32  1   
 25  11  14  1   
 26  11  33  1   
 27  11  34  1   
 28  12  15  1   
 29  12  35  1   
 30  12  36  1   
 31  13  16  1   
 32  13  17  1   
 33  14  15  1   
 34  14  37  1   
 35  14  38  1   
 36  15  39  1   
 37  15  40  1   
 38  16  18  1   
 39  17  19  2   
 40  17  41  1   
 41  18  20  1   
 42  18  42  1   
 43  18  43  1   
 44  19  20  1   
 45  19  21  1   
 46  20  44  1   
 47  20  45  1   
 48  21  46  1   
 49  21  47  1   
 50  21  48  1   
@<TRIPOS>SUBSTRUCTURE
  1 ****   4 GROUP 4 **** **** 0

# MOE 2024.06 (io_trps.svl 2023.06)
