@<TRIPOS>MOLECULE
NONAME
51 54 1 0 0 
SMALL
USER_CHARGES


@<TRIPOS>ATOM
  1 O       -0.3150     0.2260    -0.1150 O.2   1 <1>  -0.5700 
  2 C       -1.3890     0.7760    -0.1780 C.2   1 <1>   0.5690 
  3 N       -2.5460     0.0610    -0.3150 N.am  1 <1>  -0.6600 
  4 C       -1.4610     2.2970    -0.1000 C.3   1 <1>  -0.0990 
  5 C       -3.9250     0.6060    -0.3480 C.3   1 <1>   0.1400 
  6 C       -2.5660    -1.4200    -0.3870 C.3   1 <1>   0.1400 
  7 C       -0.0890     2.9950    -0.0320 C.3   1 <1>  -0.1600 
  8 C       -4.8360    -0.6190    -0.4520 C.3   1 <1>   0.2000 
  9 C       -3.9930    -1.8110    -0.0010 C.3   1 <1>  -0.0800 
 10 C       -0.2260     4.5220     0.0350 C.3   1 <1>   0.0210 
 11 O       -5.9500    -0.4940     0.3630 O.3   1 <1>  -0.6800 
 12 C       -4.4730    -3.1380    -0.6130 C.3   1 <1>  -0.0170 
 13 C        1.1190     5.2260     0.1000 C.2   1 <1>  -0.1810 
 14 C       -3.6440    -4.3170    -0.1290 C.ar  1 <1>   0.1670 
 15 C        1.2560     6.6320     0.1650 C.ar  1 <1>   0.0000 
 16 C        2.3670     4.6970     0.1090 C.2   1 <1>  -0.3020 
 17 N       -2.5070    -4.5410    -0.7680 N.ar  1 <1>  -0.6200 
 18 C       -4.0930    -5.0950     0.9370 C.ar  1 <1>   0.1600 
 19 C        2.6210     6.8960     0.2110 C.ar  1 <1>  -0.1520 
 20 C        0.3490     7.6980     0.1880 C.ar  1 <1>  -0.1500 
 21 N        3.2900     5.7000     0.1770 N.pl3 1 <1>   0.0330 
 22 C       -1.8540    -5.5780    -0.2720 C.ar  1 <1>   0.1600 
 23 N       -3.4420    -6.1340     1.4340 N.ar  1 <1>  -0.6200 
 24 C        3.1000     8.2060     0.2800 C.ar  1 <1>  -0.1500 
 25 C        0.8200     8.9890     0.2560 C.ar  1 <1>  -0.1500 
 26 C       -2.3060    -6.3480     0.7930 C.ar  1 <1>   0.1600 
 27 C        2.1960     9.2430     0.3020 C.ar  1 <1>  -0.1500 
 28 H       -1.9870     2.6510    -0.9660 H     1 <1>   0.0800 
 29 H       -2.0280     2.5590     0.7740 H     1 <1>   0.0800 
 30 H       -4.1160     1.1540     0.5580 H     1 <1>   0.0800 
 31 H       -4.0530     1.2440    -1.2050 H     1 <1>   0.0800 
 32 H       -2.3400    -1.7250    -1.3950 H     1 <1>   0.0800 
 33 H       -1.8400    -1.8520     0.2820 H     1 <1>   0.0800 
 34 H        0.4440     2.6480     0.8370 H     1 <1>   0.0800 
 35 H        0.4870     2.7280    -0.9020 H     1 <1>   0.0800 
 36 H       -5.1710    -0.7370    -1.4690 H     1 <1>   0.0800 
 37 H       -4.0190    -1.8830     1.0730 H     1 <1>   0.0800 
 38 H       -0.7950     4.7940     0.9060 H     1 <1>   0.0800 
 39 H       -0.7530     4.8740    -0.8340 H     1 <1>   0.0800 
 40 H       -5.6810    -0.4160     1.2990 H     1 <1>   0.4000 
 41 H       -4.4180    -3.0900    -1.6870 H     1 <1>   0.0800 
 42 H       -5.5050    -3.2950    -0.3510 H     1 <1>   0.0800 
 43 H        2.6610     3.6620     0.0720 H     1 <1>   0.1500 
 44 H       -5.0310    -4.8470     1.4000 H     1 <1>   0.1500 
 45 H       -0.7040     7.4910     0.1520 H     1 <1>   0.1500 
 46 H        4.3080     5.5900     0.1980 H     1 <1>   0.2700 
 47 H       -0.9140    -5.8320    -0.7300 H     1 <1>   0.1500 
 48 H        4.1580     8.3920     0.3160 H     1 <1>   0.1500 
 49 H        0.1340     9.8170     0.2740 H     1 <1>   0.1500 
 50 H       -1.7020    -7.1740     1.1250 H     1 <1>   0.1500 
 51 H        2.5390    10.2620     0.3550 H     1 <1>   0.1500 
@<TRIPOS>BOND
  1   1   2  2   
  2   2   3  am  
  3   2   4  1   
  4   3   5  1   
  5   3   6  1   
  6   4   7  1   
  7   4  28  1   
  8   4  29  1   
  9   5   8  1   
 10   5  30  1   
 11   5  31  1   
 12   6   9  1   
 13   6  32  1   
 14   6  33  1   
 15   7  10  1   
 16   7  34  1   
 17   7  35  1   
 18   8   9  1   
 19   8  11  1   
 20   8  36  1   
 21   9  12  1   
 22   9  37  1   
 23  10  13  1   
 24  10  38  1   
 25  10  39  1   
 26  11  40  1   
 27  12  14  1   
 28  12  41  1   
 29  12  42  1   
 30  13  15  1   
 31  13  16  2   
 32  14  17  ar  
 33  14  18  ar  
 34  15  19  ar  
 35  15  20  ar  
 36  16  21  1   
 37  16  43  1   
 38  17  22  ar  
 39  18  23  ar  
 40  18  44  1   
 41  19  21  1   
 42  19  24  ar  
 43  20  25  ar  
 44  20  45  1   
 45  21  46  1   
 46  22  26  ar  
 47  22  47  1   
 48  23  26  ar  
 49  24  27  ar  
 50  24  48  1   
 51  25  27  ar  
 52  25  49  1   
 53  26  50  1   
 54  27  51  1   
@<TRIPOS>SUBSTRUCTURE
  1 ****   2 GROUP 4 **** **** 0

# MOE 2024.06 (io_trps.svl 2023.06)
