@<TRIPOS>MOLECULE
NONAME
43 43 1 0 0 
SMALL
USER_CHARGES


@<TRIPOS>ATOM
  1 O        0.6380     1.6250     0.1420 O.3   1 <1>  -0.5600 
  2 C       -0.5340     2.1150    -0.4540 C.3   1 <1>   0.2000 
  3 C        0.7020     0.2390     0.2690 C.3   1 <1>   0.1200 
  4 C       -0.1530     2.9800    -1.6810 C.3   1 <1>   0.2090 
  5 C       -1.3480     2.8950     0.5950 C.3   1 <1>  -0.1600 
  6 C        2.0230    -0.0950     0.9510 C.3   1 <1>  -0.2400 
  7 N        0.5190     4.2940    -1.3970 N.pl3 1 <1>  -0.8690 
  8 C       -1.7680     2.0460     1.8030 C.3   1 <1>  -0.2400 
  9 C        1.5470     4.6740    -0.6260 C.ar  1 <1>   0.7710 
 10 N        1.9160     5.9320    -0.7440 N.ar  1 <1>  -0.6200 
 11 N        2.1510     3.8160     0.2060 N.ar  1 <1>  -0.1790 
 12 C        2.9270     6.3590    -0.0050 C.ar  1 <1>   0.4100 
 13 C        3.1930     4.1980     0.9760 C.ar  1 <1>   0.2110 
 14 N        3.2920     7.6660    -0.1250 N.pl3 1 <1>  -0.8380 
 15 C        3.6000     5.4850     0.8760 C.ar  1 <1>  -0.1500 
 16 C        4.0650     8.4230     0.8980 C.3   1 <1>   0.2090 
 17 C        2.7940     8.5250    -1.2460 C.3   1 <1>   0.1290 
 18 C        5.5350     8.4660     0.4900 C.3   1 <1>  -0.2400 
 19 H       -1.1250     1.2840    -0.8050 H     1 <1>   0.0800 
 20 H        0.6570    -0.2090    -0.7110 H     1 <1>   0.0800 
 21 H       -0.1280    -0.1020     0.8650 H     1 <1>   0.0800 
 22 H       -1.0630     3.1920    -2.2160 H     1 <1>   0.0800 
 23 H        0.4660     2.3980    -2.3420 H     1 <1>   0.0800 
 24 H       -2.2390     3.2720     0.1230 H     1 <1>   0.0800 
 25 H       -0.7910     3.7480     0.9410 H     1 <1>   0.0800 
 26 H        2.8520     0.2370     0.3520 H     1 <1>   0.0800 
 27 H        2.1020    -1.1610     1.0720 H     1 <1>   0.0800 
 28 H        2.0660     0.3570     1.9250 H     1 <1>   0.0800 
 29 H        0.1670     5.0640    -1.9770 H     1 <1>   0.4000 
 30 H       -2.3340     1.1880     1.4860 H     1 <1>   0.0800 
 31 H       -2.3840     2.6310     2.4650 H     1 <1>   0.0800 
 32 H       -0.9070     1.7120     2.3550 H     1 <1>   0.0800 
 33 H        1.7370     2.8780     0.2370 H     1 <1>   0.4570 
 34 H        3.6550     3.4770     1.6300 H     1 <1>   0.1500 
 35 H        4.4300     5.8470     1.4500 H     1 <1>   0.1500 
 36 H        3.9590     7.9630     1.8650 H     1 <1>   0.0800 
 37 H        3.6780     9.4250     0.9750 H     1 <1>   0.0800 
 38 H        2.5960     7.9310    -2.1220 H     1 <1>   0.0800 
 39 H        3.5290     9.2660    -1.5070 H     1 <1>   0.0800 
 40 H        1.8860     9.0190    -0.9480 H     1 <1>   0.0800 
 41 H        5.9320     7.4720     0.3960 H     1 <1>   0.0800 
 42 H        6.1020     8.9930     1.2360 H     1 <1>   0.0800 
 43 H        5.6490     8.9800    -0.4470 H     1 <1>   0.0800 
@<TRIPOS>BOND
  1   1   2  1   
  2   1   3  1   
  3   2   4  1   
  4   2   5  1   
  5   2  19  1   
  6   3   6  1   
  7   3  20  1   
  8   3  21  1   
  9   4   7  1   
 10   4  22  1   
 11   4  23  1   
 12   5   8  1   
 13   5  24  1   
 14   5  25  1   
 15   6  26  1   
 16   6  27  1   
 17   6  28  1   
 18   7   9  1   
 19   7  29  1   
 20   8  30  1   
 21   8  31  1   
 22   8  32  1   
 23   9  10  ar  
 24   9  11  ar  
 25  10  12  ar  
 26  11  13  ar  
 27  11  33  1   
 28  12  14  1   
 29  12  15  ar  
 30  13  15  ar  
 31  13  34  1   
 32  14  16  1   
 33  14  17  1   
 34  15  35  1   
 35  16  18  1   
 36  16  36  1   
 37  16  37  1   
 38  17  38  1   
 39  17  39  1   
 40  17  40  1   
 41  18  41  1   
 42  18  42  1   
 43  18  43  1   
@<TRIPOS>SUBSTRUCTURE
  1 ****   9 GROUP 4 **** **** 0

# MOE 2024.06 (io_trps.svl 2023.06)
