@<TRIPOS>MOLECULE
NONAME
51 54 1 0 0 
SMALL
USER_CHARGES


@<TRIPOS>ATOM
  1 O       -1.1160     1.1130     2.4280 O.2   1 <1>  -0.5700 
  2 C       -1.9480     1.3080     1.5590 C.2   1 <1>   0.6160 
  3 N       -3.1110     0.5600     1.5650 N.am  1 <1>  -0.6600 
  4 C       -1.7170     2.3670     0.6210 C.2   1 <1>   0.0290 
  5 C       -3.2860    -0.6280     2.4470 C.3   1 <1>   0.1400 
  6 C       -4.2730     0.8050     0.6680 C.3   1 <1>   0.1400 
  7 C       -1.4700     2.0440    -0.7500 C.2   1 <1>   0.6160 
  8 C       -1.7110     3.6880     0.9990 C.2   1 <1>  -0.1500 
  9 C       -3.4870    -1.8750     1.5820 C.3   1 <1>  -0.1600 
 10 C       -4.4820    -0.4150    -0.2300 C.3   1 <1>  -0.1600 
 11 O       -1.4370     0.9140    -1.2130 O.2   1 <1>  -0.5700 
 12 N       -1.2630     3.0720    -1.6320 N.am  1 <1>  -0.5390 
 13 C       -1.4870     4.7070     0.0490 C.2   1 <1>  -0.1500 
 14 C       -4.6500    -1.7130     0.5850 C.3   1 <1>   0.4240 
 15 C       -1.2660     4.3870    -1.2570 C.2   1 <1>  -0.0290 
 16 O       -5.7810    -1.5330     1.4110 O.3   1 <1>  -0.5600 
 17 C       -4.8050    -2.9590    -0.3330 C.ar  1 <1>  -0.1430 
 18 C       -1.0140     5.4180    -2.3380 C.3   1 <1>  -0.1020 
 19 C       -7.0350    -1.7830     0.8640 C.3   1 <1>   0.1200 
 20 C       -3.7860    -3.3760    -1.1970 C.ar  1 <1>   0.0830 
 21 C       -5.9930    -3.6890    -0.3290 C.ar  1 <1>  -0.1430 
 22 C       -7.1390    -3.2710     0.5700 C.3   1 <1>  -0.0170 
 23 O       -2.6190    -2.6900    -1.2370 O.3   1 <1>  -0.3630 
 24 C       -3.9550    -4.4910    -2.0100 C.ar  1 <1>  -0.1500 
 25 C       -6.1560    -4.7980    -1.1440 C.ar  1 <1>  -0.1500 
 26 C       -1.9430    -2.4780    -2.4560 C.3   1 <1>   0.0400 
 27 C       -5.1380    -5.2010    -1.9840 C.ar  1 <1>  -0.1500 
 28 H       -4.1430    -0.4740     3.0800 H     1 <1>   0.0800 
 29 H       -2.4270    -0.7670     3.0800 H     1 <1>   0.0800 
 30 H       -4.1190     1.6800     0.0620 H     1 <1>   0.0800 
 31 H       -5.1500     0.9690     1.2710 H     1 <1>   0.0800 
 32 H       -1.8740     3.9620     2.0270 H     1 <1>   0.1500 
 33 H       -3.6780    -2.7270     2.2070 H     1 <1>   0.0800 
 34 H       -2.5640    -2.0570     1.0710 H     1 <1>   0.0800 
 35 H       -3.6280    -0.4940    -0.8720 H     1 <1>   0.0800 
 36 H       -5.3310    -0.2650    -0.8660 H     1 <1>   0.0800 
 37 H       -1.0860     2.7760    -2.5920 H     1 <1>   0.3700 
 38 H       -1.4930     5.7300     0.3840 H     1 <1>   0.1500 
 39 H       -0.0490     5.2550    -2.7830 H     1 <1>   0.0800 
 40 H       -1.0380     6.4110    -1.9280 H     1 <1>   0.0800 
 41 H       -1.7680     5.3430    -3.1010 H     1 <1>   0.0800 
 42 H       -7.1590    -1.1990    -0.0300 H     1 <1>   0.0800 
 43 H       -7.7750    -1.4880     1.5860 H     1 <1>   0.0800 
 44 H       -8.0810    -3.4720     0.0940 H     1 <1>   0.0800 
 45 H       -7.0980    -3.8240     1.4920 H     1 <1>   0.0800 
 46 H       -3.1660    -4.8200    -2.6580 H     1 <1>   0.1500 
 47 H       -7.0770    -5.3540    -1.1260 H     1 <1>   0.1500 
 48 H       -1.2340    -1.6830    -2.3050 H     1 <1>   0.0800 
 49 H       -2.6580    -2.1910    -3.2070 H     1 <1>   0.0800 
 50 H       -1.4290    -3.3790    -2.7340 H     1 <1>   0.0800 
 51 H       -5.2660    -6.0650    -2.6130 H     1 <1>   0.1500 
@<TRIPOS>BOND
  1   1   2  2   
  2   2   3  am  
  3   2   4  1   
  4   3   5  1   
  5   3   6  1   
  6   4   7  1   
  7   4   8  2   
  8   5   9  1   
  9   5  28  1   
 10   5  29  1   
 11   6  10  1   
 12   6  30  1   
 13   6  31  1   
 14   7  11  2   
 15   7  12  am  
 16   8  13  1   
 17   8  32  1   
 18   9  14  1   
 19   9  33  1   
 20   9  34  1   
 21  10  14  1   
 22  10  35  1   
 23  10  36  1   
 24  12  15  1   
 25  12  37  1   
 26  13  15  2   
 27  13  38  1   
 28  14  16  1   
 29  14  17  1   
 30  15  18  1   
 31  16  19  1   
 32  17  20  ar  
 33  17  21  ar  
 34  18  39  1   
 35  18  40  1   
 36  18  41  1   
 37  19  22  1   
 38  19  42  1   
 39  19  43  1   
 40  20  23  1   
 41  20  24  ar  
 42  21  22  1   
 43  21  25  ar  
 44  22  44  1   
 45  22  45  1   
 46  23  26  1   
 47  24  27  ar  
 48  24  46  1   
 49  25  27  ar  
 50  25  47  1   
 51  26  48  1   
 52  26  49  1   
 53  26  50  1   
 54  27  51  1   
@<TRIPOS>SUBSTRUCTURE
  1 ****  10 GROUP 4 **** **** 0

# MOE 2024.06 (io_trps.svl 2023.06)
