@<TRIPOS>MOLECULE
NONAME
38 39 1 0 0 
SMALL
USER_CHARGES


@<TRIPOS>ATOM
  1 S       -0.2170     0.0860     0.1630 S.o2  1 <1>   1.3330 
  2 O       -0.8910     1.3610     0.2590 O.2   1 <1>  -0.6500 
  3 O        0.0220    -0.6860     1.3620 O.2   1 <1>  -0.6500 
  4 N       -1.0790    -0.8940    -0.9220 N.am  1 <1>  -0.8490 
  5 C        1.3320     0.3510    -0.7020 C.3   1 <1>  -0.0550 
  6 C       -0.7780    -2.3230    -0.7830 C.3   1 <1>   0.1160 
  7 C       -2.5270    -0.6790    -0.8390 C.3   1 <1>   0.1160 
  8 C        2.3020     1.2940     0.0380 C.3   1 <1>  -0.0800 
  9 C        3.4910     1.6500    -0.8380 C.3   1 <1>   0.2200 
 10 C        2.9700     0.6110     1.2400 C.3   1 <1>   0.1200 
 11 N        4.0610     2.9360    -0.3800 N.am  1 <1>  -0.7300 
 12 C        4.4630     0.5240    -0.5120 C.3   1 <1>   0.1200 
 13 O        4.2520     0.2250     0.8340 O.3   1 <1>  -0.5600 
 14 C        4.0980     4.0920    -1.1020 C.2   1 <1>   0.7150 
 15 O        3.6030     4.0910    -2.2120 O.2   1 <1>  -0.5700 
 16 C        4.7170     5.2630    -0.5340 C.2   1 <1>  -0.0450 
 17 S        4.7670     6.7520    -1.4860 S.3   1 <1>  -0.0800 
 18 C        5.3180     5.4980     0.6630 C.2   1 <1>  -0.1500 
 19 C        5.6010     7.6240    -0.2200 C.2   1 <1>  -0.1100 
 20 C        5.8140     6.8230     0.8390 C.2   1 <1>  -0.1500 
 21 H        1.8090    -0.5930    -0.8780 H     1 <1>   0.0800 
 22 H        1.1010     0.7840    -1.6570 H     1 <1>   0.0800 
 23 H       -1.2770    -2.8830    -1.5550 H     1 <1>   0.0800 
 24 H       -1.1040    -2.6850     0.1790 H     1 <1>   0.0800 
 25 H        0.2810    -2.4910    -0.8730 H     1 <1>   0.0800 
 26 H       -3.0390    -1.3040    -1.5500 H     1 <1>   0.0800 
 27 H       -2.7610     0.3480    -1.0660 H     1 <1>   0.0800 
 28 H       -2.8820    -0.9040     0.1530 H     1 <1>   0.0800 
 29 H        1.7630     2.1770     0.3380 H     1 <1>   0.0800 
 30 H        3.2530     1.6900    -1.8880 H     1 <1>   0.0800 
 31 H        2.4450    -0.2630     1.5850 H     1 <1>   0.0800 
 32 H        3.0830     1.3010     2.0590 H     1 <1>   0.0800 
 33 H        4.5080     2.9000     0.5360 H     1 <1>   0.3700 
 34 H        5.4900     0.8030    -0.6660 H     1 <1>   0.0800 
 35 H        4.2340    -0.3570    -1.0840 H     1 <1>   0.0800 
 36 H        5.4330     4.7720     1.4470 H     1 <1>   0.1500 
 37 H        5.8470     8.6550    -0.4040 H     1 <1>   0.1500 
 38 H        6.3080     7.1160     1.7500 H     1 <1>   0.1500 
@<TRIPOS>BOND
  1   1   2  2   
  2   1   3  2   
  3   1   4  am  
  4   1   5  1   
  5   4   6  1   
  6   4   7  1   
  7   5   8  1   
  8   5  21  1   
  9   5  22  1   
 10   6  23  1   
 11   6  24  1   
 12   6  25  1   
 13   7  26  1   
 14   7  27  1   
 15   7  28  1   
 16   8   9  1   
 17   8  10  1   
 18   8  29  1   
 19   9  11  1   
 20   9  12  1   
 21   9  30  1   
 22  10  13  1   
 23  10  31  1   
 24  10  32  1   
 25  11  14  am  
 26  11  33  1   
 27  12  13  1   
 28  12  34  1   
 29  12  35  1   
 30  14  15  2   
 31  14  16  1   
 32  16  17  1   
 33  16  18  2   
 34  17  19  1   
 35  18  20  1   
 36  18  36  1   
 37  19  20  2   
 38  19  37  1   
 39  20  38  1   
@<TRIPOS>SUBSTRUCTURE
  1 ****   8 GROUP 4 **** **** 0

# MOE 2024.06 (io_trps.svl 2023.06)
