@<TRIPOS>MOLECULE
NONAME
52 55 1 0 0 
SMALL
USER_CHARGES


@<TRIPOS>ATOM
  1 O       -1.4560     1.2030    -2.2900 O.2   1 <1>  -0.5700 
  2 C       -2.1510     1.3270    -1.3000 C.2   1 <1>   0.5440 
  3 N       -3.3670     0.6820    -1.2340 N.am  1 <1>  -0.6600 
  4 C       -1.6790     2.1420    -0.2080 C.ar  1 <1>   0.0860 
  5 C       -4.3290     0.8220    -0.1060 C.3   1 <1>   0.1400 
  6 C       -3.7870    -0.3270    -2.2450 C.3   1 <1>   0.1400 
  7 C       -1.0080     1.6110     0.8850 C.ar  1 <1>   0.1660 
  8 C       -1.8920     3.5120    -0.1840 C.ar  1 <1>   0.1660 
  9 C       -4.4510    -0.5220     0.6160 C.3   1 <1>  -0.1600 
 10 C       -3.9020    -1.6930    -1.5640 C.3   1 <1>  -0.1600 
 11 N       -0.6160     2.3530     1.8980 N.ar  1 <1>  -0.6200 
 12 C       -0.6720     0.1320     1.0050 C.3   1 <1>  -0.0970 
 13 N       -1.5100     4.2710     0.8200 N.ar  1 <1>  -0.6200 
 14 C       -2.5960     4.2170    -1.3310 C.3   1 <1>  -0.0970 
 15 C       -4.8450    -1.6610    -0.3460 C.3   1 <1>   0.4240 
 16 C       -0.8910     3.6420     1.8040 C.ar  1 <1>   0.4700 
 17 O       -6.0920    -1.3040    -0.9010 O.3   1 <1>  -0.5600 
 18 C       -4.9020    -3.0430     0.3650 C.ar  1 <1>  -0.1430 
 19 C       -7.2400    -1.6180    -0.1840 C.3   1 <1>   0.1200 
 20 C       -3.7700    -3.6330     0.9460 C.ar  1 <1>   0.0830 
 21 C       -6.1130    -3.7320     0.4410 C.ar  1 <1>  -0.1430 
 22 C       -7.3730    -3.1320    -0.1470 C.3   1 <1>  -0.0170 
 23 O       -2.5810    -2.9750     0.9000 O.3   1 <1>  -0.3630 
 24 C       -3.8700    -4.8780     1.5660 C.ar  1 <1>  -0.1500 
 25 C       -6.1970    -4.9710     1.0550 C.ar  1 <1>  -0.1500 
 26 C       -1.3590    -3.5990     1.2330 C.3   1 <1>   0.0400 
 27 C       -5.0760    -5.5450     1.6170 C.ar  1 <1>  -0.1500 
 28 H       -5.2880     1.1140    -0.4990 H     1 <1>   0.0800 
 29 H       -4.0120     1.5800     0.5880 H     1 <1>   0.0800 
 30 H       -3.0750    -0.3830    -3.0510 H     1 <1>   0.0800 
 31 H       -4.7370    -0.0380    -2.6610 H     1 <1>   0.0800 
 32 H       -5.1670    -0.4490     1.4110 H     1 <1>   0.0800 
 33 H       -3.5070    -0.7330     1.0750 H     1 <1>   0.0800 
 34 H       -2.9150    -1.9950    -1.2800 H     1 <1>   0.0800 
 35 H       -4.2650    -2.4200    -2.2670 H     1 <1>   0.0800 
 36 H       -0.9920    -0.4360     0.1520 H     1 <1>   0.0800 
 37 H       -1.1450    -0.2730     1.8810 H     1 <1>   0.0800 
 38 H        0.3910     0.0170     1.1080 H     1 <1>   0.0800 
 39 H       -2.0970     3.9990    -2.2590 H     1 <1>   0.0800 
 40 H       -2.5860     5.2820    -1.1830 H     1 <1>   0.0800 
 41 H       -3.6160     3.8870    -1.3950 H     1 <1>   0.0800 
 42 H       -0.5700     4.2560     2.6300 H     1 <1>   0.1500 
 43 H       -8.0800    -1.1770    -0.6910 H     1 <1>   0.0800 
 44 H       -7.1690    -1.2080     0.8080 H     1 <1>   0.0800 
 45 H       -7.5250    -3.5060    -1.1440 H     1 <1>   0.0800 
 46 H       -8.2280    -3.3970     0.4500 H     1 <1>   0.0800 
 47 H       -3.0200    -5.3480     2.0200 H     1 <1>   0.1500 
 48 H       -7.1360    -5.4940     1.0990 H     1 <1>   0.1500 
 49 H       -0.5600    -2.9190     0.9980 H     1 <1>   0.0800 
 50 H       -1.2550    -4.4970     0.6500 H     1 <1>   0.0800 
 51 H       -1.3540    -3.8170     2.2860 H     1 <1>   0.0800 
 52 H       -5.1450    -6.5070     2.0940 H     1 <1>   0.1500 
@<TRIPOS>BOND
  1   1   2  2   
  2   2   3  am  
  3   2   4  1   
  4   3   5  1   
  5   3   6  1   
  6   4   7  ar  
  7   4   8  ar  
  8   5   9  1   
  9   5  28  1   
 10   5  29  1   
 11   6  10  1   
 12   6  30  1   
 13   6  31  1   
 14   7  11  ar  
 15   7  12  1   
 16   8  13  ar  
 17   8  14  1   
 18   9  15  1   
 19   9  32  1   
 20   9  33  1   
 21  10  15  1   
 22  10  34  1   
 23  10  35  1   
 24  11  16  ar  
 25  12  36  1   
 26  12  37  1   
 27  12  38  1   
 28  13  16  ar  
 29  14  39  1   
 30  14  40  1   
 31  14  41  1   
 32  15  17  1   
 33  15  18  1   
 34  16  42  1   
 35  17  19  1   
 36  18  20  ar  
 37  18  21  ar  
 38  19  22  1   
 39  19  43  1   
 40  19  44  1   
 41  20  23  1   
 42  20  24  ar  
 43  21  22  1   
 44  21  25  ar  
 45  22  45  1   
 46  22  46  1   
 47  23  26  1   
 48  24  27  ar  
 49  24  47  1   
 50  25  27  ar  
 51  25  48  1   
 52  26  49  1   
 53  26  50  1   
 54  26  51  1   
 55  27  52  1   
@<TRIPOS>SUBSTRUCTURE
  1 ****   9 GROUP 4 **** **** 0

# MOE 2024.06 (io_trps.svl 2023.06)
