@<TRIPOS>MOLECULE
NONAME
56 58 1 0 0 
SMALL
USER_CHARGES


@<TRIPOS>ATOM
  1 O        4.0810    -0.5420     1.1920 O.2   1 <1>  -0.5700 
  2 C        3.1770    -0.9180     0.4630 C.2   1 <1>   0.5440 
  3 N        2.7420    -0.0100    -0.4700 N.am  1 <1>  -0.6600 
  4 C        2.6700    -2.2760     0.4990 C.ar  1 <1>   0.0860 
  5 C        3.3450     0.0110    -1.8350 C.3   1 <1>   0.1400 
  6 C        2.0280     1.2250    -0.0480 C.3   1 <1>   0.1400 
  7 C        1.3100    -2.5150     0.7450 C.ar  1 <1>   0.0820 
  8 C        3.5120    -3.3800     0.2840 C.ar  1 <1>  -0.1440 
  9 C        4.7780     0.5900    -1.8200 C.3   1 <1>   0.3430 
 10 C        2.9940     2.3240     0.4250 C.3   1 <1>  -0.1600 
 11 O        0.5070    -1.4470     0.9850 O.3   1 <1>  -0.3630 
 12 C        0.8130    -3.8160     0.7500 C.ar  1 <1>  -0.1500 
 13 C        3.0000    -4.6650     0.2980 C.ar  1 <1>  -0.1500 
 14 C        5.0060    -3.2070     0.0360 C.3   1 <1>  -0.0970 
 15 N        5.0360     1.4170    -0.5990 N.4   1 <1>  -0.9590 
 16 C        4.1630     2.6170    -0.5180 C.3   1 <1>   0.3430 
 17 C       -0.8520    -1.5800     1.3440 C.3   1 <1>   0.0400 
 18 C        1.6550    -4.8850     0.5260 C.ar  1 <1>  -0.1500 
 19 C        6.4840     1.6770    -0.3740 C.3   1 <1>   0.3430 
 20 C        6.7650     2.0280     1.0880 C.3   1 <1>  -0.0170 
 21 C        8.2660     2.1370     1.2760 C.ar  1 <1>  -0.1440 
 22 C        9.0010     1.0130     1.6260 C.ar  1 <1>  -0.1500 
 23 C        8.9130     3.3500     1.0880 C.ar  1 <1>  -0.1500 
 24 C       10.3740     1.1000     1.7770 C.ar  1 <1>  -0.1500 
 25 C       10.2860     3.4390     1.2390 C.ar  1 <1>  -0.1500 
 26 C       11.0120     2.3110     1.5810 C.ar  1 <1>   0.0820 
 27 O       12.3430     2.3790     1.7270 O.3   1 <1>  -0.5330 
 28 H        2.7260     0.5990    -2.4910 H     1 <1>   0.0800 
 29 H        3.3680    -0.9890    -2.2330 H     1 <1>   0.0800 
 30 H        1.3560     0.9810     0.7590 H     1 <1>   0.0800 
 31 H        1.4280     1.5840    -0.8660 H     1 <1>   0.0800 
 32 H        4.9500     1.1670    -2.7130 H     1 <1>   0.0800 
 33 H        5.4670    -0.2390    -1.8300 H     1 <1>   0.0800 
 34 H        3.3740     2.0660     1.3980 H     1 <1>   0.0800 
 35 H        2.4260     3.2280     0.5500 H     1 <1>   0.0800 
 36 H       -0.2250    -4.0210     0.9290 H     1 <1>   0.1500 
 37 H        3.6420    -5.5140     0.1340 H     1 <1>   0.1500 
 38 H        5.1760    -2.5270    -0.7780 H     1 <1>   0.0800 
 39 H        5.4700    -4.1460    -0.2090 H     1 <1>   0.0800 
 40 H        5.4800    -2.8210     0.9210 H     1 <1>   0.0800 
 41 H        4.7050     0.7960     0.1780 H     1 <1>   0.4500 
 42 H        4.7230     3.4520    -0.1290 H     1 <1>   0.0800 
 43 H        3.7970     2.8840    -1.4950 H     1 <1>   0.0800 
 44 H       -1.2500    -0.5970     1.5210 H     1 <1>   0.0800 
 45 H       -0.9210    -2.1680     2.2420 H     1 <1>   0.0800 
 46 H       -1.3840    -2.0480     0.5340 H     1 <1>   0.0800 
 47 H        1.2690    -5.8900     0.5330 H     1 <1>   0.1500 
 48 H        6.8260     2.4740    -1.0140 H     1 <1>   0.0800 
 49 H        7.0480     0.7900    -0.6150 H     1 <1>   0.0800 
 50 H        6.3790     1.2570     1.7320 H     1 <1>   0.0800 
 51 H        6.3020     2.9610     1.3540 H     1 <1>   0.0800 
 52 H        8.5180     0.0650     1.7870 H     1 <1>   0.1500 
 53 H        8.3600     4.2340     0.8260 H     1 <1>   0.1500 
 54 H       10.9540     0.2360     2.0480 H     1 <1>   0.1500 
 55 H       10.7830     4.3810     1.0930 H     1 <1>   0.1500 
 56 H       12.7020     3.2720     1.5890 H     1 <1>   0.4500 
@<TRIPOS>BOND
  1   1   2  2   
  2   2   3  am  
  3   2   4  1   
  4   3   5  1   
  5   3   6  1   
  6   4   7  ar  
  7   4   8  ar  
  8   5   9  1   
  9   5  28  1   
 10   5  29  1   
 11   6  10  1   
 12   6  30  1   
 13   6  31  1   
 14   7  11  1   
 15   7  12  ar  
 16   8  13  ar  
 17   8  14  1   
 18   9  15  1   
 19   9  32  1   
 20   9  33  1   
 21  10  16  1   
 22  10  34  1   
 23  10  35  1   
 24  11  17  1   
 25  12  18  ar  
 26  12  36  1   
 27  13  18  ar  
 28  13  37  1   
 29  14  38  1   
 30  14  39  1   
 31  14  40  1   
 32  15  16  1   
 33  15  19  1   
 34  15  41  1   
 35  16  42  1   
 36  16  43  1   
 37  17  44  1   
 38  17  45  1   
 39  17  46  1   
 40  18  47  1   
 41  19  20  1   
 42  19  48  1   
 43  19  49  1   
 44  20  21  1   
 45  20  50  1   
 46  20  51  1   
 47  21  22  ar  
 48  21  23  ar  
 49  22  24  ar  
 50  22  52  1   
 51  23  25  ar  
 52  23  53  1   
 53  24  26  ar  
 54  24  54  1   
 55  25  26  ar  
 56  25  55  1   
 57  26  27  1   
 58  27  56  1   
@<TRIPOS>SUBSTRUCTURE
  1 ****   1 GROUP 4 **** **** 0

# MOE 2024.06 (io_trps.svl 2023.06)
