@<TRIPOS>MOLECULE
NONAME
53 58 1 0 0 
SMALL
USER_CHARGES


@<TRIPOS>ATOM
  1 O       -0.9420     0.9630     1.9040 O.2   1 <1>  -0.5700 
  2 C       -1.8470     1.4240     1.2330 C.2   1 <1>   0.7150 
  3 N       -3.1040     0.8670     1.3280 N.am  1 <1>  -0.6600 
  4 C       -1.5880     2.5250     0.3520 C.2   1 <1>  -0.2370 
  5 C       -4.1560     1.0230     0.2880 C.3   1 <1>   0.1400 
  6 C       -3.4520    -0.1180     2.3890 C.3   1 <1>   0.1400 
  7 N       -0.5660     2.5160    -0.5580 N.pl3 1 <1>   0.2940 
  8 C       -2.2420     3.7270     0.2390 C.2   1 <1>  -0.1500 
  9 C       -4.3870    -0.3310    -0.3840 C.3   1 <1>  -0.1600 
 10 C       -3.6770    -1.4850     1.7430 C.3   1 <1>  -0.1600 
 11 C       -0.5920     3.6980    -1.2230 C.2   1 <1>  -0.3020 
 12 C        0.3860     1.4080    -0.8120 C.3   1 <1>  -0.0910 
 13 C       -1.6120     4.4670    -0.7560 C.2   1 <1>  -0.1500 
 14 C       -4.7370    -1.4200     0.6400 C.3   1 <1>   0.4600 
 15 C        0.7700     1.0350    -2.2140 C.3   1 <1>  -0.2000 
 16 C       -0.1270     0.1370    -1.4210 C.3   1 <1>  -0.2000 
 17 O       -5.9510    -1.0790     1.2760 O.3   1 <1>  -0.5600 
 18 C       -4.8840    -2.7790    -0.0320 C.2   1 <1>  -0.3320 
 19 C       -7.1560    -1.3800     0.6120 C.3   1 <1>   0.1200 
 20 N       -3.8870    -3.5060    -0.6210 N.pl3 1 <1>   0.0330 
 21 C       -6.0450    -3.4560    -0.1310 C.2   1 <1>  -0.1810 
 22 C       -7.3290    -2.8970     0.4290 C.3   1 <1>   0.0210 
 23 C       -4.4360    -4.6720    -1.0980 C.ar  1 <1>  -0.1520 
 24 C       -5.7970    -4.6710    -0.8020 C.ar  1 <1>   0.0000 
 25 C       -3.8510    -5.7460    -1.7730 C.ar  1 <1>  -0.1500 
 26 C       -6.5890    -5.7590    -1.1830 C.ar  1 <1>  -0.1500 
 27 C       -4.6420    -6.8090    -2.1440 C.ar  1 <1>  -0.1500 
 28 C       -6.0110    -6.8160    -1.8480 C.ar  1 <1>  -0.1500 
 29 H       -3.8670     1.7430    -0.4560 H     1 <1>   0.0800 
 30 H       -5.0650     1.3640     0.7530 H     1 <1>   0.0800 
 31 H       -4.3490     0.2050     2.8890 H     1 <1>   0.0800 
 32 H       -2.6680    -0.1840     3.1240 H     1 <1>   0.0800 
 33 H       -3.0890     4.0560     0.8170 H     1 <1>   0.1500 
 34 H       -3.4890    -0.6120    -0.9020 H     1 <1>   0.0800 
 35 H       -5.1630    -0.2520    -1.1210 H     1 <1>   0.0800 
 36 H       -3.9860    -2.1960     2.4880 H     1 <1>   0.0800 
 37 H       -2.7430    -1.8240     1.3360 H     1 <1>   0.0800 
 38 H        0.1190     3.9320    -1.9940 H     1 <1>   0.1500 
 39 H        1.1200     1.3310    -0.0290 H     1 <1>   0.1000 
 40 H       -1.8930     5.4560    -1.0760 H     1 <1>   0.1500 
 41 H        1.7760     0.7060    -2.4060 H     1 <1>   0.1000 
 42 H        0.3480     1.5810    -3.0400 H     1 <1>   0.1000 
 43 H       -1.1660     0.0730    -1.6940 H     1 <1>   0.1000 
 44 H        0.2680    -0.7970    -1.0630 H     1 <1>   0.1000 
 45 H       -7.1540    -0.8870    -0.3430 H     1 <1>   0.0800 
 46 H       -7.9630    -0.9840     1.2030 H     1 <1>   0.0800 
 47 H       -2.8970    -3.2520    -0.6860 H     1 <1>   0.2700 
 48 H       -8.1430    -3.0910    -0.2450 H     1 <1>   0.0800 
 49 H       -7.5440    -3.3590     1.3750 H     1 <1>   0.0800 
 50 H       -2.7990    -5.7340    -1.9960 H     1 <1>   0.1500 
 51 H       -7.6370    -5.7500    -0.9490 H     1 <1>   0.1500 
 52 H       -4.2160    -7.6480    -2.6650 H     1 <1>   0.1500 
 53 H       -6.6070    -7.6590    -2.1480 H     1 <1>   0.1500 
@<TRIPOS>BOND
  1   1   2  2   
  2   2   3  am  
  3   2   4  1   
  4   3   5  1   
  5   3   6  1   
  6   4   7  1   
  7   4   8  2   
  8   5   9  1   
  9   5  29  1   
 10   5  30  1   
 11   6  10  1   
 12   6  31  1   
 13   6  32  1   
 14   7  11  1   
 15   7  12  1   
 16   8  13  1   
 17   8  33  1   
 18   9  14  1   
 19   9  34  1   
 20   9  35  1   
 21  10  14  1   
 22  10  36  1   
 23  10  37  1   
 24  11  13  2   
 25  11  38  1   
 26  12  15  1   
 27  12  16  1   
 28  12  39  1   
 29  13  40  1   
 30  14  17  1   
 31  14  18  1   
 32  15  16  1   
 33  15  41  1   
 34  15  42  1   
 35  16  43  1   
 36  16  44  1   
 37  17  19  1   
 38  18  20  1   
 39  18  21  2   
 40  19  22  1   
 41  19  45  1   
 42  19  46  1   
 43  20  23  1   
 44  20  47  1   
 45  21  22  1   
 46  21  24  1   
 47  22  48  1   
 48  22  49  1   
 49  23  24  ar  
 50  23  25  ar  
 51  24  26  ar  
 52  25  27  ar  
 53  25  50  1   
 54  26  28  ar  
 55  26  51  1   
 56  27  28  ar  
 57  27  52  1   
 58  28  53  1   
@<TRIPOS>SUBSTRUCTURE
  1 ****   9 GROUP 4 **** **** 0

# MOE 2024.06 (io_trps.svl 2023.06)
