@<TRIPOS>MOLECULE
NONAME
55 58 1 0 0 
SMALL
USER_CHARGES


@<TRIPOS>ATOM
  1 O        0.4260     0.3070    -0.7680 O.3   1 <1>  -0.5600 
  2 C        1.6430    -0.3710    -0.6350 C.3   1 <1>   0.3440 
  3 C        0.5180     1.6370    -1.1960 C.3   1 <1>   0.2950 
  4 C        1.3860    -1.7990    -0.1790 C.ar  1 <1>  -0.1440 
  5 C        2.5220     0.3440     0.4160 C.3   1 <1>   0.3430 
  6 C       -0.8950     2.2270    -1.3280 C.3   1 <1>  -0.1950 
  7 C        1.3440     2.4530    -0.1730 C.3   1 <1>   0.3430 
  8 C        0.3430    -2.1040     0.6870 C.ar  1 <1>  -0.1500 
  9 C        2.2180    -2.8200    -0.6180 C.ar  1 <1>  -0.1500 
 10 N        2.6860     1.8250     0.1530 N.4   1 <1>  -0.9590 
 11 C       -1.9890     1.9180    -0.3520 C.3   1 <1>  -0.2000 
 12 C       -2.0690     1.4060    -1.7640 C.3   1 <1>  -0.2000 
 13 C        0.1430    -3.4040     1.1150 C.ar  1 <1>  -0.1500 
 14 C        2.0180    -4.1210    -0.1890 C.ar  1 <1>  -0.1500 
 15 C        3.3650     2.5080     1.2930 C.3   1 <1>   0.4860 
 16 C        0.9820    -4.4130     0.6790 C.ar  1 <1>  -0.1500 
 17 C        3.5920     3.9570     0.9340 C.ar  1 <1>  -0.1430 
 18 C        2.7880     4.9560     1.4350 C.ar  1 <1>   0.1600 
 19 C        4.6000     4.3400     0.0780 C.ar  1 <1>   0.1600 
 20 N        2.9370     6.2070     1.0870 N.ar  1 <1>  -0.6200 
 21 N        4.7680     5.5840    -0.2830 N.ar  1 <1>  -0.6200 
 22 C        3.9210     6.4640     0.2390 C.ar  1 <1>   0.7200 
 23 N        4.0310     7.7620    -0.1090 N.pl3 1 <1>  -0.8690 
 24 C        5.1810     8.4000    -0.7510 C.3   1 <1>   0.2890 
 25 C        5.9420     9.1810     0.3120 C.3   1 <1>  -0.2400 
 26 C        4.6530     9.3210    -1.8430 C.3   1 <1>  -0.2400 
 27 H        2.1280    -0.3830    -1.5960 H     1 <1>   0.0800 
 28 H        0.9920     1.6500    -2.1630 H     1 <1>   0.0800 
 29 H        3.4850    -0.1380     0.4470 H     1 <1>   0.0800 
 30 H        2.0560     0.1950     1.3770 H     1 <1>   0.0800 
 31 H       -0.8660     3.2320    -1.7150 H     1 <1>   0.1000 
 32 H        0.7540     2.5330     0.7250 H     1 <1>   0.0800 
 33 H        1.4850     3.4500    -0.5580 H     1 <1>   0.0800 
 34 H       -0.3280    -1.3350     1.0290 H     1 <1>   0.1500 
 35 H        3.0280    -2.6230    -1.2990 H     1 <1>   0.1500 
 36 H        3.2800     1.9410    -0.6790 H     1 <1>   0.4500 
 37 H       -1.8400     1.1890     0.4250 H     1 <1>   0.1000 
 38 H       -2.6710     2.6980    -0.0580 H     1 <1>   0.1000 
 39 H       -2.7960     1.8420    -2.4280 H     1 <1>   0.1000 
 40 H       -1.9520     0.3480    -1.9260 H     1 <1>   0.1000 
 41 H       -0.6680    -3.6330     1.7840 H     1 <1>   0.1500 
 42 H        2.6650    -4.9100    -0.5330 H     1 <1>   0.1500 
 43 H        2.7570     2.4430     2.1810 H     1 <1>   0.0800 
 44 H        4.3140     2.0370     1.4980 H     1 <1>   0.0800 
 45 H        0.8250    -5.4250     1.0110 H     1 <1>   0.1500 
 46 H        1.9960     4.7350     2.1310 H     1 <1>   0.1500 
 47 H        5.2860     3.6170    -0.3320 H     1 <1>   0.1500 
 48 H        3.4180     8.3810     0.4160 H     1 <1>   0.4000 
 49 H        5.8300     7.6590    -1.1910 H     1 <1>   0.0800 
 50 H        5.3140     9.9300     0.7590 H     1 <1>   0.0800 
 51 H        6.7940     9.6640    -0.1300 H     1 <1>   0.0800 
 52 H        6.2940     8.5090     1.0750 H     1 <1>   0.0800 
 53 H        4.0050    10.0720    -1.4280 H     1 <1>   0.0800 
 54 H        4.1090     8.7460    -2.5710 H     1 <1>   0.0800 
 55 H        5.4720     9.8070    -2.3400 H     1 <1>   0.0800 
@<TRIPOS>BOND
  1   1   2  1   
  2   1   3  1   
  3   2   4  1   
  4   2   5  1   
  5   2  27  1   
  6   3   6  1   
  7   3   7  1   
  8   3  28  1   
  9   4   8  ar  
 10   4   9  ar  
 11   5  10  1   
 12   5  29  1   
 13   5  30  1   
 14   6  11  1   
 15   6  12  1   
 16   6  31  1   
 17   7  10  1   
 18   7  32  1   
 19   7  33  1   
 20   8  13  ar  
 21   8  34  1   
 22   9  14  ar  
 23   9  35  1   
 24  10  15  1   
 25  10  36  1   
 26  11  12  1   
 27  11  37  1   
 28  11  38  1   
 29  12  39  1   
 30  12  40  1   
 31  13  16  ar  
 32  13  41  1   
 33  14  16  ar  
 34  14  42  1   
 35  15  17  1   
 36  15  43  1   
 37  15  44  1   
 38  16  45  1   
 39  17  18  ar  
 40  17  19  ar  
 41  18  20  ar  
 42  18  46  1   
 43  19  21  ar  
 44  19  47  1   
 45  20  22  ar  
 46  21  22  ar  
 47  22  23  1   
 48  23  24  1   
 49  23  48  1   
 50  24  25  1   
 51  24  26  1   
 52  24  49  1   
 53  25  50  1   
 54  25  51  1   
 55  25  52  1   
 56  26  53  1   
 57  26  54  1   
 58  26  55  1   
@<TRIPOS>SUBSTRUCTURE
  1 ****  10 GROUP 4 **** **** 0

# MOE 2024.06 (io_trps.svl 2023.06)
