@<TRIPOS>MOLECULE
NONAME
49 51 1 0 0 
SMALL
USER_CHARGES


@<TRIPOS>ATOM
  1 O        0.3790     0.2020    -1.5960 O.2   1 <1>  -0.5700 
  2 C        1.3720     0.6130    -1.0190 C.2   1 <1>   0.5440 
  3 N        1.2460     1.7180    -0.2050 N.am  1 <1>  -0.6600 
  4 C        2.6430    -0.0490    -1.1930 C.ar  1 <1>   0.0860 
  5 C       -0.0470     2.4110    -0.0140 C.3   1 <1>   0.1400 
  6 C        2.2040     2.0830     0.8630 C.3   1 <1>   0.1400 
  7 C        2.7730    -1.4320    -0.9680 C.ar  1 <1>   0.4100 
  8 C        3.7740     0.6550    -1.5840 C.ar  1 <1>  -0.1500 
  9 C        0.2050     3.4110     1.1090 C.3   1 <1>  -0.1600 
 10 C        1.3640     2.8150     1.9020 C.3   1 <1>  -0.1600 
 11 N        3.9230    -2.0960    -1.0840 N.ar  1 <1>  -0.6200 
 12 N        1.6790    -2.1810    -0.6040 N.pl3 1 <1>  -0.8690 
 13 C        4.9580    -0.0340    -1.7110 C.ar  1 <1>  -0.1500 
 14 C        4.9760    -1.3930    -1.4490 C.ar  1 <1>   0.1600 
 15 C        1.6470    -3.6540    -0.6550 C.3   1 <1>   0.2090 
 16 C        0.2550    -4.1290    -0.2470 C.3   1 <1>  -0.1600 
 17 C        0.1610    -5.6570    -0.2720 C.3   1 <1>   0.0210 
 18 C       -1.2340    -6.1070     0.1260 C.2   1 <1>  -0.1810 
 19 C       -1.6810    -6.3970     1.4150 C.2   1 <1>   0.1080 
 20 C       -2.3100    -6.3120    -0.6650 C.2   1 <1>  -0.3320 
 21 N       -2.9240    -6.7590     1.4350 N.2   1 <1>  -0.7070 
 22 C       -0.8530    -6.3160     2.6770 C.3   1 <1>  -0.0590 
 23 N       -3.3130    -6.7050     0.1490 N.pl3 1 <1>   0.3000 
 24 C       -2.4730    -6.1550    -2.1670 C.3   1 <1>  -0.0600 
 25 H       -0.7920     1.6910     0.2800 H     1 <1>   0.0800 
 26 H       -0.3560     2.8970    -0.9240 H     1 <1>   0.0800 
 27 H        2.9510     2.7430     0.4560 H     1 <1>   0.0800 
 28 H        2.6750     1.2100     1.2830 H     1 <1>   0.0800 
 29 H        3.7160     1.7110    -1.7830 H     1 <1>   0.1500 
 30 H       -0.6730     3.5620     1.7120 H     1 <1>   0.0800 
 31 H        0.5000     4.3520     0.6770 H     1 <1>   0.0800 
 32 H        1.9340     3.5630     2.4240 H     1 <1>   0.0800 
 33 H        0.9890     2.1000     2.6140 H     1 <1>   0.0800 
 34 H        0.7760    -1.7310    -0.8160 H     1 <1>   0.4000 
 35 H        5.8600     0.4690    -2.0100 H     1 <1>   0.1500 
 36 H        5.9070    -1.9250    -1.5470 H     1 <1>   0.1500 
 37 H        2.3910    -4.0470     0.0180 H     1 <1>   0.0800 
 38 H        1.8790    -3.9800    -1.6550 H     1 <1>   0.0800 
 39 H       -0.4750    -3.7230    -0.9240 H     1 <1>   0.0800 
 40 H        0.0360    -3.7760     0.7450 H     1 <1>   0.0800 
 41 H        0.8820    -6.0850     0.4010 H     1 <1>   0.0800 
 42 H        0.3820    -6.0200    -1.2600 H     1 <1>   0.0800 
 43 H       -0.2950    -5.3990     2.6960 H     1 <1>   0.0800 
 44 H       -0.1770    -7.1500     2.7190 H     1 <1>   0.0800 
 45 H       -1.4980    -6.3470     3.5370 H     1 <1>   0.0800 
 46 H       -4.2690    -6.9390    -0.1400 H     1 <1>   0.2700 
 47 H       -1.5670    -5.7850    -2.6100 H     1 <1>   0.0800 
 48 H       -3.2630    -5.4560    -2.3810 H     1 <1>   0.0800 
 49 H       -2.7120    -7.1030    -2.6150 H     1 <1>   0.0800 
@<TRIPOS>BOND
  1   1   2  2   
  2   2   3  am  
  3   2   4  1   
  4   3   5  1   
  5   3   6  1   
  6   4   7  ar  
  7   4   8  ar  
  8   5   9  1   
  9   5  25  1   
 10   5  26  1   
 11   6  10  1   
 12   6  27  1   
 13   6  28  1   
 14   7  11  ar  
 15   7  12  1   
 16   8  13  ar  
 17   8  29  1   
 18   9  10  1   
 19   9  30  1   
 20   9  31  1   
 21  10  32  1   
 22  10  33  1   
 23  11  14  ar  
 24  12  15  1   
 25  12  34  1   
 26  13  14  ar  
 27  13  35  1   
 28  14  36  1   
 29  15  16  1   
 30  15  37  1   
 31  15  38  1   
 32  16  17  1   
 33  16  39  1   
 34  16  40  1   
 35  17  18  1   
 36  17  41  1   
 37  17  42  1   
 38  18  19  1   
 39  18  20  2   
 40  19  21  2   
 41  19  22  1   
 42  20  23  1   
 43  20  24  1   
 44  21  23  1   
 45  22  43  1   
 46  22  44  1   
 47  22  45  1   
 48  23  46  1   
 49  24  47  1   
 50  24  48  1   
 51  24  49  1   
@<TRIPOS>SUBSTRUCTURE
  1 ****  12 GROUP 4 **** **** 0

# MOE 2024.06 (io_trps.svl 2023.06)
