@<TRIPOS>MOLECULE
NONAME
46 49 1 0 0 
SMALL
USER_CHARGES


@<TRIPOS>ATOM
  1 O       -0.7680    -0.9930    -0.3300 O.co2 1 <1>  -0.9000 
  2 C       -0.7910    -2.1880    -0.6580 C.2   1 <1>   1.0330 
  3 O       -1.8960    -2.7690    -0.6820 O.co2 1 <1>  -0.9000 
  4 C        0.4080    -2.9010    -0.9910 C.2   1 <1>  -0.2330 
  5 C        0.4220    -4.1120    -1.6800 C.2   1 <1>   0.3720 
  6 C        1.7280    -2.6570    -0.7660 C.2   1 <1>   0.0870 
  7 N        1.6170    -4.5520    -1.8520 N.2   1 <1>  -0.4100 
  8 N       -0.7170    -4.7720    -2.1140 N.pl3 1 <1>  -0.8520 
  9 O        2.3920    -3.6580    -1.2990 O.3   1 <1>  -0.0190 
 10 C        2.4720    -1.6160    -0.0940 C.ar  1 <1>   0.0530 
 11 C       -0.9390    -6.1030    -1.5060 C.3   1 <1>   0.2090 
 12 C        3.7580    -1.2770    -0.5180 C.ar  1 <1>  -0.1500 
 13 C        1.9650    -0.9260     1.0070 C.ar  1 <1>  -0.1500 
 14 C       -1.6390    -5.9550    -0.1550 C.3   1 <1>   0.0210 
 15 C        4.5010    -0.3020     0.1220 C.ar  1 <1>  -0.1500 
 16 C        2.6990     0.0520     1.6510 C.ar  1 <1>  -0.1500 
 17 C       -1.8700    -7.3160     0.4650 C.2   1 <1>   0.3350 
 18 C        3.9720     0.3670     1.2110 C.ar  1 <1>  -0.1500 
 19 N       -1.3280    -7.7360     1.5380 N.2   1 <1>  -0.4100 
 20 N       -2.6840    -8.2020    -0.0950 N.2   1 <1>  -0.5650 
 21 O       -1.7680    -8.9390     1.7440 O.3   1 <1>  -0.0190 
 22 C       -2.5730    -9.1620     0.7350 C.2   1 <1>   0.2980 
 23 C       -3.2770   -10.5150     0.6710 C.3   1 <1>   0.1000 
 24 C       -2.3080   -11.6940     0.5720 C.3   1 <1>  -0.1600 
 25 C       -4.1940   -10.7170    -0.5370 C.3   1 <1>  -0.1600 
 26 C       -3.1280   -12.8550    -0.0010 C.3   1 <1>  -0.1600 
 27 C       -4.3740   -12.2320    -0.6450 C.3   1 <1>  -0.1600 
 28 H       -1.5110    -4.1510    -1.8400 H     1 <1>   0.4000 
 29 H        0.0020    -6.6110    -1.3790 H     1 <1>   0.0800 
 30 H       -1.5510    -6.6890    -2.1700 H     1 <1>   0.0800 
 31 H        4.1770    -1.7880    -1.3660 H     1 <1>   0.1500 
 32 H        0.9760    -1.1580     1.3610 H     1 <1>   0.1500 
 33 H       -2.5840    -5.4620    -0.2850 H     1 <1>   0.0800 
 34 H       -1.0310    -5.3620     0.5040 H     1 <1>   0.0800 
 35 H        5.4890    -0.0610    -0.2290 H     1 <1>   0.1500 
 36 H        2.2730     0.5690     2.4930 H     1 <1>   0.1500 
 37 H        4.5440     1.1290     1.7110 H     1 <1>   0.1500 
 38 H       -3.8660   -10.6300     1.5650 H     1 <1>   0.0800 
 39 H       -1.8740   -11.9380     1.5260 H     1 <1>   0.0800 
 40 H       -1.5190   -11.4440    -0.1180 H     1 <1>   0.0800 
 41 H       -3.7030   -10.3570    -1.4250 H     1 <1>   0.0800 
 42 H       -5.1310   -10.2000    -0.4200 H     1 <1>   0.0800 
 43 H       -3.4240   -13.5270     0.7870 H     1 <1>   0.0800 
 44 H       -2.5510   -13.4040    -0.7250 H     1 <1>   0.0800 
 45 H       -4.4850   -12.5370    -1.6710 H     1 <1>   0.0800 
 46 H       -5.2500   -12.5330    -0.0960 H     1 <1>   0.0800 
@<TRIPOS>BOND
  1   1   2  ar  
  2   2   3  ar  
  3   2   4  1   
  4   4   5  1   
  5   4   6  2   
  6   5   7  2   
  7   5   8  1   
  8   6   9  1   
  9   6  10  1   
 10   7   9  1   
 11   8  11  1   
 12   8  28  1   
 13  10  12  ar  
 14  10  13  ar  
 15  11  14  1   
 16  11  29  1   
 17  11  30  1   
 18  12  15  ar  
 19  12  31  1   
 20  13  16  ar  
 21  13  32  1   
 22  14  17  1   
 23  14  33  1   
 24  14  34  1   
 25  15  18  ar  
 26  15  35  1   
 27  16  18  ar  
 28  16  36  1   
 29  17  19  2   
 30  17  20  1   
 31  18  37  1   
 32  19  21  1   
 33  20  22  2   
 34  21  22  1   
 35  22  23  1   
 36  23  24  1   
 37  23  25  1   
 38  23  38  1   
 39  24  26  1   
 40  24  39  1   
 41  24  40  1   
 42  25  27  1   
 43  25  41  1   
 44  25  42  1   
 45  26  27  1   
 46  26  43  1   
 47  26  44  1   
 48  27  45  1   
 49  27  46  1   
@<TRIPOS>SUBSTRUCTURE
  1 ****  14 GROUP 4 **** **** 0

# MOE 2024.06 (io_trps.svl 2023.06)
