@<TRIPOS>MOLECULE
NONAME
53 55 1 0 0 
SMALL
USER_CHARGES


@<TRIPOS>ATOM
  1 O        2.4770    -0.6400    -2.3910 O.2   1 <1>  -0.5700 
  2 C        1.8450    -1.0140    -1.4310 C.2   1 <1>   0.5690 
  3 N        1.5060    -0.1720    -0.4290 N.am  1 <1>  -0.7300 
  4 C        1.4330    -2.4870    -1.3150 C.3   1 <1>   0.1710 
  5 C        1.8510     1.2490    -0.3230 C.3   1 <1>   0.4000 
  6 N        0.3660    -2.7510    -0.3060 N.3   1 <1>  -0.8100 
  7 C        2.8670     1.4070     0.8110 C.2   1 <1>   0.0060 
  8 C        0.5530     2.0450    -0.1180 C.3   1 <1>  -0.1600 
  9 C       -0.9600    -2.2940    -0.7900 C.3   1 <1>   0.1100 
 10 C        0.2880    -4.1890     0.0280 C.3   1 <1>   0.1100 
 11 N        2.5700     1.6560     2.0510 N.2   1 <1>  -0.5650 
 12 N        4.2000     1.2710     0.5960 N.pl3 1 <1>   0.0480 
 13 C        0.7830     3.5650    -0.1540 C.3   1 <1>  -0.1600 
 14 C       -2.0700    -2.5180     0.2530 C.3   1 <1>   0.2090 
 15 C       -0.7800    -4.4830     1.0980 C.3   1 <1>   0.2090 
 16 C        3.7620     1.6930     2.6710 C.2   1 <1>   0.0770 
 17 C        4.7670     1.4600     1.8000 C.2   1 <1>  -0.3020 
 18 C        4.9090     0.9460    -0.6570 C.3   1 <1>   0.0160 
 19 C       -0.5360     4.3260     0.0070 C.3   1 <1>  -0.2400 
 20 N       -2.1200    -3.9470     0.6970 N.pl3 1 <1>  -0.8380 
 21 C       -3.3020    -4.5910     1.0000 C.ar  1 <1>   0.7200 
 22 N       -3.2130    -5.7940     1.5700 N.ar  1 <1>  -0.6200 
 23 N       -4.4370    -3.9590     0.7000 N.ar  1 <1>  -0.6200 
 24 C       -4.3420    -6.3940     1.8520 C.ar  1 <1>   0.1600 
 25 C       -5.5510    -4.5830     0.9930 C.ar  1 <1>   0.1600 
 26 C       -5.5600    -5.8230     1.5790 C.ar  1 <1>  -0.1500 
 27 H        1.0630    -0.5800     0.4000 H     1 <1>   0.3700 
 28 H        2.3180    -3.0340    -1.0420 H     1 <1>   0.0800 
 29 H        1.1180    -2.8350    -2.2830 H     1 <1>   0.0800 
 30 H        2.2970     1.5730    -1.2470 H     1 <1>   0.0800 
 31 H        0.1180     1.7740     0.8280 H     1 <1>   0.0800 
 32 H       -0.1370     1.7810    -0.9000 H     1 <1>   0.0800 
 33 H       -1.2250    -2.8240    -1.6890 H     1 <1>   0.0800 
 34 H       -0.9210    -1.2440    -1.0240 H     1 <1>   0.0800 
 35 H        1.2420    -4.5210     0.4000 H     1 <1>   0.0800 
 36 H        0.0550    -4.7600    -0.8550 H     1 <1>   0.0800 
 37 H        1.2400     3.8430    -1.0890 H     1 <1>   0.0800 
 38 H        1.4510     3.8500     0.6420 H     1 <1>   0.0800 
 39 H       -3.0060    -2.2140    -0.1820 H     1 <1>   0.0800 
 40 H       -1.8850    -1.8920     1.1080 H     1 <1>   0.0800 
 41 H       -0.4850    -4.0280     2.0270 H     1 <1>   0.0800 
 42 H       -0.8210    -5.5470     1.2490 H     1 <1>   0.0800 
 43 H        3.8360     1.8870     3.7280 H     1 <1>   0.1500 
 44 H        5.8260     1.4190     1.9730 H     1 <1>   0.1500 
 45 H        4.6210     1.6390    -1.4260 H     1 <1>   0.0800 
 46 H        4.6520    -0.0530    -0.9610 H     1 <1>   0.0800 
 47 H        5.9700     1.0090    -0.4990 H     1 <1>   0.0800 
 48 H       -1.2170     4.0760    -0.7880 H     1 <1>   0.0800 
 49 H       -0.3540     5.3860    -0.0170 H     1 <1>   0.0800 
 50 H       -0.9960     4.0800     0.9490 H     1 <1>   0.0800 
 51 H       -4.2950    -7.3670     2.3120 H     1 <1>   0.1500 
 52 H       -6.4800    -4.0920     0.7590 H     1 <1>   0.1500 
 53 H       -6.4790    -6.3250     1.8150 H     1 <1>   0.1500 
@<TRIPOS>BOND
  1   1   2  2   
  2   2   3  am  
  3   2   4  1   
  4   3   5  1   
  5   3  27  1   
  6   4   6  1   
  7   4  28  1   
  8   4  29  1   
  9   5   7  1   
 10   5   8  1   
 11   5  30  1   
 12   6   9  1   
 13   6  10  1   
 14   7  11  2   
 15   7  12  1   
 16   8  13  1   
 17   8  31  1   
 18   8  32  1   
 19   9  14  1   
 20   9  33  1   
 21   9  34  1   
 22  10  15  1   
 23  10  35  1   
 24  10  36  1   
 25  11  16  1   
 26  12  17  1   
 27  12  18  1   
 28  13  19  1   
 29  13  37  1   
 30  13  38  1   
 31  14  20  1   
 32  14  39  1   
 33  14  40  1   
 34  15  20  1   
 35  15  41  1   
 36  15  42  1   
 37  16  17  2   
 38  16  43  1   
 39  17  44  1   
 40  18  45  1   
 41  18  46  1   
 42  18  47  1   
 43  19  48  1   
 44  19  49  1   
 45  19  50  1   
 46  20  21  1   
 47  21  22  ar  
 48  21  23  ar  
 49  22  24  ar  
 50  23  25  ar  
 51  24  26  ar  
 52  24  51  1   
 53  25  26  ar  
 54  25  52  1   
 55  26  53  1   
@<TRIPOS>SUBSTRUCTURE
  1 ****   6 GROUP 4 **** **** 0

# MOE 2024.06 (io_trps.svl 2023.06)
