@<TRIPOS>MOLECULE
NONAME
36 38 1 0 0 
SMALL
USER_CHARGES


@<TRIPOS>ATOM
  1 CL      -3.0260     1.1710     2.7760 Cl    1 <1>  -0.1770 
  2 C       -2.6860    -0.0940     1.6170 C.ar  1 <1>   0.1770 
  3 C       -2.4690     0.1970     0.2740 C.ar  1 <1>  -0.1440 
  4 C       -2.6610    -1.3910     2.1010 C.ar  1 <1>  -0.1500 
  5 C       -2.2720    -0.8860    -0.5760 C.ar  1 <1>   0.1770 
  6 C       -2.4850     1.6380    -0.2420 C.3   1 <1>   0.2540 
  7 C       -2.4310    -2.4460     1.2370 C.ar  1 <1>  -0.1500 
  8 CL      -2.0790    -0.6680    -2.3000 Cl    1 <1>  -0.1770 
  9 C       -2.2420    -2.1890    -0.1090 C.ar  1 <1>  -0.1500 
 10 N       -1.1540     2.2860    -0.2480 N.3   1 <1>  -0.8100 
 11 C       -0.5670     2.4530     1.1050 C.3   1 <1>   0.1100 
 12 C       -0.2540     1.8010    -1.3110 C.3   1 <1>   0.1100 
 13 C        0.7870     3.1960     1.1700 C.3   1 <1>   0.2200 
 14 C        0.9010     2.7580    -1.6940 C.3   1 <1>  -0.0190 
 15 N        0.8020     4.3350     0.2130 N.am  1 <1>  -0.7300 
 16 C        1.9680     2.2040     0.9820 C.3   1 <1>   0.1200 
 17 C        0.7800     4.1630    -1.1270 C.2   1 <1>   0.5690 
 18 C        2.2860     2.1580    -1.3880 C.3   1 <1>   0.1200 
 19 O        2.7810     2.4850    -0.1210 O.3   1 <1>  -0.5600 
 20 O        0.6840     5.1100    -1.8700 O.2   1 <1>  -0.5700 
 21 H       -2.8260    -1.5710     3.1490 H     1 <1>   0.1500 
 22 H       -3.1500     2.2320     0.3610 H     1 <1>   0.0800 
 23 H       -2.8900     1.6640    -1.2390 H     1 <1>   0.0800 
 24 H       -2.4090    -3.4580     1.6060 H     1 <1>   0.1500 
 25 H       -2.0770    -2.9970    -0.8000 H     1 <1>   0.1500 
 26 H       -1.2660     3.0200     1.6950 H     1 <1>   0.0800 
 27 H       -0.4590     1.4930     1.5760 H     1 <1>   0.0800 
 28 H        0.1270     0.8320    -1.0410 H     1 <1>   0.0800 
 29 H       -0.8430     1.6760    -2.2030 H     1 <1>   0.0800 
 30 H        0.8760     3.5950     2.1650 H     1 <1>   0.0800 
 31 H        0.8570     2.8500    -2.7630 H     1 <1>   0.0800 
 32 H        0.6740     5.2810     0.5660 H     1 <1>   0.3700 
 33 H        1.6250     1.1880     0.9010 H     1 <1>   0.0800 
 34 H        2.6010     2.2610     1.8490 H     1 <1>   0.0800 
 35 H        2.9970     2.5540    -2.0930 H     1 <1>   0.0800 
 36 H        2.2830     1.0870    -1.4870 H     1 <1>   0.0800 
@<TRIPOS>BOND
  1   1   2  1   
  2   2   3  ar  
  3   2   4  ar  
  4   3   5  ar  
  5   3   6  1   
  6   4   7  ar  
  7   4  21  1   
  8   5   8  1   
  9   5   9  ar  
 10   6  10  1   
 11   6  22  1   
 12   6  23  1   
 13   7   9  ar  
 14   7  24  1   
 15   9  25  1   
 16  10  11  1   
 17  10  12  1   
 18  11  13  1   
 19  11  26  1   
 20  11  27  1   
 21  12  14  1   
 22  12  28  1   
 23  12  29  1   
 24  13  15  1   
 25  13  16  1   
 26  13  30  1   
 27  14  17  1   
 28  14  18  1   
 29  14  31  1   
 30  15  17  am  
 31  15  32  1   
 32  16  19  1   
 33  16  33  1   
 34  16  34  1   
 35  17  20  2   
 36  18  19  1   
 37  18  35  1   
 38  18  36  1   
@<TRIPOS>SUBSTRUCTURE
  1 ****  10 GROUP 4 **** **** 0

# MOE 2024.06 (io_trps.svl 2023.06)
