@<TRIPOS>MOLECULE
NONAME
48 50 1 0 0 
SMALL
USER_CHARGES


@<TRIPOS>ATOM
  1 S        0.2430     0.3240    -0.8790 S.o2  1 <1>   1.3330 
  2 O       -0.3510     0.4330    -2.1930 O.2   1 <1>  -0.6500 
  3 O        1.6840     0.3080    -0.7520 O.2   1 <1>  -0.6500 
  4 N       -0.3550    -1.0830    -0.1420 N.am  1 <1>  -0.8490 
  5 C       -0.4350     1.6350     0.1340 C.3   1 <1>  -0.0550 
  6 C       -0.4600    -2.2000    -1.0850 C.3   1 <1>   0.1160 
  7 C        0.4150    -1.4950     1.0360 C.3   1 <1>   0.1160 
  8 C       -0.0620     3.0440    -0.3690 C.3   1 <1>  -0.0800 
  9 C       -0.7860     4.1860     0.3440 C.3   1 <1>   0.2000 
 10 C        1.4330     3.3820    -0.2200 C.3   1 <1>   0.1100 
 11 O       -0.8680     3.8990     1.6950 O.3   1 <1>  -0.6800 
 12 C        0.2020     5.3350     0.1970 C.3   1 <1>   0.1100 
 13 N        1.5030     4.6960     0.4390 N.3   1 <1>  -0.8100 
 14 C        2.6570     5.4890    -0.0110 C.3   1 <1>   0.1100 
 15 C        2.9360     6.6430     0.9560 C.3   1 <1>   0.1400 
 16 N        4.0360     7.4830     0.4380 N.am  1 <1>  -0.4770 
 17 C        5.3730     7.2530     0.6050 C.2   1 <1>   0.7800 
 18 C        3.9330     8.6150    -0.3420 C.ar  1 <1>   0.1170 
 19 O        5.8740     6.3250     1.2100 O.2   1 <1>  -0.5700 
 20 O        6.0950     8.1870    -0.0160 O.3   1 <1>  -0.2330 
 21 C        5.2210     9.0270    -0.6060 C.ar  1 <1>   0.0820 
 22 C        2.8550     9.3250    -0.8500 C.ar  1 <1>  -0.1500 
 23 C        5.4910    10.1450    -1.3730 C.ar  1 <1>  -0.1500 
 24 C        3.1070    10.4490    -1.6220 C.ar  1 <1>  -0.1500 
 25 C        4.4150    10.8570    -1.8820 C.ar  1 <1>  -0.1500 
 26 H       -1.5040     1.5460     0.1380 H     1 <1>   0.0800 
 27 H       -0.0970     1.5170     1.1440 H     1 <1>   0.0800 
 28 H       -0.8580    -3.0690    -0.5920 H     1 <1>   0.0800 
 29 H        0.5090    -2.4350    -1.4960 H     1 <1>   0.0800 
 30 H       -1.1230    -1.9390    -1.8930 H     1 <1>   0.0800 
 31 H       -0.0590    -2.3370     1.5110 H     1 <1>   0.0800 
 32 H        0.4660    -0.6890     1.7480 H     1 <1>   0.0800 
 33 H        1.4180    -1.7710     0.7540 H     1 <1>   0.0800 
 34 H       -0.3050     3.1060    -1.4160 H     1 <1>   0.0800 
 35 H       -1.7710     4.3940    -0.0380 H     1 <1>   0.0800 
 36 H        1.8970     3.4110    -1.1930 H     1 <1>   0.0800 
 37 H        1.9510     2.6580     0.3870 H     1 <1>   0.0800 
 38 H        0.0510     3.9640     2.0380 H     1 <1>   0.4000 
 39 H        0.0010     6.1240     0.9010 H     1 <1>   0.0800 
 40 H        0.1570     5.7230    -0.8070 H     1 <1>   0.0800 
 41 H        3.5290     4.8560    -0.0340 H     1 <1>   0.0800 
 42 H        2.4800     5.8670    -1.0030 H     1 <1>   0.0800 
 43 H        3.2190     6.2420     1.9140 H     1 <1>   0.0800 
 44 H        2.0580     7.2500     1.0790 H     1 <1>   0.0800 
 45 H        1.8490     9.0070    -0.6460 H     1 <1>   0.1500 
 46 H        6.5060    10.4440    -1.5630 H     1 <1>   0.1500 
 47 H        2.2860    11.0160    -2.0260 H     1 <1>   0.1500 
 48 H        4.5890    11.7320    -2.4830 H     1 <1>   0.1500 
@<TRIPOS>BOND
  1   1   2  2   
  2   1   3  2   
  3   1   4  am  
  4   1   5  1   
  5   4   6  1   
  6   4   7  1   
  7   5   8  1   
  8   5  26  1   
  9   5  27  1   
 10   6  28  1   
 11   6  29  1   
 12   6  30  1   
 13   7  31  1   
 14   7  32  1   
 15   7  33  1   
 16   8   9  1   
 17   8  10  1   
 18   8  34  1   
 19   9  11  1   
 20   9  12  1   
 21   9  35  1   
 22  10  13  1   
 23  10  36  1   
 24  10  37  1   
 25  11  38  1   
 26  12  13  1   
 27  12  39  1   
 28  12  40  1   
 29  13  14  1   
 30  14  15  1   
 31  14  41  1   
 32  14  42  1   
 33  15  16  1   
 34  15  43  1   
 35  15  44  1   
 36  16  17  am  
 37  16  18  1   
 38  17  19  2   
 39  17  20  1   
 40  18  21  ar  
 41  18  22  ar  
 42  20  21  1   
 43  21  23  ar  
 44  22  24  ar  
 45  22  45  1   
 46  23  25  ar  
 47  23  46  1   
 48  24  25  ar  
 49  24  47  1   
 50  25  48  1   
@<TRIPOS>SUBSTRUCTURE
  1 ****  14 GROUP 4 **** **** 0

# MOE 2024.06 (io_trps.svl 2023.06)
