@<TRIPOS>MOLECULE
NONAME
50 53 1 0 0 
SMALL
USER_CHARGES


@<TRIPOS>ATOM
  1 O       -0.2480    -0.1420    -1.9640 O.2   1 <1>  -0.5700 
  2 C       -1.1260     0.6400    -1.6480 C.2   1 <1>   0.5440 
  3 N       -2.4170     0.1700    -1.6060 N.am  1 <1>  -0.6600 
  4 C       -0.8030     2.0130    -1.3290 C.ar  1 <1>   0.0860 
  5 C       -2.6600    -1.1310    -0.9210 C.3   1 <1>   0.1400 
  6 C       -3.5970     1.0110    -1.9500 C.3   1 <1>   0.1400 
  7 C       -1.0660     2.5320    -0.0600 C.ar  1 <1>   0.0830 
  8 C       -0.2220     2.8600    -2.2740 C.ar  1 <1>  -0.1500 
  9 C       -4.1660    -1.4340    -0.7720 C.3   1 <1>   0.4230 
 10 C       -4.5890     1.0870    -0.7830 C.3   1 <1>  -0.1600 
 11 O       -1.6080     1.7260     0.8830 O.3   1 <1>  -0.3630 
 12 C       -0.7700     3.8630     0.2420 C.ar  1 <1>   0.0830 
 13 C        0.0660     4.1800    -1.9790 C.ar  1 <1>  -0.1500 
 14 N       -4.4720    -2.7370    -0.0860 N.4   1 <1>  -0.9590 
 15 C       -4.8990    -0.2690    -0.0660 C.3   1 <1>  -0.1060 
 16 C       -2.1830     2.3240     2.0280 C.3   1 <1>   0.1200 
 17 O       -1.0100     4.3770     1.4770 O.3   1 <1>  -0.3630 
 18 C       -0.2120     4.6850    -0.7190 C.ar  1 <1>  -0.1500 
 19 C       -5.9190    -3.0670    -0.1280 C.3   1 <1>   0.3430 
 20 C       -3.6040    -3.8840    -0.4650 C.3   1 <1>   0.2630 
 21 C       -4.4710    -0.1940     1.4150 C.2   1 <1>   0.9060 
 22 C       -6.4190    -0.5590    -0.1420 C.3   1 <1>  -0.1600 
 23 C       -1.2850     3.4600     2.5250 C.3   1 <1>   0.1200 
 24 C       -6.7550    -1.9310     0.4670 C.3   1 <1>  -0.1600 
 25 O       -4.8100     0.7790     2.0910 O.co2 1 <1>  -0.9000 
 26 O       -3.8760    -1.1540     1.9310 O.co2 1 <1>  -0.9000 
 27 H       -2.1820    -1.8980    -1.5020 H     1 <1>   0.0800 
 28 H       -2.1950    -1.0940     0.0500 H     1 <1>   0.0800 
 29 H       -3.2820     2.0050    -2.2190 H     1 <1>   0.0800 
 30 H       -4.0820     0.5810    -2.8090 H     1 <1>   0.0800 
 31 H        0.0040     2.4640    -3.2500 H     1 <1>   0.1500 
 32 H       -4.5560    -1.5000    -1.7730 H     1 <1>   0.0800 
 33 H       -4.1840     1.7880    -0.0770 H     1 <1>   0.0800 
 34 H       -5.4960     1.5390    -1.1420 H     1 <1>   0.0800 
 35 H        0.5100     4.8170    -2.7250 H     1 <1>   0.1500 
 36 H       -4.2480    -2.4750     0.9130 H     1 <1>   0.4500 
 37 H       -3.1540     2.7030     1.7630 H     1 <1>   0.0800 
 38 H       -2.3070     1.5600     2.7760 H     1 <1>   0.0800 
 39 H        0.0070     5.7090    -0.4760 H     1 <1>   0.1500 
 40 H       -6.2190    -3.2330    -1.1500 H     1 <1>   0.0800 
 41 H       -6.1030    -3.9700     0.4310 H     1 <1>   0.0800 
 42 H       -3.7210    -4.1140    -1.5110 H     1 <1>   0.0800 
 43 H       -3.8660    -4.7520     0.1170 H     1 <1>   0.0800 
 44 H       -2.5710    -3.6470    -0.2690 H     1 <1>   0.0800 
 45 H       -6.9540     0.2070     0.3970 H     1 <1>   0.0800 
 46 H       -6.7470    -0.5340    -1.1670 H     1 <1>   0.0800 
 47 H       -0.3500     3.0640     2.8770 H     1 <1>   0.0800 
 48 H       -1.7650     3.9980     3.3220 H     1 <1>   0.0800 
 49 H       -7.7990    -2.1430     0.3150 H     1 <1>   0.0800 
 50 H       -6.5940    -1.9030     1.5320 H     1 <1>   0.0800 
@<TRIPOS>BOND
  1   1   2  2   
  2   2   3  am  
  3   2   4  1   
  4   3   5  1   
  5   3   6  1   
  6   4   7  ar  
  7   4   8  ar  
  8   5   9  1   
  9   5  27  1   
 10   5  28  1   
 11   6  10  1   
 12   6  29  1   
 13   6  30  1   
 14   7  11  1   
 15   7  12  ar  
 16   8  13  ar  
 17   8  31  1   
 18   9  14  1   
 19   9  15  1   
 20   9  32  1   
 21  10  15  1   
 22  10  33  1   
 23  10  34  1   
 24  11  16  1   
 25  12  17  1   
 26  12  18  ar  
 27  13  18  ar  
 28  13  35  1   
 29  14  19  1   
 30  14  20  1   
 31  14  36  1   
 32  15  21  1   
 33  15  22  1   
 34  16  23  1   
 35  16  37  1   
 36  16  38  1   
 37  17  23  1   
 38  18  39  1   
 39  19  24  1   
 40  19  40  1   
 41  19  41  1   
 42  20  42  1   
 43  20  43  1   
 44  20  44  1   
 45  21  25  ar  
 46  21  26  ar  
 47  22  24  1   
 48  22  45  1   
 49  22  46  1   
 50  23  47  1   
 51  23  48  1   
 52  24  49  1   
 53  24  50  1   
@<TRIPOS>SUBSTRUCTURE
  1 ****   3 GROUP 4 **** **** 0

# MOE 2024.06 (io_trps.svl 2023.06)
