@<TRIPOS>MOLECULE
NONAME
54 57 1 0 0 
SMALL
USER_CHARGES


@<TRIPOS>ATOM
  1 O       -0.9500    -1.6310     0.8430 O.2   1 <1>  -0.5700 
  2 C        0.0380    -2.2360     0.5040 C.2   1 <1>   0.5690 
  3 N        0.2230    -2.7310    -0.7590 N.am  1 <1>  -0.6600 
  4 C        1.1380    -2.4750     1.5180 C.3   1 <1>  -0.0990 
  5 C        1.4520    -3.4910    -1.0960 C.3   1 <1>   0.1400 
  6 C       -0.7930    -2.5820    -1.8350 C.3   1 <1>   0.0600 
  7 C        2.5140    -2.1840     0.8950 C.3   1 <1>  -0.0800 
  8 C        2.6940    -2.7840    -0.5200 C.3   1 <1>  -0.0800 
  9 C        3.6840    -2.6990     1.7440 C.3   1 <1>  -0.1600 
 10 C        3.9170    -3.7060    -0.4310 C.3   1 <1>  -0.1600 
 11 C        4.7300    -3.1200     0.7200 C.3   1 <1>   0.2200 
 12 N        5.7660    -4.0340     1.2960 N.am  1 <1>  -0.6600 
 13 C        7.0440    -3.6290     1.6070 C.2   1 <1>   0.5690 
 14 C        5.3720    -5.4580     1.5380 C.3   1 <1>   0.0600 
 15 O        7.8850    -4.4090     1.9870 O.2   1 <1>  -0.5700 
 16 C        7.4740    -2.1760     1.4900 C.3   1 <1>  -0.0990 
 17 C        7.9560    -1.8390     0.0680 C.3   1 <1>  -0.0990 
 18 C        8.1470    -0.3390    -0.1200 C.2   1 <1>   0.3890 
 19 N        9.3410     0.1310    -0.0460 N.2   1 <1>  -0.6290 
 20 C        6.9650     0.4700    -0.3700 C.2   1 <1>   0.6300 
 21 C        9.5060     1.5000    -0.2180 C.ar  1 <1>   0.1790 
 22 O        5.8240     0.0370    -0.4340 O.2   1 <1>  -0.5700 
 23 N        7.1410     1.8100    -0.5390 N.am  1 <1>  -0.5470 
 24 C        8.4160     2.3580    -0.4660 C.ar  1 <1>   0.1170 
 25 C       10.7820     2.0460    -0.1440 C.ar  1 <1>  -0.1500 
 26 C        8.6310     3.7230    -0.6320 C.ar  1 <1>  -0.1500 
 27 C       10.9860     3.4010    -0.3090 C.ar  1 <1>  -0.1500 
 28 C        9.9070     4.2420    -0.5530 C.ar  1 <1>  -0.1500 
 29 H        0.9800    -1.8450     2.3750 H     1 <1>   0.0800 
 30 H        1.0740    -3.4990     1.8350 H     1 <1>   0.0800 
 31 H        1.3580    -4.4790    -0.6790 H     1 <1>   0.0800 
 32 H        1.5520    -3.5830    -2.1640 H     1 <1>   0.0800 
 33 H       -1.1120    -3.5520    -2.1720 H     1 <1>   0.0800 
 34 H       -0.3700    -2.0370    -2.6600 H     1 <1>   0.0800 
 35 H       -1.6510    -2.0430    -1.4720 H     1 <1>   0.0800 
 36 H        2.6100    -1.1140     0.7990 H     1 <1>   0.0800 
 37 H        2.9420    -1.9720    -1.1830 H     1 <1>   0.0800 
 38 H        3.3760    -3.5480     2.3270 H     1 <1>   0.0800 
 39 H        4.0610    -1.9340     2.3980 H     1 <1>   0.0800 
 40 H        4.4800    -3.7090    -1.3470 H     1 <1>   0.0800 
 41 H        3.5910    -4.7030    -0.2010 H     1 <1>   0.0800 
 42 H        5.1910    -2.2290     0.3410 H     1 <1>   0.0800 
 43 H        4.3680    -5.5150     1.9150 H     1 <1>   0.0800 
 44 H        6.0260    -5.9150     2.2610 H     1 <1>   0.0800 
 45 H        5.4410    -6.0120     0.6180 H     1 <1>   0.0800 
 46 H        6.6670    -1.5350     1.7900 H     1 <1>   0.0800 
 47 H        8.2820    -2.0030     2.1790 H     1 <1>   0.0800 
 48 H        7.2530    -2.1970    -0.6610 H     1 <1>   0.0800 
 49 H        8.8890    -2.3460    -0.1130 H     1 <1>   0.0800 
 50 H        6.3110     2.3730    -0.7150 H     1 <1>   0.3700 
 51 H       11.6110     1.3880     0.0460 H     1 <1>   0.1500 
 52 H        7.7980     4.3750    -0.8210 H     1 <1>   0.1500 
 53 H       11.9800     3.8100    -0.2490 H     1 <1>   0.1500 
 54 H       10.0740     5.2980    -0.6810 H     1 <1>   0.1500 
@<TRIPOS>BOND
  1   1   2  2   
  2   2   3  am  
  3   2   4  1   
  4   3   5  1   
  5   3   6  1   
  6   4   7  1   
  7   4  29  1   
  8   4  30  1   
  9   5   8  1   
 10   5  31  1   
 11   5  32  1   
 12   6  33  1   
 13   6  34  1   
 14   6  35  1   
 15   7   8  1   
 16   7   9  1   
 17   7  36  1   
 18   8  10  1   
 19   8  37  1   
 20   9  11  1   
 21   9  38  1   
 22   9  39  1   
 23  10  11  1   
 24  10  40  1   
 25  10  41  1   
 26  11  12  1   
 27  11  42  1   
 28  12  13  am  
 29  12  14  1   
 30  13  15  2   
 31  13  16  1   
 32  14  43  1   
 33  14  44  1   
 34  14  45  1   
 35  16  17  1   
 36  16  46  1   
 37  16  47  1   
 38  17  18  1   
 39  17  48  1   
 40  17  49  1   
 41  18  19  2   
 42  18  20  1   
 43  19  21  1   
 44  20  22  2   
 45  20  23  am  
 46  21  24  ar  
 47  21  25  ar  
 48  23  24  1   
 49  23  50  1   
 50  24  26  ar  
 51  25  27  ar  
 52  25  51  1   
 53  26  28  ar  
 54  26  52  1   
 55  27  28  ar  
 56  27  53  1   
 57  28  54  1   
@<TRIPOS>SUBSTRUCTURE
  1 ****  22 GROUP 4 **** **** 0

# MOE 2024.06 (io_trps.svl 2023.06)
