@<TRIPOS>MOLECULE
NONAME
54 55 1 0 0 
SMALL
USER_CHARGES


@<TRIPOS>ATOM
  1 O        1.1460    -0.2490    -1.7000 O.2   1 <1>  -0.5700 
  2 C        1.3720    -0.6780    -0.5900 C.2   1 <1>   0.5690 
  3 N        2.0260     0.0570     0.3620 N.am  1 <1>  -0.4940 
  4 C        0.9820    -2.1220    -0.2140 C.3   1 <1>   0.2810 
  5 C        2.2670     1.4470     0.3690 C.2   1 <1>  -0.0880 
  6 N        2.1620    -3.0340    -0.3140 N.am  1 <1>  -0.7300 
  7 C       -0.2160    -2.6960    -1.0180 C.3   1 <1>  -0.0800 
  8 N        3.4840     2.0650     0.4290 N.pl3 1 <1>   0.3140 
  9 C        1.3160     2.4230     0.3390 C.2   1 <1>  -0.0540 
 10 C        3.1750    -3.0470     0.5780 C.2   1 <1>   0.5690 
 11 C       -1.4950    -1.8760    -0.7670 C.3   1 <1>  -0.2400 
 12 C       -0.5130    -4.1680    -0.6740 C.3   1 <1>  -0.2400 
 13 N        3.3230     3.4190     0.4520 N.2   1 <1>  -0.7070 
 14 C        4.8610     1.4260     0.4910 C.3   1 <1>   0.2560 
 15 C       -0.1180     2.3130     0.2970 C.ar  1 <1>   0.0540 
 16 C        2.0450     3.6080     0.3900 C.2   1 <1>   0.1390 
 17 O        3.1980    -2.2950     1.5210 O.2   1 <1>  -0.5700 
 18 C        4.3100    -4.0110     0.3640 C.3   1 <1>  -0.1790 
 19 C        5.9720     2.4840     0.3220 C.3   1 <1>  -0.2400 
 20 C        5.0410     0.3890    -0.6350 C.3   1 <1>  -0.2400 
 21 C        5.0540     0.7530     1.8600 C.3   1 <1>  -0.2400 
 22 C       -0.7900     2.1020    -0.9020 C.ar  1 <1>  -0.1500 
 23 C       -0.8740     2.4180     1.4610 C.ar  1 <1>  -0.1500 
 24 C       -2.1690     2.0010    -0.9420 C.ar  1 <1>  -0.1500 
 25 C       -2.2530     2.3170     1.4290 C.ar  1 <1>  -0.1500 
 26 C       -2.9040     2.1090     0.2260 C.ar  1 <1>  -0.1500 
 27 H        2.4550    -0.5090     1.1090 H     1 <1>   0.3700 
 28 H        0.6830    -2.0990     0.8190 H     1 <1>   0.0800 
 29 H        2.1960    -3.6070    -1.1570 H     1 <1>   0.3700 
 30 H        0.0170    -2.6280    -2.0680 H     1 <1>   0.0800 
 31 H       -1.7630    -1.8930     0.2750 H     1 <1>   0.0800 
 32 H       -2.3140    -2.2760    -1.3380 H     1 <1>   0.0800 
 33 H       -1.3590    -0.8520    -1.0670 H     1 <1>   0.0800 
 34 H       -0.7030    -4.2790     0.3790 H     1 <1>   0.0800 
 35 H        0.3100    -4.8060    -0.9430 H     1 <1>   0.0800 
 36 H       -1.3790    -4.5100    -1.2140 H     1 <1>   0.0800 
 37 H        1.5900     4.5840     0.3830 H     1 <1>   0.1500 
 38 H        3.9280    -5.0100     0.2710 H     1 <1>   0.0800 
 39 H        4.9830    -3.9730     1.2010 H     1 <1>   0.0800 
 40 H        4.8470    -3.7460    -0.5270 H     1 <1>   0.0800 
 41 H        5.8670     2.9850    -0.6240 H     1 <1>   0.0800 
 42 H        6.9450     2.0270     0.3580 H     1 <1>   0.0800 
 43 H        5.9180     3.2170     1.1070 H     1 <1>   0.0800 
 44 H        4.8100     0.8350    -1.5870 H     1 <1>   0.0800 
 45 H        4.4110    -0.4660    -0.4880 H     1 <1>   0.0800 
 46 H        6.0560     0.0380    -0.6620 H     1 <1>   0.0800 
 47 H        4.9640     1.4830     2.6450 H     1 <1>   0.0800 
 48 H        6.0290     0.3040     1.9240 H     1 <1>   0.0800 
 49 H        4.3220    -0.0150     2.0190 H     1 <1>   0.0800 
 50 H       -0.2150     2.0110    -1.8080 H     1 <1>   0.1500 
 51 H       -0.3680     2.5790     2.3960 H     1 <1>   0.1500 
 52 H       -2.6660     1.8360    -1.8820 H     1 <1>   0.1500 
 53 H       -2.8210     2.4020     2.3400 H     1 <1>   0.1500 
 54 H       -3.9770     2.0300     0.1970 H     1 <1>   0.1500 
@<TRIPOS>BOND
  1   1   2  2   
  2   2   3  am  
  3   2   4  1   
  4   3   5  1   
  5   3  27  1   
  6   4   6  1   
  7   4   7  1   
  8   4  28  1   
  9   5   8  1   
 10   5   9  2   
 11   6  10  am  
 12   6  29  1   
 13   7  11  1   
 14   7  12  1   
 15   7  30  1   
 16   8  13  1   
 17   8  14  1   
 18   9  15  1   
 19   9  16  1   
 20  10  17  2   
 21  10  18  1   
 22  11  31  1   
 23  11  32  1   
 24  11  33  1   
 25  12  34  1   
 26  12  35  1   
 27  12  36  1   
 28  13  16  2   
 29  14  19  1   
 30  14  20  1   
 31  14  21  1   
 32  15  22  ar  
 33  15  23  ar  
 34  16  37  1   
 35  18  38  1   
 36  18  39  1   
 37  18  40  1   
 38  19  41  1   
 39  19  42  1   
 40  19  43  1   
 41  20  44  1   
 42  20  45  1   
 43  20  46  1   
 44  21  47  1   
 45  21  48  1   
 46  21  49  1   
 47  22  24  ar  
 48  22  50  1   
 49  23  25  ar  
 50  23  51  1   
 51  24  26  ar  
 52  24  52  1   
 53  25  26  ar  
 54  25  53  1   
 55  26  54  1   
@<TRIPOS>SUBSTRUCTURE
  1 ****   3 GROUP 4 **** **** 0

# MOE 2024.06 (io_trps.svl 2023.06)
