@<TRIPOS>MOLECULE
NONAME
47 50 1 0 0 
SMALL
USER_CHARGES


@<TRIPOS>ATOM
  1 O        0.1350    -1.8270     3.1020 O.2   1 <1>  -0.5700 
  2 C        0.9630    -1.8440     2.2190 C.2   1 <1>   0.6900 
  3 N        0.6360    -2.0980     0.9410 N.am  1 <1>  -0.7300 
  4 N        2.2400    -1.6030     2.5110 N.am  1 <1>  -0.8000 
  5 C       -0.7130    -2.5670     0.5090 C.3   1 <1>   0.2010 
  6 C       -0.6520    -3.6590    -0.5680 C.2   1 <1>   0.5690 
  7 O        0.4130    -3.8520    -1.1140 O.2   1 <1>  -0.5700 
  8 N       -1.7700    -4.3900    -0.8950 N.am  1 <1>  -0.6600 
  9 C       -3.1210    -4.2240    -0.2890 C.3   1 <1>   0.1400 
 10 C       -1.7140    -5.4930    -1.8960 C.3   1 <1>   0.1400 
 11 C       -3.4960    -5.5180     0.4360 C.3   1 <1>  -0.1600 
 12 C       -2.0800    -6.8080    -1.2060 C.3   1 <1>  -0.1600 
 13 C       -3.4440    -6.7240    -0.5130 C.3   1 <1>   0.4600 
 14 O       -4.3970    -6.5410    -1.5390 O.3   1 <1>  -0.5600 
 15 C       -3.7420    -8.0220     0.2270 C.2   1 <1>  -0.3320 
 16 C       -5.7370    -6.8830    -1.2740 C.3   1 <1>   0.1200 
 17 N       -2.9660    -8.6040     1.1920 N.pl3 1 <1>   0.0330 
 18 C       -4.8350    -8.7830     0.0180 C.2   1 <1>  -0.1810 
 19 C       -5.8830    -8.3880    -0.9910 C.3   1 <1>   0.0210 
 20 C       -3.5880    -9.7620     1.5950 C.ar  1 <1>  -0.1520 
 21 C       -4.7680    -9.9040     0.8700 C.ar  1 <1>   0.0000 
 22 C       -3.2120   -10.7140     2.5450 C.ar  1 <1>  -0.1500 
 23 C       -5.5880   -11.0140     1.0940 C.ar  1 <1>  -0.1500 
 24 C       -4.0290   -11.8010     2.7570 C.ar  1 <1>  -0.1500 
 25 C       -5.2170   -11.9510     2.0310 C.ar  1 <1>  -0.1500 
 26 H        1.3740    -2.4030     0.3020 H     1 <1>   0.3700 
 27 H        2.4580    -1.3120     3.4620 H     1 <1>   0.3700 
 28 H        2.9160    -1.3660     1.7900 H     1 <1>   0.3700 
 29 H       -1.2610    -1.7290     0.1190 H     1 <1>   0.0800 
 30 H       -1.2390    -2.9520     1.3640 H     1 <1>   0.0800 
 31 H       -3.8340    -4.0260    -1.0720 H     1 <1>   0.0800 
 32 H       -3.1500    -3.3990     0.3990 H     1 <1>   0.0800 
 33 H       -0.7310    -5.5720    -2.3280 H     1 <1>   0.0800 
 34 H       -2.4110    -5.2870    -2.6910 H     1 <1>   0.0800 
 35 H       -4.4750    -5.4320     0.8680 H     1 <1>   0.0800 
 36 H       -2.8050    -5.6720     1.2430 H     1 <1>   0.0800 
 37 H       -1.3170    -7.0360    -0.4860 H     1 <1>   0.0800 
 38 H       -2.0990    -7.6060    -1.9250 H     1 <1>   0.0800 
 39 H       -6.3220    -6.6090    -2.1340 H     1 <1>   0.0800 
 40 H       -6.0760    -6.3110    -0.4290 H     1 <1>   0.0800 
 41 H       -2.0710    -8.2610     1.5530 H     1 <1>   0.2700 
 42 H       -5.7450    -8.9480    -1.8980 H     1 <1>   0.0800 
 43 H       -6.8650    -8.5910    -0.6050 H     1 <1>   0.0800 
 44 H       -2.2980   -10.5920     3.0980 H     1 <1>   0.1500 
 45 H       -6.4960   -11.1170     0.5290 H     1 <1>   0.1500 
 46 H       -3.7620   -12.5480     3.4830 H     1 <1>   0.1500 
 47 H       -5.8370   -12.8110     2.2140 H     1 <1>   0.1500 
@<TRIPOS>BOND
  1   1   2  2   
  2   2   3  am  
  3   2   4  am  
  4   3   5  1   
  5   3  26  1   
  6   4  27  1   
  7   4  28  1   
  8   5   6  1   
  9   5  29  1   
 10   5  30  1   
 11   6   7  2   
 12   6   8  am  
 13   8   9  1   
 14   8  10  1   
 15   9  11  1   
 16   9  31  1   
 17   9  32  1   
 18  10  12  1   
 19  10  33  1   
 20  10  34  1   
 21  11  13  1   
 22  11  35  1   
 23  11  36  1   
 24  12  13  1   
 25  12  37  1   
 26  12  38  1   
 27  13  14  1   
 28  13  15  1   
 29  14  16  1   
 30  15  17  1   
 31  15  18  2   
 32  16  19  1   
 33  16  39  1   
 34  16  40  1   
 35  17  20  1   
 36  17  41  1   
 37  18  19  1   
 38  18  21  1   
 39  19  42  1   
 40  19  43  1   
 41  20  21  ar  
 42  20  22  ar  
 43  21  23  ar  
 44  22  24  ar  
 45  22  44  1   
 46  23  25  ar  
 47  23  45  1   
 48  24  25  ar  
 49  24  46  1   
 50  25  47  1   
@<TRIPOS>SUBSTRUCTURE
  1 ****  13 GROUP 4 **** **** 0

# MOE 2024.06 (io_trps.svl 2023.06)
