@<TRIPOS>MOLECULE
NONAME
51 53 1 0 0 
SMALL
USER_CHARGES


@<TRIPOS>ATOM
  1 CL      -0.0920    -0.6690     1.8430 Cl    1 <1>  -0.1770 
  2 C       -1.3350     0.5010     1.4580 C.ar  1 <1>   0.1770 
  3 C       -2.4710     0.1240     0.7540 C.ar  1 <1>   0.0820 
  4 C       -1.1390     1.8050     1.8770 C.ar  1 <1>  -0.1500 
  5 O       -2.6170    -1.1700     0.3750 O.3   1 <1>  -0.3630 
  6 C       -3.4290     1.1020     0.4550 C.ar  1 <1>   0.0830 
  7 C       -2.0920     2.7710     1.5890 C.ar  1 <1>  -0.1440 
  8 C       -3.2160    -2.0240     1.3210 C.3   1 <1>   0.1200 
  9 O       -4.5730     0.9000    -0.2520 O.3   1 <1>  -0.3630 
 10 C       -3.2340     2.4030     0.8920 C.ar  1 <1>  -0.1500 
 11 C       -1.8880     4.2140     2.0090 C.3   1 <1>   0.4860 
 12 C       -3.3130    -3.4160     0.7060 C.3   1 <1>  -0.2400 
 13 C       -4.6340    -0.0580    -1.2860 C.3   1 <1>   0.1200 
 14 N       -0.9000     4.8340     1.0800 N.4   1 <1>  -0.9590 
 15 C       -5.7830     0.3230    -2.2130 C.3   1 <1>  -0.2400 
 16 C       -0.4010     6.1460     1.6320 C.3   1 <1>   0.3430 
 17 C       -1.4640     4.9230    -0.3140 C.3   1 <1>   0.3430 
 18 C        0.7440     6.8110     0.8320 C.3   1 <1>   0.2200 
 19 C       -0.4330     5.2600    -1.3910 C.3   1 <1>  -0.0190 
 20 N        0.2130     7.4350    -0.4080 N.am  1 <1>  -0.7300 
 21 C        1.9060     5.8230     0.5550 C.3   1 <1>   0.1200 
 22 C       -0.2900     6.7610    -1.4620 C.2   1 <1>   0.5690 
 23 C        0.9080     4.5120    -1.2490 C.3   1 <1>   0.1200 
 24 O        1.9340     5.3180    -0.7520 O.3   1 <1>  -0.5600 
 25 O       -0.6890     7.3490    -2.4300 O.2   1 <1>  -0.5700 
 26 H       -0.2420     2.0340     2.4260 H     1 <1>   0.1500 
 27 H       -2.6050    -2.0400     2.2080 H     1 <1>   0.0800 
 28 H       -4.1940    -1.6390     1.5590 H     1 <1>   0.0800 
 29 H       -4.0030     3.1230     0.6630 H     1 <1>   0.1500 
 30 H       -1.5180     4.2380     3.0220 H     1 <1>   0.0800 
 31 H       -2.8250     4.7480     1.9750 H     1 <1>   0.0800 
 32 H       -2.3300    -3.7810     0.4640 H     1 <1>   0.0800 
 33 H       -3.9160    -3.3900    -0.1830 H     1 <1>   0.0800 
 34 H       -3.7650    -4.0930     1.4080 H     1 <1>   0.0800 
 35 H       -3.6970    -0.0580    -1.8170 H     1 <1>   0.0800 
 36 H       -4.8090    -1.0240    -0.8470 H     1 <1>   0.0800 
 37 H       -0.1090     4.1800     1.0320 H     1 <1>   0.4500 
 38 H       -5.6090     1.2940    -2.6410 H     1 <1>   0.0800 
 39 H       -6.7110     0.3290    -1.6700 H     1 <1>   0.0800 
 40 H       -5.8580    -0.3940    -3.0110 H     1 <1>   0.0800 
 41 H       -1.2170     6.8480     1.6980 H     1 <1>   0.0800 
 42 H       -0.0410     5.9800     2.6340 H     1 <1>   0.0800 
 43 H       -1.8950     3.9710    -0.5770 H     1 <1>   0.0800 
 44 H       -2.2560     5.6550    -0.3460 H     1 <1>   0.0800 
 45 H        1.1320     7.6020     1.4510 H     1 <1>   0.0800 
 46 H       -0.8690     4.9480    -2.3230 H     1 <1>   0.0800 
 47 H        0.4230     8.4240    -0.5790 H     1 <1>   0.3700 
 48 H        1.9130     4.9990     1.2460 H     1 <1>   0.0800 
 49 H        2.8350     6.3520     0.6850 H     1 <1>   0.0800 
 50 H        1.2310     4.2070    -2.2310 H     1 <1>   0.0800 
 51 H        0.8300     3.6240    -0.6460 H     1 <1>   0.0800 
@<TRIPOS>BOND
  1   1   2  1   
  2   2   3  ar  
  3   2   4  ar  
  4   3   5  1   
  5   3   6  ar  
  6   4   7  ar  
  7   4  26  1   
  8   5   8  1   
  9   6   9  1   
 10   6  10  ar  
 11   7  10  ar  
 12   7  11  1   
 13   8  12  1   
 14   8  27  1   
 15   8  28  1   
 16   9  13  1   
 17  10  29  1   
 18  11  14  1   
 19  11  30  1   
 20  11  31  1   
 21  12  32  1   
 22  12  33  1   
 23  12  34  1   
 24  13  15  1   
 25  13  35  1   
 26  13  36  1   
 27  14  16  1   
 28  14  17  1   
 29  14  37  1   
 30  15  38  1   
 31  15  39  1   
 32  15  40  1   
 33  16  18  1   
 34  16  41  1   
 35  16  42  1   
 36  17  19  1   
 37  17  43  1   
 38  17  44  1   
 39  18  20  1   
 40  18  21  1   
 41  18  45  1   
 42  19  22  1   
 43  19  23  1   
 44  19  46  1   
 45  20  22  am  
 46  20  47  1   
 47  21  24  1   
 48  21  48  1   
 49  21  49  1   
 50  22  25  2   
 51  23  24  1   
 52  23  50  1   
 53  23  51  1   
@<TRIPOS>SUBSTRUCTURE
  1 ****   7 GROUP 4 **** **** 0

# MOE 2024.06 (io_trps.svl 2023.06)
