@<TRIPOS>MOLECULE
NONAME
57 60 1 0 0 
SMALL
USER_CHARGES


@<TRIPOS>ATOM
  1 F       -0.5630     0.0150    -1.0620 F     1 <1>  -0.1900 
  2 C       -1.8100     0.3960    -0.9560 C.ar  1 <1>   0.1900 
  3 C       -2.1880     1.7400    -1.0510 C.ar  1 <1>   0.0830 
  4 C       -2.7410    -0.6010    -0.7460 C.ar  1 <1>  -0.1500 
  5 O       -1.3670     2.8110    -1.2560 O.3   1 <1>  -0.3630 
  6 C       -3.5340     2.0390    -0.9260 C.ar  1 <1>  -0.1500 
  7 C       -4.0780    -0.2680    -0.6280 C.ar  1 <1>  -0.1500 
  8 C        0.0340     2.6970    -1.3680 C.3   1 <1>   0.0400 
  9 C       -4.5090     1.0600    -0.7130 C.ar  1 <1>   0.0530 
 10 C       -5.9030     1.4240    -0.5930 C.2   1 <1>   0.0870 
 11 O       -6.3210     2.5830    -1.0360 O.3   1 <1>  -0.0190 
 12 C       -6.9930     0.7880    -0.0880 C.2   1 <1>  -0.0860 
 13 N       -7.6020     2.7680    -0.8620 N.2   1 <1>  -0.4100 
 14 C       -8.0340     1.7030    -0.2810 C.2   1 <1>   0.3720 
 15 C       -7.1120    -0.4990     0.5170 C.2   1 <1>   0.7160 
 16 N       -9.3770     1.5030     0.0890 N.pl3 1 <1>  -0.8210 
 17 O       -6.6590    -0.6690     1.6350 O.2   1 <1>  -0.5700 
 18 N       -7.6890    -1.5630    -0.1470 N.am  1 <1>  -0.6600 
 19 C       -9.6060     1.0920     1.5060 C.3   1 <1>   0.1290 
 20 C      -10.3550     2.5190    -0.3940 C.3   1 <1>   0.1290 
 21 C       -7.8580    -2.8960     0.5000 C.3   1 <1>   0.1400 
 22 C       -8.2780    -1.4150    -1.5130 C.3   1 <1>   0.1400 
 23 C       -9.3520    -3.2550     0.6050 C.3   1 <1>  -0.0800 
 24 C       -9.2310    -2.5660    -1.8600 C.3   1 <1>  -0.1600 
 25 C      -10.1560    -2.8910    -0.6760 C.3   1 <1>  -0.0800 
 26 C       -9.5060    -4.7360     0.9920 C.3   1 <1>  -0.1600 
 27 C      -11.1900    -3.9620    -1.0740 C.3   1 <1>  -0.1600 
 28 C      -10.9790    -5.1380     1.1780 C.3   1 <1>  -0.1600 
 29 C      -11.9310    -4.4820     0.1620 C.3   1 <1>  -0.1600 
 30 H       -2.4210    -1.6250    -0.6750 H     1 <1>   0.1500 
 31 H       -3.8280     3.0710    -0.9960 H     1 <1>   0.1500 
 32 H       -4.7880    -1.0580    -0.4690 H     1 <1>   0.1500 
 33 H        0.4390     3.6830    -1.5040 H     1 <1>   0.0800 
 34 H        0.2690     2.0860    -2.2210 H     1 <1>   0.0800 
 35 H        0.4240     2.2650    -0.4630 H     1 <1>   0.0800 
 36 H      -10.4850     1.5660     1.9060 H     1 <1>   0.0800 
 37 H       -8.7610     1.3640     2.1170 H     1 <1>   0.0800 
 38 H       -9.7380     0.0250     1.5520 H     1 <1>   0.0800 
 39 H      -11.3590     2.1640    -0.2440 H     1 <1>   0.0800 
 40 H      -10.2080     2.6970    -1.4450 H     1 <1>   0.0800 
 41 H      -10.2170     3.4440     0.1390 H     1 <1>   0.0800 
 42 H       -7.3470    -3.6310    -0.0980 H     1 <1>   0.0800 
 43 H       -7.4160    -2.9110     1.4810 H     1 <1>   0.0800 
 44 H       -8.8360    -0.4960    -1.5590 H     1 <1>   0.0800 
 45 H       -7.4870    -1.3620    -2.2420 H     1 <1>   0.0800 
 46 H       -9.7570    -2.6740     1.4170 H     1 <1>   0.0800 
 47 H       -9.8170    -2.2840    -2.7170 H     1 <1>   0.0800 
 48 H       -8.6590    -3.4360    -2.1320 H     1 <1>   0.0800 
 49 H      -10.7030    -1.9900    -0.4510 H     1 <1>   0.0800 
 50 H       -9.0740    -5.3460     0.2170 H     1 <1>   0.0800 
 51 H       -8.9670    -4.9400     1.9020 H     1 <1>   0.0800 
 52 H      -11.8950    -3.5410    -1.7690 H     1 <1>   0.0800 
 53 H      -10.7010    -4.7870    -1.5630 H     1 <1>   0.0800 
 54 H      -11.0530    -6.2090     1.0970 H     1 <1>   0.0800 
 55 H      -11.3000    -4.8710     2.1710 H     1 <1>   0.0800 
 56 H      -12.4320    -3.6530     0.6340 H     1 <1>   0.0800 
 57 H      -12.6870    -5.1890    -0.1340 H     1 <1>   0.0800 
@<TRIPOS>BOND
  1   1   2  1   
  2   2   3  ar  
  3   2   4  ar  
  4   3   5  1   
  5   3   6  ar  
  6   4   7  ar  
  7   4  30  1   
  8   5   8  1   
  9   6   9  ar  
 10   6  31  1   
 11   7   9  ar  
 12   7  32  1   
 13   8  33  1   
 14   8  34  1   
 15   8  35  1   
 16   9  10  1   
 17  10  11  1   
 18  10  12  2   
 19  11  13  1   
 20  12  14  1   
 21  12  15  1   
 22  13  14  2   
 23  14  16  1   
 24  15  17  2   
 25  15  18  am  
 26  16  19  1   
 27  16  20  1   
 28  18  21  1   
 29  18  22  1   
 30  19  36  1   
 31  19  37  1   
 32  19  38  1   
 33  20  39  1   
 34  20  40  1   
 35  20  41  1   
 36  21  23  1   
 37  21  42  1   
 38  21  43  1   
 39  22  24  1   
 40  22  44  1   
 41  22  45  1   
 42  23  25  1   
 43  23  26  1   
 44  23  46  1   
 45  24  25  1   
 46  24  47  1   
 47  24  48  1   
 48  25  27  1   
 49  25  49  1   
 50  26  28  1   
 51  26  50  1   
 52  26  51  1   
 53  27  29  1   
 54  27  52  1   
 55  27  53  1   
 56  28  29  1   
 57  28  54  1   
 58  28  55  1   
 59  29  56  1   
 60  29  57  1   
@<TRIPOS>SUBSTRUCTURE
  1 ****  15 GROUP 4 **** **** 0

# MOE 2024.06 (io_trps.svl 2023.06)
