@<TRIPOS>MOLECULE
NONAME
44 46 1 0 0 
SMALL
USER_CHARGES


@<TRIPOS>ATOM
  1 S       -1.1310     0.7450    -1.2980 S.3   1 <1>  -0.0800 
  2 C       -1.1380     1.8660     0.0720 C.2   1 <1>  -0.0450 
  3 C       -2.1180    -0.4220    -0.4440 C.2   1 <1>  -0.1100 
  4 C       -0.4610     3.1370    -0.0220 C.2   1 <1>   0.7150 
  5 C       -1.8790     1.3190     1.0690 C.2   1 <1>  -0.1500 
  6 C       -2.4240     0.0320     0.7840 C.2   1 <1>  -0.1500 
  7 O       -0.9250     4.0960     0.5720 O.2   1 <1>  -0.5700 
  8 N        0.7020     3.3200    -0.7410 N.am  1 <1>  -0.6600 
  9 C        1.1470     4.6900    -1.1380 C.3   1 <1>   0.1400 
 10 C        1.7650     2.2830    -0.8640 C.3   1 <1>   0.1400 
 11 C        2.3410     5.1300    -0.2800 C.3   1 <1>   0.2890 
 12 C        3.0110     2.7050    -0.0690 C.3   1 <1>  -0.1600 
 13 N        2.7970     6.4670    -0.7020 N.pl3 1 <1>  -0.8690 
 14 C        3.4880     4.1260    -0.4230 C.3   1 <1>  -0.1600 
 15 C        3.0330     7.3690     0.3200 C.ar  1 <1>   0.4100 
 16 N        4.1050     7.1600     1.0570 N.ar  1 <1>  -0.6200 
 17 C        2.1210     8.4540     0.5260 C.ar  1 <1>   0.4100 
 18 C        4.2550     8.0940     1.9880 C.ar  1 <1>   0.1600 
 19 N        2.2920     9.3730     1.4610 N.ar  1 <1>  -0.6200 
 20 N        0.9590     8.5620    -0.2520 N.pl3 1 <1>  -0.8380 
 21 C        3.3880     9.1570     2.1790 C.ar  1 <1>   0.1600 
 22 C       -0.2410     7.9160     0.3470 C.3   1 <1>   0.1290 
 23 C        0.6710     9.9080    -0.8150 C.3   1 <1>   0.1290 
 24 H       -2.3700    -1.3340    -0.9560 H     1 <1>   0.1500 
 25 H       -2.0620     1.8020     2.0140 H     1 <1>   0.1500 
 26 H       -3.0210    -0.4910     1.5110 H     1 <1>   0.1500 
 27 H        0.3420     5.3930    -1.0240 H     1 <1>   0.0800 
 28 H        1.4380     4.6730    -2.1740 H     1 <1>   0.0800 
 29 H        2.0170     2.1610    -1.9040 H     1 <1>   0.0800 
 30 H        1.4200     1.3360    -0.4870 H     1 <1>   0.0800 
 31 H        2.0240     5.1680     0.7500 H     1 <1>   0.0800 
 32 H        3.8050     2.0040    -0.2550 H     1 <1>   0.0800 
 33 H        2.7800     2.6600     0.9810 H     1 <1>   0.0800 
 34 H        2.0790     6.9030    -1.2920 H     1 <1>   0.4000 
 35 H        4.2920     4.4130     0.2310 H     1 <1>   0.0800 
 36 H        3.8510     4.1440    -1.4360 H     1 <1>   0.0800 
 37 H        5.1140     8.0040     2.6270 H     1 <1>   0.1500 
 38 H        3.6000     9.8640     2.9600 H     1 <1>   0.1500 
 39 H        0.0290     6.9830     0.8110 H     1 <1>   0.0800 
 40 H       -0.9750     7.7220    -0.4160 H     1 <1>   0.0800 
 41 H       -0.6690     8.5600     1.0960 H     1 <1>   0.0800 
 42 H        1.5840    10.3580    -1.1680 H     1 <1>   0.0800 
 43 H        0.2460    10.5430    -0.0560 H     1 <1>   0.0800 
 44 H       -0.0160     9.8240    -1.6380 H     1 <1>   0.0800 
@<TRIPOS>BOND
  1   1   2  1   
  2   1   3  1   
  3   2   4  1   
  4   2   5  2   
  5   3   6  2   
  6   3  24  1   
  7   4   7  2   
  8   4   8  am  
  9   5   6  1   
 10   5  25  1   
 11   6  26  1   
 12   8   9  1   
 13   8  10  1   
 14   9  11  1   
 15   9  27  1   
 16   9  28  1   
 17  10  12  1   
 18  10  29  1   
 19  10  30  1   
 20  11  13  1   
 21  11  14  1   
 22  11  31  1   
 23  12  14  1   
 24  12  32  1   
 25  12  33  1   
 26  13  15  1   
 27  13  34  1   
 28  14  35  1   
 29  14  36  1   
 30  15  16  ar  
 31  15  17  ar  
 32  16  18  ar  
 33  17  19  ar  
 34  17  20  1   
 35  18  21  ar  
 36  18  37  1   
 37  19  21  ar  
 38  20  22  1   
 39  20  23  1   
 40  21  38  1   
 41  22  39  1   
 42  22  40  1   
 43  22  41  1   
 44  23  42  1   
 45  23  43  1   
 46  23  44  1   
@<TRIPOS>SUBSTRUCTURE
  1 ****  11 GROUP 4 **** **** 0

# MOE 2024.06 (io_trps.svl 2023.06)
