@<TRIPOS>MOLECULE
NONAME
49 52 1 0 0 
SMALL
USER_CHARGES


@<TRIPOS>ATOM
  1 O       -1.5730     0.3770    -1.0830 O.2   1 <1>  -0.5700 
  2 C       -1.9190     0.8760    -0.0300 C.2   1 <1>   0.7150 
  3 N       -2.4400     0.0650     0.9260 N.am  1 <1>  -0.7300 
  4 C       -1.8120     2.2900     0.2390 C.2   1 <1>  -0.2370 
  5 C       -2.6440    -1.3940     0.8060 C.3   1 <1>   0.2200 
  6 N       -1.2490     3.2200    -0.6190 N.pl3 1 <1>   0.0480 
  7 C       -2.2310     2.9630     1.3540 C.2   1 <1>  -0.1500 
  8 C       -4.1050    -1.6680     0.4970 C.3   1 <1>  -0.0800 
  9 C       -2.4870    -2.0480     2.1740 C.3   1 <1>   0.1200 
 10 C       -1.3260     4.4630    -0.0340 C.ar  1 <1>  -0.1520 
 11 C       -0.6430     2.9490    -1.9410 C.3   1 <1>   0.0160 
 12 C       -1.9370     4.3260     1.2050 C.ar  1 <1>   0.0000 
 13 C       -4.7390    -1.6400     1.8910 C.3   1 <1>   0.1200 
 14 C       -4.2900    -3.0270    -0.2040 C.3   1 <1>  -0.0160 
 15 O       -3.7230    -1.9220     2.8120 O.3   1 <1>  -0.5600 
 16 C       -0.9140     5.7270    -0.4730 C.ar  1 <1>  -0.1500 
 17 C       -2.1410     5.4460     2.0190 C.ar  1 <1>  -0.1500 
 18 C       -5.7510    -3.2870    -0.5370 C.ar  1 <1>  -0.1440 
 19 C       -1.1190     6.8210     0.3350 C.ar  1 <1>  -0.1500 
 20 C       -1.7350     6.6870     1.5870 C.ar  1 <1>  -0.1440 
 21 C       -6.5190    -4.1860     0.1760 C.ar  1 <1>  -0.1500 
 22 C       -6.3840    -2.6350    -1.5760 C.ar  1 <1>  -0.1500 
 23 C       -1.9400     7.9240     2.4430 C.3   1 <1>  -0.0970 
 24 C       -7.8460    -4.3780    -0.1710 C.ar  1 <1>   0.1600 
 25 C       -7.7170    -2.9000    -1.8400 C.ar  1 <1>   0.1600 
 26 N       -8.4640    -3.7550    -1.1610 N.ar  1 <1>  -0.6200 
 27 H       -2.7700     0.4820     1.7960 H     1 <1>   0.3700 
 28 H       -1.9680    -1.8080     0.0760 H     1 <1>   0.0800 
 29 H       -2.7120     2.5650     2.2290 H     1 <1>   0.1500 
 30 H       -4.5200    -0.8980    -0.1310 H     1 <1>   0.0800 
 31 H       -1.7220    -1.5830     2.7710 H     1 <1>   0.0800 
 32 H       -2.2790    -3.0980     2.0720 H     1 <1>   0.0800 
 33 H        0.1440     2.2260    -1.8270 H     1 <1>   0.0800 
 34 H       -0.2380     3.8490    -2.3600 H     1 <1>   0.0800 
 35 H       -1.3950     2.5560    -2.6000 H     1 <1>   0.0800 
 36 H       -5.5310    -2.3590     2.0130 H     1 <1>   0.0800 
 37 H       -5.1150    -0.6570     2.1160 H     1 <1>   0.0800 
 38 H       -3.9150    -3.8220     0.4170 H     1 <1>   0.0800 
 39 H       -3.7230    -3.0360    -1.1190 H     1 <1>   0.0800 
 40 H       -0.4420     5.8430    -1.4300 H     1 <1>   0.1500 
 41 H       -2.6160     5.3100     2.9730 H     1 <1>   0.1500 
 42 H       -0.8060     7.7960     0.0070 H     1 <1>   0.1500 
 43 H       -6.1000    -4.7370     0.9980 H     1 <1>   0.1500 
 44 H       -5.8530    -1.9230    -2.1820 H     1 <1>   0.1500 
 45 H       -2.5550     8.6320     1.9180 H     1 <1>   0.0800 
 46 H       -0.9900     8.3790     2.6590 H     1 <1>   0.0800 
 47 H       -2.4200     7.6720     3.3710 H     1 <1>   0.0800 
 48 H       -8.4300    -5.0820     0.3970 H     1 <1>   0.1500 
 49 H       -8.1940    -2.3810    -2.6540 H     1 <1>   0.1500 
@<TRIPOS>BOND
  1   1   2  2   
  2   2   3  am  
  3   2   4  1   
  4   3   5  1   
  5   3  27  1   
  6   4   6  1   
  7   4   7  2   
  8   5   8  1   
  9   5   9  1   
 10   5  28  1   
 11   6  10  1   
 12   6  11  1   
 13   7  12  1   
 14   7  29  1   
 15   8  13  1   
 16   8  14  1   
 17   8  30  1   
 18   9  15  1   
 19   9  31  1   
 20   9  32  1   
 21  10  12  ar  
 22  10  16  ar  
 23  11  33  1   
 24  11  34  1   
 25  11  35  1   
 26  12  17  ar  
 27  13  15  1   
 28  13  36  1   
 29  13  37  1   
 30  14  18  1   
 31  14  38  1   
 32  14  39  1   
 33  16  19  ar  
 34  16  40  1   
 35  17  20  ar  
 36  17  41  1   
 37  18  21  ar  
 38  18  22  ar  
 39  19  20  ar  
 40  19  42  1   
 41  20  23  1   
 42  21  24  ar  
 43  21  43  1   
 44  22  25  ar  
 45  22  44  1   
 46  23  45  1   
 47  23  46  1   
 48  23  47  1   
 49  24  26  ar  
 50  24  48  1   
 51  25  26  ar  
 52  25  49  1   
@<TRIPOS>SUBSTRUCTURE
  1 ****   3 GROUP 4 **** **** 0

# MOE 2024.06 (io_trps.svl 2023.06)
