@<TRIPOS>MOLECULE
NONAME
52 55 1 0 0 
SMALL
USER_CHARGES


@<TRIPOS>ATOM
  1 O       -2.1940     0.0260     1.5800 O.2   1 <1>  -0.5700 
  2 C       -2.4970     0.5920     0.5380 C.2   1 <1>   0.6160 
  3 N       -2.5760     1.9770     0.4870 N.am  1 <1>  -0.4770 
  4 C       -2.7800    -0.1620    -0.6470 C.2   1 <1>  -0.1240 
  5 C       -2.9410     2.6410    -0.7030 C.ar  1 <1>   0.1170 
  6 C       -2.2430     2.7740     1.7070 C.3   1 <1>   0.0600 
  7 C       -3.1220     0.4620    -1.7980 C.2   1 <1>  -0.1780 
  8 C       -2.6810    -1.6780    -0.5750 C.3   1 <1>   0.2480 
  9 C       -3.2140     1.8850    -1.8600 C.ar  1 <1>   0.0280 
 10 C       -3.0470     4.0350    -0.7880 C.ar  1 <1>  -0.1500 
 11 N       -4.0020    -2.2520    -0.2760 N.3   1 <1>  -0.6890 
 12 C       -3.5690     2.5360    -3.0430 C.ar  1 <1>  -0.1500 
 13 C       -3.4000     4.6600    -1.9640 C.ar  1 <1>  -0.1500 
 14 C       -4.3550    -2.1200     1.1690 C.3   1 <1>   0.2100 
 15 C       -3.9530    -3.7190    -0.0390 C.3   1 <1>   0.2100 
 16 C       -3.6620     3.9080    -3.0990 C.ar  1 <1>  -0.1500 
 17 C       -5.0970    -3.4800     1.0020 C.3   1 <1>   0.4720 
 18 N       -6.4990    -3.3260     0.4470 N.4   1 <1>  -0.9280 
 19 C       -7.5600    -3.2010     1.4940 C.3   1 <1>   0.4230 
 20 C       -6.8230    -4.4110    -0.5280 C.3   1 <1>   0.3430 
 21 C       -8.9110    -2.9060     0.8270 C.3   1 <1>  -0.1600 
 22 C       -7.2560    -2.0990     2.5100 C.3   1 <1>  -0.2400 
 23 C       -8.1550    -4.1300    -1.2230 C.3   1 <1>  -0.1600 
 24 C       -9.2910    -3.9650    -0.2120 C.3   1 <1>  -0.1600 
 25 H       -1.9400     2.1460     2.5260 H     1 <1>   0.0800 
 26 H       -3.1070     3.3370     2.0160 H     1 <1>   0.0800 
 27 H       -1.4350     3.4480     1.4870 H     1 <1>   0.0800 
 28 H       -3.3380    -0.0860    -2.6980 H     1 <1>   0.1500 
 29 H       -1.9470    -1.9770     0.1560 H     1 <1>   0.0800 
 30 H       -2.3550    -2.0480    -1.5320 H     1 <1>   0.0800 
 31 H       -2.8530     4.6500     0.0690 H     1 <1>   0.1500 
 32 H       -3.7730     1.9540    -3.9240 H     1 <1>   0.1500 
 33 H       -3.4750     5.7330    -2.0090 H     1 <1>   0.1500 
 34 H       -4.9750    -1.2620     1.3530 H     1 <1>   0.0000 
 35 H       -3.4990    -2.1900     1.8190 H     1 <1>   0.0000 
 36 H       -3.0260    -4.0300     0.4150 H     1 <1>   0.0000 
 37 H       -4.2060    -4.2870    -0.9140 H     1 <1>   0.0000 
 38 H       -3.9370     4.4000    -4.0160 H     1 <1>   0.1500 
 39 H       -5.0570    -4.1290     1.8580 H     1 <1>   0.0000 
 40 H       -6.4590    -2.4440    -0.0840 H     1 <1>   0.4500 
 41 H       -7.6410    -4.1390     2.0220 H     1 <1>   0.0800 
 42 H       -6.8770    -5.3570    -0.0140 H     1 <1>   0.0800 
 43 H       -6.0590    -4.4760    -1.2830 H     1 <1>   0.0800 
 44 H       -8.8790    -1.9360     0.3590 H     1 <1>   0.0800 
 45 H       -9.6800    -2.8710     1.5790 H     1 <1>   0.0800 
 46 H       -7.1330    -1.1470     2.0250 H     1 <1>   0.0800 
 47 H       -6.3860    -2.3320     3.0960 H     1 <1>   0.0800 
 48 H       -8.0780    -2.0110     3.1980 H     1 <1>   0.0800 
 49 H       -8.3850    -4.9460    -1.8870 H     1 <1>   0.0800 
 50 H       -8.0640    -3.2420    -1.8250 H     1 <1>   0.0800 
 51 H      -10.1960    -3.6740    -0.7200 H     1 <1>   0.0800 
 52 H       -9.4780    -4.9050     0.2810 H     1 <1>   0.0800 
@<TRIPOS>BOND
  1   1   2  2   
  2   2   3  am  
  3   2   4  1   
  4   3   5  1   
  5   3   6  1   
  6   4   7  2   
  7   4   8  1   
  8   5   9  ar  
  9   5  10  ar  
 10   6  25  1   
 11   6  26  1   
 12   6  27  1   
 13   7   9  1   
 14   7  28  1   
 15   8  11  1   
 16   8  29  1   
 17   8  30  1   
 18   9  12  ar  
 19  10  13  ar  
 20  10  31  1   
 21  11  14  1   
 22  11  15  1   
 23  12  16  ar  
 24  12  32  1   
 25  13  16  ar  
 26  13  33  1   
 27  14  17  1   
 28  14  34  1   
 29  14  35  1   
 30  15  17  1   
 31  15  36  1   
 32  15  37  1   
 33  16  38  1   
 34  17  18  1   
 35  17  39  1   
 36  18  19  1   
 37  18  20  1   
 38  18  40  1   
 39  19  21  1   
 40  19  22  1   
 41  19  41  1   
 42  20  23  1   
 43  20  42  1   
 44  20  43  1   
 45  21  24  1   
 46  21  44  1   
 47  21  45  1   
 48  22  46  1   
 49  22  47  1   
 50  22  48  1   
 51  23  24  1   
 52  23  49  1   
 53  23  50  1   
 54  24  51  1   
 55  24  52  1   
@<TRIPOS>SUBSTRUCTURE
  1 ****  11 GROUP 4 **** **** 0

# MOE 2024.06 (io_trps.svl 2023.06)
