@<TRIPOS>MOLECULE
NONAME
45 47 1 0 0 
SMALL
USER_CHARGES


@<TRIPOS>ATOM
  1 S        1.3900     1.4010    -1.0140 S.o2  1 <1>   1.3330 
  2 O        1.3890     2.7100    -1.6460 O.2   1 <1>  -0.6500 
  3 O        1.6580     0.2450    -1.8310 O.2   1 <1>  -0.6500 
  4 N        2.6290     1.4450     0.1500 N.am  1 <1>  -0.8490 
  5 C       -0.1580     1.1000    -0.1250 C.3   1 <1>  -0.0550 
  6 C        2.7260     0.2100     0.9470 C.3   1 <1>   0.1160 
  7 C        3.9380     1.6370    -0.4940 C.3   1 <1>   0.1160 
  8 C       -0.8130     2.1960     0.7590 C.3   1 <1>  -0.0800 
  9 C       -1.4620     3.3060    -0.0760 C.3   1 <1>   0.2000 
 10 C        0.1310     2.9430     1.7080 C.3   1 <1>   0.2090 
 11 O       -2.6170     3.7120     0.5730 O.3   1 <1>  -0.6800 
 12 C       -0.4590     4.4650    -0.0910 C.3   1 <1>   0.2090 
 13 N        0.5930     4.1100     0.9190 N.pl3 1 <1>  -0.8380 
 14 C        1.8730     4.5180     0.9180 C.ar  1 <1>   0.4610 
 15 N        2.4650     4.8090    -0.2400 N.ar  1 <1>  -0.1790 
 16 C        2.6580     4.6050     2.0940 C.ar  1 <1>  -0.1500 
 17 C        3.7790     5.2140    -0.3660 C.ar  1 <1>   0.3610 
 18 C        3.9610     4.9930     2.0440 C.ar  1 <1>  -0.1500 
 19 C        4.5630     5.3150     0.7970 C.ar  1 <1>   0.0000 
 20 C        4.3430     5.4960    -1.6130 C.ar  1 <1>  -0.1500 
 21 C        5.9000     5.7130     0.6710 C.ar  1 <1>  -0.1500 
 22 C        5.6590     5.8820    -1.7110 C.ar  1 <1>  -0.1500 
 23 C        6.4390     5.9910    -0.5620 C.ar  1 <1>  -0.1500 
 24 H       -0.8920     0.8140    -0.8560 H     1 <1>   0.0800 
 25 H       -0.0250     0.2300     0.4860 H     1 <1>   0.0800 
 26 H        3.5600     0.2720     1.6260 H     1 <1>   0.0800 
 27 H        2.8660    -0.6470     0.3070 H     1 <1>   0.0800 
 28 H        1.8390     0.0640     1.5360 H     1 <1>   0.0800 
 29 H        4.7050     1.7680     0.2510 H     1 <1>   0.0800 
 30 H        3.9260     2.5060    -1.1260 H     1 <1>   0.0800 
 31 H        4.1870     0.7840    -1.1050 H     1 <1>   0.0800 
 32 H       -1.5700     1.6970     1.3400 H     1 <1>   0.0800 
 33 H       -1.7380     2.9920    -1.0680 H     1 <1>   0.0800 
 34 H        0.9500     2.3270     2.0370 H     1 <1>   0.0800 
 35 H       -0.4140     3.2950     2.5690 H     1 <1>   0.0800 
 36 H       -2.4140     4.1130     1.4410 H     1 <1>   0.4000 
 37 H       -0.9410     5.3900     0.1790 H     1 <1>   0.0800 
 38 H       -0.0430     4.5730    -1.0750 H     1 <1>   0.0800 
 39 H        1.9670     4.4700    -1.0700 H     1 <1>   0.4570 
 40 H        2.1860     4.3620     3.0290 H     1 <1>   0.1500 
 41 H        4.5610     5.0670     2.9370 H     1 <1>   0.1500 
 42 H        3.7470     5.4130    -2.5050 H     1 <1>   0.1500 
 43 H        6.5100     5.8000     1.5550 H     1 <1>   0.1500 
 44 H        6.1010     6.1040    -2.6700 H     1 <1>   0.1500 
 45 H        7.4690     6.2970    -0.6510 H     1 <1>   0.1500 
@<TRIPOS>BOND
  1   1   2  2   
  2   1   3  2   
  3   1   4  am  
  4   1   5  1   
  5   4   6  1   
  6   4   7  1   
  7   5   8  1   
  8   5  24  1   
  9   5  25  1   
 10   6  26  1   
 11   6  27  1   
 12   6  28  1   
 13   7  29  1   
 14   7  30  1   
 15   7  31  1   
 16   8   9  1   
 17   8  10  1   
 18   8  32  1   
 19   9  11  1   
 20   9  12  1   
 21   9  33  1   
 22  10  13  1   
 23  10  34  1   
 24  10  35  1   
 25  11  36  1   
 26  12  13  1   
 27  12  37  1   
 28  12  38  1   
 29  13  14  1   
 30  14  15  ar  
 31  14  16  ar  
 32  15  17  ar  
 33  15  39  1   
 34  16  18  ar  
 35  16  40  1   
 36  17  19  ar  
 37  17  20  ar  
 38  18  19  ar  
 39  18  41  1   
 40  19  21  ar  
 41  20  22  ar  
 42  20  42  1   
 43  21  23  ar  
 44  21  43  1   
 45  22  23  ar  
 46  22  44  1   
 47  23  45  1   
@<TRIPOS>SUBSTRUCTURE
  1 ****  14 GROUP 4 **** **** 0

# MOE 2024.06 (io_trps.svl 2023.06)
