@<TRIPOS>MOLECULE
NONAME
40 41 1 0 0 
SMALL
USER_CHARGES


@<TRIPOS>ATOM
  1 O       -0.8110    -0.3880    -0.5860 O.2   1 <1>  -0.5700 
  2 C       -0.3630    -1.4860    -0.8560 C.2   1 <1>   0.7800 
  3 O        0.8900    -1.8290    -0.5580 O.3   1 <1>  -0.4300 
  4 N       -1.1450    -2.4480    -1.4310 N.am  1 <1>  -0.6600 
  5 C        1.8810    -1.0170     0.0330 C.3   1 <1>   0.2800 
  6 C       -2.5590    -2.2030    -1.7670 C.3   1 <1>   0.1400 
  7 C       -0.9680    -3.8930    -1.1460 C.3   1 <1>   0.1400 
  8 C        3.1260    -1.9010     0.1140 C.3   1 <1>  -0.2400 
  9 C        1.4570    -0.6100     1.4490 C.3   1 <1>  -0.2400 
 10 C        2.1770     0.1930    -0.8600 C.3   1 <1>  -0.2400 
 11 C       -3.2850    -3.2100    -0.8810 C.3   1 <1>   0.2800 
 12 C       -2.3940    -4.4490    -1.0000 C.3   1 <1>  -0.1600 
 13 O       -4.5710    -3.4450    -1.3740 O.3   1 <1>  -0.5600 
 14 C       -3.4700    -2.7060     0.5640 C.3   1 <1>  -0.1600 
 15 C       -5.4780    -3.4930    -0.3190 C.3   1 <1>   0.1200 
 16 C       -4.9570    -2.4410     0.6550 C.3   1 <1>   0.4230 
 17 N       -5.2250    -1.0900     0.1090 N.4   1 <1>  -0.8530 
 18 H       -2.7120    -2.4370    -2.8070 H     1 <1>   0.0800 
 19 H       -2.8490    -1.1870    -1.5740 H     1 <1>   0.0800 
 20 H       -0.4110    -4.0250    -0.2330 H     1 <1>   0.0800 
 21 H       -0.4430    -4.3700    -1.9560 H     1 <1>   0.0800 
 22 H        2.9310    -2.7690     0.7170 H     1 <1>   0.0800 
 23 H        3.9430    -1.3590     0.5550 H     1 <1>   0.0800 
 24 H        3.4230    -2.2180    -0.8700 H     1 <1>   0.0800 
 25 H        1.1930    -1.4780     2.0250 H     1 <1>   0.0800 
 26 H        0.6270     0.0700     1.4260 H     1 <1>   0.0800 
 27 H        2.2700    -0.1100     1.9430 H     1 <1>   0.0800 
 28 H        2.4030    -0.1270    -1.8610 H     1 <1>   0.0800 
 29 H        3.0240     0.7320    -0.4760 H     1 <1>   0.0800 
 30 H        1.3460     0.8730    -0.8840 H     1 <1>   0.0800 
 31 H       -2.4700    -5.1170    -0.1620 H     1 <1>   0.0800 
 32 H       -2.6410    -4.9880    -1.8980 H     1 <1>   0.0800 
 33 H       -2.8610    -1.8500     0.8000 H     1 <1>   0.0800 
 34 H       -3.2100    -3.4870     1.2560 H     1 <1>   0.0800 
 35 H       -5.4370    -4.4790     0.1130 H     1 <1>   0.0800 
 36 H       -6.4720    -3.2950    -0.6810 H     1 <1>   0.0800 
 37 H       -5.3450    -2.5540     1.6550 H     1 <1>   0.0800 
 38 H       -5.0310    -1.1190    -0.9010 H     1 <1>   0.4500 
 39 H       -4.6140    -0.3850     0.5360 H     1 <1>   0.4500 
 40 H       -6.2020    -0.8120     0.2360 H     1 <1>   0.4500 
@<TRIPOS>BOND
  1   1   2  2   
  2   2   3  1   
  3   2   4  am  
  4   3   5  1   
  5   4   6  1   
  6   4   7  1   
  7   5   8  1   
  8   5   9  1   
  9   5  10  1   
 10   6  11  1   
 11   6  18  1   
 12   6  19  1   
 13   7  12  1   
 14   7  20  1   
 15   7  21  1   
 16   8  22  1   
 17   8  23  1   
 18   8  24  1   
 19   9  25  1   
 20   9  26  1   
 21   9  27  1   
 22  10  28  1   
 23  10  29  1   
 24  10  30  1   
 25  11  12  1   
 26  11  13  1   
 27  11  14  1   
 28  12  31  1   
 29  12  32  1   
 30  13  15  1   
 31  14  16  1   
 32  14  33  1   
 33  14  34  1   
 34  15  16  1   
 35  15  35  1   
 36  15  36  1   
 37  16  17  1   
 38  16  37  1   
 39  17  38  1   
 40  17  39  1   
 41  17  40  1   
@<TRIPOS>SUBSTRUCTURE
  1 ****   4 GROUP 4 **** **** 0

# MOE 2024.06 (io_trps.svl 2023.06)
