@<TRIPOS>MOLECULE
NONAME
49 51 1 0 0 
SMALL
USER_CHARGES


@<TRIPOS>ATOM
  1 O       -2.0530    -0.6290     2.7980 O.2   1 <1>  -0.5700 
  2 C       -1.9920     0.0930     1.8310 C.2   1 <1>   0.5690 
  3 N       -2.2060    -0.3830     0.5620 N.am  1 <1>  -0.6600 
  4 C       -1.6770     1.5500     2.0900 C.3   1 <1>   0.1570 
  5 C       -2.5040    -1.8310     0.3190 C.3   1 <1>   0.3640 
  6 C       -2.1660     0.4730    -0.6660 C.3   1 <1>   0.1400 
  7 N       -0.3540     1.8840     1.5510 N.pl3 1 <1>   0.3140 
  8 C       -1.2240    -2.5360    -0.1710 C.ar  1 <1>  -0.1440 
  9 C       -3.7460    -1.9530    -0.6130 C.3   1 <1>   0.2000 
 10 C       -2.6250    -0.2660    -1.9350 C.3   1 <1>   0.1200 
 11 N       -0.1930     2.8550     0.6290 N.2   1 <1>  -0.7070 
 12 C        0.8250     1.3070     1.8610 C.2   1 <1>  -0.3020 
 13 C       -0.1130    -2.5230     0.6640 C.ar  1 <1>  -0.1500 
 14 C       -1.1180    -3.1990    -1.3920 C.ar  1 <1>  -0.1500 
 15 O       -3.7650    -1.0500    -1.7050 O.3   1 <1>  -0.5600 
 16 C       -5.0490    -1.7150     0.1640 C.3   1 <1>   0.1200 
 17 C        1.0820     2.8710     0.3830 C.2   1 <1>   0.1390 
 18 C        1.7730     1.9210     1.1240 C.2   1 <1>  -0.1500 
 19 C        1.0730    -3.1350     0.3000 C.ar  1 <1>   0.0820 
 20 C        0.0670    -3.8060    -1.7710 C.ar  1 <1>  -0.1500 
 21 O       -5.2960    -2.7730     1.0340 O.3   1 <1>  -0.6800 
 22 O        2.0960    -3.0980     1.1890 O.3   1 <1>  -0.3630 
 23 C        1.1740    -3.7650    -0.9430 C.ar  1 <1>   0.0820 
 24 C        2.4260    -4.3280     1.7950 C.3   1 <1>   0.0400 
 25 O        2.3130    -4.3490    -1.3910 O.3   1 <1>  -0.3630 
 26 C        3.4270    -3.5020    -1.5760 C.3   1 <1>   0.0400 
 27 H       -1.6720     1.7370     3.1460 H     1 <1>   0.0800 
 28 H       -2.4160     2.1750     1.6290 H     1 <1>   0.0800 
 29 H       -2.7630    -2.3040     1.2510 H     1 <1>   0.0800 
 30 H       -2.7960     1.3330    -0.5240 H     1 <1>   0.0800 
 31 H       -1.1600     0.8220    -0.8260 H     1 <1>   0.0800 
 32 H       -3.7960    -2.9430    -1.0260 H     1 <1>   0.0800 
 33 H       -1.8390    -0.8950    -2.3100 H     1 <1>   0.0800 
 34 H       -2.8670     0.4470    -2.7040 H     1 <1>   0.0800 
 35 H        0.9200     0.5040     2.5710 H     1 <1>   0.1500 
 36 H       -0.1590    -2.0370     1.6220 H     1 <1>   0.1500 
 37 H       -1.9460    -3.2520    -2.0760 H     1 <1>   0.1500 
 38 H       -5.8830    -1.6390    -0.5110 H     1 <1>   0.0800 
 39 H       -4.9750    -0.8160     0.7490 H     1 <1>   0.0800 
 40 H        1.5430     3.5480    -0.3180 H     1 <1>   0.1500 
 41 H        2.8320     1.7360     1.0950 H     1 <1>   0.1500 
 42 H        0.1430    -4.3100    -2.7170 H     1 <1>   0.1500 
 43 H       -5.6050    -3.5620     0.5470 H     1 <1>   0.4000 
 44 H        3.2030    -4.1500     2.5150 H     1 <1>   0.0800 
 45 H        2.7700    -5.0140     1.0420 H     1 <1>   0.0800 
 46 H        1.5510    -4.7180     2.2840 H     1 <1>   0.0800 
 47 H        4.1900    -4.0580    -2.0890 H     1 <1>   0.0800 
 48 H        3.7930    -3.1790    -0.6180 H     1 <1>   0.0800 
 49 H        3.1260    -2.6550    -2.1670 H     1 <1>   0.0800 
@<TRIPOS>BOND
  1   1   2  2   
  2   2   3  am  
  3   2   4  1   
  4   3   5  1   
  5   3   6  1   
  6   4   7  1   
  7   4  27  1   
  8   4  28  1   
  9   5   8  1   
 10   5   9  1   
 11   5  29  1   
 12   6  10  1   
 13   6  30  1   
 14   6  31  1   
 15   7  11  1   
 16   7  12  1   
 17   8  13  ar  
 18   8  14  ar  
 19   9  15  1   
 20   9  16  1   
 21   9  32  1   
 22  10  15  1   
 23  10  33  1   
 24  10  34  1   
 25  11  17  2   
 26  12  18  2   
 27  12  35  1   
 28  13  19  ar  
 29  13  36  1   
 30  14  20  ar  
 31  14  37  1   
 32  16  21  1   
 33  16  38  1   
 34  16  39  1   
 35  17  18  1   
 36  17  40  1   
 37  18  41  1   
 38  19  22  1   
 39  19  23  ar  
 40  20  23  ar  
 41  20  42  1   
 42  21  43  1   
 43  22  24  1   
 44  23  25  1   
 45  24  44  1   
 46  24  45  1   
 47  24  46  1   
 48  25  26  1   
 49  26  47  1   
 50  26  48  1   
 51  26  49  1   
@<TRIPOS>SUBSTRUCTURE
  1 ****   8 GROUP 4 **** **** 0

# MOE 2024.06 (io_trps.svl 2023.06)
