@<TRIPOS>MOLECULE
NONAME
34 35 1 0 0 
SMALL
USER_CHARGES


@<TRIPOS>ATOM
  1 F       -1.7910    -1.1870     3.0130 F     1 <1>  -0.1900 
  2 C       -2.2310    -1.3640     1.7980 C.ar  1 <1>   0.1900 
  3 C       -2.2850    -2.6500     1.2960 C.ar  1 <1>  -0.1500 
  4 C       -2.6270    -0.2640     1.0620 C.ar  1 <1>  -0.1500 
  5 C       -2.7620    -2.8470     0.0060 C.ar  1 <1>  -0.1430 
  6 C       -3.0940    -0.4650    -0.2250 C.ar  1 <1>  -0.1500 
  7 C       -3.1610    -1.7480    -0.7480 C.ar  1 <1>  -0.1500 
  8 C       -2.8540    -4.2470    -0.5710 C.3   1 <1>   0.4870 
  9 N       -3.9420    -4.9790     0.1180 N.4   1 <1>  -0.9590 
 10 C       -3.9160    -6.4540    -0.2230 C.3   1 <1>   0.3430 
 11 C       -5.2810    -4.3680    -0.1470 C.3   1 <1>   0.3430 
 12 C       -5.2910    -7.1440    -0.1260 C.3   1 <1>   0.2000 
 13 C       -6.3180    -4.9900     0.7930 C.3   1 <1>  -0.1600 
 14 O       -5.9550    -6.9590    -1.3270 O.3   1 <1>  -0.6800 
 15 C       -6.1330    -6.5170     0.9900 C.3   1 <1>  -0.1860 
 16 C       -7.4500    -7.2500     1.0980 C.2   1 <1>   0.9060 
 17 O       -7.7600    -7.7300     2.1850 O.co2 1 <1>  -0.9000 
 18 O       -8.1340    -7.3530     0.0730 O.co2 1 <1>  -0.9000 
 19 H       -1.9540    -3.4630     1.9170 H     1 <1>   0.1500 
 20 H       -2.5670     0.7220     1.4890 H     1 <1>   0.1500 
 21 H       -3.4030     0.3800    -0.8190 H     1 <1>   0.1500 
 22 H       -3.5270    -1.8760    -1.7540 H     1 <1>   0.1500 
 23 H       -1.9150    -4.7540    -0.4220 H     1 <1>   0.0800 
 24 H       -3.0530    -4.2010    -1.6300 H     1 <1>   0.0800 
 25 H       -3.8030    -4.8850     1.1300 H     1 <1>   0.4500 
 26 H       -3.5530    -6.6010    -1.2270 H     1 <1>   0.0800 
 27 H       -3.2400    -6.9530     0.4500 H     1 <1>   0.0800 
 28 H       -5.2560    -3.3010     0.0010 H     1 <1>   0.0800 
 29 H       -5.5680    -4.5660    -1.1680 H     1 <1>   0.0800 
 30 H       -5.1830    -8.2060     0.0220 H     1 <1>   0.0800 
 31 H       -6.2980    -4.4980     1.7490 H     1 <1>   0.0800 
 32 H       -7.2900    -4.8020     0.3670 H     1 <1>   0.0800 
 33 H       -6.9230    -7.1670    -1.1360 H     1 <1>   0.4000 
 34 H       -5.6180    -6.6800     1.9190 H     1 <1>   0.0800 
@<TRIPOS>BOND
  1   1   2  1   
  2   2   3  ar  
  3   2   4  ar  
  4   3   5  ar  
  5   3  19  1   
  6   4   6  ar  
  7   4  20  1   
  8   5   7  ar  
  9   5   8  1   
 10   6   7  ar  
 11   6  21  1   
 12   7  22  1   
 13   8   9  1   
 14   8  23  1   
 15   8  24  1   
 16   9  10  1   
 17   9  11  1   
 18   9  25  1   
 19  10  12  1   
 20  10  26  1   
 21  10  27  1   
 22  11  13  1   
 23  11  28  1   
 24  11  29  1   
 25  12  14  1   
 26  12  15  1   
 27  12  30  1   
 28  13  15  1   
 29  13  31  1   
 30  13  32  1   
 31  14  33  1   
 32  15  16  1   
 33  15  34  1   
 34  16  17  ar  
 35  16  18  ar  
@<TRIPOS>SUBSTRUCTURE
  1 ****   9 GROUP 4 **** **** 0

# MOE 2024.06 (io_trps.svl 2023.06)
