@<TRIPOS>MOLECULE
Untitled Document
53 57 1 0 0 
SMALL
USER_CHARGES


@<TRIPOS>ATOM
  1 F       -0.4060     2.1080    -0.7180 F     1 <1>  -0.1900 
  2 C        0.6550     1.3430    -0.7030 C.ar  1 <1>   0.1900 
  3 C        1.7410     1.6640     0.1090 C.ar  1 <1>  -0.1440 
  4 C        0.6300     0.2240    -1.5210 C.ar  1 <1>  -0.1500 
  5 C        2.8390     0.8120     0.0780 C.ar  1 <1>  -0.1500 
  6 C        1.7880     2.9000     1.0060 C.3   1 <1>   0.4330 
  7 C        1.7280    -0.6190    -1.5410 C.ar  1 <1>  -0.1500 
  8 C        2.8100    -0.3050    -0.7390 C.ar  1 <1>   0.1900 
  9 N        1.5710     4.1420     0.2260 N.pl3 1 <1>  -0.7880 
 10 C        0.7250     2.9210     2.1040 C.3   1 <1>  -0.1600 
 11 F        3.8490    -1.0960    -0.7530 F     1 <1>  -0.1900 
 12 C        2.5870     4.6880    -0.5340 C.2   1 <1>   0.4860 
 13 C        0.5530     4.9910     0.8820 C.3   1 <1>   0.2090 
 14 C        0.3800     4.3970     2.2750 C.3   1 <1>  -0.1600 
 15 N        3.8110     4.2770    -0.3580 N.2   1 <1>  -0.5760 
 16 C        2.2580     5.6910    -1.5030 C.2   1 <1>  -0.1360 
 17 C        4.7810     4.8650    -1.1430 C.2   1 <1>  -0.0260 
 18 C        3.2230     6.2630    -2.2650 C.2   1 <1>  -0.1810 
 19 N        4.5220     5.8420    -2.0780 N.pl3 1 <1>   0.6010 
 20 C        6.1240     4.6620    -1.1940 C.2   1 <1>   0.0630 
 21 N        5.6440     6.2590    -2.7070 N.2   1 <1>  -0.7070 
 22 N        6.8400     3.7320    -0.4010 N.am  1 <1>  -0.4930 
 23 C        6.5890     5.5360    -2.1700 C.2   1 <1>   0.1390 
 24 C        8.1320     3.7310     0.0070 C.2   1 <1>   0.6900 
 25 O        8.5400     2.7700     0.6310 O.2   1 <1>  -0.5700 
 26 N        8.9490     4.8100    -0.2010 N.am  1 <1>  -0.6600 
 27 C       10.4270     4.6390    -0.1610 C.3   1 <1>   0.1400 
 28 C        8.6090     6.0800     0.4960 C.3   1 <1>   0.1400 
 29 C       10.8470     5.3640     1.1110 C.3   1 <1>   0.2000 
 30 C        9.9040     6.5580     1.1570 C.3   1 <1>  -0.1600 
 31 O       10.5550     4.5440     2.1880 O.3   1 <1>  -0.6800 
 32 H       -0.2340     0.0240    -2.1290 H     1 <1>   0.1500 
 33 H        3.7150     1.0080     0.6700 H     1 <1>   0.1500 
 34 H        2.7510     2.9630     1.4850 H     1 <1>   0.0800 
 35 H        1.7500    -1.4980    -2.1610 H     1 <1>   0.1500 
 36 H       -0.1480     2.3780     1.7900 H     1 <1>   0.0800 
 37 H        1.0940     2.4800     3.0120 H     1 <1>   0.0800 
 38 H        0.8680     6.0200     0.9330 H     1 <1>   0.0800 
 39 H       -0.3690     4.9180     0.3300 H     1 <1>   0.0800 
 40 H        1.0820     4.8640     2.9430 H     1 <1>   0.0800 
 41 H       -0.6170     4.5460     2.6520 H     1 <1>   0.0800 
 42 H        1.2240     5.9570    -1.6060 H     1 <1>   0.1500 
 43 H        3.0680     7.0160    -3.0130 H     1 <1>   0.1500 
 44 H        6.2850     2.9690    -0.0180 H     1 <1>   0.3700 
 45 H        7.6240     5.6100    -2.4590 H     1 <1>   0.1500 
 46 H       10.7270     3.6040    -0.1500 H     1 <1>   0.0800 
 47 H       10.8570     5.1220    -1.0210 H     1 <1>   0.0800 
 48 H        8.2410     6.8080    -0.2070 H     1 <1>   0.0800 
 49 H        7.8550     5.8970     1.2440 H     1 <1>   0.0800 
 50 H       11.8900     5.6280     1.1450 H     1 <1>   0.0800 
 51 H        9.7450     6.9150     2.1590 H     1 <1>   0.0800 
 52 H       10.3160     7.3580     0.5700 H     1 <1>   0.0800 
 53 H        9.7850     3.9780     1.9480 H     1 <1>   0.4000 
@<TRIPOS>BOND
  1   1   2  1   
  2   2   3  ar  
  3   2   4  ar  
  4   3   5  ar  
  5   3   6  1   
  6   4   7  ar  
  7   4  32  1   
  8   5   8  ar  
  9   5  33  1   
 10   6   9  1   
 11   6  10  1   
 12   6  34  1   
 13   7   8  ar  
 14   7  35  1   
 15   8  11  1   
 16   9  12  1   
 17   9  13  1   
 18  10  14  1   
 19  10  36  1   
 20  10  37  1   
 21  12  15  2   
 22  12  16  1   
 23  13  14  1   
 24  13  38  1   
 25  13  39  1   
 26  14  40  1   
 27  14  41  1   
 28  15  17  1   
 29  16  18  2   
 30  16  42  1   
 31  17  19  1   
 32  17  20  2   
 33  18  19  1   
 34  18  43  1   
 35  19  21  1   
 36  20  22  1   
 37  20  23  1   
 38  21  23  2   
 39  22  24  am  
 40  22  44  1   
 41  23  45  1   
 42  24  25  2   
 43  24  26  am  
 44  26  27  1   
 45  26  28  1   
 46  27  29  1   
 47  27  46  1   
 48  27  47  1   
 49  28  30  1   
 50  28  48  1   
 51  28  49  1   
 52  29  30  1   
 53  29  31  1   
 54  29  50  1   
 55  30  51  1   
 56  30  52  1   
 57  31  53  1   
@<TRIPOS>SUBSTRUCTURE
  1 ****  15 GROUP 4 **** **** 0

# MOE 2024.06 (io_trps.svl 2023.06)
