@<TRIPOS>MOLECULE
NONAME
42 44 1 0 0 
SMALL
USER_CHARGES


@<TRIPOS>ATOM
  1 O        0.9950    -0.8780    -1.0280 O.co2 1 <1>  -0.9000 
  2 C        1.7070    -0.5870    -0.0450 C.2   1 <1>   0.9790 
  3 O        1.3130    -0.9830     1.0740 O.co2 1 <1>  -0.9000 
  4 C        2.9610     0.1700    -0.1560 C.ar  1 <1>   0.1310 
  5 N        3.3760     0.7590    -1.3040 N.ar  1 <1>  -0.6200 
  6 C        3.7410     0.2700     1.0030 C.ar  1 <1>   0.1600 
  7 C        4.5200     1.3910    -1.1850 C.ar  1 <1>   0.1600 
  8 N        4.8980     0.9040     1.1190 N.ar  1 <1>  -0.6200 
  9 C        5.2830     1.4740    -0.0120 C.ar  1 <1>   0.4100 
 10 N        6.4900     2.1520     0.0100 N.pl3 1 <1>  -0.8380 
 11 C        6.8400     2.9610     1.2170 C.3   1 <1>   0.2090 
 12 C        7.6190     1.5520    -0.7320 C.3   1 <1>   0.2090 
 13 C        7.2460     4.3860     0.8150 C.3   1 <1>   0.2090 
 14 C        8.5280     2.6280    -1.3260 C.3   1 <1>  -0.1600 
 15 N        8.6560     4.5460     0.3020 N.pl3 1 <1>  -0.8380 
 16 C        9.3600     3.3580    -0.2690 C.3   1 <1>   0.2090 
 17 C        9.3230     5.7150     0.4790 C.ar  1 <1>   0.1000 
 18 C        8.9220     6.9330    -0.1040 C.ar  1 <1>  -0.1430 
 19 C       10.4740     5.7320     1.2760 C.ar  1 <1>  -0.1500 
 20 C        9.6470     8.0750     0.1370 C.ar  1 <1>   0.2110 
 21 C        7.7070     6.9990    -1.0260 C.3   1 <1>  -0.0970 
 22 C       11.1690     6.8910     1.4900 C.ar  1 <1>   0.2110 
 23 N       10.7510     8.0490     0.9250 N.ar  1 <1>  -0.1790 
 24 H        3.3740    -0.2130     1.8930 H     1 <1>   0.1500 
 25 H        4.9040     1.8870    -2.0540 H     1 <1>   0.1500 
 26 H        7.6170     2.4840     1.7860 H     1 <1>   0.0800 
 27 H        5.9740     3.0390     1.8510 H     1 <1>   0.0800 
 28 H        7.2320     0.9390    -1.5290 H     1 <1>   0.0800 
 29 H        8.1760     0.9100    -0.0700 H     1 <1>   0.0800 
 30 H        7.1300     5.0200     1.6760 H     1 <1>   0.0800 
 31 H        6.5520     4.7220     0.0660 H     1 <1>   0.0800 
 32 H        7.9610     3.3250    -1.9170 H     1 <1>   0.0800 
 33 H        9.2130     2.1290    -1.9870 H     1 <1>   0.0800 
 34 H       10.2700     3.6970    -0.7340 H     1 <1>   0.0800 
 35 H        9.6330     2.6820     0.5240 H     1 <1>   0.0800 
 36 H       10.7940     4.8100     1.7270 H     1 <1>   0.1500 
 37 H        9.3550     9.0160    -0.2990 H     1 <1>   0.1500 
 38 H        7.7000     6.1510    -1.6890 H     1 <1>   0.0800 
 39 H        7.7160     7.8890    -1.6280 H     1 <1>   0.0800 
 40 H        6.8020     6.9900    -0.4470 H     1 <1>   0.0800 
 41 H       12.0530     6.9020     2.1090 H     1 <1>   0.1500 
 42 H       11.2760     8.9150     1.0900 H     1 <1>   0.4570 
@<TRIPOS>BOND
  1   1   2  ar  
  2   2   3  ar  
  3   2   4  1   
  4   4   5  ar  
  5   4   6  ar  
  6   5   7  ar  
  7   6   8  ar  
  8   6  24  1   
  9   7   9  ar  
 10   7  25  1   
 11   8   9  ar  
 12   9  10  1   
 13  10  11  1   
 14  10  12  1   
 15  11  13  1   
 16  11  26  1   
 17  11  27  1   
 18  12  14  1   
 19  12  28  1   
 20  12  29  1   
 21  13  15  1   
 22  13  30  1   
 23  13  31  1   
 24  14  16  1   
 25  14  32  1   
 26  14  33  1   
 27  15  16  1   
 28  15  17  1   
 29  16  34  1   
 30  16  35  1   
 31  17  18  ar  
 32  17  19  ar  
 33  18  20  ar  
 34  18  21  1   
 35  19  22  ar  
 36  19  36  1   
 37  20  23  ar  
 38  20  37  1   
 39  21  38  1   
 40  21  39  1   
 41  21  40  1   
 42  22  23  ar  
 43  22  41  1   
 44  23  42  1   
@<TRIPOS>SUBSTRUCTURE
  1 ****  10 GROUP 4 **** **** 0

# MOE 2024.06 (io_trps.svl 2023.06)
