@<TRIPOS>MOLECULE
Untitled Document
48 51 1 0 0 
SMALL
USER_CHARGES


@<TRIPOS>ATOM
  1 F        0.0020     0.6460    -0.7300 F     1 <1>  -0.1900 
  2 C       -0.0180     1.9130    -0.4170 C.ar  1 <1>   0.1900 
  3 C       -0.2440     2.8430    -1.4140 C.ar  1 <1>  -0.1500 
  4 C        0.1880     2.2790     0.8980 C.ar  1 <1>  -0.1500 
  5 C       -0.2550     4.1850    -1.0760 C.ar  1 <1>  -0.1500 
  6 C        0.1750     3.6250     1.2250 C.ar  1 <1>  -0.1500 
  7 C       -0.0390     4.5840     0.2390 C.ar  1 <1>  -0.1430 
  8 C       -0.0260     6.0720     0.5900 C.3   1 <1>   0.3450 
  9 C       -1.3450     6.7350     0.2230 C.ar  1 <1>  -0.1440 
 10 C        1.1490     6.7400    -0.1170 C.2   1 <1>  -0.2760 
 11 C       -1.3740     7.8450    -0.6170 C.ar  1 <1>   0.0830 
 12 C       -2.5390     6.2460     0.7320 C.ar  1 <1>  -0.1500 
 13 C        0.9620     7.8050    -0.9150 C.2   1 <1>  -0.0730 
 14 C        2.4620     6.0340     0.1840 C.3   1 <1>   0.4810 
 15 O       -0.2420     8.3720    -1.1500 O.3   1 <1>  -0.1590 
 16 C       -2.5800     8.4490    -0.9370 C.ar  1 <1>  -0.1500 
 17 C       -3.7480     6.8460     0.4160 C.ar  1 <1>   0.0830 
 18 N        3.6140     6.8020    -0.3460 N.4   1 <1>  -0.9590 
 19 C       -3.7660     7.9550    -0.4240 C.ar  1 <1>  -0.1500 
 20 O       -4.8610     6.2950     0.9660 O.3   1 <1>  -0.3630 
 21 C        4.8760     6.0270    -0.3620 C.3   1 <1>   0.3430 
 22 C        3.9030     8.0420     0.4170 C.3   1 <1>   0.3430 
 23 C       -6.1430     6.8150     0.6920 C.3   1 <1>   0.0400 
 24 C        5.9650     7.0860    -0.4660 C.3   1 <1>  -0.1600 
 25 C        5.3350     8.3900     0.0330 C.3   1 <1>  -0.1600 
 26 H       -0.4120     2.5180    -2.4250 H     1 <1>   0.1500 
 27 H        0.3490     1.5220     1.6450 H     1 <1>   0.1500 
 28 H       -0.4410     4.9210    -1.8430 H     1 <1>   0.1500 
 29 H        0.3240     3.9100     2.2530 H     1 <1>   0.1500 
 30 H        0.1030     6.1880     1.6530 H     1 <1>   0.0800 
 31 H       -2.5530     5.3880     1.3790 H     1 <1>   0.1500 
 32 H        1.7320     8.3220    -1.4580 H     1 <1>   0.1500 
 33 H        2.4390     5.0540    -0.2680 H     1 <1>   0.0800 
 34 H        2.5710     5.9080     1.2490 H     1 <1>   0.0800 
 35 H       -2.5860     9.3050    -1.5870 H     1 <1>   0.1500 
 36 H        3.3960     7.0620    -1.3150 H     1 <1>   0.4500 
 37 H       -4.6850     8.4430    -0.6880 H     1 <1>   0.1500 
 38 H        4.9120     5.3330    -1.1880 H     1 <1>   0.0800 
 39 H        4.9890     5.4870     0.5650 H     1 <1>   0.0800 
 40 H        3.8540     7.8410     1.4750 H     1 <1>   0.0800 
 41 H        3.2160     8.8370     0.1720 H     1 <1>   0.0800 
 42 H       -6.8640     6.2200     1.2230 H     1 <1>   0.0800 
 43 H       -6.3270     6.7530    -0.3660 H     1 <1>   0.0800 
 44 H       -6.1870     7.8340     1.0340 H     1 <1>   0.0800 
 45 H        6.2790     7.1880    -1.4910 H     1 <1>   0.0800 
 46 H        6.8210     6.8040     0.1250 H     1 <1>   0.0800 
 47 H        5.8630     8.7930     0.8800 H     1 <1>   0.0800 
 48 H        5.3320     9.1300    -0.7500 H     1 <1>   0.0800 
@<TRIPOS>BOND
  1   1   2  1   
  2   2   3  ar  
  3   2   4  ar  
  4   3   5  ar  
  5   3  26  1   
  6   4   6  ar  
  7   4  27  1   
  8   5   7  ar  
  9   5  28  1   
 10   6   7  ar  
 11   6  29  1   
 12   7   8  1   
 13   8   9  1   
 14   8  10  1   
 15   8  30  1   
 16   9  11  ar  
 17   9  12  ar  
 18  10  13  2   
 19  10  14  1   
 20  11  15  1   
 21  11  16  ar  
 22  12  17  ar  
 23  12  31  1   
 24  13  15  1   
 25  13  32  1   
 26  14  18  1   
 27  14  33  1   
 28  14  34  1   
 29  16  19  ar  
 30  16  35  1   
 31  17  19  ar  
 32  17  20  1   
 33  18  21  1   
 34  18  22  1   
 35  18  36  1   
 36  19  37  1   
 37  20  23  1   
 38  21  24  1   
 39  21  38  1   
 40  21  39  1   
 41  22  25  1   
 42  22  40  1   
 43  22  41  1   
 44  23  42  1   
 45  23  43  1   
 46  23  44  1   
 47  24  25  1   
 48  24  45  1   
 49  24  46  1   
 50  25  47  1   
 51  25  48  1   
@<TRIPOS>SUBSTRUCTURE
  1 ****   8 GROUP 4 **** **** 0

# MOE 2024.06 (io_trps.svl 2023.06)
