@<TRIPOS>MOLECULE
NONAME
26 27 1 0 0 
SMALL
USER_CHARGES


@<TRIPOS>ATOM
  1 CL       0.2970    -1.4710    -0.5300 Cl    1 <1>  -0.1770 
  2 C       -1.4230    -1.7630    -0.3720 C.ar  1 <1>   0.1770 
  3 C       -1.9320    -2.9300     0.2030 C.ar  1 <1>   0.0830 
  4 C       -2.2720    -0.7710    -0.8200 C.ar  1 <1>  -0.1500 
  5 O       -1.1780    -3.9640     0.6630 O.3   1 <1>  -0.3400 
  6 C       -3.3060    -3.0610     0.3390 C.ar  1 <1>  -0.1500 
  7 C       -3.6420    -0.9240    -0.6900 C.ar  1 <1>  -0.1500 
  8 C       -0.0910    -4.4550    -0.0990 C.3   1 <1>   0.2580 
  9 C       -4.1780    -2.0700    -0.1080 C.ar  1 <1>  -0.1440 
 10 C        0.1290    -5.9650     0.1540 C.3   1 <1>   0.4720 
 11 C        1.2650    -4.2470     0.6220 C.3   1 <1>   0.4720 
 12 C       -5.7040    -2.2220     0.0440 C.3   1 <1>   1.1640 
 13 N        1.5930    -5.6900     0.3600 N.4   1 <1>  -0.8440 
 14 F       -6.1580    -1.6060     1.1260 F     1 <1>  -0.3400 
 15 F       -6.3710    -1.7160    -0.9860 F     1 <1>  -0.3400 
 16 F       -6.0850    -3.4900     0.1450 F     1 <1>  -0.3400 
 17 H       -1.8650     0.1220    -1.2630 H     1 <1>   0.1500 
 18 H       -3.6940    -3.9540     0.8020 H     1 <1>   0.1500 
 19 H       -4.2920    -0.1370    -1.0430 H     1 <1>   0.1500 
 20 H       -0.1360    -4.1760    -1.1380 H     1 <1>   0.0000 
 21 H       -0.0380    -6.5880    -0.7050 H     1 <1>   0.0000 
 22 H       -0.3260    -6.3140     1.0640 H     1 <1>   0.0000 
 23 H        1.1620    -4.0620     1.6760 H     1 <1>   0.0000 
 24 H        1.9460    -3.5900     0.1110 H     1 <1>   0.0000 
 25 H        2.1520    -5.8220    -0.4910 H     1 <1>   0.4500 
 26 H        1.9880    -6.1690     1.1770 H     1 <1>   0.4500 
@<TRIPOS>BOND
  1   1   2  1   
  2   2   3  ar  
  3   2   4  ar  
  4   3   5  1   
  5   3   6  ar  
  6   4   7  ar  
  7   4  17  1   
  8   5   8  1   
  9   6   9  ar  
 10   6  18  1   
 11   7   9  ar  
 12   7  19  1   
 13   8  10  1   
 14   8  11  1   
 15   8  20  1   
 16   9  12  1   
 17  10  13  1   
 18  10  21  1   
 19  10  22  1   
 20  11  13  1   
 21  11  23  1   
 22  11  24  1   
 23  12  14  1   
 24  12  15  1   
 25  12  16  1   
 26  13  25  1   
 27  13  26  1   
@<TRIPOS>SUBSTRUCTURE
  1 ****   3 GROUP 4 **** **** 0

# MOE 2024.06 (io_trps.svl 2023.06)
