@<TRIPOS>MOLECULE
NONAME
48 49 1 0 0 
SMALL
USER_CHARGES


@<TRIPOS>ATOM
  1 S       -0.4880     1.1990     0.6270 S.3   1 <1>  -0.4600 
  2 C        1.2840     1.2460     0.2620 C.3   1 <1>   0.0700 
  3 C       -0.7510    -0.5100     1.1670 C.3   1 <1>  -0.0100 
  4 C        1.6190     2.6670    -0.1960 C.3   1 <1>  -0.1600 
  5 C        3.1190     2.8780    -0.4390 C.3   1 <1>   0.2890 
  6 N        3.3210     4.3160    -0.7250 N.pl3 1 <1>  -0.8690 
  7 C        3.6850     2.0500    -1.6090 C.3   1 <1>   0.1200 
  8 C        4.3170     5.1330    -0.3540 C.ar  1 <1>   0.4100 
  9 O        3.9420     0.7450    -1.2000 O.3   1 <1>  -0.6800 
 10 N        4.1270     6.3970    -0.6480 N.ar  1 <1>  -0.6200 
 11 C        5.4810     4.6800     0.2940 C.ar  1 <1>  -0.1500 
 12 C        5.0690     7.2630    -0.2990 C.ar  1 <1>   0.7710 
 13 C        6.4310     5.5810     0.6430 C.ar  1 <1>   0.2180 
 14 N        6.1910     6.8780     0.3330 N.ar  1 <1>  -0.1790 
 15 N        4.8990     8.5760    -0.5880 N.pl3 1 <1>  -0.8380 
 16 C        7.7290     5.2120     1.3510 C.3   1 <1>  -0.0170 
 17 C        5.8360     9.7090    -0.3530 C.3   1 <1>   0.2090 
 18 C        3.6610     9.0710    -1.2540 C.3   1 <1>   0.2090 
 19 C        8.9620     5.5110     0.4890 C.3   1 <1>  -0.2400 
 20 C        5.2600    10.8700    -1.1510 C.3   1 <1>  -0.1600 
 21 C        3.7640    10.5890    -1.2110 C.3   1 <1>  -0.1600 
 22 H        1.8070     0.9810     1.1630 H     1 <1>   0.0800 
 23 H        1.4690     0.5170    -0.5070 H     1 <1>   0.0800 
 24 H       -1.7950    -0.6220     1.4010 H     1 <1>   0.0800 
 25 H       -0.1430    -0.6810     2.0370 H     1 <1>   0.0800 
 26 H       -0.4670    -1.1610     0.3600 H     1 <1>   0.0800 
 27 H        1.0700     2.8790    -1.0960 H     1 <1>   0.0800 
 28 H        1.2960     3.3490     0.5710 H     1 <1>   0.0800 
 29 H        3.6550     2.6220     0.4590 H     1 <1>   0.0800 
 30 H        2.5280     4.7620    -1.1960 H     1 <1>   0.4000 
 31 H        4.6160     2.4720    -1.9430 H     1 <1>   0.0800 
 32 H        2.9870     2.0220    -2.4280 H     1 <1>   0.0800 
 33 H        4.2820     0.2090    -1.9460 H     1 <1>   0.4000 
 34 H        5.5950     3.6320     0.4950 H     1 <1>   0.1500 
 35 H        6.8430     7.6170     0.5570 H     1 <1>   0.4570 
 36 H        7.7990     5.7460     2.2830 H     1 <1>   0.0800 
 37 H        7.7200     4.1610     1.5860 H     1 <1>   0.0800 
 38 H        5.8400     9.9610     0.6960 H     1 <1>   0.0800 
 39 H        6.8340     9.4810    -0.6870 H     1 <1>   0.0800 
 40 H        3.6440     8.7270    -2.2760 H     1 <1>   0.0800 
 41 H        2.7750     8.7250    -0.7460 H     1 <1>   0.0800 
 42 H        9.0600     6.5630     0.2870 H     1 <1>   0.0800 
 43 H        8.9060     4.9810    -0.4470 H     1 <1>   0.0800 
 44 H        9.8510     5.1860     1.0020 H     1 <1>   0.0800 
 45 H        5.4790    11.8200    -0.6970 H     1 <1>   0.0800 
 46 H        5.6730    10.8550    -2.1450 H     1 <1>   0.0800 
 47 H        3.2930    11.0450    -2.0650 H     1 <1>   0.0800 
 48 H        3.2840    10.9480    -0.3160 H     1 <1>   0.0800 
@<TRIPOS>BOND
  1   1   2  1   
  2   1   3  1   
  3   2   4  1   
  4   2  22  1   
  5   2  23  1   
  6   3  24  1   
  7   3  25  1   
  8   3  26  1   
  9   4   5  1   
 10   4  27  1   
 11   4  28  1   
 12   5   6  1   
 13   5   7  1   
 14   5  29  1   
 15   6   8  1   
 16   6  30  1   
 17   7   9  1   
 18   7  31  1   
 19   7  32  1   
 20   8  10  ar  
 21   8  11  ar  
 22   9  33  1   
 23  10  12  ar  
 24  11  13  ar  
 25  11  34  1   
 26  12  14  ar  
 27  12  15  1   
 28  13  14  ar  
 29  13  16  1   
 30  14  35  1   
 31  15  17  1   
 32  15  18  1   
 33  16  19  1   
 34  16  36  1   
 35  16  37  1   
 36  17  20  1   
 37  17  38  1   
 38  17  39  1   
 39  18  21  1   
 40  18  40  1   
 41  18  41  1   
 42  19  42  1   
 43  19  43  1   
 44  19  44  1   
 45  20  21  1   
 46  20  45  1   
 47  20  46  1   
 48  21  47  1   
 49  21  48  1   
@<TRIPOS>SUBSTRUCTURE
  1 ****   8 GROUP 4 **** **** 0

# MOE 2024.06 (io_trps.svl 2023.06)
