@<TRIPOS>MOLECULE
NONAME
40 42 1 0 0 
SMALL
USER_CHARGES


@<TRIPOS>ATOM
  1 O       -0.3100    -0.3790     0.1610 O.3   1 <1>  -0.3630 
  2 C       -0.1780    -1.7200     0.1750 C.ar  1 <1>   0.3920 
  3 C        0.7890     0.5020     0.1030 C.3   1 <1>   0.0400 
  4 N       -1.3010    -2.3860     0.2490 N.ar  1 <1>  -0.6200 
  5 C        1.0480    -2.3540     0.1150 C.ar  1 <1>  -0.1500 
  6 C       -1.1940    -3.7080     0.2650 C.ar  1 <1>   0.7200 
  7 C        1.0420    -3.7230     0.1340 C.ar  1 <1>   0.1600 
  8 N       -0.0680    -4.4150     0.2060 N.ar  1 <1>  -0.6200 
  9 N       -2.3670    -4.4190     0.3520 N.pl3 1 <1>  -0.8380 
 10 C       -3.7030    -3.8080     0.1360 C.3   1 <1>   0.2090 
 11 C       -2.4310    -5.8940     0.2180 C.3   1 <1>   0.2090 
 12 C       -4.6000    -4.9680    -0.3010 C.3   1 <1>   0.2000 
 13 C       -3.9220    -6.2290     0.2280 C.3   1 <1>  -0.0800 
 14 O       -5.8820    -4.8620     0.2190 O.3   1 <1>  -0.6800 
 15 C       -4.2740    -7.4880    -0.5780 C.3   1 <1>   0.0210 
 16 C       -3.4690    -8.6840    -0.1070 C.2   1 <1>   0.1080 
 17 N       -3.5130    -9.1280     1.1100 N.2   1 <1>  -0.7070 
 18 C       -2.5970    -9.4200    -0.9030 C.2   1 <1>  -0.1500 
 19 N       -2.6620   -10.1700     1.1240 N.pl3 1 <1>   0.3000 
 20 C       -2.0940   -10.3670    -0.0850 C.2   1 <1>  -0.3320 
 21 C       -1.0890   -11.4640    -0.3860 C.3   1 <1>  -0.0600 
 22 H        0.4090     1.5070     0.1120 H     1 <1>   0.0800 
 23 H        1.3320     0.3250    -0.8080 H     1 <1>   0.0800 
 24 H        1.4130     0.3410     0.9650 H     1 <1>   0.0800 
 25 H        1.9730    -1.8180     0.0550 H     1 <1>   0.1500 
 26 H        1.9700    -4.2680     0.0890 H     1 <1>   0.1500 
 27 H       -4.0430    -3.3780     1.0620 H     1 <1>   0.0800 
 28 H       -3.6590    -3.0520    -0.6280 H     1 <1>   0.0800 
 29 H       -1.9750    -6.1840    -0.7140 H     1 <1>   0.0800 
 30 H       -1.9170    -6.3760     1.0320 H     1 <1>   0.0800 
 31 H       -4.6690    -4.9790    -1.3750 H     1 <1>   0.0800 
 32 H       -4.1970    -6.3830     1.2570 H     1 <1>   0.0800 
 33 H       -5.8490    -4.9260     1.1940 H     1 <1>   0.4000 
 34 H       -4.0830    -7.3220    -1.6230 H     1 <1>   0.0800 
 35 H       -5.3200    -7.7080    -0.4590 H     1 <1>   0.0800 
 36 H       -2.3880    -9.2480    -1.9440 H     1 <1>   0.1500 
 37 H       -2.4900   -10.7230     1.9720 H     1 <1>   0.2700 
 38 H       -0.7860   -11.4140    -1.4170 H     1 <1>   0.0800 
 39 H       -1.5260   -12.4290    -0.2040 H     1 <1>   0.0800 
 40 H       -0.2170   -11.3490     0.2330 H     1 <1>   0.0800 
@<TRIPOS>BOND
  1   1   2  1   
  2   1   3  1   
  3   2   4  ar  
  4   2   5  ar  
  5   3  22  1   
  6   3  23  1   
  7   3  24  1   
  8   4   6  ar  
  9   5   7  ar  
 10   5  25  1   
 11   6   8  ar  
 12   6   9  1   
 13   7   8  ar  
 14   7  26  1   
 15   9  10  1   
 16   9  11  1   
 17  10  12  1   
 18  10  27  1   
 19  10  28  1   
 20  11  13  1   
 21  11  29  1   
 22  11  30  1   
 23  12  13  1   
 24  12  14  1   
 25  12  31  1   
 26  13  15  1   
 27  13  32  1   
 28  14  33  1   
 29  15  16  1   
 30  15  34  1   
 31  15  35  1   
 32  16  17  2   
 33  16  18  1   
 34  17  19  1   
 35  18  20  2   
 36  18  36  1   
 37  19  20  1   
 38  19  37  1   
 39  20  21  1   
 40  21  38  1   
 41  21  39  1   
 42  21  40  1   
@<TRIPOS>SUBSTRUCTURE
  1 ****  11 GROUP 4 **** **** 0

# MOE 2024.06 (io_trps.svl 2023.06)
