@<TRIPOS>MOLECULE
NONAME
47 48 1 0 0 
SMALL
USER_CHARGES


@<TRIPOS>ATOM
  1 F        1.2060     0.7150     1.9180 F     1 <1>  -0.1900 
  2 C        1.9980     1.5550     1.3070 C.ar  1 <1>   0.1900 
  3 C        3.1810     1.0860     0.7690 C.ar  1 <1>  -0.1500 
  4 C        1.6230     2.8820     1.2210 C.ar  1 <1>  -0.1500 
  5 C        4.0140     1.9840     0.1230 C.ar  1 <1>  -0.1500 
  6 C        2.4670     3.7690     0.5720 C.ar  1 <1>  -0.1500 
  7 C        3.6640     3.3250     0.0220 C.ar  1 <1>  -0.1430 
  8 C        4.5880     4.3010    -0.6970 C.3   1 <1>   0.2540 
  9 N        5.9640     4.2310    -0.1650 N.3   1 <1>  -0.8100 
 10 C        6.9070     4.9980    -1.0260 C.3   1 <1>   0.1710 
 11 C        6.0300     4.6360     1.2470 C.3   1 <1>   0.0300 
 12 C        6.6520     6.5100    -1.1200 C.2   1 <1>   0.5690 
 13 O        5.9350     6.9380    -1.9930 O.2   1 <1>  -0.5700 
 14 N        7.2380     7.3390    -0.2200 N.am  1 <1>  -0.7300 
 15 C        7.1860     8.8060    -0.2640 C.3   1 <1>   0.4000 
 16 C        8.2630     9.3080     0.6880 C.2   1 <1>  -0.3320 
 17 C        5.7850     9.3100     0.1260 C.3   1 <1>   0.1200 
 18 N        8.8570    10.5200     0.5690 N.pl3 1 <1>   0.3140 
 19 C        8.8130     8.7180     1.7770 C.2   1 <1>  -0.1500 
 20 O        5.7000    10.6970    -0.0430 O.3   1 <1>  -0.5600 
 21 N        9.7740    10.7110     1.5330 N.2   1 <1>  -0.7070 
 22 C        8.6110    11.5720    -0.4290 C.3   1 <1>   0.0160 
 23 C        9.7400     9.6340     2.2520 C.2   1 <1>   0.1390 
 24 C        4.4680    11.2310     0.3200 C.3   1 <1>   0.0400 
 25 H        3.4410     0.0470     0.8560 H     1 <1>   0.1500 
 26 H        0.6940     3.2080     1.6520 H     1 <1>   0.1500 
 27 H        4.9450     1.6460    -0.3000 H     1 <1>   0.1500 
 28 H        2.1870     4.8050     0.4970 H     1 <1>   0.1500 
 29 H        4.2100     5.3060    -0.6040 H     1 <1>   0.0800 
 30 H        4.5980     4.0480    -1.7440 H     1 <1>   0.0800 
 31 H        6.8670     4.5960    -2.0220 H     1 <1>   0.0800 
 32 H        7.9070     4.8420    -0.6660 H     1 <1>   0.0800 
 33 H        5.4410     3.9650     1.8500 H     1 <1>   0.0800 
 34 H        5.6540     5.6360     1.3760 H     1 <1>   0.0800 
 35 H        7.0470     4.5890     1.5960 H     1 <1>   0.0800 
 36 H        7.9000     6.9810     0.4650 H     1 <1>   0.3700 
 37 H        7.3970     9.1120    -1.2740 H     1 <1>   0.0800 
 38 H        5.5900     9.0780     1.1580 H     1 <1>   0.0800 
 39 H        5.0430     8.8520    -0.5050 H     1 <1>   0.0800 
 40 H        8.6110     7.7610     2.2230 H     1 <1>   0.1500 
 41 H        8.3620    11.1330    -1.3750 H     1 <1>   0.0800 
 42 H        9.4980    12.1690    -0.5320 H     1 <1>   0.0800 
 43 H        7.8030    12.1910    -0.0890 H     1 <1>   0.0800 
 44 H       10.3640     9.4820     3.1170 H     1 <1>   0.1500 
 45 H        4.5000    12.2930     0.1500 H     1 <1>   0.0800 
 46 H        4.2900    11.0370     1.3640 H     1 <1>   0.0800 
 47 H        3.6960    10.7890    -0.2860 H     1 <1>   0.0800 
@<TRIPOS>BOND
  1   1   2  1   
  2   2   3  ar  
  3   2   4  ar  
  4   3   5  ar  
  5   3  25  1   
  6   4   6  ar  
  7   4  26  1   
  8   5   7  ar  
  9   5  27  1   
 10   6   7  ar  
 11   6  28  1   
 12   7   8  1   
 13   8   9  1   
 14   8  29  1   
 15   8  30  1   
 16   9  10  1   
 17   9  11  1   
 18  10  12  1   
 19  10  31  1   
 20  10  32  1   
 21  11  33  1   
 22  11  34  1   
 23  11  35  1   
 24  12  13  2   
 25  12  14  am  
 26  14  15  1   
 27  14  36  1   
 28  15  16  1   
 29  15  17  1   
 30  15  37  1   
 31  16  18  1   
 32  16  19  2   
 33  17  20  1   
 34  17  38  1   
 35  17  39  1   
 36  18  21  1   
 37  18  22  1   
 38  19  23  1   
 39  19  40  1   
 40  20  24  1   
 41  21  23  2   
 42  22  41  1   
 43  22  42  1   
 44  22  43  1   
 45  23  44  1   
 46  24  45  1   
 47  24  46  1   
 48  24  47  1   
@<TRIPOS>SUBSTRUCTURE
  1 ****  12 GROUP 4 **** **** 0

# MOE 2024.06 (io_trps.svl 2023.06)
