@<TRIPOS>MOLECULE
NONAME
44 46 1 0 0 
SMALL
USER_CHARGES


@<TRIPOS>ATOM
  1 O       -0.0610     0.4320    -0.3020 O.2   1 <1>  -0.5700 
  2 C       -0.5740     1.3040     0.3750 C.2   1 <1>   0.6900 
  3 N       -1.9390     1.4290     0.4470 N.am  1 <1>  -0.6600 
  4 N        0.2000     2.1790     1.0590 N.am  1 <1>  -0.7300 
  5 C       -2.6020     2.7290     0.7770 C.3   1 <1>   0.1400 
  6 C       -2.8220     0.4100    -0.2000 C.3   1 <1>   0.1400 
  7 C        1.5810     2.5790     0.7240 C.3   1 <1>   0.1400 
  8 C       -3.1880     3.3770    -0.4950 C.3   1 <1>   0.1430 
  9 C       -4.1740     1.0020    -0.6370 C.3   1 <1>  -0.1600 
 10 C        1.5980     4.0940     0.5780 C.3   1 <1>  -0.2660 
 11 C       -4.0160     4.5680    -0.0420 C.ar  1 <1>   0.1670 
 12 C       -3.9880     2.3530    -1.3500 C.3   1 <1>  -0.1600 
 13 C       -2.0760     4.0680    -1.3320 C.3   1 <1>  -0.1600 
 14 C        2.9990     4.5730     0.3370 C.2   1 <1>   0.9060 
 15 N       -5.2160     4.5100     0.4940 N.ar  1 <1>  -0.6200 
 16 C       -3.3470     5.7420    -0.2300 C.ar  1 <1>  -0.1440 
 17 C       -1.9860     5.5220    -0.8430 C.3   1 <1>  -0.0160 
 18 O        3.2710     5.0750    -0.7560 O.co2 1 <1>  -0.9000 
 19 O        3.8170     4.4590     1.2520 O.co2 1 <1>  -0.9000 
 20 C       -5.7270     5.6890     0.8230 C.ar  1 <1>   0.4770 
 21 C       -3.9690     6.9030     0.1530 C.ar  1 <1>   0.1600 
 22 N       -5.1730     6.8870     0.6860 N.ar  1 <1>  -0.6200 
 23 C       -7.1070     5.6730     1.4330 C.3   1 <1>  -0.0970 
 24 H       -0.2440     2.7390     1.7780 H     1 <1>   0.3700 
 25 H       -1.9220     3.4160     1.2460 H     1 <1>   0.0800 
 26 H       -3.3950     2.5390     1.4800 H     1 <1>   0.0800 
 27 H       -2.9800    -0.4030     0.4860 H     1 <1>   0.0800 
 28 H       -2.3230     0.0160    -1.0700 H     1 <1>   0.0800 
 29 H        1.8980     2.1120    -0.1940 H     1 <1>   0.0800 
 30 H        2.2490     2.2760     1.5140 H     1 <1>   0.0800 
 31 H       -4.8060     1.1290     0.2260 H     1 <1>   0.0800 
 32 H       -4.6680     0.3080    -1.2930 H     1 <1>   0.0800 
 33 H        1.2480     4.5660     1.4740 H     1 <1>   0.0800 
 34 H        0.9940     4.3940    -0.2560 H     1 <1>   0.0800 
 35 H       -3.4640     2.1580    -2.2690 H     1 <1>   0.0800 
 36 H       -4.9500     2.7600    -1.6110 H     1 <1>   0.0800 
 37 H       -2.3670     4.0960    -2.3670 H     1 <1>   0.0800 
 38 H       -1.1300     3.5600    -1.2650 H     1 <1>   0.0800 
 39 H       -1.7920     6.2020    -1.6540 H     1 <1>   0.0800 
 40 H       -1.2240     5.6250    -0.0900 H     1 <1>   0.0800 
 41 H       -3.4780     7.8530     0.0240 H     1 <1>   0.1500 
 42 H       -7.5290     4.6850     1.3880 H     1 <1>   0.0800 
 43 H       -7.7450     6.3500     0.8960 H     1 <1>   0.0800 
 44 H       -7.0460     5.9840     2.4590 H     1 <1>   0.0800 
@<TRIPOS>BOND
  1   1   2  2   
  2   2   3  am  
  3   2   4  am  
  4   3   5  1   
  5   3   6  1   
  6   4   7  1   
  7   4  24  1   
  8   5   8  1   
  9   5  25  1   
 10   5  26  1   
 11   6   9  1   
 12   6  27  1   
 13   6  28  1   
 14   7  10  1   
 15   7  29  1   
 16   7  30  1   
 17   8  11  1   
 18   8  12  1   
 19   8  13  1   
 20   9  12  1   
 21   9  31  1   
 22   9  32  1   
 23  10  14  1   
 24  10  33  1   
 25  10  34  1   
 26  11  15  ar  
 27  11  16  ar  
 28  12  35  1   
 29  12  36  1   
 30  13  17  1   
 31  13  37  1   
 32  13  38  1   
 33  14  18  ar  
 34  14  19  ar  
 35  15  20  ar  
 36  16  17  1   
 37  16  21  ar  
 38  17  39  1   
 39  17  40  1   
 40  20  22  ar  
 41  20  23  1   
 42  21  22  ar  
 43  21  41  1   
 44  23  42  1   
 45  23  43  1   
 46  23  44  1   
@<TRIPOS>SUBSTRUCTURE
  1 ****   5 GROUP 4 **** **** 0

# MOE 2024.06 (io_trps.svl 2023.06)
