@<TRIPOS>MOLECULE
NONAME
46 47 1 0 0 
SMALL
USER_CHARGES


@<TRIPOS>ATOM
  1 F       -0.2210     0.3420     0.0400 F     1 <1>  -0.1900 
  2 C       -1.1450     1.2450    -0.2150 C.ar  1 <1>   0.1900 
  3 C       -1.1720     2.4530     0.4880 C.ar  1 <1>   0.4100 
  4 C       -2.0790     1.0050    -1.1930 C.ar  1 <1>   0.1660 
  5 N       -2.0840     3.3620     0.1750 N.ar  1 <1>  -0.6200 
  6 N       -0.2810     2.7890     1.5100 N.pl3 1 <1>  -0.8380 
  7 N       -3.0020     1.9100    -1.4780 N.ar  1 <1>  -0.6200 
  8 C       -2.1160    -0.2880    -1.9990 C.3   1 <1>  -0.0170 
  9 C       -2.9450     3.0260    -0.7720 C.ar  1 <1>   0.4700 
 10 C       -0.0340     4.2050     1.8810 C.3   1 <1>   0.2090 
 11 C        0.0550     1.7880     2.5660 C.3   1 <1>   0.1290 
 12 C       -3.1510    -1.2690    -1.4370 C.3   1 <1>  -0.2400 
 13 C        0.8290     4.8460     0.7930 C.3   1 <1>  -0.1600 
 14 C        0.8610     6.3690     0.9170 C.3   1 <1>   0.4230 
 15 N        1.4450     6.9290    -0.3330 N.4   1 <1>  -0.9590 
 16 C        1.6300     6.8340     2.1590 C.3   1 <1>  -0.2400 
 17 C        2.8910     6.6780    -0.5640 C.3   1 <1>   0.3430 
 18 C        1.2480     8.3890    -0.5080 C.3   1 <1>   0.3430 
 19 C        3.2640     7.6510    -1.6730 C.3   1 <1>  -0.1600 
 20 C        2.2160     8.7690    -1.6210 C.3   1 <1>  -0.1600 
 21 H       -1.1470    -0.7560    -2.0030 H     1 <1>   0.0800 
 22 H       -2.3640    -0.0550    -3.0200 H     1 <1>   0.0800 
 23 H       -3.7000     3.7610    -1.0030 H     1 <1>   0.1500 
 24 H        0.4700     4.2550     2.8310 H     1 <1>   0.0800 
 25 H       -0.9770     4.7190     1.9770 H     1 <1>   0.0800 
 26 H       -0.5500     0.9050     2.4600 H     1 <1>   0.0800 
 27 H       -0.1280     2.1990     3.5440 H     1 <1>   0.0800 
 28 H        1.0920     1.5110     2.4870 H     1 <1>   0.0800 
 29 H       -2.9080    -1.5260    -0.4210 H     1 <1>   0.0800 
 30 H       -3.1700    -2.1670    -2.0270 H     1 <1>   0.0800 
 31 H       -4.1300    -0.8230    -1.4550 H     1 <1>   0.0800 
 32 H        0.4050     4.5930    -0.1620 H     1 <1>   0.0800 
 33 H        1.8200     4.4330     0.8530 H     1 <1>   0.0800 
 34 H       -0.1580     6.7150     0.9960 H     1 <1>   0.0800 
 35 H        0.9500     6.4780    -1.1130 H     1 <1>   0.4500 
 36 H        2.6160     6.4090     2.1960 H     1 <1>   0.0800 
 37 H        1.1080     6.5190     3.0450 H     1 <1>   0.0800 
 38 H        1.6990     7.9050     2.2000 H     1 <1>   0.0800 
 39 H        3.0800     5.6540    -0.8470 H     1 <1>   0.0800 
 40 H        3.4550     6.9160     0.3230 H     1 <1>   0.0800 
 41 H        1.5210     8.9110     0.3940 H     1 <1>   0.0800 
 42 H        0.2290     8.6270    -0.7670 H     1 <1>   0.0800 
 43 H        3.2290     7.1480    -2.6250 H     1 <1>   0.0800 
 44 H        4.2610     8.0280    -1.5240 H     1 <1>   0.0800 
 45 H        2.6650     9.7260    -1.4150 H     1 <1>   0.0800 
 46 H        1.6900     8.8350    -2.5580 H     1 <1>   0.0800 
@<TRIPOS>BOND
  1   1   2  1   
  2   2   3  ar  
  3   2   4  ar  
  4   3   5  ar  
  5   3   6  1   
  6   4   7  ar  
  7   4   8  1   
  8   5   9  ar  
  9   6  10  1   
 10   6  11  1   
 11   7   9  ar  
 12   8  12  1   
 13   8  21  1   
 14   8  22  1   
 15   9  23  1   
 16  10  13  1   
 17  10  24  1   
 18  10  25  1   
 19  11  26  1   
 20  11  27  1   
 21  11  28  1   
 22  12  29  1   
 23  12  30  1   
 24  12  31  1   
 25  13  14  1   
 26  13  32  1   
 27  13  33  1   
 28  14  15  1   
 29  14  16  1   
 30  14  34  1   
 31  15  17  1   
 32  15  18  1   
 33  15  35  1   
 34  16  36  1   
 35  16  37  1   
 36  16  38  1   
 37  17  19  1   
 38  17  39  1   
 39  17  40  1   
 40  18  20  1   
 41  18  41  1   
 42  18  42  1   
 43  19  20  1   
 44  19  43  1   
 45  19  44  1   
 46  20  45  1   
 47  20  46  1   
@<TRIPOS>SUBSTRUCTURE
  1 ****  13 GROUP 4 **** **** 0

# MOE 2024.06 (io_trps.svl 2023.06)
