@<TRIPOS>MOLECULE
NONAME
44 47 1 0 0 
SMALL
USER_CHARGES


@<TRIPOS>ATOM
  1 S        0.3170    -0.3710    -1.3200 S.3   1 <1>  -0.0800 
  2 C        0.8310     1.0160    -0.4210 C.2   1 <1>  -0.1400 
  3 C        0.7740    -1.3560     0.0740 C.2   1 <1>   0.1980 
  4 C        1.2690     0.6400     0.7640 C.2   1 <1>   0.0460 
  5 C        0.8740     2.4810    -0.7120 C.3   1 <1>   0.0200 
  6 N        1.2440    -0.7060     1.0680 N.2   1 <1>  -0.5650 
  7 C        0.5610    -2.8490    -0.0290 C.3   1 <1>   0.0200 
  8 C        1.7270     1.8130     1.5790 C.3   1 <1>   0.0210 
  9 C        1.4670     3.0180     0.6220 C.3   1 <1>  -0.1600 
 10 C       -0.9040    -3.1830     0.2430 C.3   1 <1>   0.1400 
 11 N       -1.0990    -4.6540     0.2750 N.am  1 <1>  -0.7300 
 12 C       -1.4700    -5.4010    -0.7930 C.2   1 <1>   0.5690 
 13 O       -1.6430    -4.9200    -1.8850 O.2   1 <1>  -0.5700 
 14 C       -1.6670    -6.8870    -0.6090 C.3   1 <1>  -0.0990 
 15 C       -2.9170    -7.3640    -1.3580 C.3   1 <1>   0.0960 
 16 N       -3.1480    -8.7950    -1.0930 N.pl3 1 <1>   0.0480 
 17 C       -3.7280    -9.3380     0.0100 C.ar  1 <1>  -0.1520 
 18 C       -2.7530    -9.8520    -1.8500 C.2   1 <1>   0.0360 
 19 C       -3.6380   -10.7070    -0.1620 C.ar  1 <1>   0.2270 
 20 C       -4.3260    -8.7920     1.1500 C.ar  1 <1>  -0.1500 
 21 N       -3.0210   -11.0020    -1.3390 N.2   1 <1>  -0.5650 
 22 C       -4.1440   -11.5670     0.8110 C.ar  1 <1>  -0.1500 
 23 C       -4.8230    -9.6490     2.1070 C.ar  1 <1>  -0.1500 
 24 C       -4.7330   -11.0360     1.9390 C.ar  1 <1>  -0.1500 
 25 H       -0.1140     2.8640    -0.8940 H     1 <1>   0.0800 
 26 H        1.5200     2.6840    -1.5480 H     1 <1>   0.0800 
 27 H        1.1850    -3.3320     0.6990 H     1 <1>   0.0800 
 28 H        0.8410    -3.1840    -1.0110 H     1 <1>   0.0800 
 29 H        2.7710     1.7130     1.8170 H     1 <1>   0.0800 
 30 H        1.1470     1.8880     2.4810 H     1 <1>   0.0800 
 31 H        0.7750     3.7020     1.0800 H     1 <1>   0.0800 
 32 H        2.3880     3.5380     0.4310 H     1 <1>   0.0800 
 33 H       -1.5210    -2.7510    -0.5290 H     1 <1>   0.0800 
 34 H       -1.2050    -2.7620     1.1880 H     1 <1>   0.0800 
 35 H       -0.9140    -5.1020     1.1750 H     1 <1>   0.3700 
 36 H       -1.7670    -7.1070     0.4380 H     1 <1>   0.0800 
 37 H       -0.8000    -7.3930    -0.9920 H     1 <1>   0.0800 
 38 H       -2.7940    -7.2180    -2.4170 H     1 <1>   0.0800 
 39 H       -3.7800    -6.8090    -1.0370 H     1 <1>   0.0800 
 40 H       -2.2540    -9.7130    -2.7930 H     1 <1>   0.1500 
 41 H       -4.3960    -7.7260     1.2720 H     1 <1>   0.1500 
 42 H       -4.0610   -12.6250     0.6540 H     1 <1>   0.1500 
 43 H       -5.2900    -9.2600     2.9950 H     1 <1>   0.1500 
 44 H       -5.1280   -11.6860     2.7000 H     1 <1>   0.1500 
@<TRIPOS>BOND
  1   1   2  1   
  2   1   3  1   
  3   2   4  2   
  4   2   5  1   
  5   3   6  2   
  6   3   7  1   
  7   4   6  1   
  8   4   8  1   
  9   5   9  1   
 10   5  25  1   
 11   5  26  1   
 12   7  10  1   
 13   7  27  1   
 14   7  28  1   
 15   8   9  1   
 16   8  29  1   
 17   8  30  1   
 18   9  31  1   
 19   9  32  1   
 20  10  11  1   
 21  10  33  1   
 22  10  34  1   
 23  11  12  am  
 24  11  35  1   
 25  12  13  2   
 26  12  14  1   
 27  14  15  1   
 28  14  36  1   
 29  14  37  1   
 30  15  16  1   
 31  15  38  1   
 32  15  39  1   
 33  16  17  1   
 34  16  18  1   
 35  17  19  ar  
 36  17  20  ar  
 37  18  21  2   
 38  18  40  1   
 39  19  21  1   
 40  19  22  ar  
 41  20  23  ar  
 42  20  41  1   
 43  22  24  ar  
 44  22  42  1   
 45  23  24  ar  
 46  23  43  1   
 47  24  44  1   
@<TRIPOS>SUBSTRUCTURE
  1 ****  11 GROUP 4 **** **** 0

# MOE 2024.06 (io_trps.svl 2023.06)
