@<TRIPOS>MOLECULE
NONAME
58 61 1 0 0 
SMALL
USER_CHARGES


@<TRIPOS>ATOM
  1 S       -0.5250    -0.4410    -0.7020 S.3   1 <1>  -0.0800 
  2 C        0.1350     1.0140     0.0280 C.2   1 <1>  -0.1400 
  3 C        0.1200    -1.4500     0.5850 C.2   1 <1>  -0.1400 
  4 C        0.7800     0.7050     1.1720 C.2   1 <1>  -0.1500 
  5 C       -0.1260     2.3060    -0.7280 C.3   1 <1>   0.5230 
  6 C        0.7750    -0.6920     1.4830 C.2   1 <1>  -0.1500 
  7 C       -0.1090    -2.9490     0.5080 C.3   1 <1>   0.5230 
  8 N        0.7680     3.3860    -0.2350 N.4   1 <1>  -0.9590 
  9 N       -1.4630    -3.2710     1.0440 N.4   1 <1>  -0.9590 
 10 C        0.3130     4.7230    -0.7150 C.3   1 <1>   0.3430 
 11 C        2.1920     3.1240    -0.6030 C.3   1 <1>   0.3430 
 12 C       -2.5640    -2.9520     0.0730 C.3   1 <1>   0.3430 
 13 C       -1.5580    -4.7310     1.3460 C.3   1 <1>   0.3430 
 14 C        1.1730     5.8160    -0.0750 C.3   1 <1>  -0.1600 
 15 C        3.0910     4.1820     0.0390 C.3   1 <1>  -0.1600 
 16 C       -3.3720    -4.2430    -0.1210 C.3   1 <1>   0.2000 
 17 C       -2.3830    -5.3540     0.2160 C.3   1 <1>  -0.0800 
 18 C        2.6660     5.6020    -0.3550 C.3   1 <1>  -0.1600 
 19 O       -4.4270    -4.2790     0.7830 O.3   1 <1>  -0.6800 
 20 C       -1.5380    -5.7210    -1.0240 C.3   1 <1>   0.0210 
 21 C       -0.2190    -6.3750    -0.6640 C.2   1 <1>   0.1080 
 22 N        0.8290    -5.6920    -0.3130 N.2   1 <1>  -0.7070 
 23 C        0.0200    -7.7440    -0.6760 C.2   1 <1>  -0.1500 
 24 N        1.7870    -6.6270    -0.1120 N.pl3 1 <1>   0.3000 
 25 C        1.3130    -7.8730    -0.3160 C.2   1 <1>  -0.3320 
 26 C        2.1430    -9.1360    -0.1630 C.3   1 <1>  -0.0600 
 27 H        1.2780     1.3920     1.8370 H     1 <1>   0.1500 
 28 H       -1.1580     2.5860    -0.5920 H     1 <1>   0.0800 
 29 H        0.0430     2.1480    -1.7810 H     1 <1>   0.0800 
 30 H        1.2750    -1.0510     2.3700 H     1 <1>   0.1500 
 31 H        0.6400    -3.4450     1.1040 H     1 <1>   0.0800 
 32 H       -0.0020    -3.2980    -0.5070 H     1 <1>   0.0800 
 33 H        0.7080     3.3900     0.7900 H     1 <1>   0.4500 
 34 H       -1.5830    -2.7230     1.9050 H     1 <1>   0.4500 
 35 H        0.4050     4.7790    -1.7880 H     1 <1>   0.0800 
 36 H       -0.7200     4.8830    -0.4520 H     1 <1>   0.0800 
 37 H        2.4940     2.1450    -0.2650 H     1 <1>   0.0800 
 38 H        2.3060     3.1600    -1.6750 H     1 <1>   0.0800 
 39 H       -3.1980    -2.1560     0.4280 H     1 <1>   0.0800 
 40 H       -2.1390    -2.6640    -0.8740 H     1 <1>   0.0800 
 41 H       -0.5890    -5.1900     1.4510 H     1 <1>   0.0800 
 42 H       -2.0910    -4.8650     2.2740 H     1 <1>   0.0800 
 43 H        0.8720     6.7730    -0.4660 H     1 <1>   0.0800 
 44 H        0.9970     5.8360     0.9870 H     1 <1>   0.0800 
 45 H        3.0640     4.0730     1.1100 H     1 <1>   0.0800 
 46 H        4.1080     4.0160    -0.2730 H     1 <1>   0.0800 
 47 H       -3.7890    -4.3200    -1.1120 H     1 <1>   0.0800 
 48 H       -2.8810    -6.2440     0.5620 H     1 <1>   0.0800 
 49 H        3.2490     6.3240     0.1950 H     1 <1>   0.0800 
 50 H        2.8610     5.7570    -1.4030 H     1 <1>   0.0800 
 51 H       -4.1450    -4.3440     1.7150 H     1 <1>   0.4000 
 52 H       -1.3110    -4.8490    -1.6110 H     1 <1>   0.0800 
 53 H       -2.1000    -6.3870    -1.6550 H     1 <1>   0.0800 
 54 H       -0.6860    -8.5170    -0.9290 H     1 <1>   0.1500 
 55 H        2.7530    -6.3940     0.1520 H     1 <1>   0.2700 
 56 H        1.5450   -10.0020    -0.3840 H     1 <1>   0.0800 
 57 H        2.5110    -9.2240     0.8440 H     1 <1>   0.0800 
 58 H        2.9790    -9.1180    -0.8410 H     1 <1>   0.0800 
@<TRIPOS>BOND
  1   1   2  1   
  2   1   3  1   
  3   2   4  2   
  4   2   5  1   
  5   3   6  2   
  6   3   7  1   
  7   4   6  1   
  8   4  27  1   
  9   5   8  1   
 10   5  28  1   
 11   5  29  1   
 12   6  30  1   
 13   7   9  1   
 14   7  31  1   
 15   7  32  1   
 16   8  10  1   
 17   8  11  1   
 18   8  33  1   
 19   9  12  1   
 20   9  13  1   
 21   9  34  1   
 22  10  14  1   
 23  10  35  1   
 24  10  36  1   
 25  11  15  1   
 26  11  37  1   
 27  11  38  1   
 28  12  16  1   
 29  12  39  1   
 30  12  40  1   
 31  13  17  1   
 32  13  41  1   
 33  13  42  1   
 34  14  18  1   
 35  14  43  1   
 36  14  44  1   
 37  15  18  1   
 38  15  45  1   
 39  15  46  1   
 40  16  17  1   
 41  16  19  1   
 42  16  47  1   
 43  17  20  1   
 44  17  48  1   
 45  18  49  1   
 46  18  50  1   
 47  19  51  1   
 48  20  21  1   
 49  20  52  1   
 50  20  53  1   
 51  21  22  2   
 52  21  23  1   
 53  22  24  1   
 54  23  25  2   
 55  23  54  1   
 56  24  25  1   
 57  24  55  1   
 58  25  26  1   
 59  26  56  1   
 60  26  57  1   
 61  26  58  1   
@<TRIPOS>SUBSTRUCTURE
  1 ****   3 GROUP 4 **** **** 0

# MOE 2024.06 (io_trps.svl 2023.06)
