@<TRIPOS>MOLECULE
NONAME
53 56 1 0 0 
SMALL
USER_CHARGES


@<TRIPOS>ATOM
  1 O        1.8620    -0.3430     3.0120 O.3   1 <1>  -0.6800 
  2 C        1.7280    -0.2850     1.6260 C.3   1 <1>   0.2000 
  3 C        2.2990    -1.5530     0.9820 C.3   1 <1>  -0.0800 
  4 C        2.6190     0.8390     1.0820 C.3   1 <1>   0.2090 
  5 C        3.7980    -1.2720     0.8700 C.3   1 <1>   0.2090 
  6 C        1.9740    -2.8850     1.6900 C.3   1 <1>  -0.0170 
  7 N        3.9080     0.1970     0.6820 N.pl3 1 <1>  -0.8380 
  8 C        2.6530    -4.0640     0.9990 C.ar  1 <1>  -0.1440 
  9 C        4.9950     0.8960     0.2710 C.ar  1 <1>   0.4100 
 10 C        2.1900    -4.6050    -0.2250 C.ar  1 <1>   0.0000 
 11 C        3.7580    -4.6350     1.5610 C.ar  1 <1>  -0.1500 
 12 N        4.8630     2.2020     0.1340 N.ar  1 <1>  -0.6200 
 13 C        6.2180     0.2520     0.0020 C.ar  1 <1>  -0.1500 
 14 C        2.9250    -5.6770    -0.7900 C.ar  1 <1>   0.3100 
 15 C        1.0430    -4.1520    -0.9180 C.ar  1 <1>  -0.1500 
 16 C        4.4040    -5.7010     0.9250 C.ar  1 <1>   0.1600 
 17 C        5.9110     2.9070    -0.2630 C.ar  1 <1>   0.7710 
 18 C        7.2800     0.9890    -0.4020 C.ar  1 <1>   0.2180 
 19 N        4.0270    -6.2100    -0.2050 N.ar  1 <1>  -0.6200 
 20 C        2.5000    -6.2230    -2.0110 C.ar  1 <1>  -0.1500 
 21 C        0.6560    -4.7080    -2.1070 C.ar  1 <1>  -0.1500 
 22 N        7.0940     2.3230    -0.5240 N.ar  1 <1>  -0.1790 
 23 N        5.7970     4.2570    -0.4100 N.pl3 1 <1>  -0.8380 
 24 C        8.6450     0.4010    -0.7150 C.3   1 <1>  -0.0970 
 25 C        1.3930    -5.7550    -2.6640 C.ar  1 <1>  -0.1500 
 26 C        4.5550     4.9760     0.0310 C.3   1 <1>   0.1290 
 27 C        6.7830     5.1830    -1.0520 C.3   1 <1>   0.1290 
 28 H        1.2080    -0.9550     3.3990 H     1 <1>   0.4000 
 29 H        0.6910    -0.1190     1.3930 H     1 <1>   0.0800 
 30 H        1.9240    -1.5970    -0.0240 H     1 <1>   0.0800 
 31 H        2.7790     1.6040     1.8220 H     1 <1>   0.0800 
 32 H        2.1660     1.2740     0.2080 H     1 <1>   0.0800 
 33 H        4.2260    -1.8110     0.0410 H     1 <1>   0.0800 
 34 H        4.2970    -1.5450     1.7840 H     1 <1>   0.0800 
 35 H        0.9100    -3.0410     1.7180 H     1 <1>   0.0800 
 36 H        2.3130    -2.8440     2.7100 H     1 <1>   0.0800 
 37 H        4.1620    -4.2880     2.4950 H     1 <1>   0.1500 
 38 H        6.2870    -0.8100     0.1260 H     1 <1>   0.1500 
 39 H        0.4560    -3.3560    -0.5050 H     1 <1>   0.1500 
 40 H        5.2710    -6.1230     1.4040 H     1 <1>   0.1500 
 41 H        3.0800    -7.0310    -2.4190 H     1 <1>   0.1500 
 42 H       -0.2180    -4.3510    -2.6260 H     1 <1>   0.1500 
 43 H        7.8360     2.9550    -0.7910 H     1 <1>   0.4570 
 44 H        8.6350    -0.6660    -0.5730 H     1 <1>   0.0800 
 45 H        9.3920     0.8180    -0.0630 H     1 <1>   0.0800 
 46 H        8.9150     0.6000    -1.7370 H     1 <1>   0.0800 
 47 H        1.0790    -6.1840    -3.6000 H     1 <1>   0.1500 
 48 H        4.8030     5.9510     0.4140 H     1 <1>   0.0800 
 49 H        4.0450     4.4380     0.8120 H     1 <1>   0.0800 
 50 H        3.8830     5.0900    -0.8040 H     1 <1>   0.0800 
 51 H        6.2630     5.8880    -1.6800 H     1 <1>   0.0800 
 52 H        7.4870     4.6550    -1.6700 H     1 <1>   0.0800 
 53 H        7.3150     5.7330    -0.2930 H     1 <1>   0.0800 
@<TRIPOS>BOND
  1   1   2  1   
  2   1  28  1   
  3   2   3  1   
  4   2   4  1   
  5   2  29  1   
  6   3   5  1   
  7   3   6  1   
  8   3  30  1   
  9   4   7  1   
 10   4  31  1   
 11   4  32  1   
 12   5   7  1   
 13   5  33  1   
 14   5  34  1   
 15   6   8  1   
 16   6  35  1   
 17   6  36  1   
 18   7   9  1   
 19   8  10  ar  
 20   8  11  ar  
 21   9  12  ar  
 22   9  13  ar  
 23  10  14  ar  
 24  10  15  ar  
 25  11  16  ar  
 26  11  37  1   
 27  12  17  ar  
 28  13  18  ar  
 29  13  38  1   
 30  14  19  ar  
 31  14  20  ar  
 32  15  21  ar  
 33  15  39  1   
 34  16  19  ar  
 35  16  40  1   
 36  17  22  ar  
 37  17  23  1   
 38  18  22  ar  
 39  18  24  1   
 40  20  25  ar  
 41  20  41  1   
 42  21  25  ar  
 43  21  42  1   
 44  22  43  1   
 45  23  26  1   
 46  23  27  1   
 47  24  44  1   
 48  24  45  1   
 49  24  46  1   
 50  25  47  1   
 51  26  48  1   
 52  26  49  1   
 53  26  50  1   
 54  27  51  1   
 55  27  52  1   
 56  27  53  1   
@<TRIPOS>SUBSTRUCTURE
  1 ****   5 GROUP 4 **** **** 0

# MOE 2024.06 (io_trps.svl 2023.06)
