@<TRIPOS>MOLECULE
NONAME
37 39 1 0 0 
SMALL
USER_CHARGES


@<TRIPOS>ATOM
  1 F       -1.0510    -1.8890     1.9100 F     1 <1>  -0.3400 
  2 C       -0.5910    -2.0710     0.6810 C.3   1 <1>   1.1640 
  3 F        0.4990    -1.3220     0.5720 F     1 <1>  -0.3400 
  4 F       -1.4880    -1.5540    -0.1450 F     1 <1>  -0.3400 
  5 C       -0.3160    -3.5570     0.3800 C.ar  1 <1>  -0.1440 
  6 C        0.9330    -4.0340     0.0360 C.ar  1 <1>  -0.1500 
  7 C       -1.3730    -4.4730     0.4560 C.ar  1 <1>  -0.1500 
  8 C        1.1550    -5.3930    -0.2330 C.ar  1 <1>   0.3610 
  9 C       -1.1750    -5.8040     0.1970 C.ar  1 <1>  -0.1500 
 10 N        2.4090    -5.8500    -0.5760 N.ar  1 <1>  -0.1790 
 11 C        0.0910    -6.3110    -0.1530 C.ar  1 <1>   0.0000 
 12 C        2.6600    -7.1450    -0.8360 C.ar  1 <1>   0.2180 
 13 C        0.3400    -7.6910    -0.4290 C.ar  1 <1>   0.1000 
 14 C        1.6430    -8.0630    -0.7650 C.ar  1 <1>  -0.1500 
 15 C        4.0780    -7.5500    -1.2020 C.3   1 <1>  -0.0970 
 16 N       -0.6600    -8.5920    -0.3560 N.pl3 1 <1>  -0.8690 
 17 C       -0.6910   -10.0500    -0.6230 C.3   1 <1>   0.2890 
 18 C       -2.0480   -10.4090    -1.2140 C.3   1 <1>   0.1200 
 19 C       -0.7660   -10.7700     0.7060 C.3   1 <1>  -0.1600 
 20 O       -2.9270   -10.3840    -0.1320 O.3   1 <1>  -0.5600 
 21 C       -2.2620   -10.7790     1.0320 C.3   1 <1>   0.1200 
 22 H        1.7640    -3.3530    -0.0310 H     1 <1>   0.1500 
 23 H       -2.3600    -4.1230     0.7220 H     1 <1>   0.1500 
 24 H       -2.0150    -6.4750     0.2650 H     1 <1>   0.1500 
 25 H        3.1660    -5.1650    -0.6290 H     1 <1>   0.4570 
 26 H        1.8500    -9.0970    -0.9670 H     1 <1>   0.1500 
 27 H        4.3960    -7.0420    -2.0960 H     1 <1>   0.0800 
 28 H        4.1360    -8.6100    -1.3830 H     1 <1>   0.0800 
 29 H        4.7560    -7.3120    -0.4020 H     1 <1>   0.0800 
 30 H       -1.6050    -8.2990    -0.0670 H     1 <1>   0.4000 
 31 H        0.1260   -10.3690    -1.2450 H     1 <1>   0.0800 
 32 H       -2.0420   -11.4080    -1.6150 H     1 <1>   0.0800 
 33 H       -2.3730    -9.7110    -1.9650 H     1 <1>   0.0800 
 34 H       -0.1820   -10.2950     1.4740 H     1 <1>   0.0800 
 35 H       -0.4300   -11.7850     0.5920 H     1 <1>   0.0800 
 36 H       -2.5030   -10.0710     1.8060 H     1 <1>   0.0800 
 37 H       -2.6060   -11.7600     1.3110 H     1 <1>   0.0800 
@<TRIPOS>BOND
  1   1   2  1   
  2   2   3  1   
  3   2   4  1   
  4   2   5  1   
  5   5   6  ar  
  6   5   7  ar  
  7   6   8  ar  
  8   6  22  1   
  9   7   9  ar  
 10   7  23  1   
 11   8  10  ar  
 12   8  11  ar  
 13   9  11  ar  
 14   9  24  1   
 15  10  12  ar  
 16  10  25  1   
 17  11  13  ar  
 18  12  14  ar  
 19  12  15  1   
 20  13  14  ar  
 21  13  16  1   
 22  14  26  1   
 23  15  27  1   
 24  15  28  1   
 25  15  29  1   
 26  16  17  1   
 27  16  30  1   
 28  17  18  1   
 29  17  19  1   
 30  17  31  1   
 31  18  20  1   
 32  18  32  1   
 33  18  33  1   
 34  19  21  1   
 35  19  34  1   
 36  19  35  1   
 37  20  21  1   
 38  21  36  1   
 39  21  37  1   
@<TRIPOS>SUBSTRUCTURE
  1 ****  11 GROUP 4 **** **** 0

# MOE 2024.06 (io_trps.svl 2023.06)
