@<TRIPOS>MOLECULE
NONAME
50 53 1 0 0 
SMALL
USER_CHARGES


@<TRIPOS>ATOM
  1 O       -0.4270    -0.6090    -0.8280 O.2   1 <1>  -0.5700 
  2 C        0.5380    -1.3440    -0.8020 C.2   1 <1>   0.6900 
  3 N        0.5780    -2.6180    -0.3010 N.am  1 <1>  -0.4770 
  4 N        1.7400    -0.9590    -1.2600 N.am  1 <1>  -0.7300 
  5 C       -0.4220    -3.3280     0.3880 C.ar  1 <1>   0.1170 
  6 C        1.9640    -3.1400    -0.4210 C.3   1 <1>   0.1400 
  7 C        2.7730    -1.9730    -1.0120 C.3   1 <1>   0.1400 
  8 C       -0.5230    -4.7080     0.2630 C.ar  1 <1>  -0.1500 
  9 C       -1.3240    -2.6770     1.2230 C.ar  1 <1>  -0.1500 
 10 C       -1.4860    -5.4490     0.9410 C.ar  1 <1>   0.0860 
 11 C       -2.2850    -3.3870     1.9180 C.ar  1 <1>  -0.1500 
 12 C       -1.5590    -6.8890     0.7730 C.2   1 <1>   0.5440 
 13 C       -2.3600    -4.7600     1.7820 C.ar  1 <1>  -0.1500 
 14 O       -0.5420    -7.5530     0.8300 O.2   1 <1>  -0.5700 
 15 N       -2.7520    -7.5310     0.5290 N.am  1 <1>  -0.6600 
 16 C       -3.9540    -6.8770    -0.0480 C.3   1 <1>   0.1400 
 17 C       -2.8320    -9.0040     0.3730 C.3   1 <1>   0.1400 
 18 C       -4.7240    -8.0040    -0.7370 C.3   1 <1>   0.2000 
 19 C       -4.2740    -9.2900    -0.0490 C.3   1 <1>  -0.0800 
 20 O       -6.0950    -7.8460    -0.5980 O.3   1 <1>  -0.6800 
 21 C       -4.4080   -10.5270    -0.9490 C.3   1 <1>   0.0200 
 22 C       -3.9150   -11.7700    -0.2310 C.2   1 <1>  -0.3320 
 23 N       -4.6100   -12.4230     0.7240 N.pl3 1 <1>   0.3000 
 24 C       -2.7520   -12.4390    -0.3830 C.2   1 <1>  -0.1500 
 25 N       -3.9310   -13.4830     1.1970 N.2   1 <1>  -0.7070 
 26 C       -2.8210   -13.4860     0.5300 C.2   1 <1>   0.1080 
 27 C       -1.7480   -14.5260     0.7490 C.3   1 <1>  -0.0590 
 28 H        1.9220     0.0130    -1.5080 H     1 <1>   0.3700 
 29 H        2.3430    -3.4230     0.5460 H     1 <1>   0.0800 
 30 H        1.9870    -3.9860    -1.0840 H     1 <1>   0.0800 
 31 H        3.2570    -2.2590    -1.9300 H     1 <1>   0.0800 
 32 H        3.4980    -1.6080    -0.3060 H     1 <1>   0.0800 
 33 H        0.1560    -5.2340    -0.3820 H     1 <1>   0.1500 
 34 H       -1.2710    -1.6080     1.3320 H     1 <1>   0.1500 
 35 H       -2.9700    -2.8660     2.5650 H     1 <1>   0.1500 
 36 H       -3.0990    -5.3110     2.3370 H     1 <1>   0.1500 
 37 H       -4.5380    -6.4460     0.7460 H     1 <1>   0.0800 
 38 H       -3.6710    -6.1180    -0.7570 H     1 <1>   0.0800 
 39 H       -2.1380    -9.3140    -0.3910 H     1 <1>   0.0800 
 40 H       -2.5830    -9.5010     1.2960 H     1 <1>   0.0800 
 41 H       -4.4880    -8.0170    -1.7880 H     1 <1>   0.0800 
 42 H       -4.8450    -9.4340     0.8510 H     1 <1>   0.0800 
 43 H       -6.3410    -7.8130     0.3460 H     1 <1>   0.4000 
 44 H       -3.8300   -10.3850    -1.8460 H     1 <1>   0.0800 
 45 H       -5.4360   -10.6590    -1.2410 H     1 <1>   0.0800 
 46 H       -5.5440   -12.1780     1.0730 H     1 <1>   0.2700 
 47 H       -1.9320   -12.2330    -1.0470 H     1 <1>   0.1500 
 48 H       -0.9140   -14.3500     0.0960 H     1 <1>   0.0800 
 49 H       -2.1520   -15.5020     0.5530 H     1 <1>   0.0800 
 50 H       -1.4140   -14.4840     1.7690 H     1 <1>   0.0800 
@<TRIPOS>BOND
  1   1   2  2   
  2   2   3  am  
  3   2   4  am  
  4   3   5  1   
  5   3   6  1   
  6   4   7  1   
  7   4  28  1   
  8   5   8  ar  
  9   5   9  ar  
 10   6   7  1   
 11   6  29  1   
 12   6  30  1   
 13   7  31  1   
 14   7  32  1   
 15   8  10  ar  
 16   8  33  1   
 17   9  11  ar  
 18   9  34  1   
 19  10  12  1   
 20  10  13  ar  
 21  11  13  ar  
 22  11  35  1   
 23  12  14  2   
 24  12  15  am  
 25  13  36  1   
 26  15  16  1   
 27  15  17  1   
 28  16  18  1   
 29  16  37  1   
 30  16  38  1   
 31  17  19  1   
 32  17  39  1   
 33  17  40  1   
 34  18  19  1   
 35  18  20  1   
 36  18  41  1   
 37  19  21  1   
 38  19  42  1   
 39  20  43  1   
 40  21  22  1   
 41  21  44  1   
 42  21  45  1   
 43  22  23  1   
 44  22  24  2   
 45  23  25  1   
 46  23  46  1   
 47  24  26  1   
 48  24  47  1   
 49  25  26  2   
 50  26  27  1   
 51  27  48  1   
 52  27  49  1   
 53  27  50  1   
@<TRIPOS>SUBSTRUCTURE
  1 ****  12 GROUP 4 **** **** 0

# MOE 2024.06 (io_trps.svl 2023.06)
