@<TRIPOS>MOLECULE
NONAME
43 44 1 0 0 
SMALL
USER_CHARGES


@<TRIPOS>ATOM
  1 O       -0.0030    -0.0980     0.2590 O.2   1 <1>  -0.5700 
  2 C        1.0180    -0.7020     0.0060 C.2   1 <1>   0.5440 
  3 N        2.2090    -0.0340    -0.1360 N.am  1 <1>  -0.4940 
  4 C        0.9760    -2.1400    -0.1830 C.ar  1 <1>   0.0860 
  5 C        2.5270     1.2980     0.1530 C.2   1 <1>   0.2040 
  6 C       -0.1080    -2.7410    -0.8210 C.ar  1 <1>  -0.1500 
  7 C        1.9980    -2.9790     0.2640 C.ar  1 <1>  -0.1500 
  8 O        1.7310     2.0760     0.8490 O.3   1 <1>  -0.0190 
  9 C        3.6230     2.0160    -0.1640 C.2   1 <1>  -0.1810 
 10 C       -0.1730    -4.1090    -1.0090 C.ar  1 <1>  -0.1500 
 11 C        1.9400    -4.3490     0.0810 C.ar  1 <1>  -0.1500 
 12 N        2.2410     3.2710     1.0150 N.2   1 <1>  -0.4100 
 13 C        3.3760     3.2610     0.4150 C.2   1 <1>   0.1080 
 14 C        4.8540     1.6120    -0.9580 C.3   1 <1>  -0.0590 
 15 C        0.8490    -4.9260    -0.5520 C.ar  1 <1>  -0.1430 
 16 C        4.2970     4.4680     0.3680 C.3   1 <1>   0.0210 
 17 C        0.7660    -6.4320    -0.7370 C.3   1 <1>   0.4860 
 18 C        5.3380     4.4200     1.4920 C.3   1 <1>  -0.2400 
 19 N        0.3820    -7.0570     0.5620 N.4   1 <1>  -0.9590 
 20 C        0.5080    -8.5450     0.5100 C.3   1 <1>   0.2630 
 21 C       -0.9940    -6.6480     0.9900 C.3   1 <1>   0.2630 
 22 H        2.9650    -0.5690    -0.5500 H     1 <1>   0.3700 
 23 H       -0.9120    -2.1120    -1.1710 H     1 <1>   0.1500 
 24 H        2.8450    -2.5520     0.7750 H     1 <1>   0.1500 
 25 H       -1.0310    -4.5200    -1.5150 H     1 <1>   0.1500 
 26 H        2.7560    -4.9550     0.4390 H     1 <1>   0.1500 
 27 H        4.7700     0.5990    -1.3030 H     1 <1>   0.0800 
 28 H        5.7320     1.6940    -0.3420 H     1 <1>   0.0800 
 29 H        4.9660     2.2550    -1.8120 H     1 <1>   0.0800 
 30 H        3.7030     5.3600     0.4710 H     1 <1>   0.0800 
 31 H        4.7890     4.5100    -0.5870 H     1 <1>   0.0800 
 32 H        1.7270    -6.8020    -1.0570 H     1 <1>   0.0800 
 33 H        0.0400    -6.6710    -1.4970 H     1 <1>   0.0800 
 34 H        4.8410     4.3950     2.4460 H     1 <1>   0.0800 
 35 H        5.9670     5.2910     1.4520 H     1 <1>   0.0800 
 36 H        5.9510     3.5420     1.3990 H     1 <1>   0.0800 
 37 H        1.0420    -6.6890     1.2630 H     1 <1>   0.4500 
 38 H       -0.1700    -8.9550    -0.2220 H     1 <1>   0.0800 
 39 H        0.2740    -8.9740     1.4720 H     1 <1>   0.0800 
 40 H        1.5140    -8.8290     0.2460 H     1 <1>   0.0800 
 41 H       -1.7260    -6.9730     0.2680 H     1 <1>   0.0800 
 42 H       -1.0550    -5.5750     1.0830 H     1 <1>   0.0800 
 43 H       -1.2350    -7.0850     1.9460 H     1 <1>   0.0800 
@<TRIPOS>BOND
  1   1   2  2   
  2   2   3  am  
  3   2   4  1   
  4   3   5  1   
  5   3  22  1   
  6   4   6  ar  
  7   4   7  ar  
  8   5   8  1   
  9   5   9  2   
 10   6  10  ar  
 11   6  23  1   
 12   7  11  ar  
 13   7  24  1   
 14   8  12  1   
 15   9  13  1   
 16   9  14  1   
 17  10  15  ar  
 18  10  25  1   
 19  11  15  ar  
 20  11  26  1   
 21  12  13  2   
 22  13  16  1   
 23  14  27  1   
 24  14  28  1   
 25  14  29  1   
 26  15  17  1   
 27  16  18  1   
 28  16  30  1   
 29  16  31  1   
 30  17  19  1   
 31  17  32  1   
 32  17  33  1   
 33  18  34  1   
 34  18  35  1   
 35  18  36  1   
 36  19  20  1   
 37  19  21  1   
 38  19  37  1   
 39  20  38  1   
 40  20  39  1   
 41  20  40  1   
 42  21  41  1   
 43  21  42  1   
 44  21  43  1   
@<TRIPOS>SUBSTRUCTURE
  1 ****   2 GROUP 4 **** **** 0

# MOE 2024.06 (io_trps.svl 2023.06)
