@<TRIPOS>MOLECULE
NONAME
51 54 1 0 0 
SMALL
USER_CHARGES


@<TRIPOS>ATOM
  1 O        4.3020     2.4370    -2.3810 O.2   1 <1>  -0.5700 
  2 C        3.4480     2.9040    -1.6630 C.2   1 <1>   0.5690 
  3 N        3.4800     2.7550    -0.3000 N.am  1 <1>  -0.6600 
  4 C        2.3320     3.6850    -2.3340 C.3   1 <1>  -0.0990 
  5 C        2.4870     3.3870     0.6340 C.3   1 <1>   0.2200 
  6 C        4.5150     1.8870     0.3410 C.3   1 <1>   0.1400 
  7 C        1.1020     3.8640    -1.4380 C.3   1 <1>  -0.1600 
  8 C        3.1640     3.9960     1.8960 C.3   1 <1>  -0.0800 
  9 C        1.5670     4.3940    -0.0830 C.3   1 <1>  -0.1600 
 10 C        5.1450     2.5440     1.5820 C.3   1 <1>  -0.0800 
 11 C        4.0360     5.2460     1.6380 C.3   1 <1>   0.1400 
 12 C        4.0410     2.9350     2.5730 C.3   1 <1>  -0.1600 
 13 C        6.0110     3.7670     1.2130 C.3   1 <1>   0.1400 
 14 N        5.1820     4.9220     0.7410 N.am  1 <1>  -0.6600 
 15 C        5.3140     5.5420    -0.4830 C.2   1 <1>   0.5690 
 16 O        4.5940     6.4660    -0.7950 O.2   1 <1>  -0.5700 
 17 C        6.3230     5.0960    -1.5320 C.3   1 <1>   0.1570 
 18 N        7.7390     5.1750    -1.0860 N.pl3 1 <1>   0.0480 
 19 C        8.6740     4.1890    -1.2500 C.2   1 <1>  -0.3320 
 20 C        8.3740     6.2230    -0.4770 C.2   1 <1>  -0.3320 
 21 C        9.8610     4.6010    -0.7380 C.2   1 <1>  -0.1500 
 22 C        8.3990     2.8530    -1.9240 C.3   1 <1>  -0.0600 
 23 C        9.6710     5.8930    -0.2470 C.2   1 <1>  -0.1500 
 24 C        7.7100     7.5460    -0.1300 C.3   1 <1>  -0.0600 
 25 H        2.7250     4.6490    -2.6010 H     1 <1>   0.0800 
 26 H        2.0500     3.1790    -3.2400 H     1 <1>   0.0800 
 27 H        1.8540     2.5860     0.9760 H     1 <1>   0.0800 
 28 H        4.0450     0.9620     0.6290 H     1 <1>   0.0800 
 29 H        5.2930     1.6470    -0.3630 H     1 <1>   0.0800 
 30 H        0.4160     4.5570    -1.8950 H     1 <1>   0.0800 
 31 H        0.6010     2.9200    -1.3110 H     1 <1>   0.0800 
 32 H        2.3860     4.2800     2.5810 H     1 <1>   0.0800 
 33 H        0.7150     4.5990     0.5390 H     1 <1>   0.0800 
 34 H        2.0790     5.3250    -0.2460 H     1 <1>   0.0800 
 35 H        5.7880     1.8160     2.0460 H     1 <1>   0.0800 
 36 H        4.4320     5.6020     2.5730 H     1 <1>   0.0800 
 37 H        3.4410     6.0440     1.2320 H     1 <1>   0.0800 
 38 H        4.4760     3.3290     3.4750 H     1 <1>   0.0800 
 39 H        3.4520     2.0730     2.8350 H     1 <1>   0.0800 
 40 H        6.7240     3.4690     0.4700 H     1 <1>   0.0800 
 41 H        6.5670     4.0860     2.0780 H     1 <1>   0.0800 
 42 H        6.2150     5.7140    -2.4020 H     1 <1>   0.0800 
 43 H        6.0920     4.0900    -1.8110 H     1 <1>   0.0800 
 44 H       10.7930     4.0640    -0.7070 H     1 <1>   0.1500 
 45 H        9.2950     2.2600    -1.9480 H     1 <1>   0.0800 
 46 H        8.0680     3.0090    -2.9350 H     1 <1>   0.0800 
 47 H        7.6420     2.3060    -1.3910 H     1 <1>   0.0800 
 48 H       10.4330     6.4940     0.2170 H     1 <1>   0.1500 
 49 H        8.4480     8.2530     0.2030 H     1 <1>   0.0800 
 50 H        6.9930     7.4100     0.6590 H     1 <1>   0.0800 
 51 H        7.2120     7.9520    -0.9920 H     1 <1>   0.0800 
@<TRIPOS>BOND
  1   1   2  2   
  2   2   3  am  
  3   2   4  1   
  4   3   5  1   
  5   3   6  1   
  6   4   7  1   
  7   4  25  1   
  8   4  26  1   
  9   5   8  1   
 10   5   9  1   
 11   5  27  1   
 12   6  10  1   
 13   6  28  1   
 14   6  29  1   
 15   7   9  1   
 16   7  30  1   
 17   7  31  1   
 18   8  11  1   
 19   8  12  1   
 20   8  32  1   
 21   9  33  1   
 22   9  34  1   
 23  10  12  1   
 24  10  13  1   
 25  10  35  1   
 26  11  14  1   
 27  11  36  1   
 28  11  37  1   
 29  12  38  1   
 30  12  39  1   
 31  13  14  1   
 32  13  40  1   
 33  13  41  1   
 34  14  15  am  
 35  15  16  2   
 36  15  17  1   
 37  17  18  1   
 38  17  42  1   
 39  17  43  1   
 40  18  19  1   
 41  18  20  1   
 42  19  21  2   
 43  19  22  1   
 44  20  23  2   
 45  20  24  1   
 46  21  23  1   
 47  21  44  1   
 48  22  45  1   
 49  22  46  1   
 50  22  47  1   
 51  23  48  1   
 52  24  49  1   
 53  24  50  1   
 54  24  51  1   
@<TRIPOS>SUBSTRUCTURE
  1 ****  14 GROUP 4 **** **** 0

# MOE 2024.06 (io_trps.svl 2023.06)
