@<TRIPOS>MOLECULE
NONAME
50 52 1 0 0 
SMALL
USER_CHARGES


@<TRIPOS>ATOM
  1 F       -3.3500     2.5130    -2.8390 F     1 <1>  -0.1900 
  2 C       -3.2390     2.1950    -1.5740 C.ar  1 <1>   0.1900 
  3 C       -4.1130     1.2870    -0.9630 C.ar  1 <1>   0.0820 
  4 C       -2.2190     2.8140    -0.8780 C.ar  1 <1>  -0.1500 
  5 O       -5.1480     0.6270    -1.5650 O.3   1 <1>  -0.3630 
  6 C       -3.9300     1.0240     0.3940 C.ar  1 <1>  -0.1440 
  7 C       -2.0520     2.5340     0.4660 C.ar  1 <1>  -0.1500 
  8 C       -5.4040     0.6840    -2.9540 C.3   1 <1>   0.0400 
  9 C       -2.9050     1.6440     1.0970 C.ar  1 <1>  -0.1500 
 10 C       -4.8590     0.0580     1.1080 C.3   1 <1>   0.4870 
 11 N       -6.2320     0.6160     1.0860 N.4   1 <1>  -0.9590 
 12 C       -6.3660     1.9370     1.7620 C.3   1 <1>   0.3430 
 13 C       -7.2940    -0.3460     1.4530 C.3   1 <1>   0.3430 
 14 C       -7.8190     2.4320     1.7260 C.3   1 <1>  -0.1600 
 15 C       -8.6640     0.1960     1.0240 C.3   1 <1>  -0.1600 
 16 C       -8.6820     1.7010     0.6810 C.3   1 <1>   0.2800 
 17 O       -8.0570     1.8170    -0.5780 O.3   1 <1>  -0.5600 
 18 C      -10.1300     2.2500     0.6230 C.3   1 <1>  -0.1600 
 19 C       -8.2710     3.0000    -1.2980 C.3   1 <1>   0.1200 
 20 C      -10.6870     2.3090    -0.8020 C.3   1 <1>   0.2800 
 21 C       -9.7520     3.1410    -1.6870 C.3   1 <1>  -0.1600 
 22 O      -10.6900     1.0350    -1.3050 O.3   1 <1>  -0.6800 
 23 C      -12.1290     2.8030    -0.8500 C.3   1 <1>  -0.2400 
 24 H       -1.5650     3.5040    -1.3820 H     1 <1>   0.1500 
 25 H       -1.2570     3.0090     1.0180 H     1 <1>   0.1500 
 26 H       -6.2290     0.0300    -3.1730 H     1 <1>   0.0800 
 27 H       -4.5290     0.3570    -3.4880 H     1 <1>   0.0800 
 28 H       -5.6630     1.6930    -3.2230 H     1 <1>   0.0800 
 29 H       -2.7520     1.4390     2.1450 H     1 <1>   0.1500 
 30 H       -4.5330    -0.0960     2.1230 H     1 <1>   0.0800 
 31 H       -4.8400    -0.8880     0.5910 H     1 <1>   0.0800 
 32 H       -6.4100     0.8330     0.0810 H     1 <1>   0.4500 
 33 H       -5.7430     2.6530     1.2490 H     1 <1>   0.0800 
 34 H       -6.0310     1.8710     2.7840 H     1 <1>   0.0800 
 35 H       -7.2840    -0.5020     2.5200 H     1 <1>   0.0800 
 36 H       -7.1210    -1.2940     0.9690 H     1 <1>   0.0800 
 37 H       -7.8270     3.4930     1.5560 H     1 <1>   0.0800 
 38 H       -8.2530     2.2780     2.6980 H     1 <1>   0.0800 
 39 H       -9.3460     0.0020     1.8320 H     1 <1>   0.0800 
 40 H       -9.0220    -0.3730     0.1850 H     1 <1>   0.0800 
 41 H      -10.1460     3.2490     1.0200 H     1 <1>   0.0800 
 42 H      -10.7890     1.6740     1.2470 H     1 <1>   0.0800 
 43 H       -7.6550     2.9700    -2.1800 H     1 <1>   0.0800 
 44 H       -7.9560     3.8330    -0.6930 H     1 <1>   0.0800 
 45 H       -9.8930     2.8790    -2.7210 H     1 <1>   0.0800 
 46 H      -10.0090     4.1810    -1.5980 H     1 <1>   0.0800 
 47 H       -9.7570     0.7870    -1.4640 H     1 <1>   0.4000 
 48 H      -12.1980     3.8010    -0.4570 H     1 <1>   0.0800 
 49 H      -12.7630     2.1620    -0.2650 H     1 <1>   0.0800 
 50 H      -12.4850     2.8120    -1.8650 H     1 <1>   0.0800 
@<TRIPOS>BOND
  1   1   2  1   
  2   2   3  ar  
  3   2   4  ar  
  4   3   5  1   
  5   3   6  ar  
  6   4   7  ar  
  7   4  24  1   
  8   5   8  1   
  9   6   9  ar  
 10   6  10  1   
 11   7   9  ar  
 12   7  25  1   
 13   8  26  1   
 14   8  27  1   
 15   8  28  1   
 16   9  29  1   
 17  10  11  1   
 18  10  30  1   
 19  10  31  1   
 20  11  12  1   
 21  11  13  1   
 22  11  32  1   
 23  12  14  1   
 24  12  33  1   
 25  12  34  1   
 26  13  15  1   
 27  13  35  1   
 28  13  36  1   
 29  14  16  1   
 30  14  37  1   
 31  14  38  1   
 32  15  16  1   
 33  15  39  1   
 34  15  40  1   
 35  16  17  1   
 36  16  18  1   
 37  17  19  1   
 38  18  20  1   
 39  18  41  1   
 40  18  42  1   
 41  19  21  1   
 42  19  43  1   
 43  19  44  1   
 44  20  21  1   
 45  20  22  1   
 46  20  23  1   
 47  21  45  1   
 48  21  46  1   
 49  22  47  1   
 50  23  48  1   
 51  23  49  1   
 52  23  50  1   
@<TRIPOS>SUBSTRUCTURE
  1 ****  17 GROUP 4 **** **** 0

# MOE 2024.06 (io_trps.svl 2023.06)
