@<TRIPOS>MOLECULE
NONAME
43 45 1 0 0 
SMALL
USER_CHARGES


@<TRIPOS>ATOM
  1 O       -0.4650    -1.8880     2.6440 O.3   1 <1>  -0.8290 
  2 C       -0.5370    -2.8880     1.8930 C.ar  1 <1>   0.1390 
  3 N       -0.5480    -4.1290     2.4380 N.ar  1 <1>  -0.3100 
  4 C       -0.6050    -2.6920     0.5170 C.ar  1 <1>  -0.1500 
  5 N       -0.6240    -5.1850     1.6640 N.ar  1 <1>  -0.3100 
  6 C       -0.6860    -3.7960    -0.2810 C.ar  1 <1>  -0.1500 
  7 C       -0.6930    -5.0300     0.3470 C.ar  1 <1>   0.1670 
  8 C       -0.7910    -6.3010    -0.4740 C.3   1 <1>  -0.0160 
  9 C       -2.1920    -6.9130    -0.3540 C.3   1 <1>  -0.0990 
 10 C       -2.2630    -8.2470    -1.0560 C.2   1 <1>   0.5690 
 11 O       -2.5860    -8.2910    -2.2180 O.2   1 <1>  -0.5700 
 12 N       -1.9630    -9.3640    -0.3530 N.am  1 <1>  -0.7300 
 13 C       -1.9740   -10.7410    -0.8970 C.3   1 <1>   0.2200 
 14 C       -3.1790   -11.5240    -0.3930 C.3   1 <1>  -0.0800 
 15 C       -0.8400   -11.5320    -0.2580 C.3   1 <1>   0.1200 
 16 C       -2.7070   -12.0480     0.9680 C.3   1 <1>   0.1200 
 17 C       -4.5120   -10.7540    -0.3500 C.3   1 <1>  -0.0160 
 18 O       -1.3170   -11.8980     1.0010 O.3   1 <1>  -0.5600 
 19 C       -5.6500   -11.6630     0.0880 C.ar  1 <1>  -0.1430 
 20 C       -6.2730   -12.5210    -0.7950 C.ar  1 <1>  -0.1500 
 21 C       -6.1180   -11.6800     1.3860 C.ar  1 <1>  -0.1500 
 22 C       -7.3000   -13.3360    -0.3490 C.ar  1 <1>   0.1600 
 23 C       -7.1520   -12.5350     1.7300 C.ar  1 <1>   0.1600 
 24 N       -7.7530   -13.3650     0.8940 N.ar  1 <1>  -0.6200 
 25 H       -0.5920    -1.6860     0.1480 H     1 <1>   0.1500 
 26 H       -0.7440    -3.7060    -1.3480 H     1 <1>   0.1500 
 27 H       -0.5740    -6.0950    -1.5070 H     1 <1>   0.0800 
 28 H       -0.0550    -6.9980    -0.1140 H     1 <1>   0.0800 
 29 H       -2.9140    -6.2460    -0.7890 H     1 <1>   0.0800 
 30 H       -2.4470    -7.0430     0.6820 H     1 <1>   0.0800 
 31 H       -1.6930    -9.3020     0.6330 H     1 <1>   0.3700 
 32 H       -1.9070   -10.7260    -1.9720 H     1 <1>   0.0800 
 33 H       -3.3070   -12.3770    -1.0370 H     1 <1>   0.0800 
 34 H        0.0640   -10.9590    -0.1540 H     1 <1>   0.0800 
 35 H       -0.6440   -12.4340    -0.8120 H     1 <1>   0.0800 
 36 H       -2.9520   -13.0880     1.1020 H     1 <1>   0.0800 
 37 H       -3.1150   -11.4720     1.7800 H     1 <1>   0.0800 
 38 H       -4.7270   -10.3570    -1.3270 H     1 <1>   0.0800 
 39 H       -4.4440    -9.9210     0.3270 H     1 <1>   0.0800 
 40 H       -5.9700   -12.5640    -1.8250 H     1 <1>   0.1500 
 41 H       -5.6900   -11.0380     2.1350 H     1 <1>   0.1500 
 42 H       -7.7740   -13.9990    -1.0520 H     1 <1>   0.1500 
 43 H       -7.5040   -12.5350     2.7480 H     1 <1>   0.1500 
@<TRIPOS>BOND
  1   1   2  1   
  2   2   3  ar  
  3   2   4  ar  
  4   3   5  ar  
  5   4   6  ar  
  6   4  25  1   
  7   5   7  ar  
  8   6   7  ar  
  9   6  26  1   
 10   7   8  1   
 11   8   9  1   
 12   8  27  1   
 13   8  28  1   
 14   9  10  1   
 15   9  29  1   
 16   9  30  1   
 17  10  11  2   
 18  10  12  am  
 19  12  13  1   
 20  12  31  1   
 21  13  14  1   
 22  13  15  1   
 23  13  32  1   
 24  14  16  1   
 25  14  17  1   
 26  14  33  1   
 27  15  18  1   
 28  15  34  1   
 29  15  35  1   
 30  16  18  1   
 31  16  36  1   
 32  16  37  1   
 33  17  19  1   
 34  17  38  1   
 35  17  39  1   
 36  19  20  ar  
 37  19  21  ar  
 38  20  22  ar  
 39  20  40  1   
 40  21  23  ar  
 41  21  41  1   
 42  22  24  ar  
 43  22  42  1   
 44  23  24  ar  
 45  23  43  1   
@<TRIPOS>SUBSTRUCTURE
  1 ****  12 GROUP 4 **** **** 0

# MOE 2024.06 (io_trps.svl 2023.06)
