@<TRIPOS>MOLECULE
NONAME
42 45 1 0 0 
SMALL
USER_CHARGES


@<TRIPOS>ATOM
  1 F        0.9250    -0.1590    -1.4190 F     1 <1>  -0.1900 
  2 C        1.6390     0.8470    -0.9550 C.ar  1 <1>   0.1900 
  3 C        2.8050     0.6390    -0.2200 C.ar  1 <1>   0.4100 
  4 C        1.2310     2.1250    -1.2140 C.ar  1 <1>   0.1600 
  5 N        3.4990     1.6790     0.2060 N.ar  1 <1>  -0.6200 
  6 N        3.3000    -0.6200     0.1000 N.pl3 1 <1>  -0.8380 
  7 N        1.9160     3.1670    -0.7840 N.ar  1 <1>  -0.6200 
  8 C        3.0110     2.8700    -0.0910 C.ar  1 <1>   0.7200 
  9 C        2.4540    -1.5610     0.8930 C.3   1 <1>   0.2090 
 10 C        4.7540    -0.7960     0.3980 C.3   1 <1>   0.2090 
 11 N        3.7490     3.8930     0.3820 N.pl3 1 <1>  -0.8690 
 12 C        2.9760    -3.0040     0.7650 C.3   1 <1>   0.1200 
 13 C        5.1580    -2.2780     0.3050 C.3   1 <1>   0.1200 
 14 C        3.9330     5.1340    -0.3820 C.3   1 <1>   0.3530 
 15 O        4.3330    -3.0800     1.1070 O.3   1 <1>  -0.5600 
 16 C        5.4220     5.4230    -0.4230 C.ar  1 <1>  -0.1430 
 17 C        6.0070     6.2060     0.5610 C.ar  1 <1>  -0.1500 
 18 C        6.2040     4.8850    -1.4480 C.ar  1 <1>  -0.1500 
 19 C        7.3710     6.4400     0.5020 C.ar  1 <1>   0.1170 
 20 C        7.5670     5.1220    -1.5050 C.ar  1 <1>  -0.1500 
 21 N        8.2220     7.1620     1.3250 N.am  1 <1>  -0.5470 
 22 C        8.1420     5.9060    -0.5180 C.ar  1 <1>   0.1170 
 23 C        9.4740     7.0710     0.8210 C.2   1 <1>   0.6900 
 24 N        9.4500     6.3130    -0.2990 N.am  1 <1>  -0.5470 
 25 O       10.4650     7.5870     1.3000 O.2   1 <1>  -0.5700 
 26 H        0.3330     2.2990    -1.7810 H     1 <1>   0.1500 
 27 H        1.4330    -1.5240     0.5580 H     1 <1>   0.0800 
 28 H        2.4750    -1.2700     1.9290 H     1 <1>   0.0800 
 29 H        4.9640    -0.4290     1.3880 H     1 <1>   0.0800 
 30 H        5.3380    -0.2220    -0.3010 H     1 <1>   0.0800 
 31 H        4.6200     3.5510     0.7850 H     1 <1>   0.4000 
 32 H        2.8550    -3.3560    -0.2450 H     1 <1>   0.0800 
 33 H        2.4340    -3.6540     1.4270 H     1 <1>   0.0800 
 34 H        6.1710    -2.4070     0.6440 H     1 <1>   0.0800 
 35 H        5.0860    -2.6210    -0.7120 H     1 <1>   0.0800 
 36 H        3.4030     5.9340     0.1070 H     1 <1>   0.0800 
 37 H        3.5480     5.0320    -1.3830 H     1 <1>   0.0800 
 38 H        5.4270     6.6240     1.3640 H     1 <1>   0.1500 
 39 H        5.7420     4.2700    -2.2030 H     1 <1>   0.1500 
 40 H        8.1730     4.7110    -2.2910 H     1 <1>   0.1500 
 41 H        8.0070     7.6830     2.1710 H     1 <1>   0.3700 
 42 H       10.2830     6.1120    -0.8460 H     1 <1>   0.3700 
@<TRIPOS>BOND
  1   1   2  1   
  2   2   3  ar  
  3   2   4  ar  
  4   3   5  ar  
  5   3   6  1   
  6   4   7  ar  
  7   4  26  1   
  8   5   8  ar  
  9   6   9  1   
 10   6  10  1   
 11   7   8  ar  
 12   8  11  1   
 13   9  12  1   
 14   9  27  1   
 15   9  28  1   
 16  10  13  1   
 17  10  29  1   
 18  10  30  1   
 19  11  14  1   
 20  11  31  1   
 21  12  15  1   
 22  12  32  1   
 23  12  33  1   
 24  13  15  1   
 25  13  34  1   
 26  13  35  1   
 27  14  16  1   
 28  14  36  1   
 29  14  37  1   
 30  16  17  ar  
 31  16  18  ar  
 32  17  19  ar  
 33  17  38  1   
 34  18  20  ar  
 35  18  39  1   
 36  19  21  1   
 37  19  22  ar  
 38  20  22  ar  
 39  20  40  1   
 40  21  23  am  
 41  21  41  1   
 42  22  24  1   
 43  23  24  am  
 44  23  25  2   
 45  24  42  1   
@<TRIPOS>SUBSTRUCTURE
  1 ****  11 GROUP 4 **** **** 0

# MOE 2024.06 (io_trps.svl 2023.06)
