@<TRIPOS>MOLECULE
NONAME
31 33 1 0 0 
SMALL
USER_CHARGES


@<TRIPOS>ATOM
  1 CL      -0.6040    -0.0300     0.7850 Cl    1 <1>  -0.1770 
  2 C       -1.9390    -0.9680     0.1680 C.ar  1 <1>   0.1770 
  3 C       -1.9000    -2.3450     0.2630 C.ar  1 <1>  -0.1500 
  4 C       -3.0140    -0.3150    -0.4050 C.ar  1 <1>  -0.1500 
  5 C       -2.9570    -3.1140    -0.2170 C.ar  1 <1>   0.0860 
  6 C       -4.0700    -1.0630    -0.8950 C.ar  1 <1>  -0.1500 
  7 C       -2.9230    -4.5610    -0.1230 C.2   1 <1>   0.5440 
  8 C       -4.0340    -2.4440    -0.8030 C.ar  1 <1>  -0.1500 
  9 O       -1.9980    -5.1620    -0.6380 O.2   1 <1>  -0.5700 
 10 N       -3.8970    -5.2630     0.5360 N.am  1 <1>  -0.6600 
 11 C       -5.0130    -4.6900     1.3420 C.3   1 <1>   0.2350 
 12 C       -4.2080    -6.6900     0.2380 C.3   1 <1>   0.2350 
 13 C       -6.2290    -5.5120     0.9650 C.3   1 <1>  -0.2420 
 14 C       -5.7270    -6.7750     0.3060 C.3   1 <1>  -0.2420 
 15 C       -7.3730    -5.2220     1.9380 C.2   1 <1>   0.9470 
 16 C       -6.5750    -5.8040    -0.4750 C.3   1 <1>  -0.2000 
 17 C       -6.1880    -8.2280     0.4450 C.2   1 <1>   0.9470 
 18 O       -8.4320    -4.7490     1.5030 O.co2 1 <1>  -0.9000 
 19 O       -7.1540    -5.2840     3.1550 O.co2 1 <1>  -0.9000 
 20 O       -6.9610    -8.7060    -0.3970 O.co2 1 <1>  -0.9000 
 21 O       -5.6590    -8.9440     1.3070 O.co2 1 <1>  -0.9000 
 22 H       -1.0510    -2.8320     0.7080 H     1 <1>   0.1500 
 23 H       -3.0200     0.7590    -0.4640 H     1 <1>   0.1500 
 24 H       -4.9180    -0.5760    -1.3450 H     1 <1>   0.1500 
 25 H       -4.8560    -3.0270    -1.1850 H     1 <1>   0.1500 
 26 H       -4.7970    -4.8250     2.3880 H     1 <1>   0.0800 
 27 H       -5.1860    -3.6490     1.1490 H     1 <1>   0.0800 
 28 H       -3.8490    -6.9780    -0.7340 H     1 <1>   0.0800 
 29 H       -3.7630    -7.3170     0.9910 H     1 <1>   0.0800 
 30 H       -6.1290    -5.2300    -1.2640 H     1 <1>   0.1000 
 31 H       -7.5880    -6.0950    -0.6990 H     1 <1>   0.1000 
@<TRIPOS>BOND
  1   1   2  1   
  2   2   3  ar  
  3   2   4  ar  
  4   3   5  ar  
  5   3  22  1   
  6   4   6  ar  
  7   4  23  1   
  8   5   7  1   
  9   5   8  ar  
 10   6   8  ar  
 11   6  24  1   
 12   7   9  2   
 13   7  10  am  
 14   8  25  1   
 15  10  11  1   
 16  10  12  1   
 17  11  13  1   
 18  11  26  1   
 19  11  27  1   
 20  12  14  1   
 21  12  28  1   
 22  12  29  1   
 23  13  14  1   
 24  13  15  1   
 25  13  16  1   
 26  14  16  1   
 27  14  17  1   
 28  15  18  ar  
 29  15  19  ar  
 30  16  30  1   
 31  16  31  1   
 32  17  20  ar  
 33  17  21  ar  
@<TRIPOS>SUBSTRUCTURE
  1 ****  10 GROUP 4 **** **** 0

# MOE 2024.06 (io_trps.svl 2023.06)
