@<TRIPOS>MOLECULE
NONAME
51 53 1 0 0 
SMALL
USER_CHARGES


@<TRIPOS>ATOM
  1 O        0.0170     0.8320     0.3610 O.2   1 <1>  -0.5700 
  2 C       -0.1400     1.9970     0.0820 C.2   1 <1>   0.5690 
  3 N       -0.9360     2.8290     0.8250 N.am  1 <1>  -0.6600 
  4 C        0.5710     2.5440    -1.1570 C.3   1 <1>   0.1810 
  5 C       -1.1190     4.2680     0.4480 C.3   1 <1>   0.3640 
  6 C       -1.5970     2.3880     2.0880 C.3   1 <1>   0.0600 
  7 O        0.7820     3.9320    -1.0880 O.3   1 <1>  -0.5600 
  8 C       -2.6020     4.6680     0.4120 C.ar  1 <1>  -0.1430 
  9 C       -0.4020     4.6800    -0.8630 C.3   1 <1>   0.2610 
 10 C       -3.6000     3.9730    -0.2800 C.ar  1 <1>  -0.1430 
 11 C       -2.9510     5.8130     1.1190 C.ar  1 <1>  -0.1500 
 12 C       -0.1270     6.1900    -0.8510 C.2   1 <1>   0.5690 
 13 C       -4.9080     4.4350    -0.2350 C.ar  1 <1>  -0.1500 
 14 C       -3.3430     2.7080    -1.0940 C.3   1 <1>  -0.0960 
 15 C       -4.2560     6.2640     1.1540 C.ar  1 <1>  -0.1500 
 16 O       -0.7590     6.8610    -1.6340 O.2   1 <1>  -0.5700 
 17 N        0.7780     6.7800     0.0090 N.am  1 <1>  -0.6600 
 18 C       -5.2380     5.5720     0.4760 C.ar  1 <1>  -0.1500 
 19 C        1.7610     6.0670     0.8850 C.3   1 <1>   0.1400 
 20 C        1.0690     8.2460    -0.0590 C.3   1 <1>   0.1400 
 21 C        3.2010     6.4070     0.4550 C.3   1 <1>   0.2000 
 22 C        2.5480     8.4860    -0.4240 C.3   1 <1>   0.2000 
 23 O        3.3840     7.7920     0.4570 O.3   1 <1>  -0.5600 
 24 C        4.2380     5.8200     1.4090 C.3   1 <1>  -0.2400 
 25 C        2.9290     9.9600    -0.3310 C.3   1 <1>  -0.2400 
 26 H       -0.0100     2.3280    -2.0350 H     1 <1>   0.0800 
 27 H        1.5310     2.0720    -1.2520 H     1 <1>   0.0800 
 28 H       -0.6620     4.8320     1.2400 H     1 <1>   0.0800 
 29 H       -1.2940     3.0240     2.9010 H     1 <1>   0.0800 
 30 H       -1.3260     1.3740     2.3260 H     1 <1>   0.0800 
 31 H       -2.6660     2.4400     1.9820 H     1 <1>   0.0800 
 32 H       -1.0550     4.4900    -1.6940 H     1 <1>   0.0800 
 33 H       -2.2040     6.3770     1.6510 H     1 <1>   0.1500 
 34 H       -5.6870     3.9090    -0.7570 H     1 <1>   0.1500 
 35 H       -4.1870     2.4770    -1.7190 H     1 <1>   0.0800 
 36 H       -3.1800     1.8730    -0.4370 H     1 <1>   0.0800 
 37 H       -2.4910     2.8230    -1.7330 H     1 <1>   0.0800 
 38 H       -4.5070     7.1540     1.7050 H     1 <1>   0.1500 
 39 H       -6.2570     5.9180     0.4990 H     1 <1>   0.1500 
 40 H        1.6170     6.3840     1.9030 H     1 <1>   0.0800 
 41 H        1.6280     5.0040     0.8540 H     1 <1>   0.0800 
 42 H        0.4430     8.7290    -0.7890 H     1 <1>   0.0800 
 43 H        0.8600     8.6920     0.8970 H     1 <1>   0.0800 
 44 H        3.3800     6.0410    -0.5420 H     1 <1>   0.0800 
 45 H        2.7370     8.1280    -1.4230 H     1 <1>   0.0800 
 46 H        4.0930     6.2030     2.4020 H     1 <1>   0.0800 
 47 H        5.2260     6.0750     1.0710 H     1 <1>   0.0800 
 48 H        4.1530     4.7490     1.4320 H     1 <1>   0.0800 
 49 H        2.7790    10.3230     0.6700 H     1 <1>   0.0800 
 50 H        2.3270    10.5400    -1.0060 H     1 <1>   0.0800 
 51 H        3.9620    10.0860    -0.6020 H     1 <1>   0.0800 
@<TRIPOS>BOND
  1   1   2  2   
  2   2   3  am  
  3   2   4  1   
  4   3   5  1   
  5   3   6  1   
  6   4   7  1   
  7   4  26  1   
  8   4  27  1   
  9   5   8  1   
 10   5   9  1   
 11   5  28  1   
 12   6  29  1   
 13   6  30  1   
 14   6  31  1   
 15   7   9  1   
 16   8  10  ar  
 17   8  11  ar  
 18   9  12  1   
 19   9  32  1   
 20  10  13  ar  
 21  10  14  1   
 22  11  15  ar  
 23  11  33  1   
 24  12  16  2   
 25  12  17  am  
 26  13  18  ar  
 27  13  34  1   
 28  14  35  1   
 29  14  36  1   
 30  14  37  1   
 31  15  18  ar  
 32  15  38  1   
 33  17  19  1   
 34  17  20  1   
 35  18  39  1   
 36  19  21  1   
 37  19  40  1   
 38  19  41  1   
 39  20  22  1   
 40  20  42  1   
 41  20  43  1   
 42  21  23  1   
 43  21  24  1   
 44  21  44  1   
 45  22  23  1   
 46  22  25  1   
 47  22  45  1   
 48  24  46  1   
 49  24  47  1   
 50  24  48  1   
 51  25  49  1   
 52  25  50  1   
 53  25  51  1   
@<TRIPOS>SUBSTRUCTURE
  1 ****   9 GROUP 4 **** **** 0

# MOE 2024.06 (io_trps.svl 2023.06)
