@<TRIPOS>MOLECULE
NONAME
39 41 1 0 0 
SMALL
USER_CHARGES


@<TRIPOS>ATOM
  1 S        0.2840     0.9140     0.5090 S.3   1 <1>  -0.4600 
  2 C        1.9870     1.2790     1.0530 C.3   1 <1>   0.2510 
  3 C       -0.4500     0.0840     1.9430 C.3   1 <1>  -0.0100 
  4 C        2.7380     2.0510    -0.0210 C.2   1 <1>   0.3350 
  5 N        3.5950     1.5460    -0.8170 N.2   1 <1>  -0.4100 
  6 N        2.5610     3.3550    -0.1950 N.2   1 <1>  -0.5650 
  7 O        4.0250     2.5070    -1.5760 O.3   1 <1>  -0.0190 
  8 C        3.3750     3.5630    -1.1520 C.2   1 <1>   0.2980 
  9 C        3.6140     4.9030    -1.8460 C.3   1 <1>   0.2900 
 10 N        4.8480     5.6160    -1.4180 N.3   1 <1>  -0.8100 
 11 C        4.8260     7.0280    -1.8830 C.3   1 <1>   0.2900 
 12 C        6.0760     4.9050    -1.8170 C.3   1 <1>   0.0300 
 13 C        5.9090     7.9190    -1.2760 C.2   1 <1>   0.2980 
 14 O        7.1080     7.8890    -1.7970 O.3   1 <1>  -0.0190 
 15 N        5.7580     8.7350    -0.3130 N.2   1 <1>  -0.5650 
 16 N        7.7810     8.7480    -1.1000 N.2   1 <1>  -0.4100 
 17 C        6.9890     9.2460    -0.2170 C.2   1 <1>   0.4620 
 18 C        7.3470    10.2440     0.7720 C.ar  1 <1>   0.0540 
 19 C        8.6140    10.8100     0.8360 C.ar  1 <1>  -0.1500 
 20 C        6.4580    10.7140     1.7300 C.ar  1 <1>  -0.1500 
 21 C        8.9110    11.7610     1.7940 C.ar  1 <1>   0.1600 
 22 C        6.8530    11.6690     2.6470 C.ar  1 <1>   0.1600 
 23 N        8.0600    12.2070     2.7030 N.ar  1 <1>  -0.6200 
 24 H        2.4680     0.3390     1.2480 H     1 <1>   0.0800 
 25 H        1.9220     1.8590     1.9550 H     1 <1>   0.0800 
 26 H       -1.4650    -0.1660     1.6900 H     1 <1>   0.0800 
 27 H       -0.4210     0.7660     2.7740 H     1 <1>   0.0800 
 28 H        0.1230    -0.8030     2.1450 H     1 <1>   0.0800 
 29 H        2.7620     5.5200    -1.6200 H     1 <1>   0.0800 
 30 H        3.6330     4.7450    -2.9100 H     1 <1>   0.0800 
 31 H        3.8790     7.4630    -1.6120 H     1 <1>   0.0800 
 32 H        4.9080     7.0600    -2.9550 H     1 <1>   0.0800 
 33 H        6.0830     3.9100    -1.4080 H     1 <1>   0.0800 
 34 H        6.9440     5.4080    -1.4290 H     1 <1>   0.0800 
 35 H        6.1520     4.8450    -2.8900 H     1 <1>   0.0800 
 36 H        9.3720    10.5090     0.1370 H     1 <1>   0.1500 
 37 H        5.4530    10.3330     1.7610 H     1 <1>   0.1500 
 38 H        9.9030    12.1800     1.8150 H     1 <1>   0.1500 
 39 H        6.1370    12.0110     3.3760 H     1 <1>   0.1500 
@<TRIPOS>BOND
  1   1   2  1   
  2   1   3  1   
  3   2   4  1   
  4   2  24  1   
  5   2  25  1   
  6   3  26  1   
  7   3  27  1   
  8   3  28  1   
  9   4   5  2   
 10   4   6  1   
 11   5   7  1   
 12   6   8  2   
 13   7   8  1   
 14   8   9  1   
 15   9  10  1   
 16   9  29  1   
 17   9  30  1   
 18  10  11  1   
 19  10  12  1   
 20  11  13  1   
 21  11  31  1   
 22  11  32  1   
 23  12  33  1   
 24  12  34  1   
 25  12  35  1   
 26  13  14  1   
 27  13  15  2   
 28  14  16  1   
 29  15  17  1   
 30  16  17  2   
 31  17  18  1   
 32  18  19  ar  
 33  18  20  ar  
 34  19  21  ar  
 35  19  36  1   
 36  20  22  ar  
 37  20  37  1   
 38  21  23  ar  
 39  21  38  1   
 40  22  23  ar  
 41  22  39  1   
@<TRIPOS>SUBSTRUCTURE
  1 ****  10 GROUP 4 **** **** 0

# MOE 2024.06 (io_trps.svl 2023.06)
