@<TRIPOS>MOLECULE
NONAME
41 42 1 0 0 
SMALL
USER_CHARGES


@<TRIPOS>ATOM
  1 O       -0.1330    -0.0430     0.4220 O.2   1 <1>  -0.5700 
  2 C        0.7650    -0.4660    -0.2620 C.2   1 <1>   0.5690 
  3 N        1.8250     0.2840    -0.6880 N.am  1 <1>  -0.4940 
  4 C        0.7210    -1.9240    -0.6570 C.3   1 <1>  -0.0990 
  5 C        2.1940     1.6250    -0.4120 C.2   1 <1>  -0.0880 
  6 C        0.5950    -2.8040     0.5910 C.3   1 <1>   0.0960 
  7 N        1.3810     2.6960    -0.1820 N.pl3 1 <1>   0.3140 
  8 C        3.4640     2.0940    -0.3420 C.2   1 <1>  -0.1810 
  9 N        0.5830    -4.2270     0.2020 N.pl3 1 <1>   0.0480 
 10 N        2.0980     3.8190     0.0330 N.2   1 <1>  -0.7070 
 11 C       -0.0840     2.7800    -0.2360 C.3   1 <1>   0.0160 
 12 C        3.3340     3.4500    -0.0580 C.2   1 <1>   0.1080 
 13 C        4.7650     1.3280    -0.5220 C.3   1 <1>   0.0210 
 14 C       -0.4760    -5.0220    -0.0930 C.2   1 <1>   0.0060 
 15 C        1.6600    -5.0150     0.0310 C.2   1 <1>  -0.3020 
 16 C        4.4700     4.4310     0.1310 C.3   1 <1>  -0.0590 
 17 C        5.2210     0.7340     0.8110 C.3   1 <1>  -0.2400 
 18 N       -0.1440    -6.2240    -0.4320 N.2   1 <1>  -0.5650 
 19 C       -1.9180    -4.5580    -0.0360 C.3   1 <1>  -0.0600 
 20 C        1.1990    -6.2240    -0.3530 C.2   1 <1>   0.0770 
 21 H        2.5350    -0.2270    -1.2090 H     1 <1>   0.3700 
 22 H        1.6110    -2.1880    -1.1980 H     1 <1>   0.0800 
 23 H       -0.1300    -2.0740    -1.2940 H     1 <1>   0.0800 
 24 H       -0.3120    -2.5750     1.1210 H     1 <1>   0.0800 
 25 H        1.4250    -2.6340     1.2530 H     1 <1>   0.0800 
 26 H       -0.4520     2.1320    -1.0080 H     1 <1>   0.0800 
 27 H       -0.3720     3.7930    -0.4470 H     1 <1>   0.0800 
 28 H       -0.4850     2.4830     0.7150 H     1 <1>   0.0800 
 29 H        5.5230     1.9860    -0.9080 H     1 <1>   0.0800 
 30 H        4.6240     0.5400    -1.2390 H     1 <1>   0.0800 
 31 H        2.6700    -4.6870     0.1870 H     1 <1>   0.1500 
 32 H        5.2200     4.0100     0.7720 H     1 <1>   0.0800 
 33 H        4.0980     5.3340     0.5790 H     1 <1>   0.0800 
 34 H        4.9030     4.6690    -0.8220 H     1 <1>   0.0800 
 35 H        5.3810     1.5180     1.5300 H     1 <1>   0.0800 
 36 H        6.1400     0.1900     0.6820 H     1 <1>   0.0800 
 37 H        4.4700     0.0670     1.1960 H     1 <1>   0.0800 
 38 H       -2.0690    -3.7250    -0.6980 H     1 <1>   0.0800 
 39 H       -2.1740    -4.2700     0.9670 H     1 <1>   0.0800 
 40 H       -2.5690    -5.3590    -0.3380 H     1 <1>   0.0800 
 41 H        1.7690    -7.1090    -0.5810 H     1 <1>   0.1500 
@<TRIPOS>BOND
  1   1   2  2   
  2   2   3  am  
  3   2   4  1   
  4   3   5  1   
  5   3  21  1   
  6   4   6  1   
  7   4  22  1   
  8   4  23  1   
  9   5   7  1   
 10   5   8  2   
 11   6   9  1   
 12   6  24  1   
 13   6  25  1   
 14   7  10  1   
 15   7  11  1   
 16   8  12  1   
 17   8  13  1   
 18   9  14  1   
 19   9  15  1   
 20  10  12  2   
 21  11  26  1   
 22  11  27  1   
 23  11  28  1   
 24  12  16  1   
 25  13  17  1   
 26  13  29  1   
 27  13  30  1   
 28  14  18  2   
 29  14  19  1   
 30  15  20  2   
 31  15  31  1   
 32  16  32  1   
 33  16  33  1   
 34  16  34  1   
 35  17  35  1   
 36  17  36  1   
 37  17  37  1   
 38  18  20  1   
 39  19  38  1   
 40  19  39  1   
 41  19  40  1   
 42  20  41  1   
@<TRIPOS>SUBSTRUCTURE
  1 ****   2 GROUP 4 **** **** 0

# MOE 2024.06 (io_trps.svl 2023.06)
