@<TRIPOS>MOLECULE
NONAME
43 44 1 0 0 
SMALL
USER_CHARGES


@<TRIPOS>ATOM
  1 S        0.0920    -0.0010    -0.5710 S.o2  1 <1>   1.3330 
  2 O        0.0760    -1.4410    -0.4500 O.2   1 <1>  -0.6500 
  3 O       -0.2380     0.6130    -1.8370 O.2   1 <1>  -0.6500 
  4 N       -0.9500     0.6330     0.6090 N.am  1 <1>  -0.8490 
  5 C        1.6870     0.6520    -0.0850 C.3   1 <1>  -0.0550 
  6 C       -0.9350    -0.1320     1.8620 C.3   1 <1>   0.1160 
  7 C       -2.3270     0.7510     0.1200 C.3   1 <1>   0.1160 
  8 C        2.8410     0.2110    -1.0200 C.3   1 <1>  -0.0800 
  9 C        4.1450     0.9780    -0.8180 C.3   1 <1>   0.2200 
 10 C        3.3020    -1.1930    -0.6400 C.3   1 <1>   0.1200 
 11 N        3.9450     2.4260    -0.5510 N.am  1 <1>  -0.7300 
 12 C        4.8150     0.2180     0.3340 C.3   1 <1>   0.1200 
 13 O        4.1390    -1.0010     0.4530 O.3   1 <1>  -0.5600 
 14 C        4.9470     3.3130    -0.2850 C.2   1 <1>   0.7150 
 15 O        6.0800     2.8880    -0.1670 O.2   1 <1>  -0.5700 
 16 C        4.6420     4.7160    -0.1660 C.2   1 <1>  -0.0450 
 17 S        5.9580     5.8620     0.0770 S.3   1 <1>  -0.0800 
 18 C        3.4750     5.4130    -0.2010 C.2   1 <1>  -0.1500 
 19 C        4.8850     7.2590     0.1210 C.2   1 <1>  -0.0450 
 20 C        3.6110     6.8160    -0.0440 C.2   1 <1>  -0.1500 
 21 C        5.4110     8.5800     0.3070 C.2   1 <1>   0.5940 
 22 O        4.7080     9.5580     0.3390 O.2   1 <1>  -0.5700 
 23 C        6.9020     8.7950     0.4710 C.3   1 <1>  -0.1790 
 24 H        1.5990     1.7190    -0.0900 H     1 <1>   0.0800 
 25 H        1.9120     0.3550     0.9210 H     1 <1>   0.0800 
 26 H       -1.5470     0.3570     2.6000 H     1 <1>   0.0800 
 27 H        0.0680    -0.2010     2.2460 H     1 <1>   0.0800 
 28 H       -1.3120    -1.1290     1.7000 H     1 <1>   0.0800 
 29 H       -2.9600     1.1690     0.8830 H     1 <1>   0.0800 
 30 H       -2.7070    -0.2160    -0.1670 H     1 <1>   0.0800 
 31 H       -2.3600     1.4030    -0.7370 H     1 <1>   0.0800 
 32 H        2.5300     0.2480    -2.0500 H     1 <1>   0.0800 
 33 H        4.7660     0.8720    -1.6930 H     1 <1>   0.0800 
 34 H        3.8840    -1.6390    -1.4300 H     1 <1>   0.0800 
 35 H        2.5060    -1.8610    -0.3610 H     1 <1>   0.0800 
 36 H        3.0540     2.8100    -0.8620 H     1 <1>   0.3700 
 37 H        4.7200     0.7430     1.2680 H     1 <1>   0.0800 
 38 H        5.8510     0.0200     0.1220 H     1 <1>   0.0800 
 39 H        2.5010     4.9770    -0.3340 H     1 <1>   0.1500 
 40 H        2.7540     7.4680    -0.0560 H     1 <1>   0.1500 
 41 H        7.2540     8.2650     1.3360 H     1 <1>   0.0800 
 42 H        7.1080     9.8420     0.6000 H     1 <1>   0.0800 
 43 H        7.4200     8.4450    -0.4020 H     1 <1>   0.0800 
@<TRIPOS>BOND
  1   1   2  2   
  2   1   3  2   
  3   1   4  am  
  4   1   5  1   
  5   4   6  1   
  6   4   7  1   
  7   5   8  1   
  8   5  24  1   
  9   5  25  1   
 10   6  26  1   
 11   6  27  1   
 12   6  28  1   
 13   7  29  1   
 14   7  30  1   
 15   7  31  1   
 16   8   9  1   
 17   8  10  1   
 18   8  32  1   
 19   9  11  1   
 20   9  12  1   
 21   9  33  1   
 22  10  13  1   
 23  10  34  1   
 24  10  35  1   
 25  11  14  am  
 26  11  36  1   
 27  12  13  1   
 28  12  37  1   
 29  12  38  1   
 30  14  15  2   
 31  14  16  1   
 32  16  17  1   
 33  16  18  2   
 34  17  19  1   
 35  18  20  1   
 36  18  39  1   
 37  19  20  2   
 38  19  21  1   
 39  20  40  1   
 40  21  22  2   
 41  21  23  1   
 42  23  41  1   
 43  23  42  1   
 44  23  43  1   
@<TRIPOS>SUBSTRUCTURE
  1 ****  11 GROUP 4 **** **** 0

# MOE 2024.06 (io_trps.svl 2023.06)
