@<TRIPOS>MOLECULE
NONAME
44 47 1 0 0 
SMALL
USER_CHARGES


@<TRIPOS>ATOM
  1 O        1.3070     2.0480     0.9280 O.2   1 <1>  -0.5700 
  2 C        0.9280     3.1680     0.7010 C.2   1 <1>   0.5690 
  3 N       -0.2760     3.5920     1.1430 N.am  1 <1>  -0.7300 
  4 C        1.8000     4.1180    -0.1260 C.3   1 <1>   0.1810 
  5 C       -0.7990     4.9600     0.9140 C.3   1 <1>   0.3640 
  6 O        1.4270     5.4740     0.0100 O.3   1 <1>  -0.5600 
  7 C       -2.2580     4.8680     0.4740 C.ar  1 <1>  -0.1440 
  8 C        0.0380     5.7220    -0.1450 C.3   1 <1>   0.2610 
  9 C       -2.6750     3.9310    -0.4630 C.ar  1 <1>  -0.1500 
 10 C       -3.1920     5.7460     1.0090 C.ar  1 <1>  -0.1500 
 11 C       -0.2220     7.2320    -0.0990 C.2   1 <1>   0.5690 
 12 C       -4.0010     3.8730    -0.8570 C.ar  1 <1>  -0.1500 
 13 C       -4.5170     5.6880     0.6160 C.ar  1 <1>  -0.1500 
 14 O       -0.6210     7.7560     0.9170 O.2   1 <1>  -0.5700 
 15 N        0.0620     7.9760    -1.1990 N.am  1 <1>  -0.7300 
 16 C       -4.9230     4.7510    -0.3180 C.ar  1 <1>  -0.1500 
 17 C        0.0490     9.4560    -1.2310 C.3   1 <1>   0.3200 
 18 C        1.4730     9.9630    -1.1400 C.2   1 <1>   0.0060 
 19 N        2.0870    10.6450    -2.0510 N.2   1 <1>  -0.3380 
 20 N        2.2660     9.7500    -0.0900 N.pl3 1 <1>   0.0480 
 21 N        3.3220    10.8920    -1.5920 N.2   1 <1>  -0.3380 
 22 C        3.3850    10.3440    -0.4300 C.2   1 <1>   0.0060 
 23 C        2.3120     9.1060     1.2220 C.3   1 <1>   0.0960 
 24 C        4.4450    10.2260     0.6290 C.3   1 <1>   0.0200 
 25 C        3.6710     9.5680     1.7950 C.3   1 <1>  -0.1600 
 26 H       -0.8600     2.9530     1.6860 H     1 <1>   0.3700 
 27 H        1.7340     3.8500    -1.1640 H     1 <1>   0.0800 
 28 H        2.8230     4.0270     0.1900 H     1 <1>   0.0800 
 29 H       -0.7460     5.4880     1.8510 H     1 <1>   0.0800 
 30 H       -0.2430     5.3720    -1.1220 H     1 <1>   0.0800 
 31 H       -1.9740     3.2360    -0.8930 H     1 <1>   0.1500 
 32 H       -2.8930     6.4860     1.7330 H     1 <1>   0.1500 
 33 H       -4.3160     3.1420    -1.5810 H     1 <1>   0.1500 
 34 H       -5.2330     6.3730     1.0360 H     1 <1>   0.1500 
 35 H        0.5760     7.5580    -1.9780 H     1 <1>   0.3700 
 36 H       -5.9540     4.7060    -0.6230 H     1 <1>   0.1500 
 37 H       -0.3960     9.7910    -2.1520 H     1 <1>   0.0800 
 38 H       -0.5300     9.8480    -0.4120 H     1 <1>   0.0800 
 39 H        1.4830     9.4290     1.8260 H     1 <1>   0.0800 
 40 H        2.2860     8.0390     1.0900 H     1 <1>   0.0800 
 41 H        5.2380     9.5910     0.2760 H     1 <1>   0.0800 
 42 H        4.8330    11.1930     0.8950 H     1 <1>   0.0800 
 43 H        3.4980    10.2950     2.5690 H     1 <1>   0.0800 
 44 H        4.2160     8.7410     2.2150 H     1 <1>   0.0800 
@<TRIPOS>BOND
  1   1   2  2   
  2   2   3  am  
  3   2   4  1   
  4   3   5  1   
  5   3  26  1   
  6   4   6  1   
  7   4  27  1   
  8   4  28  1   
  9   5   7  1   
 10   5   8  1   
 11   5  29  1   
 12   6   8  1   
 13   7   9  ar  
 14   7  10  ar  
 15   8  11  1   
 16   8  30  1   
 17   9  12  ar  
 18   9  31  1   
 19  10  13  ar  
 20  10  32  1   
 21  11  14  2   
 22  11  15  am  
 23  12  16  ar  
 24  12  33  1   
 25  13  16  ar  
 26  13  34  1   
 27  15  17  1   
 28  15  35  1   
 29  16  36  1   
 30  17  18  1   
 31  17  37  1   
 32  17  38  1   
 33  18  19  2   
 34  18  20  1   
 35  19  21  1   
 36  20  22  1   
 37  20  23  1   
 38  21  22  2   
 39  22  24  1   
 40  23  25  1   
 41  23  39  1   
 42  23  40  1   
 43  24  25  1   
 44  24  41  1   
 45  24  42  1   
 46  25  43  1   
 47  25  44  1   
@<TRIPOS>SUBSTRUCTURE
  1 ****  11 GROUP 4 **** **** 0

# MOE 2024.06 (io_trps.svl 2023.06)
