@<TRIPOS>MOLECULE
NONAME
45 47 1 0 0 
SMALL
USER_CHARGES


@<TRIPOS>ATOM
  1 O       -0.2660    -2.7020    -1.4150 O.3   1 <1>  -0.6800 
  2 C        0.1630    -1.4780    -0.9240 C.3   1 <1>   0.1200 
  3 C        1.1720    -1.6260     0.2520 C.3   1 <1>   0.0000 
  4 C        2.5250    -2.3010    -0.1420 C.3   1 <1>   0.4230 
  5 C        1.5080    -0.1840     0.7310 C.3   1 <1>  -0.1600 
  6 C        0.5130    -2.3870     1.4420 C.3   1 <1>  -0.1600 
  7 N        2.4860    -3.8010    -0.3920 N.4   1 <1>  -0.9590 
  8 C        3.2660    -1.4790    -1.2170 C.3   1 <1>   0.2090 
  9 C        2.3260     0.6460    -0.2740 C.3   1 <1>   0.2090 
 10 C        1.1070    -3.7860     1.6860 C.3   1 <1>  -0.1600 
 11 C        1.4010    -4.4990     0.3680 C.3   1 <1>   0.3430 
 12 C        2.4100    -4.1930    -1.8340 C.3   1 <1>   0.2630 
 13 N        3.5340    -0.1250    -0.6660 N.pl3 1 <1>  -0.8380 
 14 C        4.7320     0.1480    -0.0460 C.ar  1 <1>   0.7200 
 15 N        5.0870     1.4240     0.0270 N.ar  1 <1>  -0.6200 
 16 N        5.4060    -0.8960     0.4390 N.ar  1 <1>  -0.6200 
 17 C        6.2260     1.6800     0.6180 C.ar  1 <1>   0.1670 
 18 C        6.5430    -0.6110     1.0270 C.ar  1 <1>   0.1600 
 19 C        7.0060     0.6780     1.1440 C.ar  1 <1>  -0.1500 
 20 C        6.6490     3.1320     0.6980 C.3   1 <1>  -0.0970 
 21 H       -1.0490    -2.5790    -1.9950 H     1 <1>   0.4000 
 22 H        0.5820    -0.9270    -1.7480 H     1 <1>   0.0800 
 23 H       -0.7110    -0.9480    -0.5830 H     1 <1>   0.0800 
 24 H        3.1400    -2.1850     0.7350 H     1 <1>   0.0800 
 25 H        2.0850    -0.2290     1.6390 H     1 <1>   0.0800 
 26 H        0.6040     0.3510     0.9650 H     1 <1>   0.0800 
 27 H        0.6050    -1.8300     2.3600 H     1 <1>   0.0800 
 28 H       -0.5440    -2.4910     1.2620 H     1 <1>   0.0800 
 29 H        3.3790    -4.1510    -0.0210 H     1 <1>   0.4500 
 30 H        2.6800    -1.3870    -2.1120 H     1 <1>   0.0800 
 31 H        4.1980    -1.9550    -1.4720 H     1 <1>   0.0800 
 32 H        2.6040     1.5840     0.1790 H     1 <1>   0.0800 
 33 H        1.7490     0.8750    -1.1530 H     1 <1>   0.0800 
 34 H        0.4030    -4.3700     2.2530 H     1 <1>   0.0800 
 35 H        2.0100    -3.7180     2.2680 H     1 <1>   0.0800 
 36 H        0.4980    -4.5150    -0.2190 H     1 <1>   0.0800 
 37 H        1.6890    -5.5200     0.5600 H     1 <1>   0.0800 
 38 H        1.5160    -3.7990    -2.2870 H     1 <1>   0.0800 
 39 H        2.3950    -5.2660    -1.9290 H     1 <1>   0.0800 
 40 H        3.2640    -3.8170    -2.3740 H     1 <1>   0.0800 
 41 H        7.1260    -1.4220     1.4280 H     1 <1>   0.1500 
 42 H        7.9410     0.8870     1.6280 H     1 <1>   0.1500 
 43 H        7.5950     3.2340     1.1960 H     1 <1>   0.0800 
 44 H        5.9070     3.6920     1.2380 H     1 <1>   0.0800 
 45 H        6.7320     3.5360    -0.2940 H     1 <1>   0.0800 
@<TRIPOS>BOND
  1   1   2  1   
  2   1  21  1   
  3   2   3  1   
  4   2  22  1   
  5   2  23  1   
  6   3   4  1   
  7   3   5  1   
  8   3   6  1   
  9   4   7  1   
 10   4   8  1   
 11   4  24  1   
 12   5   9  1   
 13   5  25  1   
 14   5  26  1   
 15   6  10  1   
 16   6  27  1   
 17   6  28  1   
 18   7  11  1   
 19   7  12  1   
 20   7  29  1   
 21   8  13  1   
 22   8  30  1   
 23   8  31  1   
 24   9  13  1   
 25   9  32  1   
 26   9  33  1   
 27  10  11  1   
 28  10  34  1   
 29  10  35  1   
 30  11  36  1   
 31  11  37  1   
 32  12  38  1   
 33  12  39  1   
 34  12  40  1   
 35  13  14  1   
 36  14  15  ar  
 37  14  16  ar  
 38  15  17  ar  
 39  16  18  ar  
 40  17  19  ar  
 41  17  20  1   
 42  18  19  ar  
 43  18  41  1   
 44  19  42  1   
 45  20  43  1   
 46  20  44  1   
 47  20  45  1   
@<TRIPOS>SUBSTRUCTURE
  1 ****  13 GROUP 4 **** **** 0

# MOE 2024.06 (io_trps.svl 2023.06)
