@<TRIPOS>MOLECULE
NONAME
50 52 1 0 0 
SMALL
USER_CHARGES


@<TRIPOS>ATOM
  1 O       -0.0050     0.6920    -0.9530 O.2   1 <1>  -0.5700 
  2 C       -0.0150     1.8220    -0.5250 C.2   1 <1>   0.5690 
  3 N       -1.1740     2.4530    -0.1520 N.am  1 <1>  -0.6600 
  4 C        1.3210     2.5640    -0.4320 C.3   1 <1>   0.1810 
  5 C       -1.1580     3.8640     0.3620 C.3   1 <1>   0.3640 
  6 C       -2.4850     1.7430    -0.0970 C.3   1 <1>   0.0600 
  7 O        1.2820     3.6690     0.4350 O.3   1 <1>  -0.5600 
  8 C       -2.2360     4.6920    -0.3550 C.ar  1 <1>  -0.1430 
  9 C        0.2130     4.5590     0.1840 C.3   1 <1>   0.2610 
 10 C       -3.1750     5.4620     0.3330 C.ar  1 <1>  -0.1430 
 11 C       -2.2650     4.6800    -1.7460 C.ar  1 <1>  -0.1500 
 12 C        0.2900     5.7870     1.1050 C.2   1 <1>   0.5690 
 13 C       -4.1010     6.2080    -0.3810 C.ar  1 <1>  -0.1500 
 14 C       -3.2340     5.5210     1.8540 C.3   1 <1>  -0.0960 
 15 C       -3.1930     5.4260    -2.4480 C.ar  1 <1>  -0.1500 
 16 O        0.2310     5.6060     2.3020 O.2   1 <1>  -0.5700 
 17 N        0.4090     7.0590     0.5980 N.am  1 <1>  -0.6600 
 18 C       -4.1120     6.1950    -1.7630 C.ar  1 <1>  -0.1500 
 19 C        0.8060     8.1880     1.4850 C.3   1 <1>   0.3210 
 20 C        0.1910     7.4330    -0.8300 C.3   1 <1>   0.0600 
 21 C        2.0600     8.8470     0.9350 C.2   1 <1>  -0.1810 
 22 C        2.2700    10.0950     0.4560 C.2   1 <1>  -0.3320 
 23 C        3.2920     8.2110     0.8250 C.2   1 <1>   0.1390 
 24 N        3.5710    10.1500     0.0950 N.pl3 1 <1>   0.3000 
 25 C        1.3170    11.2690     0.3070 C.3   1 <1>  -0.0600 
 26 N        4.2030     8.9850     0.3200 N.2   1 <1>  -0.7070 
 27 H        1.6110     2.9060    -1.4080 H     1 <1>   0.0800 
 28 H        2.0730     1.8900    -0.0640 H     1 <1>   0.0800 
 29 H       -1.3640     3.8150     1.4150 H     1 <1>   0.0800 
 30 H       -2.9230     1.8590     0.8780 H     1 <1>   0.0800 
 31 H       -2.3570     0.6920    -0.2930 H     1 <1>   0.0800 
 32 H       -3.1540     2.1490    -0.8350 H     1 <1>   0.0800 
 33 H        0.3160     4.8750    -0.8350 H     1 <1>   0.0800 
 34 H       -1.5620     4.0790    -2.2970 H     1 <1>   0.1500 
 35 H       -4.8290     6.8090     0.1370 H     1 <1>   0.1500 
 36 H       -4.0900     6.0800     2.1860 H     1 <1>   0.0800 
 37 H       -2.3560     6.0000     2.2460 H     1 <1>   0.0800 
 38 H       -3.3100     4.5310     2.2670 H     1 <1>   0.0800 
 39 H       -3.2030     5.4050    -3.5240 H     1 <1>   0.1500 
 40 H       -4.8380     6.7780    -2.3030 H     1 <1>   0.1500 
 41 H        0.0010     8.8970     1.5350 H     1 <1>   0.0800 
 42 H        1.0070     7.8420     2.4840 H     1 <1>   0.0800 
 43 H       -0.0990     8.4670    -0.9020 H     1 <1>   0.0800 
 44 H       -0.5930     6.8390    -1.2640 H     1 <1>   0.0800 
 45 H        1.1030     7.2920    -1.3850 H     1 <1>   0.0800 
 46 H        3.4740     7.1910     1.1210 H     1 <1>   0.1500 
 47 H        4.0560    10.9630    -0.3040 H     1 <1>   0.2700 
 48 H        0.3290    11.0020     0.6350 H     1 <1>   0.0800 
 49 H        1.2620    11.5740    -0.7230 H     1 <1>   0.0800 
 50 H        1.6580    12.0990     0.8990 H     1 <1>   0.0800 
@<TRIPOS>BOND
  1   1   2  2   
  2   2   3  am  
  3   2   4  1   
  4   3   5  1   
  5   3   6  1   
  6   4   7  1   
  7   4  27  1   
  8   4  28  1   
  9   5   8  1   
 10   5   9  1   
 11   5  29  1   
 12   6  30  1   
 13   6  31  1   
 14   6  32  1   
 15   7   9  1   
 16   8  10  ar  
 17   8  11  ar  
 18   9  12  1   
 19   9  33  1   
 20  10  13  ar  
 21  10  14  1   
 22  11  15  ar  
 23  11  34  1   
 24  12  16  2   
 25  12  17  am  
 26  13  18  ar  
 27  13  35  1   
 28  14  36  1   
 29  14  37  1   
 30  14  38  1   
 31  15  18  ar  
 32  15  39  1   
 33  17  19  1   
 34  17  20  1   
 35  18  40  1   
 36  19  21  1   
 37  19  41  1   
 38  19  42  1   
 39  20  43  1   
 40  20  44  1   
 41  20  45  1   
 42  21  22  2   
 43  21  23  1   
 44  22  24  1   
 45  22  25  1   
 46  23  26  2   
 47  23  46  1   
 48  24  26  1   
 49  24  47  1   
 50  25  48  1   
 51  25  49  1   
 52  25  50  1   
@<TRIPOS>SUBSTRUCTURE
  1 ****  12 GROUP 4 **** **** 0

# MOE 2024.06 (io_trps.svl 2023.06)
