@<TRIPOS>MOLECULE
NONAME
46 47 1 0 0 
SMALL
USER_CHARGES


@<TRIPOS>ATOM
  1 CL       1.0120    -0.3350     0.6620 Cl    1 <1>  -0.1770 
  2 C        0.7380    -2.0250     0.3300 C.ar  1 <1>   0.1770 
  3 C        0.3680    -2.8680     1.3590 C.ar  1 <1>  -0.1500 
  4 C        0.8920    -2.4960    -0.9580 C.ar  1 <1>  -0.1500 
  5 C        0.1450    -4.2130     1.1100 C.ar  1 <1>  -0.1440 
  6 C        0.6670    -3.8360    -1.2140 C.ar  1 <1>  -0.1500 
  7 C        0.2910    -4.7000    -0.1900 C.ar  1 <1>  -0.1430 
  8 C       -0.2630    -5.0800     2.2960 C.3   1 <1>  -0.0960 
  9 C        0.0500    -6.1610    -0.5490 C.3   1 <1>   0.4870 
 10 N       -1.3920    -6.4880    -0.5180 N.4   1 <1>  -0.9590 
 11 C       -1.6830    -7.9020    -0.9570 C.3   1 <1>   0.3430 
 12 C       -2.3070    -5.5020    -1.1470 C.3   1 <1>   0.3430 
 13 C       -3.1900    -8.1540    -1.2260 C.3   1 <1>   0.2000 
 14 C       -3.7510    -5.7630    -0.6770 C.3   1 <1>  -0.1600 
 15 O       -3.4660    -7.8730    -2.5660 O.3   1 <1>  -0.6800 
 16 C       -4.0500    -7.2550    -0.3100 C.3   1 <1>  -0.1060 
 17 C       -3.5490    -7.6190     1.1000 C.2   1 <1>   0.9060 
 18 C       -5.5640    -7.5690    -0.4630 C.3   1 <1>  -0.1600 
 19 O       -2.8610    -6.8000     1.7260 O.co2 1 <1>  -0.9000 
 20 O       -3.6240    -8.7930     1.4620 O.co2 1 <1>  -0.9000 
 21 C       -6.4570    -6.7690     0.4990 C.3   1 <1>  -0.1600 
 22 C       -7.9310    -7.1390     0.3130 C.3   1 <1>  -0.2400 
 23 H        0.2560    -2.4640     2.3500 H     1 <1>   0.1500 
 24 H        1.1840    -1.8190    -1.7410 H     1 <1>   0.1500 
 25 H        0.7890    -4.1980    -2.2210 H     1 <1>   0.1500 
 26 H        0.3200    -4.8230     3.1620 H     1 <1>   0.0800 
 27 H       -0.1280    -6.1300     2.1140 H     1 <1>   0.0800 
 28 H       -1.2990    -4.9100     2.5300 H     1 <1>   0.0800 
 29 H        0.5780    -6.7910     0.1470 H     1 <1>   0.0800 
 30 H        0.4380    -6.3500    -1.5350 H     1 <1>   0.0800 
 31 H       -1.6930    -6.4600     0.4920 H     1 <1>   0.4500 
 32 H       -1.1310    -8.1480    -1.8480 H     1 <1>   0.0800 
 33 H       -1.3730    -8.5700    -0.1690 H     1 <1>   0.0800 
 34 H       -2.0270    -4.4950    -0.8810 H     1 <1>   0.0800 
 35 H       -2.2550    -5.6050    -2.2180 H     1 <1>   0.0800 
 36 H       -3.4120    -9.1960    -1.0600 H     1 <1>   0.0800 
 37 H       -3.9590    -5.1340     0.1710 H     1 <1>   0.0800 
 38 H       -4.4060    -5.4400    -1.4660 H     1 <1>   0.0800 
 39 H       -4.4080    -8.0680    -2.7450 H     1 <1>   0.4000 
 40 H       -5.8810    -7.3730    -1.4720 H     1 <1>   0.0800 
 41 H       -5.7170    -8.6180    -0.2700 H     1 <1>   0.0800 
 42 H       -6.1720    -6.9780     1.5180 H     1 <1>   0.0800 
 43 H       -6.3390    -5.7130     0.3320 H     1 <1>   0.0800 
 44 H       -8.0800    -8.1870     0.5090 H     1 <1>   0.0800 
 45 H       -8.2530    -6.9220    -0.6900 H     1 <1>   0.0800 
 46 H       -8.5390    -6.5760     0.9990 H     1 <1>   0.0800 
@<TRIPOS>BOND
  1   1   2  1   
  2   2   3  ar  
  3   2   4  ar  
  4   3   5  ar  
  5   3  23  1   
  6   4   6  ar  
  7   4  24  1   
  8   5   7  ar  
  9   5   8  1   
 10   6   7  ar  
 11   6  25  1   
 12   7   9  1   
 13   8  26  1   
 14   8  27  1   
 15   8  28  1   
 16   9  10  1   
 17   9  29  1   
 18   9  30  1   
 19  10  11  1   
 20  10  12  1   
 21  10  31  1   
 22  11  13  1   
 23  11  32  1   
 24  11  33  1   
 25  12  14  1   
 26  12  34  1   
 27  12  35  1   
 28  13  15  1   
 29  13  16  1   
 30  13  36  1   
 31  14  16  1   
 32  14  37  1   
 33  14  38  1   
 34  15  39  1   
 35  16  17  1   
 36  16  18  1   
 37  17  19  ar  
 38  17  20  ar  
 39  18  21  1   
 40  18  40  1   
 41  18  41  1   
 42  21  22  1   
 43  21  42  1   
 44  21  43  1   
 45  22  44  1   
 46  22  45  1   
 47  22  46  1   
@<TRIPOS>SUBSTRUCTURE
  1 ****  10 GROUP 4 **** **** 0

# MOE 2024.06 (io_trps.svl 2023.06)
