@<TRIPOS>MOLECULE
NONAME
49 51 1 0 0 
SMALL
USER_CHARGES


@<TRIPOS>ATOM
  1 O        0.5640     0.3980    -0.6700 O.3   1 <1>  -0.3630 
  2 C        1.4130    -0.5920    -0.3060 C.ar  1 <1>   0.0820 
  3 C        0.5220     1.6240     0.0280 C.3   1 <1>   0.0400 
  4 C        1.3810    -1.7430    -1.0710 C.ar  1 <1>  -0.1500 
  5 C        2.2880    -0.5140     0.7700 C.ar  1 <1>  -0.1500 
  6 C        2.2010    -2.8230    -0.7810 C.ar  1 <1>  -0.1430 
  7 C        3.1170    -1.5800     1.0600 C.ar  1 <1>  -0.1500 
  8 C        3.0970    -2.7440     0.2940 C.ar  1 <1>  -0.0230 
  9 C        2.0800    -4.0620    -1.6550 C.3   1 <1>   0.4870 
 10 N        3.9910    -3.8040     0.6330 N.pl3 1 <1>   0.5930 
 11 N        1.2810    -5.1000    -0.9500 N.4   1 <1>  -0.9590 
 12 N        3.6230    -5.1170     0.7110 N.2   1 <1>  -0.7070 
 13 C        5.3070    -3.6780     0.9230 C.2   1 <1>  -0.3020 
 14 C        1.2580    -6.3620    -1.7260 C.3   1 <1>   0.5230 
 15 C       -0.0940    -4.6190    -0.5680 C.3   1 <1>   0.3430 
 16 C        4.7040    -5.7510     1.0610 C.2   1 <1>   0.1390 
 17 C        5.7920    -4.9020     1.2060 C.2   1 <1>  -0.1500 
 18 C        0.4160    -7.3850    -1.0020 C.2   1 <1>  -0.3320 
 19 C       -0.2080    -4.3340     0.9340 C.3   1 <1>   0.1200 
 20 N        0.7410    -8.0420     0.1350 N.pl3 1 <1>   0.0480 
 21 C       -0.8090    -7.8300    -1.3630 C.2   1 <1>   0.0770 
 22 O       -1.4700    -3.8190     1.1730 O.3   1 <1>  -0.6800 
 23 C       -0.3260    -8.8320     0.3860 C.2   1 <1>   0.0360 
 24 C        1.9740    -7.9860     0.9400 C.3   1 <1>   0.0160 
 25 N       -1.2740    -8.7290    -0.4850 N.2   1 <1>  -0.5650 
 26 H       -0.2140     2.2510    -0.4410 H     1 <1>   0.0800 
 27 H        1.4890     2.0930    -0.0280 H     1 <1>   0.0800 
 28 H        0.2420     1.4360     1.0500 H     1 <1>   0.0800 
 29 H        0.6920    -1.7670    -1.8980 H     1 <1>   0.1500 
 30 H        2.3350     0.3660     1.3850 H     1 <1>   0.1500 
 31 H        3.7900    -1.4980     1.8980 H     1 <1>   0.1500 
 32 H        3.0660    -4.4410    -1.8710 H     1 <1>   0.0800 
 33 H        1.6050    -3.8000    -2.5860 H     1 <1>   0.0800 
 34 H        1.8150    -5.2980    -0.0840 H     1 <1>   0.4500 
 35 H        5.8140    -2.7300     0.9130 H     1 <1>   0.1500 
 36 H        2.2590    -6.7400    -1.8570 H     1 <1>   0.0800 
 37 H        0.8310    -6.1820    -2.7000 H     1 <1>   0.0800 
 38 H       -0.8360    -5.3590    -0.8180 H     1 <1>   0.0800 
 39 H       -0.3320    -3.7180    -1.1080 H     1 <1>   0.0800 
 40 H        4.7630    -6.8150     1.2250 H     1 <1>   0.1500 
 41 H        6.7930    -5.1880     1.4840 H     1 <1>   0.1500 
 42 H        0.5130    -3.6000     1.2520 H     1 <1>   0.0800 
 43 H       -0.1030    -5.2400     1.5050 H     1 <1>   0.0800 
 44 H       -1.4030    -7.5510    -2.2200 H     1 <1>   0.1500 
 45 H       -1.6090    -3.6280     2.1240 H     1 <1>   0.4000 
 46 H       -0.3680    -9.4870     1.2400 H     1 <1>   0.1500 
 47 H        2.8270    -7.9280     0.2890 H     1 <1>   0.0800 
 48 H        2.0510    -8.8750     1.5400 H     1 <1>   0.0800 
 49 H        1.9440    -7.1270     1.5850 H     1 <1>   0.0800 
@<TRIPOS>BOND
  1   1   2  1   
  2   1   3  1   
  3   2   4  ar  
  4   2   5  ar  
  5   3  26  1   
  6   3  27  1   
  7   3  28  1   
  8   4   6  ar  
  9   4  29  1   
 10   5   7  ar  
 11   5  30  1   
 12   6   8  ar  
 13   6   9  1   
 14   7   8  ar  
 15   7  31  1   
 16   8  10  1   
 17   9  11  1   
 18   9  32  1   
 19   9  33  1   
 20  10  12  1   
 21  10  13  1   
 22  11  14  1   
 23  11  15  1   
 24  11  34  1   
 25  12  16  2   
 26  13  17  2   
 27  13  35  1   
 28  14  18  1   
 29  14  36  1   
 30  14  37  1   
 31  15  19  1   
 32  15  38  1   
 33  15  39  1   
 34  16  17  1   
 35  16  40  1   
 36  17  41  1   
 37  18  20  1   
 38  18  21  2   
 39  19  22  1   
 40  19  42  1   
 41  19  43  1   
 42  20  23  1   
 43  20  24  1   
 44  21  25  1   
 45  21  44  1   
 46  22  45  1   
 47  23  25  2   
 48  23  46  1   
 49  24  47  1   
 50  24  48  1   
 51  24  49  1   
@<TRIPOS>SUBSTRUCTURE
  1 ****  11 GROUP 4 **** **** 0

# MOE 2024.06 (io_trps.svl 2023.06)
