@<TRIPOS>MOLECULE
NONAME
53 55 1 0 0 
SMALL
USER_CHARGES


@<TRIPOS>ATOM
  1 S        0.0840     0.1500     1.5290 S.o2  1 <1>   1.4470 
  2 O       -0.4020    -0.9420     2.3440 O.2   1 <1>  -0.6500 
  3 O        0.2380     1.4610     2.1250 O.2   1 <1>  -0.6500 
  4 N       -1.0060     0.3320     0.2440 N.am  1 <1>  -0.8490 
  5 C        1.6190    -0.3540     0.7020 C.ar  1 <1>  -0.0090 
  6 C       -2.3910     0.4270     0.7340 C.3   1 <1>   0.1960 
  7 C       -0.6760     1.4820    -0.6010 C.3   1 <1>   0.1960 
  8 C        2.8080     0.3380     0.8990 C.ar  1 <1>  -0.1500 
  9 C        1.6400    -1.4470    -0.1550 C.ar  1 <1>  -0.1500 
 10 C       -3.4230     0.4300    -0.4210 C.3   1 <1>   0.0000 
 11 C       -1.5980     1.5200    -1.8210 C.3   1 <1>  -0.1600 
 12 C        3.9740    -0.0430     0.2590 C.ar  1 <1>  -0.1500 
 13 C        2.8030    -1.8350    -0.7980 C.ar  1 <1>  -0.1500 
 14 C       -4.8370     0.5470     0.1840 C.3   1 <1>   0.2000 
 15 C       -3.0740     1.5750    -1.4020 C.3   1 <1>  -0.1600 
 16 C       -3.4560    -0.9490    -1.1130 C.3   1 <1>  -0.1600 
 17 C        3.9780    -1.1320    -0.5960 C.ar  1 <1>  -0.1430 
 18 O       -5.7510     0.9160    -0.7870 O.3   1 <1>  -0.6800 
 19 C       -5.2020    -0.8700     0.6240 C.3   1 <1>  -0.1600 
 20 C       -4.4370    -1.8170    -0.3110 C.3   1 <1>  -0.1600 
 21 C        5.2590    -1.5550    -1.2990 C.3   1 <1>  -0.0170 
 22 C        6.0320    -2.5660    -0.4450 C.3   1 <1>  -0.1600 
 23 C        7.3300    -3.0100    -1.1330 C.3   1 <1>  -0.1600 
 24 C        8.0910    -4.0190    -0.2690 C.3   1 <1>  -0.2400 
 25 H       -2.5930    -0.4090     1.3810 H     1 <1>   0.0800 
 26 H       -2.4990     1.3260     1.3190 H     1 <1>   0.0800 
 27 H       -0.7780     2.3970    -0.0380 H     1 <1>   0.0800 
 28 H        0.3450     1.4070    -0.9380 H     1 <1>   0.0800 
 29 H        2.8220     1.1870     1.5620 H     1 <1>   0.1500 
 30 H        0.7300    -2.0010    -0.3190 H     1 <1>   0.1500 
 31 H       -1.3630     2.3840    -2.4170 H     1 <1>   0.0800 
 32 H       -1.4170     0.6470    -2.4230 H     1 <1>   0.0800 
 33 H        4.8810     0.5110     0.4310 H     1 <1>   0.1500 
 34 H        2.7890    -2.6870    -1.4540 H     1 <1>   0.1500 
 35 H       -4.8980     1.2630     0.9870 H     1 <1>   0.0800 
 36 H       -3.6960     1.5310    -2.2790 H     1 <1>   0.0800 
 37 H       -3.2660     2.5180    -0.9180 H     1 <1>   0.0800 
 38 H       -3.8290    -0.8430    -2.1170 H     1 <1>   0.0800 
 39 H       -2.4820    -1.4030    -1.1660 H     1 <1>   0.0800 
 40 H       -5.7410     0.2470    -1.4970 H     1 <1>   0.4000 
 41 H       -4.8560    -1.0210     1.6320 H     1 <1>   0.0800 
 42 H       -6.2650    -1.0400     0.6060 H     1 <1>   0.0800 
 43 H       -3.9010    -2.5510     0.2670 H     1 <1>   0.0800 
 44 H       -5.1130    -2.3290    -0.9760 H     1 <1>   0.0800 
 45 H        5.0180    -1.9930    -2.2520 H     1 <1>   0.0800 
 46 H        5.8710    -0.6900    -1.4830 H     1 <1>   0.0800 
 47 H        6.2630    -2.1190     0.5070 H     1 <1>   0.0800 
 48 H        5.4080    -3.4250    -0.2640 H     1 <1>   0.0800 
 49 H        7.1010    -3.4610    -2.0840 H     1 <1>   0.0800 
 50 H        7.9580    -2.1540    -1.3120 H     1 <1>   0.0800 
 51 H        7.4900    -4.8950    -0.0950 H     1 <1>   0.0800 
 52 H        8.3510    -3.5830     0.6790 H     1 <1>   0.0800 
 53 H        8.9960    -4.3200    -0.7660 H     1 <1>   0.0800 
@<TRIPOS>BOND
  1   1   2  2   
  2   1   3  2   
  3   1   4  am  
  4   1   5  1   
  5   4   6  1   
  6   4   7  1   
  7   5   8  ar  
  8   5   9  ar  
  9   6  10  1   
 10   6  25  1   
 11   6  26  1   
 12   7  11  1   
 13   7  27  1   
 14   7  28  1   
 15   8  12  ar  
 16   8  29  1   
 17   9  13  ar  
 18   9  30  1   
 19  10  14  1   
 20  10  15  1   
 21  10  16  1   
 22  11  15  1   
 23  11  31  1   
 24  11  32  1   
 25  12  17  ar  
 26  12  33  1   
 27  13  17  ar  
 28  13  34  1   
 29  14  18  1   
 30  14  19  1   
 31  14  35  1   
 32  15  36  1   
 33  15  37  1   
 34  16  20  1   
 35  16  38  1   
 36  16  39  1   
 37  17  21  1   
 38  18  40  1   
 39  19  20  1   
 40  19  41  1   
 41  19  42  1   
 42  20  43  1   
 43  20  44  1   
 44  21  22  1   
 45  21  45  1   
 46  21  46  1   
 47  22  23  1   
 48  22  47  1   
 49  22  48  1   
 50  23  24  1   
 51  23  49  1   
 52  23  50  1   
 53  24  51  1   
 54  24  52  1   
 55  24  53  1   
@<TRIPOS>SUBSTRUCTURE
  1 ****   5 GROUP 4 **** **** 0

# MOE 2024.06 (io_trps.svl 2023.06)
