@<TRIPOS>MOLECULE
NONAME
49 51 1 0 0 
SMALL
USER_CHARGES


@<TRIPOS>ATOM
  1 S       -0.6520     0.5680    -1.4380 S.o2  1 <1>   1.4470 
  2 O       -1.9260    -0.1000    -1.6260 O.2   1 <1>  -0.6500 
  3 O       -0.0080     1.1790    -2.5800 O.2   1 <1>  -0.6500 
  4 N       -0.9240     1.8010    -0.3030 N.am  1 <1>  -0.8490 
  5 C        0.5230    -0.5240    -0.5900 C.ar  1 <1>  -0.0090 
  6 C       -1.4940     1.3210     0.9710 C.3   1 <1>   0.1960 
  7 C       -1.5760     2.9890    -0.8670 C.3   1 <1>   0.1960 
  8 C        0.1540    -1.7960    -0.1670 C.ar  1 <1>  -0.1500 
  9 C        1.8200    -0.1030    -0.3220 C.ar  1 <1>  -0.1500 
 10 C       -2.6530     2.1860     1.4800 C.3   1 <1>  -0.1600 
 11 C       -3.0870     2.7740    -0.9630 C.3   1 <1>  -0.1600 
 12 C        1.0460    -2.6180     0.4990 C.ar  1 <1>  -0.1500 
 13 C        2.7170    -0.9200     0.3440 C.ar  1 <1>  -0.1500 
 14 C       -3.7290     2.4380     0.4040 C.3   1 <1>   0.2800 
 15 C        2.3340    -2.1830     0.7600 C.ar  1 <1>  -0.1440 
 16 O       -4.3710     3.6250     0.8170 O.3   1 <1>  -0.5600 
 17 C       -4.7460     1.2520     0.3390 C.3   1 <1>   0.2000 
 18 C        3.3170    -3.0820     1.4880 C.3   1 <1>  -0.0970 
 19 C       -5.7730     3.6960     0.8530 C.3   1 <1>   0.1200 
 20 O       -4.1710     0.0210    -0.0170 O.3   1 <1>  -0.6800 
 21 C       -6.0210     1.5740    -0.4970 C.3   1 <1>   0.2800 
 22 C       -6.3700     3.0680    -0.4090 C.3   1 <1>  -0.1600 
 23 O       -7.0580     0.8790     0.0880 O.3   1 <1>  -0.6800 
 24 C       -6.0100     1.1100    -1.9620 C.3   1 <1>  -0.2400 
 25 H       -1.8410     0.3070     0.8710 H     1 <1>   0.0800 
 26 H       -0.7110     1.3100     1.7110 H     1 <1>   0.0800 
 27 H       -1.3750     3.8370    -0.2330 H     1 <1>   0.0800 
 28 H       -1.1700     3.2170    -1.8390 H     1 <1>   0.0800 
 29 H       -0.8450    -2.1510    -0.3620 H     1 <1>   0.1500 
 30 H        2.1290     0.8780    -0.6400 H     1 <1>   0.1500 
 31 H       -2.2450     3.1250     1.8130 H     1 <1>   0.0800 
 32 H       -3.0930     1.7110     2.3380 H     1 <1>   0.0800 
 33 H       -3.2600     1.9900    -1.6710 H     1 <1>   0.0800 
 34 H       -3.5330     3.6610    -1.3740 H     1 <1>   0.0800 
 35 H        0.7330    -3.6000     0.8110 H     1 <1>   0.1500 
 36 H        3.7160    -0.5680     0.5340 H     1 <1>   0.1500 
 37 H       -5.0780     1.1100     1.3530 H     1 <1>   0.0800 
 38 H        2.7970    -3.7500     2.1510 H     1 <1>   0.0800 
 39 H        4.0040    -2.4950     2.0690 H     1 <1>   0.0800 
 40 H        3.8730    -3.6650     0.7750 H     1 <1>   0.0800 
 41 H       -6.1210     3.1890     1.7380 H     1 <1>   0.0800 
 42 H       -6.0440     4.7360     0.9240 H     1 <1>   0.0800 
 43 H       -3.5500     0.1070    -0.7840 H     1 <1>   0.4000 
 44 H       -5.9740     3.5980    -1.2560 H     1 <1>   0.0800 
 45 H       -7.4370     3.2020    -0.4200 H     1 <1>   0.0800 
 46 H       -6.8160    -0.0690     0.0980 H     1 <1>   0.4000 
 47 H       -5.2670     1.6360    -2.5280 H     1 <1>   0.0800 
 48 H       -6.9660     1.3070    -2.4150 H     1 <1>   0.0800 
 49 H       -5.8050     0.0570    -2.0330 H     1 <1>   0.0800 
@<TRIPOS>BOND
  1   1   2  2   
  2   1   3  2   
  3   1   4  am  
  4   1   5  1   
  5   4   6  1   
  6   4   7  1   
  7   5   8  ar  
  8   5   9  ar  
  9   6  10  1   
 10   6  25  1   
 11   6  26  1   
 12   7  11  1   
 13   7  27  1   
 14   7  28  1   
 15   8  12  ar  
 16   8  29  1   
 17   9  13  ar  
 18   9  30  1   
 19  10  14  1   
 20  10  31  1   
 21  10  32  1   
 22  11  14  1   
 23  11  33  1   
 24  11  34  1   
 25  12  15  ar  
 26  12  35  1   
 27  13  15  ar  
 28  13  36  1   
 29  14  16  1   
 30  14  17  1   
 31  15  18  1   
 32  16  19  1   
 33  17  20  1   
 34  17  21  1   
 35  17  37  1   
 36  18  38  1   
 37  18  39  1   
 38  18  40  1   
 39  19  22  1   
 40  19  41  1   
 41  19  42  1   
 42  20  43  1   
 43  21  22  1   
 44  21  23  1   
 45  21  24  1   
 46  22  44  1   
 47  22  45  1   
 48  23  46  1   
 49  24  47  1   
 50  24  48  1   
 51  24  49  1   
@<TRIPOS>SUBSTRUCTURE
  1 ****   6 GROUP 4 **** **** 0

# MOE 2024.06 (io_trps.svl 2023.06)
