@<TRIPOS>MOLECULE
NONAME
51 53 1 0 0 
SMALL
USER_CHARGES


@<TRIPOS>ATOM
  1 S        0.3400     0.6770     1.5950 S.o2  1 <1>   1.4470 
  2 O        1.2390     1.6720     2.1410 O.2   1 <1>  -0.6500 
  3 O       -0.5470    -0.0250     2.4990 O.2   1 <1>  -0.6500 
  4 N       -0.6570     1.4740     0.4770 N.am  1 <1>  -0.8490 
  5 C        1.2650    -0.5170     0.5720 C.ar  1 <1>  -0.0090 
  6 C       -1.1490     2.7500     1.0140 C.3   1 <1>   0.1960 
  7 C       -1.6920     0.6100    -0.1200 C.3   1 <1>   0.1960 
  8 C        2.1830    -0.1400    -0.4130 C.ar  1 <1>  -0.1440 
  9 C        1.0420    -1.8780     0.7610 C.ar  1 <1>  -0.1500 
 10 C       -2.2620     3.2950     0.1230 C.3   1 <1>  -0.1600 
 11 C       -3.0900     0.9140     0.4270 C.3   1 <1>  -0.1600 
 12 C        2.8360    -1.1060    -1.1660 C.ar  1 <1>  -0.1500 
 13 C        2.5040     1.3240    -0.6940 C.3   1 <1>  -0.0970 
 14 C        1.6890    -2.8440     0.0110 C.ar  1 <1>  -0.1430 
 15 C       -3.5080     2.3860     0.1920 C.3   1 <1>   0.2800 
 16 C        2.5920    -2.4490    -0.9570 C.ar  1 <1>  -0.1500 
 17 C        1.4130    -4.3160     0.2560 C.3   1 <1>  -0.0970 
 18 O       -4.2520     2.7340     1.3340 O.3   1 <1>  -0.5600 
 19 C       -4.3810     2.5310    -1.0820 C.3   1 <1>  -0.1600 
 20 C       -5.1190     3.8300     1.2530 C.3   1 <1>   0.1200 
 21 C       -5.8820     2.4810    -0.7820 C.3   1 <1>   0.2800 
 22 C       -6.2390     3.5710     0.2330 C.3   1 <1>  -0.1600 
 23 O       -6.1590     1.2770    -0.1900 O.3   1 <1>  -0.6800 
 24 C       -6.7370     2.5570    -2.0440 C.3   1 <1>  -0.2400 
 25 H       -0.3340     3.4530     1.0580 H     1 <1>   0.0800 
 26 H       -1.5270     2.6110     2.0150 H     1 <1>   0.0800 
 27 H       -1.4610    -0.4300     0.0410 H     1 <1>   0.0800 
 28 H       -1.6950     0.7740    -1.1840 H     1 <1>   0.0800 
 29 H        0.3430    -2.1910     1.5190 H     1 <1>   0.1500 
 30 H       -1.8840     3.3370    -0.8830 H     1 <1>   0.0800 
 31 H       -2.5000     4.2990     0.4160 H     1 <1>   0.0800 
 32 H       -3.0820     0.6940     1.4810 H     1 <1>   0.0800 
 33 H       -3.7880     0.2400    -0.0330 H     1 <1>   0.0800 
 34 H        3.5450    -0.8180    -1.9230 H     1 <1>   0.1500 
 35 H        1.6090     1.8660    -0.9410 H     1 <1>   0.0800 
 36 H        3.1870     1.4200    -1.5190 H     1 <1>   0.0800 
 37 H        2.9600     1.7750     0.1690 H     1 <1>   0.0800 
 38 H        3.1100    -3.1830    -1.5500 H     1 <1>   0.1500 
 39 H        0.3800    -4.4660     0.5120 H     1 <1>   0.0800 
 40 H        2.0270    -4.6710     1.0640 H     1 <1>   0.0800 
 41 H        1.6310    -4.8940    -0.6240 H     1 <1>   0.0800 
 42 H       -4.1200     1.7810    -1.8070 H     1 <1>   0.0800 
 43 H       -4.1730     3.4780    -1.5440 H     1 <1>   0.0800 
 44 H       -4.5500     4.7010     0.9780 H     1 <1>   0.0800 
 45 H       -5.5350     3.9930     2.2320 H     1 <1>   0.0800 
 46 H       -6.4230     4.4950    -0.2840 H     1 <1>   0.0800 
 47 H       -7.1520     3.3160     0.7420 H     1 <1>   0.0800 
 48 H       -5.6750     1.2690     0.6640 H     1 <1>   0.4000 
 49 H       -6.5600     3.4820    -2.5610 H     1 <1>   0.0800 
 50 H       -7.7800     2.5020    -1.7880 H     1 <1>   0.0800 
 51 H       -6.4960     1.7450    -2.7060 H     1 <1>   0.0800 
@<TRIPOS>BOND
  1   1   2  2   
  2   1   3  2   
  3   1   4  am  
  4   1   5  1   
  5   4   6  1   
  6   4   7  1   
  7   5   8  ar  
  8   5   9  ar  
  9   6  10  1   
 10   6  25  1   
 11   6  26  1   
 12   7  11  1   
 13   7  27  1   
 14   7  28  1   
 15   8  12  ar  
 16   8  13  1   
 17   9  14  ar  
 18   9  29  1   
 19  10  15  1   
 20  10  30  1   
 21  10  31  1   
 22  11  15  1   
 23  11  32  1   
 24  11  33  1   
 25  12  16  ar  
 26  12  34  1   
 27  13  35  1   
 28  13  36  1   
 29  13  37  1   
 30  14  16  ar  
 31  14  17  1   
 32  15  18  1   
 33  15  19  1   
 34  16  38  1   
 35  17  39  1   
 36  17  40  1   
 37  17  41  1   
 38  18  20  1   
 39  19  21  1   
 40  19  42  1   
 41  19  43  1   
 42  20  22  1   
 43  20  44  1   
 44  20  45  1   
 45  21  22  1   
 46  21  23  1   
 47  21  24  1   
 48  22  46  1   
 49  22  47  1   
 50  23  48  1   
 51  24  49  1   
 52  24  50  1   
 53  24  51  1   
@<TRIPOS>SUBSTRUCTURE
  1 ****   7 GROUP 4 **** **** 0

# MOE 2024.06 (io_trps.svl 2023.06)
