@<TRIPOS>MOLECULE
NONAME
49 52 1 0 0 
SMALL
USER_CHARGES


@<TRIPOS>ATOM
  1 O        1.8560    -0.6960     2.0280 O.3   1 <1>  -0.0190 
  2 N        2.0630     0.5830     2.0180 N.2   1 <1>  -0.4100 
  3 C        2.0120    -1.0540     0.7810 C.2   1 <1>   0.2980 
  4 C        2.3290     0.9310     0.8100 C.2   1 <1>   0.4620 
  5 N        2.3050    -0.1150    -0.0230 N.2   1 <1>  -0.5650 
  6 C        1.8340    -2.5240     0.4140 C.3   1 <1>   0.2900 
  7 C        2.5930     2.2920     0.3740 C.ar  1 <1>   0.0540 
  8 N        0.4420    -2.9970     0.5890 N.3   1 <1>  -0.8100 
  9 C        3.6640     2.6540    -0.4570 C.ar  1 <1>  -0.1430 
 10 C        1.7370     3.3070     0.8050 C.ar  1 <1>  -0.1500 
 11 C       -0.5230    -2.2540    -0.2400 C.3   1 <1>   0.1100 
 12 C        0.2720    -4.4220     0.2490 C.3   1 <1>   0.1100 
 13 C        3.8380     3.9760    -0.8380 C.ar  1 <1>  -0.1500 
 14 C        4.6700     1.6240    -0.9560 C.3   1 <1>  -0.0970 
 15 C        1.9170     4.6230     0.4260 C.ar  1 <1>  -0.1500 
 16 C       -1.7320    -3.1770    -0.3120 C.3   1 <1>   0.2000 
 17 C       -1.0710    -4.5430    -0.4880 C.3   1 <1>  -0.0800 
 18 C        2.9710     4.9600    -0.4010 C.ar  1 <1>  -0.1500 
 19 O       -2.3610    -3.1190     0.9190 O.3   1 <1>  -0.6800 
 20 C       -1.9120    -5.7560    -0.0520 C.3   1 <1>   0.0210 
 21 C       -1.1510    -7.0540    -0.2550 C.2   1 <1>   0.1080 
 22 N       -0.6580    -7.4170    -1.3990 N.2   1 <1>  -0.7070 
 23 C       -0.8940    -7.9840     0.7460 C.2   1 <1>  -0.1500 
 24 N       -0.0740    -8.6060    -1.1570 N.pl3 1 <1>   0.3000 
 25 C       -0.2000    -8.9690     0.1370 C.2   1 <1>  -0.3320 
 26 C        0.3540   -10.2560     0.7190 C.3   1 <1>  -0.0600 
 27 H        2.4850    -3.1100     1.0390 H     1 <1>   0.0800 
 28 H        2.1360    -2.6620    -0.6090 H     1 <1>   0.0800 
 29 H        0.9140     3.0540     1.4510 H     1 <1>   0.1500 
 30 H       -0.7720    -1.3000     0.1940 H     1 <1>   0.0800 
 31 H       -0.1270    -2.1050    -1.2300 H     1 <1>   0.0800 
 32 H        1.0650    -4.7790    -0.3880 H     1 <1>   0.0800 
 33 H        0.2690    -5.0010     1.1570 H     1 <1>   0.0800 
 34 H        4.6570     4.2520    -1.4790 H     1 <1>   0.1500 
 35 H        5.5390     2.1000    -1.3720 H     1 <1>   0.0800 
 36 H        4.2190     1.0130    -1.7170 H     1 <1>   0.0800 
 37 H        4.9900     0.9930    -0.1460 H     1 <1>   0.0800 
 38 H        1.2390     5.3830     0.7730 H     1 <1>   0.1500 
 39 H       -2.4370    -2.9250    -1.0860 H     1 <1>   0.0800 
 40 H       -0.8470    -4.6610    -1.5340 H     1 <1>   0.0800 
 41 H        3.1160     5.9820    -0.7030 H     1 <1>   0.1500 
 42 H       -1.6440    -3.1020     1.5890 H     1 <1>   0.4000 
 43 H       -2.8160    -5.7920    -0.6320 H     1 <1>   0.0800 
 44 H       -2.1860    -5.6720     0.9840 H     1 <1>   0.0800 
 45 H       -1.1980    -7.9080     1.7740 H     1 <1>   0.1500 
 46 H        0.3960    -9.1450    -1.8940 H     1 <1>   0.2700 
 47 H        0.1230   -10.3170     1.7680 H     1 <1>   0.0800 
 48 H        1.4220   -10.2890     0.6010 H     1 <1>   0.0800 
 49 H       -0.0820   -11.1060     0.2240 H     1 <1>   0.0800 
@<TRIPOS>BOND
  1   1   2  1   
  2   1   3  1   
  3   2   4  2   
  4   3   5  2   
  5   3   6  1   
  6   4   5  1   
  7   4   7  1   
  8   6   8  1   
  9   6  27  1   
 10   6  28  1   
 11   7   9  ar  
 12   7  10  ar  
 13   8  11  1   
 14   8  12  1   
 15   9  13  ar  
 16   9  14  1   
 17  10  15  ar  
 18  10  29  1   
 19  11  16  1   
 20  11  30  1   
 21  11  31  1   
 22  12  17  1   
 23  12  32  1   
 24  12  33  1   
 25  13  18  ar  
 26  13  34  1   
 27  14  35  1   
 28  14  36  1   
 29  14  37  1   
 30  15  18  ar  
 31  15  38  1   
 32  16  17  1   
 33  16  19  1   
 34  16  39  1   
 35  17  20  1   
 36  17  40  1   
 37  18  41  1   
 38  19  42  1   
 39  20  21  1   
 40  20  43  1   
 41  20  44  1   
 42  21  22  2   
 43  21  23  1   
 44  22  24  1   
 45  23  25  2   
 46  23  45  1   
 47  24  25  1   
 48  24  46  1   
 49  25  26  1   
 50  26  47  1   
 51  26  48  1   
 52  26  49  1   
@<TRIPOS>SUBSTRUCTURE
  1 ****   6 GROUP 4 **** **** 0

# MOE 2024.06 (io_trps.svl 2023.06)
