@<TRIPOS>MOLECULE
NONAME
41 43 1 0 0 
SMALL
USER_CHARGES


@<TRIPOS>ATOM
  1 O       -1.6590    -0.3090    -2.5640 O.2   1 <1>  -0.5700 
  2 C       -1.8740    -0.7470    -1.4630 C.2   1 <1>   0.5690 
  3 N       -1.9290     0.0500    -0.3560 N.am  1 <1>  -0.6600 
  4 C       -2.1360    -2.2270    -1.3490 C.3   1 <1>  -0.0190 
  5 C       -2.2810    -0.4640     0.9980 C.3   1 <1>   0.2200 
  6 C       -1.5920     1.5060    -0.4330 C.3   1 <1>   0.0600 
  7 C       -1.1240    -2.9300    -0.4190 C.3   1 <1>   0.1200 
  8 C       -3.6250    -2.4390    -1.0520 C.3   1 <1>   0.3430 
  9 C       -1.2370    -1.4980     1.4870 C.3   1 <1>   0.1200 
 10 C       -3.7480    -0.9770     1.0310 C.3   1 <1>   0.3430 
 11 O       -1.4320    -2.7770     0.9390 O.3   1 <1>  -0.5600 
 12 N       -3.9750    -2.3280     0.4030 N.4   1 <1>  -0.9590 
 13 C       -5.3170    -2.8840     0.7160 C.3   1 <1>   0.4860 
 14 C       -5.3500    -4.3560     0.3400 C.ar  1 <1>  -0.1440 
 15 C       -6.1630    -4.7940    -0.6950 C.ar  1 <1>  -0.1500 
 16 C       -4.5720    -5.2800     1.0240 C.ar  1 <1>  -0.1500 
 17 C       -6.1940    -6.1350    -1.0390 C.ar  1 <1>  -0.1500 
 18 C       -4.6080    -6.6180     0.6740 C.ar  1 <1>  -0.1500 
 19 C       -5.4190    -7.0690    -0.3620 C.ar  1 <1>   0.0730 
 20 C       -5.4580    -8.4590    -0.7200 C.1   1 <1>   0.4840 
 21 N       -5.4860    -9.5620    -1.0100 N.1   1 <1>  -0.5570 
 22 H       -1.9640    -2.6270    -2.3330 H     1 <1>   0.0800 
 23 H       -2.2280     0.3710     1.6760 H     1 <1>   0.0800 
 24 H       -0.7640     1.7270     0.2180 H     1 <1>   0.0800 
 25 H       -2.4420     2.0990    -0.1410 H     1 <1>   0.0800 
 26 H       -1.3140     1.7870    -1.4350 H     1 <1>   0.0800 
 27 H       -0.1240    -2.5670    -0.5940 H     1 <1>   0.0800 
 28 H       -1.1310    -3.9880    -0.6200 H     1 <1>   0.0800 
 29 H       -3.8830    -3.4270    -1.3960 H     1 <1>   0.0800 
 30 H       -4.2050    -1.7340    -1.6270 H     1 <1>   0.0800 
 31 H       -1.3210    -1.6060     2.5540 H     1 <1>   0.0800 
 32 H       -0.2360    -1.1670     1.2670 H     1 <1>   0.0800 
 33 H       -4.3770    -0.2420     0.5560 H     1 <1>   0.0800 
 34 H       -4.0420    -1.0330     2.0660 H     1 <1>   0.0800 
 35 H       -3.2730    -2.9450     0.8580 H     1 <1>   0.4500 
 36 H       -5.5210    -2.7880     1.7700 H     1 <1>   0.0800 
 37 H       -6.0770    -2.3470     0.1720 H     1 <1>   0.0800 
 38 H       -6.7840    -4.1040    -1.2420 H     1 <1>   0.1500 
 39 H       -3.9340    -4.9750     1.8380 H     1 <1>   0.1500 
 40 H       -6.8320    -6.4630    -1.8440 H     1 <1>   0.1500 
 41 H       -4.0000    -7.3270     1.2140 H     1 <1>   0.1500 
@<TRIPOS>BOND
  1   1   2  2   
  2   2   3  am  
  3   2   4  1   
  4   3   5  1   
  5   3   6  1   
  6   4   7  1   
  7   4   8  1   
  8   4  22  1   
  9   5   9  1   
 10   5  10  1   
 11   5  23  1   
 12   6  24  1   
 13   6  25  1   
 14   6  26  1   
 15   7  11  1   
 16   7  27  1   
 17   7  28  1   
 18   8  12  1   
 19   8  29  1   
 20   8  30  1   
 21   9  11  1   
 22   9  31  1   
 23   9  32  1   
 24  10  12  1   
 25  10  33  1   
 26  10  34  1   
 27  12  13  1   
 28  12  35  1   
 29  13  14  1   
 30  13  36  1   
 31  13  37  1   
 32  14  15  ar  
 33  14  16  ar  
 34  15  17  ar  
 35  15  38  1   
 36  16  18  ar  
 37  16  39  1   
 38  17  19  ar  
 39  17  40  1   
 40  18  19  ar  
 41  18  41  1   
 42  19  20  1   
 43  20  21  3   
@<TRIPOS>SUBSTRUCTURE
  1 ****  12 GROUP 4 **** **** 0

# MOE 2024.06 (io_trps.svl 2023.06)
