@<TRIPOS>MOLECULE
NONAME
48 51 1 0 0 
SMALL
USER_CHARGES


@<TRIPOS>ATOM
  1 O       -1.7690    -0.0120    -1.0640 O.2   1 <1>  -0.5700 
  2 C       -2.0800     0.7380    -0.1460 C.2   1 <1>   0.5650 
  3 N       -1.9360     2.1480    -0.2720 N.pl3 1 <1>   0.5610 
  4 C       -2.6040     0.2470     1.0940 C.2   1 <1>   0.0290 
  5 N       -1.5260     2.9000    -1.3480 N.2   1 <1>  -0.7070 
  6 C       -2.2540     2.9870     0.7670 C.2   1 <1>  -0.0680 
  7 C       -2.8060    -1.1580     1.2700 C.2   1 <1>   0.6160 
  8 C       -2.8860     1.1210     2.1160 C.2   1 <1>  -0.0500 
  9 C       -1.5860     4.1310    -0.9550 C.2   1 <1>   0.1080 
 10 N       -2.7220     2.4670     1.9810 N.pl3 1 <1>  -0.5840 
 11 C       -2.0330     4.2540     0.3550 C.2   1 <1>  -0.1500 
 12 O       -2.2570    -1.7160     2.2050 O.2   1 <1>  -0.5700 
 13 N       -3.6530    -1.9030     0.4800 N.am  1 <1>  -0.6600 
 14 C       -1.2030     5.2820    -1.8570 C.3   1 <1>  -0.0590 
 15 C       -4.5040    -1.4070    -0.6340 C.3   1 <1>   0.1400 
 16 C       -3.9440    -3.3300     0.7410 C.3   1 <1>   0.1400 
 17 C       -5.4940    -2.5400    -0.9310 C.3   1 <1>   0.2000 
 18 C       -4.7490    -3.7980    -0.4740 C.3   1 <1>  -0.0800 
 19 O       -6.6440    -2.3850    -0.1480 O.3   1 <1>  -0.5600 
 20 C       -5.6550    -5.0090    -0.1840 C.3   1 <1>   0.0200 
 21 C       -7.6300    -1.5690    -0.6980 C.3   1 <1>   0.0400 
 22 C       -4.8750    -6.2850     0.0910 C.2   1 <1>  -0.0400 
 23 O       -5.5330    -7.3630     0.4270 O.3   1 <1>  -0.0190 
 24 C       -3.5690    -6.5970     0.0650 C.2   1 <1>  -0.1500 
 25 N       -4.7400    -8.3760     0.6290 N.2   1 <1>  -0.4100 
 26 C       -3.5500    -7.9420     0.4200 C.2   1 <1>   0.1080 
 27 C       -2.3020    -8.7870     0.5440 C.3   1 <1>  -0.0590 
 28 H       -3.2480     0.7500     3.0630 H     1 <1>   0.1500 
 29 H       -2.9250     3.1170     2.7550 H     1 <1>   0.4000 
 30 H       -2.1680     5.1700     0.8990 H     1 <1>   0.1500 
 31 H       -1.3120     6.2180    -1.3420 H     1 <1>   0.0800 
 32 H       -1.8330     5.2810    -2.7270 H     1 <1>   0.0800 
 33 H       -0.1810     5.1670    -2.1690 H     1 <1>   0.0800 
 34 H       -5.0060    -0.4940    -0.3700 H     1 <1>   0.0800 
 35 H       -3.8850    -1.2480    -1.5000 H     1 <1>   0.0800 
 36 H       -3.0320    -3.8880     0.8650 H     1 <1>   0.0800 
 37 H       -4.5340    -3.4040     1.6390 H     1 <1>   0.0800 
 38 H       -5.7710    -2.5910    -1.9700 H     1 <1>   0.0800 
 39 H       -4.0520    -4.0630    -1.2490 H     1 <1>   0.0800 
 40 H       -6.2980    -5.1820    -1.0280 H     1 <1>   0.0800 
 41 H       -6.2820    -4.8010     0.6650 H     1 <1>   0.0800 
 42 H       -8.4470    -1.5170     0.0010 H     1 <1>   0.0800 
 43 H       -7.9740    -2.0010    -1.6220 H     1 <1>   0.0800 
 44 H       -7.2350    -0.5820    -0.8640 H     1 <1>   0.0800 
 45 H       -2.7120    -5.9940    -0.1670 H     1 <1>   0.1500 
 46 H       -1.6570    -8.3740     1.2990 H     1 <1>   0.0800 
 47 H       -1.7810    -8.8090    -0.3950 H     1 <1>   0.0800 
 48 H       -2.5640    -9.7920     0.8210 H     1 <1>   0.0800 
@<TRIPOS>BOND
  1   1   2  2   
  2   2   3  1   
  3   2   4  1   
  4   3   5  1   
  5   3   6  1   
  6   4   7  1   
  7   4   8  2   
  8   5   9  2   
  9   6  10  1   
 10   6  11  2   
 11   7  12  2   
 12   7  13  am  
 13   8  10  1   
 14   8  28  1   
 15   9  11  1   
 16   9  14  1   
 17  10  29  1   
 18  11  30  1   
 19  13  15  1   
 20  13  16  1   
 21  14  31  1   
 22  14  32  1   
 23  14  33  1   
 24  15  17  1   
 25  15  34  1   
 26  15  35  1   
 27  16  18  1   
 28  16  36  1   
 29  16  37  1   
 30  17  18  1   
 31  17  19  1   
 32  17  38  1   
 33  18  20  1   
 34  18  39  1   
 35  19  21  1   
 36  20  22  1   
 37  20  40  1   
 38  20  41  1   
 39  21  42  1   
 40  21  43  1   
 41  21  44  1   
 42  22  23  1   
 43  22  24  2   
 44  23  25  1   
 45  24  26  1   
 46  24  45  1   
 47  25  26  2   
 48  26  27  1   
 49  27  46  1   
 50  27  47  1   
 51  27  48  1   
@<TRIPOS>SUBSTRUCTURE
  1 ****  13 GROUP 4 **** **** 0

# MOE 2024.06 (io_trps.svl 2023.06)
