@<TRIPOS>MOLECULE
NONAME
42 43 1 0 0 
SMALL
USER_CHARGES


@<TRIPOS>ATOM
  1 S        0.9110     0.3910    -1.3130 S.3   1 <1>  -0.4600 
  2 C        2.0530     0.3930     0.1000 C.3   1 <1>   0.2500 
  3 C       -0.2310    -0.9630    -0.9330 C.3   1 <1>  -0.0100 
  4 C        2.9300     1.6280     0.0160 C.2   1 <1>  -0.0400 
  5 O        2.4810     2.7680     0.4910 O.3   1 <1>  -0.2800 
  6 C        4.1740     1.7920    -0.4840 C.2   1 <1>  -0.1500 
  7 C        3.4000     3.7120     0.3130 C.2   1 <1>   0.0550 
  8 C        4.4800     3.1400    -0.2950 C.2   1 <1>  -0.1500 
  9 C        3.1610     5.0750     0.7350 C.2   1 <1>   0.7150 
 10 O        2.2310     5.3680     1.4660 O.2   1 <1>  -0.5700 
 11 N        4.0280     6.0560     0.3110 N.am  1 <1>  -0.4940 
 12 C        3.9690     7.4590     0.4920 C.2   1 <1>  -0.0880 
 13 N        5.0350     8.2390     0.8220 N.pl3 1 <1>   0.3140 
 14 C        2.9120     8.3000     0.3740 C.2   1 <1>  -0.1810 
 15 N        4.6930     9.5420     0.9090 N.2   1 <1>  -0.7070 
 16 C        6.4080     7.7900     1.1250 C.3   1 <1>   0.0960 
 17 C        3.4240     9.5640     0.6460 C.2   1 <1>   0.1390 
 18 C        1.4680     7.9910     0.0220 C.3   1 <1>  -0.0590 
 19 C        7.2260     7.6090    -0.1620 C.3   1 <1>  -0.1600 
 20 C        8.6410     7.1050     0.1460 C.3   1 <1>  -0.1600 
 21 C        9.4510     6.9240    -1.1400 C.3   1 <1>  -0.2400 
 22 H        2.6380    -0.5060     0.0340 H     1 <1>   0.0800 
 23 H        1.4670     0.3960     1.0010 H     1 <1>   0.0800 
 24 H       -0.9400    -1.0260    -1.7380 H     1 <1>   0.0800 
 25 H       -0.7260    -0.7310    -0.0060 H     1 <1>   0.0800 
 26 H        0.3400    -1.8710    -0.8540 H     1 <1>   0.0800 
 27 H        4.8120     1.0570    -0.9430 H     1 <1>   0.1500 
 28 H        5.4070     3.5960    -0.5900 H     1 <1>   0.1500 
 29 H        4.8010     5.7130    -0.2540 H     1 <1>   0.3700 
 30 H        6.3510     6.8670     1.6720 H     1 <1>   0.0800 
 31 H        6.8690     8.5300     1.7530 H     1 <1>   0.0800 
 32 H        2.8390    10.4680     0.6400 H     1 <1>   0.1500 
 33 H        1.4080     7.0800    -0.5450 H     1 <1>   0.0800 
 34 H        1.0470     8.7890    -0.5610 H     1 <1>   0.0800 
 35 H        0.8950     7.8720     0.9240 H     1 <1>   0.0800 
 36 H        7.2870     8.5580    -0.6690 H     1 <1>   0.0800 
 37 H        6.7310     6.9090    -0.8110 H     1 <1>   0.0800 
 38 H        8.5910     6.1640     0.6680 H     1 <1>   0.0800 
 39 H        9.1460     7.8130     0.7820 H     1 <1>   0.0800 
 40 H        8.9810     6.2040    -1.7870 H     1 <1>   0.0800 
 41 H       10.4410     6.5760    -0.9050 H     1 <1>   0.0800 
 42 H        9.5350     7.8590    -1.6670 H     1 <1>   0.0800 
@<TRIPOS>BOND
  1   1   2  1   
  2   1   3  1   
  3   2   4  1   
  4   2  22  1   
  5   2  23  1   
  6   3  24  1   
  7   3  25  1   
  8   3  26  1   
  9   4   5  1   
 10   4   6  2   
 11   5   7  1   
 12   6   8  1   
 13   6  27  1   
 14   7   8  2   
 15   7   9  1   
 16   8  28  1   
 17   9  10  2   
 18   9  11  am  
 19  11  12  1   
 20  11  29  1   
 21  12  13  1   
 22  12  14  2   
 23  13  15  1   
 24  13  16  1   
 25  14  17  1   
 26  14  18  1   
 27  15  17  2   
 28  16  19  1   
 29  16  30  1   
 30  16  31  1   
 31  17  32  1   
 32  18  33  1   
 33  18  34  1   
 34  18  35  1   
 35  19  20  1   
 36  19  36  1   
 37  19  37  1   
 38  20  21  1   
 39  20  38  1   
 40  20  39  1   
 41  21  40  1   
 42  21  41  1   
 43  21  42  1   
@<TRIPOS>SUBSTRUCTURE
  1 ****  11 GROUP 4 **** **** 0

# MOE 2024.06 (io_trps.svl 2023.06)
