@<TRIPOS>MOLECULE
NONAME
38 39 1 0 0 
SMALL
USER_CHARGES


@<TRIPOS>ATOM
  1 CL       0.8910    -1.2210     2.1340 Cl    1 <1>  -0.1770 
  2 C        0.3380    -2.6920     1.3800 C.ar  1 <1>   0.1770 
  3 C        0.1180    -3.8100     2.1590 C.ar  1 <1>  -0.1500 
  4 C        0.1270    -2.7140     0.0110 C.ar  1 <1>  -0.1500 
  5 C       -0.3220    -4.9550     1.5250 C.ar  1 <1>   0.1900 
  6 C       -0.3150    -3.8770    -0.6030 C.ar  1 <1>  -0.1500 
  7 F       -0.5390    -6.0190     2.2480 F     1 <1>  -0.1900 
  8 C       -0.5490    -5.0180     0.1570 C.ar  1 <1>  -0.1440 
  9 C       -1.0350    -6.3070    -0.4800 C.3   1 <1>   0.4870 
 10 N       -2.4660    -6.5280    -0.1520 N.4   1 <1>  -0.9590 
 11 C       -2.9240    -7.8670    -0.6050 C.3   1 <1>   0.5240 
 12 C       -3.3830    -5.4140    -0.5410 C.3   1 <1>   0.3430 
 13 C       -2.5530    -8.8350     0.5060 C.2   1 <1>   0.0460 
 14 C       -4.6930    -5.4410     0.2590 C.3   1 <1>   0.1200 
 15 N       -2.7740    -8.4660     1.7860 N.2   1 <1>  -0.5650 
 16 C       -1.9870   -10.0630     0.4450 C.2   1 <1>  -0.3320 
 17 O       -5.5340    -4.4850    -0.2800 O.3   1 <1>  -0.6800 
 18 C       -2.3490    -9.4740     2.4760 C.2   1 <1>   0.0360 
 19 N       -1.8590   -10.4790     1.7210 N.pl3 1 <1>   0.0330 
 20 C       -1.5450   -10.9150    -0.7340 C.3   1 <1>  -0.0600 
 21 H        0.2860    -3.7880     3.2210 H     1 <1>   0.1500 
 22 H        0.3120    -1.8230    -0.5640 H     1 <1>   0.1500 
 23 H       -0.4690    -3.8770    -1.6700 H     1 <1>   0.1500 
 24 H       -0.4450    -7.1280    -0.1020 H     1 <1>   0.0800 
 25 H       -0.9030    -6.2550    -1.5480 H     1 <1>   0.0800 
 26 H       -2.4910    -6.6400     0.8830 H     1 <1>   0.4500 
 27 H       -2.4630    -8.1500    -1.5350 H     1 <1>   0.0800 
 28 H       -3.9940    -7.8790    -0.7220 H     1 <1>   0.0800 
 29 H       -3.6090    -5.4780    -1.5930 H     1 <1>   0.0800 
 30 H       -2.9060    -4.4660    -0.3540 H     1 <1>   0.0800 
 31 H       -4.5150    -5.1930     1.2920 H     1 <1>   0.0800 
 32 H       -5.1890    -6.3930     0.1860 H     1 <1>   0.0800 
 33 H       -6.3710    -4.4140     0.2270 H     1 <1>   0.4000 
 34 H       -2.3740    -9.5300     3.5520 H     1 <1>   0.1500 
 35 H       -1.4760   -11.3690     2.0600 H     1 <1>   0.2700 
 36 H       -1.7440   -10.4190    -1.6670 H     1 <1>   0.0800 
 37 H       -2.0740   -11.8530    -0.7310 H     1 <1>   0.0800 
 38 H       -0.4900   -11.1180    -0.6720 H     1 <1>   0.0800 
@<TRIPOS>BOND
  1   1   2  1   
  2   2   3  ar  
  3   2   4  ar  
  4   3   5  ar  
  5   3  21  1   
  6   4   6  ar  
  7   4  22  1   
  8   5   7  1   
  9   5   8  ar  
 10   6   8  ar  
 11   6  23  1   
 12   8   9  1   
 13   9  10  1   
 14   9  24  1   
 15   9  25  1   
 16  10  11  1   
 17  10  12  1   
 18  10  26  1   
 19  11  13  1   
 20  11  27  1   
 21  11  28  1   
 22  12  14  1   
 23  12  29  1   
 24  12  30  1   
 25  13  15  1   
 26  13  16  2   
 27  14  17  1   
 28  14  31  1   
 29  14  32  1   
 30  15  18  2   
 31  16  19  1   
 32  16  20  1   
 33  17  33  1   
 34  18  19  1   
 35  18  34  1   
 36  19  35  1   
 37  20  36  1   
 38  20  37  1   
 39  20  38  1   
@<TRIPOS>SUBSTRUCTURE
  1 ****  10 GROUP 4 **** **** 0

# MOE 2024.06 (io_trps.svl 2023.06)
