@<TRIPOS>MOLECULE
NONAME
45 47 1 0 0 
SMALL
USER_CHARGES


@<TRIPOS>ATOM
  1 O        0.8200    -0.2980    -1.1640 O.3   1 <1>  -0.0190 
  2 N        1.1280     0.9600    -1.0870 N.2   1 <1>  -0.4100 
  3 C        1.2900    -0.8100    -0.0530 C.2   1 <1>   0.2980 
  4 C        1.7440     1.1290     0.0160 C.2   1 <1>   0.3350 
  5 N        1.8840     0.0140     0.7160 N.2   1 <1>  -0.5650 
  6 C        1.1100    -2.3060     0.1940 C.3   1 <1>   0.2900 
  7 C        2.2910     2.4410     0.5450 C.3   1 <1>   0.0210 
  8 N       -0.2710    -2.6930     0.5720 N.3   1 <1>  -0.8100 
  9 C        1.9150     3.6250    -0.3460 C.3   1 <1>   0.1200 
 10 C       -1.2930    -2.4000    -0.4420 C.3   1 <1>   0.1100 
 11 C       -0.4080    -4.1200     0.9060 C.3   1 <1>   0.1100 
 12 O        2.4450     4.7830     0.2140 O.3   1 <1>  -0.5600 
 13 C       -2.4790    -3.2600    -0.0230 C.3   1 <1>   0.2000 
 14 C       -1.8180    -4.5510     0.4570 C.3   1 <1>  -0.0800 
 15 C        2.1670     5.9370    -0.5110 C.3   1 <1>   0.0400 
 16 O       -3.0640    -2.6500     1.0690 O.3   1 <1>  -0.6800 
 17 C       -1.7750    -5.5990    -0.6700 C.3   1 <1>   0.0200 
 18 C       -1.0300    -6.8530    -0.2500 C.2   1 <1>  -0.0400 
 19 O       -1.4100    -7.5210     0.8060 O.3   1 <1>  -0.0190 
 20 C        0.0350    -7.4800    -0.7740 C.2   1 <1>  -0.1500 
 21 N       -0.6530    -8.5580     1.0200 N.2   1 <1>  -0.4100 
 22 C        0.2240    -8.5610     0.0820 C.2   1 <1>   0.1080 
 23 C        1.3110    -9.6030    -0.0610 C.3   1 <1>  -0.0590 
 24 H        1.7730    -2.5870     0.9930 H     1 <1>   0.0800 
 25 H        1.4100    -2.8410    -0.6900 H     1 <1>   0.0800 
 26 H        3.3610     2.3660     0.6060 H     1 <1>   0.0800 
 27 H        1.8960     2.6020     1.5310 H     1 <1>   0.0800 
 28 H        0.8450     3.7240    -0.4050 H     1 <1>   0.0800 
 29 H        2.3260     3.4970    -1.3340 H     1 <1>   0.0800 
 30 H       -1.5500    -1.3540    -0.4600 H     1 <1>   0.0800 
 31 H       -0.9490    -2.7030    -1.4160 H     1 <1>   0.0800 
 32 H        0.3500    -4.7020     0.4090 H     1 <1>   0.0800 
 33 H       -0.2970    -4.2500     1.9700 H     1 <1>   0.0800 
 34 H       -3.2240    -3.3910    -0.7890 H     1 <1>   0.0800 
 35 H       -2.3620    -4.9700     1.2870 H     1 <1>   0.0800 
 36 H        2.6160     6.7700     0.0010 H     1 <1>   0.0800 
 37 H        1.1010     6.0750    -0.5650 H     1 <1>   0.0800 
 38 H        2.5890     5.8470    -1.4970 H     1 <1>   0.0800 
 39 H       -2.3300    -2.3520     1.6480 H     1 <1>   0.4000 
 40 H       -1.3020    -5.1880    -1.5430 H     1 <1>   0.0800 
 41 H       -2.7810    -5.8750    -0.9350 H     1 <1>   0.0800 
 42 H        0.6230    -7.2400    -1.6400 H     1 <1>   0.1500 
 43 H        1.2220   -10.0940    -1.0130 H     1 <1>   0.0800 
 44 H        1.2190   -10.3380     0.7180 H     1 <1>   0.0800 
 45 H        2.2760    -9.1380     0.0110 H     1 <1>   0.0800 
@<TRIPOS>BOND
  1   1   2  1   
  2   1   3  1   
  3   2   4  2   
  4   3   5  2   
  5   3   6  1   
  6   4   5  1   
  7   4   7  1   
  8   6   8  1   
  9   6  24  1   
 10   6  25  1   
 11   7   9  1   
 12   7  26  1   
 13   7  27  1   
 14   8  10  1   
 15   8  11  1   
 16   9  12  1   
 17   9  28  1   
 18   9  29  1   
 19  10  13  1   
 20  10  30  1   
 21  10  31  1   
 22  11  14  1   
 23  11  32  1   
 24  11  33  1   
 25  12  15  1   
 26  13  14  1   
 27  13  16  1   
 28  13  34  1   
 29  14  17  1   
 30  14  35  1   
 31  15  36  1   
 32  15  37  1   
 33  15  38  1   
 34  16  39  1   
 35  17  18  1   
 36  17  40  1   
 37  17  41  1   
 38  18  19  1   
 39  18  20  2   
 40  19  21  1   
 41  20  22  1   
 42  20  42  1   
 43  21  22  2   
 44  22  23  1   
 45  23  43  1   
 46  23  44  1   
 47  23  45  1   
@<TRIPOS>SUBSTRUCTURE
  1 ****   8 GROUP 4 **** **** 0

# MOE 2024.06 (io_trps.svl 2023.06)
