@<TRIPOS>MOLECULE
NONAME
59 62 1 0 0 
SMALL
USER_CHARGES


@<TRIPOS>ATOM
  1 O        5.0280    -1.7190    -0.2950 O.2   1 <1>  -0.5700 
  2 C        3.8120    -1.6270    -0.2940 C.2   1 <1>   0.5440 
  3 N        3.2990    -0.3990    -0.6430 N.am  1 <1>  -0.6600 
  4 C        2.9690    -2.7260     0.1230 C.ar  1 <1>   0.0860 
  5 C        3.8260     0.3460    -1.8340 C.3   1 <1>   0.1400 
  6 C        2.5880     0.4260     0.3660 C.3   1 <1>   0.1400 
  7 C        1.6200    -2.7820    -0.2240 C.ar  1 <1>   0.1600 
  8 C        3.4520    -3.7810     0.8910 C.ar  1 <1>  -0.1500 
  9 C        5.2130     0.9870    -1.6000 C.3   1 <1>   0.3430 
 10 C        3.5930     1.0620     1.3380 C.3   1 <1>  -0.1600 
 11 N        0.7620    -3.7220     0.1200 N.ar  1 <1>  -0.6200 
 12 C        2.5750    -4.7740     1.2540 C.ar  1 <1>  -0.1500 
 13 N        5.5810     1.0420    -0.1510 N.4   1 <1>  -0.9590 
 14 C        4.6970     1.9000     0.6820 C.3   1 <1>   0.3430 
 15 C        1.2400    -4.7230     0.8550 C.ar  1 <1>   0.4100 
 16 C        7.0270     1.2870     0.0580 C.3   1 <1>   0.5230 
 17 N        0.3610    -5.7250     1.2130 N.pl3 1 <1>  -0.8380 
 18 C        7.4430     2.6690    -0.4060 C.2   1 <1>  -0.3320 
 19 C       -1.1020    -5.4540     1.2830 C.3   1 <1>   0.1290 
 20 C        0.7240    -7.1560     1.0370 C.3   1 <1>   0.1290 
 21 N        8.7600     2.9980    -0.3520 N.pl3 1 <1>   0.5930 
 22 C        6.7830     3.7480    -0.8940 C.2   1 <1>  -0.1500 
 23 N        8.9440     4.2590    -0.7930 N.2   1 <1>  -0.7070 
 24 C        9.8080     2.1610     0.1090 C.ar  1 <1>  -0.0230 
 25 C        7.7710     4.6980    -1.1130 C.2   1 <1>   0.1390 
 26 C       10.3900     1.2240    -0.7400 C.ar  1 <1>  -0.1500 
 27 C       10.2490     2.2430     1.4250 C.ar  1 <1>  -0.1500 
 28 C       11.3740     0.3710    -0.2740 C.ar  1 <1>  -0.1500 
 29 C       11.2330     1.3890     1.8910 C.ar  1 <1>  -0.1500 
 30 C       11.7930     0.4500     1.0420 C.ar  1 <1>  -0.1500 
 31 H        3.1250     1.1110    -2.1170 H     1 <1>   0.0800 
 32 H        3.9000    -0.3320    -2.6670 H     1 <1>   0.0800 
 33 H        1.9010    -0.1920     0.9200 H     1 <1>   0.0800 
 34 H        2.0110     1.1900    -0.1290 H     1 <1>   0.0800 
 35 H        1.2220    -1.9900    -0.8340 H     1 <1>   0.1500 
 36 H        4.4850    -3.8140     1.1910 H     1 <1>   0.1500 
 37 H        5.2400     1.9700    -2.0390 H     1 <1>   0.0800 
 38 H        5.9400     0.3840    -2.1190 H     1 <1>   0.0800 
 39 H        4.0360     0.2970     1.9510 H     1 <1>   0.0800 
 40 H        3.0420     1.7040     2.0020 H     1 <1>   0.0800 
 41 H        2.9020    -5.6000     1.8570 H     1 <1>   0.1500 
 42 H        5.4050     0.0580     0.1480 H     1 <1>   0.4500 
 43 H        5.2800     2.3690     1.4590 H     1 <1>   0.0800 
 44 H        4.2610     2.6800     0.0800 H     1 <1>   0.0800 
 45 H        7.5960     0.5450    -0.4820 H     1 <1>   0.0800 
 46 H        7.2640     1.1780     1.1050 H     1 <1>   0.0800 
 47 H       -1.2740    -4.4400     1.6010 H     1 <1>   0.0800 
 48 H       -1.5670    -6.1190     1.9890 H     1 <1>   0.0800 
 49 H       -1.5440    -5.5930     0.3120 H     1 <1>   0.0800 
 50 H        1.7130    -7.2490     0.6240 H     1 <1>   0.0800 
 51 H        0.0300    -7.6290     0.3630 H     1 <1>   0.0800 
 52 H        0.6900    -7.6570     1.9880 H     1 <1>   0.0800 
 53 H        5.7400     3.9130    -1.0920 H     1 <1>   0.1500 
 54 H        7.5980     5.6900    -1.5030 H     1 <1>   0.1500 
 55 H       10.0830     1.1660    -1.7710 H     1 <1>   0.1500 
 56 H        9.8290     2.9810     2.0880 H     1 <1>   0.1500 
 57 H       11.8210    -0.3530    -0.9350 H     1 <1>   0.1500 
 58 H       11.5710     1.4580     2.9110 H     1 <1>   0.1500 
 59 H       12.5610    -0.2130     1.4040 H     1 <1>   0.1500 
@<TRIPOS>BOND
  1   1   2  2   
  2   2   3  am  
  3   2   4  1   
  4   3   5  1   
  5   3   6  1   
  6   4   7  ar  
  7   4   8  ar  
  8   5   9  1   
  9   5  31  1   
 10   5  32  1   
 11   6  10  1   
 12   6  33  1   
 13   6  34  1   
 14   7  11  ar  
 15   7  35  1   
 16   8  12  ar  
 17   8  36  1   
 18   9  13  1   
 19   9  37  1   
 20   9  38  1   
 21  10  14  1   
 22  10  39  1   
 23  10  40  1   
 24  11  15  ar  
 25  12  15  ar  
 26  12  41  1   
 27  13  14  1   
 28  13  16  1   
 29  13  42  1   
 30  14  43  1   
 31  14  44  1   
 32  15  17  1   
 33  16  18  1   
 34  16  45  1   
 35  16  46  1   
 36  17  19  1   
 37  17  20  1   
 38  18  21  1   
 39  18  22  2   
 40  19  47  1   
 41  19  48  1   
 42  19  49  1   
 43  20  50  1   
 44  20  51  1   
 45  20  52  1   
 46  21  23  1   
 47  21  24  1   
 48  22  25  1   
 49  22  53  1   
 50  23  25  2   
 51  24  26  ar  
 52  24  27  ar  
 53  25  54  1   
 54  26  28  ar  
 55  26  55  1   
 56  27  29  ar  
 57  27  56  1   
 58  28  30  ar  
 59  28  57  1   
 60  29  30  ar  
 61  29  58  1   
 62  30  59  1   
@<TRIPOS>SUBSTRUCTURE
  1 ****   1 GROUP 4 **** **** 0

# MOE 2024.06 (io_trps.svl 2023.06)
