@<TRIPOS>MOLECULE
NONAME
55 58 1 0 0 
SMALL
USER_CHARGES


@<TRIPOS>ATOM
  1 O       -0.0450    -0.7960     0.1280 O.3   1 <1>  -0.5600 
  2 C       -0.3010    -2.1190    -0.2240 C.3   1 <1>   0.2000 
  3 C        0.1210     0.0930    -0.9490 C.3   1 <1>   0.2640 
  4 C       -1.0520    -2.7740     0.9480 C.3   1 <1>   0.2090 
  5 C        1.0370    -2.8280    -0.4940 C.3   1 <1>  -0.1600 
  6 C        0.4050     1.5220    -0.4900 C.ar  1 <1>   0.1660 
  7 N       -1.2200    -4.2610     0.7220 N.pl3 1 <1>  -0.8380 
  8 C        0.8530    -4.3510    -0.6090 C.3   1 <1>  -0.1600 
  9 N        0.5330     2.4100    -1.4690 N.ar  1 <1>  -0.6200 
 10 C        0.5190     1.8460     0.8570 C.ar  1 <1>  -0.1500 
 11 C       -2.4430    -4.8330     0.6100 C.ar  1 <1>   0.7710 
 12 C        0.1130    -4.9300     0.6010 C.3   1 <1>   0.2090 
 13 C        0.7800     3.6550    -1.0930 C.ar  1 <1>   0.1600 
 14 C        0.7770     3.1470     1.2330 C.ar  1 <1>  -0.1500 
 15 N       -3.5280    -4.0620     0.6170 N.ar  1 <1>  -0.6200 
 16 N       -2.5470    -6.1600     0.4920 N.ar  1 <1>  -0.1790 
 17 C        0.9100     4.0710     0.2200 C.ar  1 <1>  -0.1500 
 18 C       -4.7020    -4.6160     0.5050 C.ar  1 <1>   0.4100 
 19 C       -3.7490    -6.8100     0.3690 C.ar  1 <1>   0.3610 
 20 N       -5.7260    -3.7580     0.5230 N.pl3 1 <1>  -0.9000 
 21 C       -4.8990    -6.0260     0.3720 C.ar  1 <1>   0.0000 
 22 C       -3.8370    -8.1920     0.2470 C.ar  1 <1>  -0.1500 
 23 C       -6.1400    -6.6710     0.2460 C.ar  1 <1>  -0.1500 
 24 C       -5.0530    -8.8230     0.1240 C.ar  1 <1>   0.0820 
 25 C       -6.2380    -8.0460     0.1220 C.ar  1 <1>   0.0820 
 26 O       -4.9600   -10.1710     0.0140 O.3   1 <1>  -0.3630 
 27 O       -7.4480    -8.6610     0.0000 O.3   1 <1>  -0.3620 
 28 C       -6.0580   -11.0480    -0.1190 C.3   1 <1>   0.0400 
 29 C       -8.6720    -7.9560    -0.0150 C.3   1 <1>   0.0400 
 30 H       -0.9350    -2.1380    -1.0940 H     1 <1>   0.0800 
 31 H       -0.7800     0.0890    -1.5370 H     1 <1>   0.0800 
 32 H        0.9420    -0.2430    -1.5570 H     1 <1>   0.0800 
 33 H       -1.9950    -2.2720     1.0710 H     1 <1>   0.0800 
 34 H       -0.4840    -2.6230     1.8500 H     1 <1>   0.0800 
 35 H        1.7120    -2.6180     0.3190 H     1 <1>   0.0800 
 36 H        1.4760    -2.4580    -1.4030 H     1 <1>   0.0800 
 37 H        1.8210    -4.8160    -0.6890 H     1 <1>   0.0800 
 38 H        0.3060    -4.5830    -1.5060 H     1 <1>   0.0800 
 39 H        0.4080     1.0900     1.6120 H     1 <1>   0.1500 
 40 H        0.0250    -5.9950     0.4850 H     1 <1>   0.0800 
 41 H        0.6870    -4.7430     1.4950 H     1 <1>   0.0800 
 42 H        0.8860     4.3860    -1.8770 H     1 <1>   0.1500 
 43 H        0.8690     3.4260     2.2680 H     1 <1>   0.1500 
 44 H       -1.6880    -6.6890     0.5140 H     1 <1>   0.4570 
 45 H        1.1110     5.1030     0.4430 H     1 <1>   0.1500 
 46 H       -6.7150    -4.0040     0.4530 H     1 <1>   0.4000 
 47 H       -5.5470    -2.7540     0.6210 H     1 <1>   0.4000 
 48 H       -2.9500    -8.7990     0.2450 H     1 <1>   0.1500 
 49 H       -7.0200    -6.0570     0.2480 H     1 <1>   0.1500 
 50 H       -5.6810   -12.0530    -0.1810 H     1 <1>   0.0800 
 51 H       -6.5950   -10.8040    -1.0180 H     1 <1>   0.0800 
 52 H       -6.6920   -10.9500     0.7450 H     1 <1>   0.0800 
 53 H       -9.4680    -8.6720    -0.1240 H     1 <1>   0.0800 
 54 H       -8.6790    -7.2800    -0.8520 H     1 <1>   0.0800 
 55 H       -8.7860    -7.4270     0.9150 H     1 <1>   0.0800 
@<TRIPOS>BOND
  1   1   2  1   
  2   1   3  1   
  3   2   4  1   
  4   2   5  1   
  5   2  30  1   
  6   3   6  1   
  7   3  31  1   
  8   3  32  1   
  9   4   7  1   
 10   4  33  1   
 11   4  34  1   
 12   5   8  1   
 13   5  35  1   
 14   5  36  1   
 15   6   9  ar  
 16   6  10  ar  
 17   7  11  1   
 18   7  12  1   
 19   8  12  1   
 20   8  37  1   
 21   8  38  1   
 22   9  13  ar  
 23  10  14  ar  
 24  10  39  1   
 25  11  15  ar  
 26  11  16  ar  
 27  12  40  1   
 28  12  41  1   
 29  13  17  ar  
 30  13  42  1   
 31  14  17  ar  
 32  14  43  1   
 33  15  18  ar  
 34  16  19  ar  
 35  16  44  1   
 36  17  45  1   
 37  18  20  1   
 38  18  21  ar  
 39  19  21  ar  
 40  19  22  ar  
 41  20  46  1   
 42  20  47  1   
 43  21  23  ar  
 44  22  24  ar  
 45  22  48  1   
 46  23  25  ar  
 47  23  49  1   
 48  24  25  ar  
 49  24  26  1   
 50  25  27  1   
 51  26  28  1   
 52  27  29  1   
 53  28  50  1   
 54  28  51  1   
 55  28  52  1   
 56  29  53  1   
 57  29  54  1   
 58  29  55  1   
@<TRIPOS>SUBSTRUCTURE
  1 ****  11 GROUP 4 **** **** 0

# MOE 2024.06 (io_trps.svl 2023.06)
