@<TRIPOS>MOLECULE
NONAME
60 62 1 0 0 
SMALL
USER_CHARGES


@<TRIPOS>ATOM
  1 O       -1.5710     1.4350    -1.4830 O.2   1 <1>  -0.5700 
  2 C       -2.0050     1.1240    -0.3910 C.2   1 <1>   0.7800 
  3 O       -1.9310     1.9870     0.6220 O.3   1 <1>  -0.4300 
  4 N       -2.5920    -0.0950    -0.1530 N.am  1 <1>  -0.6600 
  5 C       -1.3350     3.2530     0.4500 C.3   1 <1>   0.1200 
  6 C       -3.1530    -0.4860     1.1600 C.3   1 <1>   0.1400 
  7 C       -2.6800    -1.1310    -1.2060 C.3   1 <1>   0.1400 
  8 C       -1.4040     3.9930     1.7830 C.3   1 <1>  -0.2400 
  9 C       -4.6300    -0.8380     0.9770 C.3   1 <1>  -0.1600 
 10 C       -4.1520    -1.4780    -1.4240 C.3   1 <1>  -0.1600 
 11 C       -4.8170    -1.9150    -0.1080 C.3   1 <1>   0.4230 
 12 N       -6.2690    -2.2240    -0.3600 N.4   1 <1>  -0.9590 
 13 C       -6.3870    -3.4400    -1.2530 C.3   1 <1>   0.3430 
 14 C       -7.0870    -2.3260     0.8900 C.3   1 <1>   0.3430 
 15 C       -7.2600    -4.6060    -0.7300 C.3   1 <1>   0.0000 
 16 C       -8.5240    -2.7510     0.5870 C.3   1 <1>  -0.1600 
 17 C       -8.6230    -3.9690    -0.3470 C.3   1 <1>   0.2000 
 18 C       -7.4630    -5.5460    -1.9450 C.3   1 <1>   0.1200 
 19 C       -6.5930    -5.3990     0.4510 C.3   1 <1>  -0.0170 
 20 O       -9.4770    -4.9010     0.2190 O.3   1 <1>  -0.6800 
 21 O       -8.2810    -6.6120    -1.6230 O.3   1 <1>  -0.6800 
 22 C       -5.0990    -5.1530     0.6550 C.ar  1 <1>  -0.1440 
 23 C       -4.1780    -5.5000    -0.3230 C.ar  1 <1>  -0.1500 
 24 C       -4.6410    -4.5900     1.8400 C.ar  1 <1>  -0.1500 
 25 C       -2.8310    -5.2340    -0.1470 C.ar  1 <1>  -0.1500 
 26 C       -3.2940    -4.3290     2.0200 C.ar  1 <1>  -0.1500 
 27 C       -2.3890    -4.6410     1.0210 C.ar  1 <1>  -0.1500 
 28 H       -0.3140     3.1100     0.1400 H     1 <1>   0.0800 
 29 H       -1.8750     3.7850    -0.3160 H     1 <1>   0.0800 
 30 H       -2.6070    -1.3350     1.5350 H     1 <1>   0.0800 
 31 H       -3.0560     0.3130     1.8760 H     1 <1>   0.0800 
 32 H       -2.2470    -0.7780    -2.1280 H     1 <1>   0.0800 
 33 H       -2.1280    -2.0020    -0.8930 H     1 <1>   0.0800 
 34 H       -0.8700     3.4440     2.5390 H     1 <1>   0.0800 
 35 H       -2.4280     4.1210     2.0840 H     1 <1>   0.0800 
 36 H       -0.9520     4.9630     1.6810 H     1 <1>   0.0800 
 37 H       -5.1630     0.0580     0.7130 H     1 <1>   0.0800 
 38 H       -4.9830    -1.1890     1.9280 H     1 <1>   0.0800 
 39 H       -4.1880    -2.2600    -2.1580 H     1 <1>   0.0800 
 40 H       -4.6450    -0.6090    -1.8230 H     1 <1>   0.0800 
 41 H       -4.3180    -2.8080     0.2290 H     1 <1>   0.0800 
 42 H       -6.6330    -1.4170    -0.8840 H     1 <1>   0.4500 
 43 H       -6.8050    -3.1170    -2.1930 H     1 <1>   0.0800 
 44 H       -5.4070    -3.8230    -1.4740 H     1 <1>   0.0800 
 45 H       -6.6390    -3.0470     1.5510 H     1 <1>   0.0800 
 46 H       -7.1040    -1.3770     1.4010 H     1 <1>   0.0800 
 47 H       -9.0330    -1.9230     0.1280 H     1 <1>   0.0800 
 48 H       -9.0230    -2.9460     1.5200 H     1 <1>   0.0800 
 49 H       -9.1090    -3.6420    -1.2540 H     1 <1>   0.0800 
 50 H       -6.5280    -5.9560    -2.2870 H     1 <1>   0.0800 
 51 H       -7.9290    -5.0260    -2.7660 H     1 <1>   0.0800 
 52 H       -7.0950    -5.1690     1.3720 H     1 <1>   0.0800 
 53 H       -6.7270    -6.4590     0.3190 H     1 <1>   0.0800 
 54 H       -9.1680    -5.2090     1.0940 H     1 <1>   0.4000 
 55 H       -9.0900    -6.2940    -1.1560 H     1 <1>   0.4000 
 56 H       -4.4960    -5.9900    -1.2270 H     1 <1>   0.1500 
 57 H       -5.3210    -4.3600     2.6410 H     1 <1>   0.1500 
 58 H       -2.1220    -5.5030    -0.9120 H     1 <1>   0.1500 
 59 H       -2.9430    -3.8970     2.9430 H     1 <1>   0.1500 
 60 H       -1.3390    -4.4420     1.1620 H     1 <1>   0.1500 
@<TRIPOS>BOND
  1   1   2  2   
  2   2   3  1   
  3   2   4  am  
  4   3   5  1   
  5   4   6  1   
  6   4   7  1   
  7   5   8  1   
  8   5  28  1   
  9   5  29  1   
 10   6   9  1   
 11   6  30  1   
 12   6  31  1   
 13   7  10  1   
 14   7  32  1   
 15   7  33  1   
 16   8  34  1   
 17   8  35  1   
 18   8  36  1   
 19   9  11  1   
 20   9  37  1   
 21   9  38  1   
 22  10  11  1   
 23  10  39  1   
 24  10  40  1   
 25  11  12  1   
 26  11  41  1   
 27  12  13  1   
 28  12  14  1   
 29  12  42  1   
 30  13  15  1   
 31  13  43  1   
 32  13  44  1   
 33  14  16  1   
 34  14  45  1   
 35  14  46  1   
 36  15  17  1   
 37  15  18  1   
 38  15  19  1   
 39  16  17  1   
 40  16  47  1   
 41  16  48  1   
 42  17  20  1   
 43  17  49  1   
 44  18  21  1   
 45  18  50  1   
 46  18  51  1   
 47  19  22  1   
 48  19  52  1   
 49  19  53  1   
 50  20  54  1   
 51  21  55  1   
 52  22  23  ar  
 53  22  24  ar  
 54  23  25  ar  
 55  23  56  1   
 56  24  26  ar  
 57  24  57  1   
 58  25  27  ar  
 59  25  58  1   
 60  26  27  ar  
 61  26  59  1   
 62  27  60  1   
@<TRIPOS>SUBSTRUCTURE
  1 ****  11 GROUP 4 **** **** 0

# MOE 2024.06 (io_trps.svl 2023.06)
