@<TRIPOS>MOLECULE
NONAME
49 52 1 0 0 
SMALL
USER_CHARGES


@<TRIPOS>ATOM
  1 S       -0.8160     0.5450     0.6120 S.o2  1 <1>   1.5010 
  2 O       -1.2220     1.8880     0.9620 O.2   1 <1>  -0.6500 
  3 O       -0.9030    -0.4930     1.6160 O.2   1 <1>  -0.6500 
  4 N       -1.7730     0.0800    -0.7110 N.am  1 <1>  -0.8490 
  5 C        0.8320     0.5970    -0.1000 C.2   1 <1>  -0.0630 
  6 C       -3.2130     0.3460    -0.5200 C.3   1 <1>   0.1960 
  7 C       -1.5650    -1.3070    -1.1770 C.3   1 <1>   0.1960 
  8 C        1.9480    -0.1210     0.1220 C.2   1 <1>  -0.0400 
  9 C        1.2430     1.4500    -1.1050 C.2   1 <1>   0.1080 
 10 C       -3.9050    -0.6990     0.3820 C.3   1 <1>   0.1900 
 11 C       -2.3060    -2.3760    -0.3410 C.3   1 <1>   0.1100 
 12 O        2.9340     0.2490    -0.6660 O.3   1 <1>  -0.0190 
 13 C        2.2390    -1.2470     1.0980 C.3   1 <1>  -0.0600 
 14 N        2.4630     1.2200    -1.4130 N.2   1 <1>  -0.4100 
 15 C        0.4030     2.5180    -1.7760 C.3   1 <1>  -0.0590 
 16 N       -3.7410    -2.0550    -0.1940 N.3   1 <1>  -0.8100 
 17 C       -5.4010    -0.3670     0.5460 C.3   1 <1>   0.1200 
 18 C       -4.4460    -3.0420     0.6570 C.3   1 <1>   0.3330 
 19 O       -6.0310    -1.3240     1.3500 O.3   1 <1>  -0.5600 
 20 C       -4.3780    -4.4400     0.0430 C.ar  1 <1>  -0.1440 
 21 C       -5.9220    -2.6320     0.8510 C.3   1 <1>   0.1200 
 22 C       -3.9900    -5.5220     0.8200 C.ar  1 <1>  -0.1500 
 23 C       -4.7000    -4.6490    -1.2910 C.ar  1 <1>  -0.1500 
 24 C       -3.9250    -6.7920     0.2730 C.ar  1 <1>  -0.1500 
 25 C       -4.6360    -5.9170    -1.8400 C.ar  1 <1>  -0.1500 
 26 C       -4.2470    -6.9900    -1.0580 C.ar  1 <1>  -0.1500 
 27 H       -3.3560     1.3310    -0.1100 H     1 <1>   0.0800 
 28 H       -3.6950     0.3310    -1.4830 H     1 <1>   0.0800 
 29 H       -1.9250    -1.3800    -2.1890 H     1 <1>   0.0800 
 30 H       -0.5140    -1.5370    -1.2000 H     1 <1>   0.0800 
 31 H       -3.4570    -0.6600     1.3600 H     1 <1>   0.0800 
 32 H       -1.8490    -2.4770     0.6270 H     1 <1>   0.0800 
 33 H       -2.2020    -3.3220    -0.8440 H     1 <1>   0.0800 
 34 H        1.3890    -1.4720     1.7130 H     1 <1>   0.0800 
 35 H        3.0560    -0.9670     1.7370 H     1 <1>   0.0800 
 36 H        2.5150    -2.1330     0.5560 H     1 <1>   0.0800 
 37 H       -0.4540     2.0740    -2.2490 H     1 <1>   0.0800 
 38 H        0.9840     3.0270    -2.5230 H     1 <1>   0.0800 
 39 H        0.0720     3.2380    -1.0490 H     1 <1>   0.0800 
 40 H       -5.8950    -0.3440    -0.4100 H     1 <1>   0.0800 
 41 H       -5.5220     0.5880     1.0260 H     1 <1>   0.0800 
 42 H       -3.9800    -3.0630     1.6270 H     1 <1>   0.0800 
 43 H       -6.3970    -3.2930     1.5530 H     1 <1>   0.0800 
 44 H       -6.4510    -2.6860    -0.0840 H     1 <1>   0.0800 
 45 H       -3.7370    -5.3830     1.8570 H     1 <1>   0.1500 
 46 H       -4.9960    -3.8150    -1.9050 H     1 <1>   0.1500 
 47 H       -3.6240    -7.6270     0.8820 H     1 <1>   0.1500 
 48 H       -4.8880    -6.0690    -2.8760 H     1 <1>   0.1500 
 49 H       -4.1960    -7.9760    -1.4840 H     1 <1>   0.1500 
@<TRIPOS>BOND
  1   1   2  2   
  2   1   3  2   
  3   1   4  am  
  4   1   5  1   
  5   4   6  1   
  6   4   7  1   
  7   5   8  2   
  8   5   9  1   
  9   6  10  1   
 10   6  27  1   
 11   6  28  1   
 12   7  11  1   
 13   7  29  1   
 14   7  30  1   
 15   8  12  1   
 16   8  13  1   
 17   9  14  2   
 18   9  15  1   
 19  10  16  1   
 20  10  17  1   
 21  10  31  1   
 22  11  16  1   
 23  11  32  1   
 24  11  33  1   
 25  12  14  1   
 26  13  34  1   
 27  13  35  1   
 28  13  36  1   
 29  15  37  1   
 30  15  38  1   
 31  15  39  1   
 32  16  18  1   
 33  17  19  1   
 34  17  40  1   
 35  17  41  1   
 36  18  20  1   
 37  18  21  1   
 38  18  42  1   
 39  19  21  1   
 40  20  22  ar  
 41  20  23  ar  
 42  21  43  1   
 43  21  44  1   
 44  22  24  ar  
 45  22  45  1   
 46  23  25  ar  
 47  23  46  1   
 48  24  26  ar  
 49  24  47  1   
 50  25  26  ar  
 51  25  48  1   
 52  26  49  1   
@<TRIPOS>SUBSTRUCTURE
  1 ****  11 GROUP 4 **** **** 0

# MOE 2024.06 (io_trps.svl 2023.06)
