@<TRIPOS>MOLECULE
NONAME
47 50 1 0 0 
SMALL
USER_CHARGES


@<TRIPOS>ATOM
  1 CL       0.4410     2.1400    -2.6710 Cl    1 <1>  -0.1770 
  2 C       -0.9350     2.4570    -1.6360 C.ar  1 <1>   0.1770 
  3 C       -1.2160     3.7460    -1.1890 C.ar  1 <1>  -0.1440 
  4 C       -1.7240     1.3760    -1.2850 C.ar  1 <1>  -0.1500 
  5 C       -2.3240     3.9320    -0.3710 C.ar  1 <1>  -0.1500 
  6 C       -0.3630     4.9600    -1.5660 C.3   1 <1>   0.0450 
  7 C       -2.8230     1.5760    -0.4720 C.ar  1 <1>   0.0830 
  8 C       -3.1200     2.8590    -0.0070 C.ar  1 <1>   0.0830 
  9 C        0.1060     5.7580    -0.3560 C.2   1 <1>   0.5690 
 10 O       -3.5980     0.5110    -0.1440 O.3   1 <1>  -0.3630 
 11 O       -4.1840     3.0790     0.8070 O.3   1 <1>  -0.3630 
 12 O       -0.4560     6.8090    -0.1430 O.2   1 <1>  -0.5700 
 13 N        1.1410     5.3240     0.4420 N.am  1 <1>  -0.6600 
 14 C       -4.8700     0.7910     0.4100 C.3   1 <1>   0.1200 
 15 C       -4.7700     1.9440     1.4170 C.3   1 <1>   0.1200 
 16 C        1.7710     6.2640     1.4270 C.3   1 <1>   0.1400 
 17 C        1.8880     4.0440     0.2430 C.3   1 <1>   0.1400 
 18 C        3.1430     6.8240     0.9640 C.3   1 <1>   0.2200 
 19 C        3.2640     4.2460    -0.4260 C.3   1 <1>  -0.0190 
 20 N        3.3390     6.7530    -0.5220 N.am  1 <1>  -0.6600 
 21 C        4.3230     6.1590     1.7010 C.3   1 <1>   0.1200 
 22 C        3.3680     5.5560    -1.1910 C.2   1 <1>   0.5690 
 23 C        4.4420     4.0900     0.5460 C.3   1 <1>   0.1200 
 24 C        3.2490     8.0520    -1.2450 C.3   1 <1>   0.0600 
 25 O        4.2210     4.7640     1.7470 O.3   1 <1>  -0.5600 
 26 O        3.4710     5.4930    -2.3940 O.2   1 <1>  -0.5700 
 27 H       -1.4890     0.3910    -1.6420 H     1 <1>   0.1500 
 28 H       -2.5780     4.9120    -0.0040 H     1 <1>   0.1500 
 29 H       -0.9570     5.6080    -2.1840 H     1 <1>   0.0800 
 30 H        0.4980     4.6920    -2.1460 H     1 <1>   0.0800 
 31 H       -5.5340     1.0540    -0.3940 H     1 <1>   0.0800 
 32 H       -5.2280    -0.1040     0.8860 H     1 <1>   0.0800 
 33 H       -4.1560     1.6590     2.2530 H     1 <1>   0.0800 
 34 H       -5.7440     2.2260     1.7740 H     1 <1>   0.0800 
 35 H        1.1140     7.0970     1.6030 H     1 <1>   0.0800 
 36 H        1.8800     5.7610     2.3720 H     1 <1>   0.0800 
 37 H        2.0110     3.5610     1.1980 H     1 <1>   0.0800 
 38 H        1.3080     3.3740    -0.3610 H     1 <1>   0.0800 
 39 H        3.1680     7.8610     1.2490 H     1 <1>   0.0800 
 40 H        3.3780     3.4590    -1.1490 H     1 <1>   0.0800 
 41 H        4.3280     6.4950     2.7230 H     1 <1>   0.0800 
 42 H        5.2620     6.4340     1.2530 H     1 <1>   0.0800 
 43 H        5.3620     4.4380     0.1070 H     1 <1>   0.0800 
 44 H        4.5600     3.0500     0.7960 H     1 <1>   0.0800 
 45 H        3.9970     8.7300    -0.8750 H     1 <1>   0.0800 
 46 H        2.2720     8.4780    -1.0980 H     1 <1>   0.0800 
 47 H        3.4060     7.9130    -2.3010 H     1 <1>   0.0800 
@<TRIPOS>BOND
  1   1   2  1   
  2   2   3  ar  
  3   2   4  ar  
  4   3   5  ar  
  5   3   6  1   
  6   4   7  ar  
  7   4  27  1   
  8   5   8  ar  
  9   5  28  1   
 10   6   9  1   
 11   6  29  1   
 12   6  30  1   
 13   7   8  ar  
 14   7  10  1   
 15   8  11  1   
 16   9  12  2   
 17   9  13  am  
 18  10  14  1   
 19  11  15  1   
 20  13  16  1   
 21  13  17  1   
 22  14  15  1   
 23  14  31  1   
 24  14  32  1   
 25  15  33  1   
 26  15  34  1   
 27  16  18  1   
 28  16  35  1   
 29  16  36  1   
 30  17  19  1   
 31  17  37  1   
 32  17  38  1   
 33  18  20  1   
 34  18  21  1   
 35  18  39  1   
 36  19  22  1   
 37  19  23  1   
 38  19  40  1   
 39  20  22  am  
 40  20  24  1   
 41  21  25  1   
 42  21  41  1   
 43  21  42  1   
 44  22  26  2   
 45  23  25  1   
 46  23  43  1   
 47  23  44  1   
 48  24  45  1   
 49  24  46  1   
 50  24  47  1   
@<TRIPOS>SUBSTRUCTURE
  1 ****  13 GROUP 4 **** **** 0

# MOE 2024.06 (io_trps.svl 2023.06)
