@<TRIPOS>MOLECULE
NONAME
54 57 1 0 0 
SMALL
USER_CHARGES


@<TRIPOS>ATOM
  1 O       -0.9960     1.1550    -1.8610 O.2   1 <1>  -0.5700 
  2 C       -1.9210     1.5930    -1.2010 C.2   1 <1>   0.7150 
  3 N       -3.1530     0.9830    -1.2880 N.am  1 <1>  -0.6600 
  4 C       -1.7020     2.7080    -0.3290 C.2   1 <1>  -0.2370 
  5 C       -3.4600    -0.0310    -2.3340 C.3   1 <1>   0.1400 
  6 C       -4.2070     1.1010    -0.2440 C.3   1 <1>   0.1400 
  7 N       -0.6720     2.7950     0.5510 N.pl3 1 <1>   0.3140 
  8 C       -2.4110     3.8600    -0.1690 C.2   1 <1>  -0.1500 
  9 C       -3.6290    -1.4000    -1.6720 C.3   1 <1>  -0.1600 
 10 C       -4.3810    -0.2550     0.4430 C.3   1 <1>  -0.1600 
 11 N       -0.7150     3.9330     1.2650 N.2   1 <1>  -0.7070 
 12 C        0.4000     1.8000     0.7880 C.3   1 <1>   0.0960 
 13 C       -1.7550     4.5650     0.8220 C.2   1 <1>   0.1080 
 14 C       -4.6940    -1.3750    -0.5660 C.3   1 <1>   0.4240 
 15 C       -0.1270     0.5740     1.5470 C.3   1 <1>  -0.2400 
 16 C       -2.1610     5.9170     1.3600 C.3   1 <1>  -0.0590 
 17 O       -5.8980    -1.0470    -1.2190 O.3   1 <1>  -0.5600 
 18 C       -4.7750    -2.7490     0.1340 C.ar  1 <1>  -0.1430 
 19 C       -7.0910    -1.3900    -0.5850 C.3   1 <1>   0.1200 
 20 C       -5.9600    -3.4790     0.1540 C.ar  1 <1>  -0.1430 
 21 C       -3.6580    -3.2840     0.7670 C.ar  1 <1>  -0.1500 
 22 C       -7.1930    -2.9110    -0.5190 C.3   1 <1>  -0.0170 
 23 C       -6.0220    -4.7130     0.7820 C.ar  1 <1>  -0.1500 
 24 C       -3.7190    -4.5140     1.3960 C.ar  1 <1>  -0.1500 
 25 C       -4.8970    -5.2380     1.4090 C.ar  1 <1>   0.0820 
 26 O       -4.8730    -6.4360     2.0450 O.3   1 <1>  -0.3630 
 27 C       -6.0140    -7.2620     2.0960 C.3   1 <1>   0.0400 
 28 H       -2.6740    -0.0740    -3.0690 H     1 <1>   0.0800 
 29 H       -4.3700     0.2490    -2.8390 H     1 <1>   0.0800 
 30 H       -5.1310     1.4030    -0.7080 H     1 <1>   0.0800 
 31 H       -3.9450     1.8370     0.4950 H     1 <1>   0.0800 
 32 H       -3.2950     4.1690    -0.6970 H     1 <1>   0.1500 
 33 H       -2.6780    -1.6920    -1.2700 H     1 <1>   0.0800 
 34 H       -3.9050    -2.1300    -2.4100 H     1 <1>   0.0800 
 35 H       -5.1570    -0.1970     1.1820 H     1 <1>   0.0800 
 36 H       -3.4710    -0.4850     0.9630 H     1 <1>   0.0800 
 37 H        1.1730     2.2770     1.3630 H     1 <1>   0.0800 
 38 H        0.8180     1.5090    -0.1580 H     1 <1>   0.0800 
 39 H       -0.5600     0.8780     2.4830 H     1 <1>   0.0800 
 40 H        0.6840    -0.1020     1.7470 H     1 <1>   0.0800 
 41 H       -0.8630     0.0550     0.9610 H     1 <1>   0.0800 
 42 H       -3.0380     6.2770     0.8540 H     1 <1>   0.0800 
 43 H       -1.3580     6.6150     1.2130 H     1 <1>   0.0800 
 44 H       -2.3660     5.8370     2.4110 H     1 <1>   0.0800 
 45 H       -7.9010    -0.9840    -1.1650 H     1 <1>   0.0800 
 46 H       -7.1090    -0.9570     0.3990 H     1 <1>   0.0800 
 47 H       -2.7260    -2.7480     0.7780 H     1 <1>   0.1500 
 48 H       -7.2780    -3.3080    -1.5140 H     1 <1>   0.0800 
 49 H       -8.0760    -3.1820     0.0310 H     1 <1>   0.0800 
 50 H       -6.9480    -5.2530     0.7760 H     1 <1>   0.1500 
 51 H       -2.8510    -4.9220     1.8820 H     1 <1>   0.1500 
 52 H       -5.7560    -8.1540     2.6380 H     1 <1>   0.0800 
 53 H       -6.3060    -7.5160     1.0920 H     1 <1>   0.0800 
 54 H       -6.8010    -6.7380     2.6070 H     1 <1>   0.0800 
@<TRIPOS>BOND
  1   1   2  2   
  2   2   3  am  
  3   2   4  1   
  4   3   5  1   
  5   3   6  1   
  6   4   7  1   
  7   4   8  2   
  8   5   9  1   
  9   5  28  1   
 10   5  29  1   
 11   6  10  1   
 12   6  30  1   
 13   6  31  1   
 14   7  11  1   
 15   7  12  1   
 16   8  13  1   
 17   8  32  1   
 18   9  14  1   
 19   9  33  1   
 20   9  34  1   
 21  10  14  1   
 22  10  35  1   
 23  10  36  1   
 24  11  13  2   
 25  12  15  1   
 26  12  37  1   
 27  12  38  1   
 28  13  16  1   
 29  14  17  1   
 30  14  18  1   
 31  15  39  1   
 32  15  40  1   
 33  15  41  1   
 34  16  42  1   
 35  16  43  1   
 36  16  44  1   
 37  17  19  1   
 38  18  20  ar  
 39  18  21  ar  
 40  19  22  1   
 41  19  45  1   
 42  19  46  1   
 43  20  22  1   
 44  20  23  ar  
 45  21  24  ar  
 46  21  47  1   
 47  22  48  1   
 48  22  49  1   
 49  23  25  ar  
 50  23  50  1   
 51  24  25  ar  
 52  24  51  1   
 53  25  26  1   
 54  26  27  1   
 55  27  52  1   
 56  27  53  1   
 57  27  54  1   
@<TRIPOS>SUBSTRUCTURE
  1 ****  10 GROUP 4 **** **** 0

# MOE 2024.06 (io_trps.svl 2023.06)
