@<TRIPOS>MOLECULE
NONAME
38 40 1 0 0 
SMALL
USER_CHARGES


@<TRIPOS>ATOM
  1 S        1.4240    -1.3390     2.2820 S.3   1 <1>  -0.0800 
  2 C        1.2030    -1.1870     0.5480 C.2   1 <1>  -0.0450 
  3 C        1.8160     0.3540     2.3810 C.2   1 <1>   0.2280 
  4 C        1.4460     0.1110     0.2350 C.2   1 <1>   0.0460 
  5 C        0.8280    -2.3590    -0.2050 C.2   1 <1>   0.7150 
  6 N        1.7870     0.9630     1.2660 N.2   1 <1>  -0.5650 
  7 C        1.3910     0.7580    -1.1360 C.3   1 <1>  -0.0590 
  8 O        0.6160    -2.3100    -1.4010 O.2   1 <1>  -0.5700 
  9 N        0.6910    -3.5630     0.4180 N.am  1 <1>  -0.7300 
 10 C        0.3000    -4.8340    -0.2290 C.3   1 <1>   0.2200 
 11 C       -1.1600    -5.1190     0.0770 C.3   1 <1>  -0.0800 
 12 C        0.9950    -5.9960     0.4700 C.3   1 <1>   0.1200 
 13 C       -1.0790    -5.7900     1.4530 C.3   1 <1>   0.1200 
 14 C       -1.7910    -6.0380    -0.9860 C.3   1 <1>  -0.0160 
 15 O        0.2220    -6.2850     1.5960 O.3   1 <1>  -0.5600 
 16 C       -3.2610    -6.2990    -0.6940 C.ar  1 <1>  -0.1440 
 17 C       -3.7080    -7.5060    -0.1950 C.ar  1 <1>  -0.1500 
 18 C       -4.2250    -5.3370    -0.9170 C.ar  1 <1>  -0.1500 
 19 C       -5.0590    -7.6840     0.0560 C.ar  1 <1>   0.1600 
 20 C       -5.5510    -5.6170    -0.6320 C.ar  1 <1>   0.1600 
 21 N       -5.9910    -6.7680    -0.1490 N.ar  1 <1>  -0.6200 
 22 H        2.0480     0.7540     3.3530 H     1 <1>   0.1500 
 23 H        1.1400     0.0530    -1.9040 H     1 <1>   0.0800 
 24 H        2.3480     1.1890    -1.3680 H     1 <1>   0.0800 
 25 H        0.6550     1.5400    -1.1340 H     1 <1>   0.0800 
 26 H        0.8280    -3.6190     1.4290 H     1 <1>   0.3700 
 27 H        0.5180    -4.8040    -1.2840 H     1 <1>   0.0800 
 28 H       -1.7320    -4.2090     0.1260 H     1 <1>   0.0800 
 29 H        2.0010    -5.7600     0.7720 H     1 <1>   0.0800 
 30 H        1.0000    -6.8710    -0.1560 H     1 <1>   0.0800 
 31 H       -1.7760    -6.6010     1.5710 H     1 <1>   0.0800 
 32 H       -1.2390    -5.0700     2.2370 H     1 <1>   0.0800 
 33 H       -1.2620    -6.9740    -1.0340 H     1 <1>   0.0800 
 34 H       -1.7120    -5.5710    -1.9530 H     1 <1>   0.0800 
 35 H       -3.0220    -8.3090     0.0030 H     1 <1>   0.1500 
 36 H       -3.9590    -4.3720    -1.3080 H     1 <1>   0.1500 
 37 H       -5.3900    -8.6320     0.4460 H     1 <1>   0.1500 
 38 H       -6.2900    -4.8540    -0.8110 H     1 <1>   0.1500 
@<TRIPOS>BOND
  1   1   2  1   
  2   1   3  1   
  3   2   4  2   
  4   2   5  1   
  5   3   6  2   
  6   3  22  1   
  7   4   6  1   
  8   4   7  1   
  9   5   8  2   
 10   5   9  am  
 11   7  23  1   
 12   7  24  1   
 13   7  25  1   
 14   9  10  1   
 15   9  26  1   
 16  10  11  1   
 17  10  12  1   
 18  10  27  1   
 19  11  13  1   
 20  11  14  1   
 21  11  28  1   
 22  12  15  1   
 23  12  29  1   
 24  12  30  1   
 25  13  15  1   
 26  13  31  1   
 27  13  32  1   
 28  14  16  1   
 29  14  33  1   
 30  14  34  1   
 31  16  17  ar  
 32  16  18  ar  
 33  17  19  ar  
 34  17  35  1   
 35  18  20  ar  
 36  18  36  1   
 37  19  21  ar  
 38  19  37  1   
 39  20  21  ar  
 40  20  38  1   
@<TRIPOS>SUBSTRUCTURE
  1 ****  11 GROUP 4 **** **** 0

# MOE 2024.06 (io_trps.svl 2023.06)
