@<TRIPOS>MOLECULE
NONAME
48 52 1 0 0 
SMALL
USER_CHARGES


@<TRIPOS>ATOM
  1 O       -0.3960     0.2350     0.1560 O.2   1 <1>  -0.5700 
  2 C       -1.3860     0.8690     0.4840 C.2   1 <1>   0.7150 
  3 N       -2.5840     0.1760     0.5290 N.am  1 <1>  -0.6600 
  4 C       -1.2580     2.2720     0.7970 C.2   1 <1>   0.1020 
  5 C       -2.6390    -1.3180     0.6460 C.3   1 <1>   0.1400 
  6 C       -3.9420     0.8100     0.4800 C.3   1 <1>   0.1400 
  7 N       -2.1150     3.0150     1.4630 N.2   1 <1>  -0.3380 
  8 N       -0.1870     3.0120     0.4390 N.pl3 1 <1>   0.3340 
  9 C       -3.6430    -1.9290    -0.3480 C.3   1 <1>   0.3440 
 10 C       -4.8910     0.0640    -0.4880 C.3   1 <1>   0.2950 
 11 N       -1.6350     4.2400     1.5400 N.2   1 <1>  -0.3380 
 12 C       -0.4810     4.2400     0.9300 C.2   1 <1>   0.3120 
 13 C        1.0010     2.8270    -0.2550 C.2   1 <1>  -0.1810 
 14 O       -4.8920    -1.3060    -0.2110 O.3   1 <1>  -0.5600 
 15 C       -3.7900    -3.4280    -0.1070 C.ar  1 <1>  -0.1440 
 16 C       -6.3570     0.5280    -0.4350 C.3   1 <1>  -0.1950 
 17 N        0.3420     5.3290     0.7870 N.2   1 <1>  -0.5760 
 18 C        1.8240     3.8970    -0.4030 C.2   1 <1>  -0.1360 
 19 C       -2.9860    -4.3180    -0.8060 C.ar  1 <1>  -0.1500 
 20 C       -4.7050    -3.9270     0.8110 C.ar  1 <1>  -0.1500 
 21 C       -6.7720     1.9280    -0.0900 C.3   1 <1>  -0.2000 
 22 C       -7.1040     0.7900     0.8360 C.3   1 <1>  -0.2000 
 23 C        1.4470     5.1510     0.1450 C.2   1 <1>   0.3750 
 24 C       -3.0920    -5.6810    -0.5900 C.ar  1 <1>  -0.1500 
 25 C       -4.8130    -5.2890     1.0280 C.ar  1 <1>  -0.1500 
 26 C        2.3830     6.3260    -0.0330 C.3   1 <1>  -0.1790 
 27 C       -4.0060    -6.1680     0.3280 C.ar  1 <1>  -0.1500 
 28 H       -1.6710    -1.7550     0.4730 H     1 <1>   0.0800 
 29 H       -2.9390    -1.5820     1.6450 H     1 <1>   0.0800 
 30 H       -4.3590     0.8140     1.4700 H     1 <1>   0.0800 
 31 H       -3.8680     1.8280     0.1450 H     1 <1>   0.0800 
 32 H       -3.3000    -1.7660    -1.3550 H     1 <1>   0.0800 
 33 H       -4.5330     0.1990    -1.4940 H     1 <1>   0.0800 
 34 H        1.2170     1.8470    -0.6420 H     1 <1>   0.1500 
 35 H       -6.9200     0.0540    -1.2210 H     1 <1>   0.1000 
 36 H        2.7610     3.8270    -0.9260 H     1 <1>   0.1500 
 37 H       -2.2690    -3.9560    -1.5230 H     1 <1>   0.1500 
 38 H       -5.3400    -3.2510     1.3590 H     1 <1>   0.1500 
 39 H       -6.0540     2.6550     0.2510 H     1 <1>   0.1000 
 40 H       -7.5700     2.3810    -0.6510 H     1 <1>   0.1000 
 41 H       -8.1240     0.4530     0.9040 H     1 <1>   0.1000 
 42 H       -6.5910     0.7170     1.7790 H     1 <1>   0.1000 
 43 H       -2.4650    -6.3630    -1.1370 H     1 <1>   0.1500 
 44 H       -5.5270    -5.6640     1.7400 H     1 <1>   0.1500 
 45 H        3.3320     6.1090     0.4210 H     1 <1>   0.0800 
 46 H        1.9710     7.2030     0.4320 H     1 <1>   0.0800 
 47 H        2.5240     6.5260    -1.0790 H     1 <1>   0.0800 
 48 H       -4.0900    -7.2270     0.4950 H     1 <1>   0.1500 
@<TRIPOS>BOND
  1   1   2  2   
  2   2   3  am  
  3   2   4  1   
  4   3   5  1   
  5   3   6  1   
  6   4   7  2   
  7   4   8  1   
  8   5   9  1   
  9   5  28  1   
 10   5  29  1   
 11   6  10  1   
 12   6  30  1   
 13   6  31  1   
 14   7  11  1   
 15   8  12  1   
 16   8  13  1   
 17   9  14  1   
 18   9  15  1   
 19   9  32  1   
 20  10  14  1   
 21  10  16  1   
 22  10  33  1   
 23  11  12  2   
 24  12  17  1   
 25  13  18  2   
 26  13  34  1   
 27  15  19  ar  
 28  15  20  ar  
 29  16  21  1   
 30  16  22  1   
 31  16  35  1   
 32  17  23  2   
 33  18  23  1   
 34  18  36  1   
 35  19  24  ar  
 36  19  37  1   
 37  20  25  ar  
 38  20  38  1   
 39  21  22  1   
 40  21  39  1   
 41  21  40  1   
 42  22  41  1   
 43  22  42  1   
 44  23  26  1   
 45  24  27  ar  
 46  24  43  1   
 47  25  27  ar  
 48  25  44  1   
 49  26  45  1   
 50  26  46  1   
 51  26  47  1   
 52  27  48  1   
@<TRIPOS>SUBSTRUCTURE
  1 ****   3 GROUP 4 **** **** 0

# MOE 2024.06 (io_trps.svl 2023.06)
