@<TRIPOS>MOLECULE
NONAME
50 53 1 0 0 
SMALL
USER_CHARGES


@<TRIPOS>ATOM
  1 S       -0.2490    -0.5960     0.5800 S.o2  1 <1>   1.5010 
  2 O       -1.0760    -0.1640     1.6870 O.2   1 <1>  -0.6500 
  3 O        0.8780    -1.4620     0.8510 O.2   1 <1>  -0.6500 
  4 N       -1.2430    -1.4270    -0.5180 N.am  1 <1>  -0.8490 
  5 C        0.3090     0.8120    -0.3850 C.2   1 <1>  -0.0630 
  6 C       -2.4710    -0.7160    -0.8770 C.3   1 <1>   0.1960 
  7 C       -1.6770    -2.7320    -0.0220 C.3   1 <1>   0.1960 
  8 C        1.1160     0.8640    -1.4570 C.2   1 <1>  -0.0400 
  9 C       -0.0270     2.1420    -0.2210 C.2   1 <1>   0.1080 
 10 C       -3.5300    -1.1660     0.1270 C.3   1 <1>  -0.0800 
 11 C       -3.0480    -2.5330     0.6380 C.3   1 <1>  -0.0800 
 12 O        1.2700     2.0920    -1.9000 O.3   1 <1>  -0.0190 
 13 C        1.8330    -0.2520    -2.1930 C.3   1 <1>  -0.0600 
 14 N        0.5460     2.8570    -1.1150 N.2   1 <1>  -0.4100 
 15 C       -0.9410     2.7290     0.8370 C.3   1 <1>  -0.0590 
 16 C       -4.9830    -1.0920    -0.3860 C.3   1 <1>   0.4240 
 17 C       -4.0220    -3.6940     0.3610 C.3   1 <1>  -0.1600 
 18 O       -5.0690    -1.7330    -1.6080 O.3   1 <1>  -0.6800 
 19 C       -5.4210     0.3800    -0.5410 C.ar  1 <1>  -0.1440 
 20 C       -5.8900    -1.8890     0.5660 C.3   1 <1>  -0.1600 
 21 C       -5.4740    -3.3680     0.7670 C.3   1 <1>  -0.1600 
 22 C       -5.6740     0.9540    -1.7850 C.ar  1 <1>  -0.1500 
 23 C       -5.5570     1.1880     0.5850 C.ar  1 <1>  -0.1500 
 24 C       -6.0490     2.2810    -1.8990 C.ar  1 <1>  -0.1500 
 25 C       -5.9330     2.5150     0.4750 C.ar  1 <1>  -0.1500 
 26 C       -6.1790     3.0650    -0.7680 C.ar  1 <1>  -0.1500 
 27 H       -2.3470     0.3540    -0.8720 H     1 <1>   0.0800 
 28 H       -2.7470    -1.0140    -1.8750 H     1 <1>   0.0800 
 29 H       -1.7720    -3.3910    -0.8680 H     1 <1>   0.0800 
 30 H       -0.9650    -3.1650     0.6610 H     1 <1>   0.0800 
 31 H       -3.4680    -0.4960     0.9640 H     1 <1>   0.0800 
 32 H       -2.9030    -2.4640     1.7030 H     1 <1>   0.0800 
 33 H        1.6140    -1.2070    -1.7520 H     1 <1>   0.0800 
 34 H        2.8950    -0.0880    -2.1550 H     1 <1>   0.0800 
 35 H        1.5200    -0.2670    -3.2210 H     1 <1>   0.0800 
 36 H       -0.5550     2.5170     1.8170 H     1 <1>   0.0800 
 37 H       -1.9280     2.3140     0.7480 H     1 <1>   0.0800 
 38 H       -1.0050     3.7960     0.7160 H     1 <1>   0.0800 
 39 H       -3.9970    -3.9370    -0.6870 H     1 <1>   0.0800 
 40 H       -3.6930    -4.5740     0.8890 H     1 <1>   0.0800 
 41 H       -5.0540    -2.6910    -1.4370 H     1 <1>   0.4000 
 42 H       -5.8640    -1.4140     1.5300 H     1 <1>   0.0800 
 43 H       -6.9080    -1.8310     0.2230 H     1 <1>   0.0800 
 44 H       -5.6090    -3.6160     1.8070 H     1 <1>   0.0800 
 45 H       -6.1380    -4.0040     0.2070 H     1 <1>   0.0800 
 46 H       -5.5820     0.3740    -2.6870 H     1 <1>   0.1500 
 47 H       -5.3690     0.7950     1.5680 H     1 <1>   0.1500 
 48 H       -6.2410     2.7020    -2.8710 H     1 <1>   0.1500 
 49 H       -6.0330     3.1210     1.3580 H     1 <1>   0.1500 
 50 H       -6.4720     4.0960    -0.8570 H     1 <1>   0.1500 
@<TRIPOS>BOND
  1   1   2  2   
  2   1   3  2   
  3   1   4  am  
  4   1   5  1   
  5   4   6  1   
  6   4   7  1   
  7   5   8  2   
  8   5   9  1   
  9   6  10  1   
 10   6  27  1   
 11   6  28  1   
 12   7  11  1   
 13   7  29  1   
 14   7  30  1   
 15   8  12  1   
 16   8  13  1   
 17   9  14  2   
 18   9  15  1   
 19  10  11  1   
 20  10  16  1   
 21  10  31  1   
 22  11  17  1   
 23  11  32  1   
 24  12  14  1   
 25  13  33  1   
 26  13  34  1   
 27  13  35  1   
 28  15  36  1   
 29  15  37  1   
 30  15  38  1   
 31  16  18  1   
 32  16  19  1   
 33  16  20  1   
 34  17  21  1   
 35  17  39  1   
 36  17  40  1   
 37  18  41  1   
 38  19  22  ar  
 39  19  23  ar  
 40  20  21  1   
 41  20  42  1   
 42  20  43  1   
 43  21  44  1   
 44  21  45  1   
 45  22  24  ar  
 46  22  46  1   
 47  23  25  ar  
 48  23  47  1   
 49  24  26  ar  
 50  24  48  1   
 51  25  26  ar  
 52  25  49  1   
 53  26  50  1   
@<TRIPOS>SUBSTRUCTURE
  1 ****   6 GROUP 4 **** **** 0

# MOE 2024.06 (io_trps.svl 2023.06)
