@<TRIPOS>MOLECULE
NONAME
54 56 1 0 0 
SMALL
USER_CHARGES


@<TRIPOS>ATOM
  1 O        1.1770     2.2360    -2.6330 O.2   1 <1>  -0.5700 
  2 C        0.8680     3.1090    -1.8560 C.2   1 <1>   0.5690 
  3 N       -0.3550     3.1430    -1.2390 N.am  1 <1>  -0.6600 
  4 C        1.8860     4.2200    -1.5900 C.3   1 <1>   0.1810 
  5 C       -0.7170     4.2420    -0.2810 C.3   1 <1>   0.3640 
  6 C       -1.3490     2.0410    -1.3840 C.3   1 <1>   0.0600 
  7 O        1.6410     4.9250    -0.3980 O.3   1 <1>  -0.5600 
  8 C       -2.1090     4.7890    -0.6370 C.ar  1 <1>  -0.1440 
  9 C        0.3140     5.3990    -0.2770 C.3   1 <1>   0.2610 
 10 C       -3.1680     4.8110     0.2720 C.ar  1 <1>  -0.1440 
 11 C       -2.3170     5.2800    -1.9220 C.ar  1 <1>  -0.1500 
 12 C        0.1670     6.2690     0.9750 C.2   1 <1>   0.5690 
 13 C       -4.3910     5.3410    -0.1150 C.ar  1 <1>  -0.1500 
 14 C       -3.0490     4.2690     1.6910 C.3   1 <1>  -0.0960 
 15 C       -3.5400     5.8030    -2.2990 C.ar  1 <1>  -0.1500 
 16 O       -0.0350     5.7630     2.0550 O.2   1 <1>  -0.5700 
 17 N        0.2920     7.6170     0.8470 N.am  1 <1>  -0.7300 
 18 C       -4.5790     5.8370    -1.3910 C.ar  1 <1>  -0.1500 
 19 C        0.3330     8.6030     1.9470 C.3   1 <1>   0.1400 
 20 C        1.5580     9.5110     1.7710 C.3   1 <1>   0.2090 
 21 N        1.7350     9.9000     0.3410 N.pl3 1 <1>  -0.8690 
 22 C        3.0110    10.1220    -0.0920 C.ar  1 <1>   0.4100 
 23 N        3.2730    11.4090    -0.2260 N.ar  1 <1>  -0.6200 
 24 C        3.9260     9.0950    -0.3630 C.ar  1 <1>  -0.1440 
 25 C        4.4980    11.7060    -0.6230 C.ar  1 <1>   0.1600 
 26 C        5.1970     9.4340    -0.7710 C.ar  1 <1>  -0.1500 
 27 C        3.5500     7.6240    -0.2440 C.3   1 <1>  -0.0970 
 28 C        5.4840    10.7770    -0.9000 C.ar  1 <1>  -0.1500 
 29 H        1.8750     4.9180    -2.4070 H     1 <1>   0.0800 
 30 H        2.8670     3.7890    -1.5170 H     1 <1>   0.0800 
 31 H       -0.7250     3.8100     0.7010 H     1 <1>   0.0800 
 32 H       -1.6600     1.6980    -0.4130 H     1 <1>   0.0800 
 33 H       -0.9230     1.2110    -1.9210 H     1 <1>   0.0800 
 34 H       -2.2110     2.3930    -1.9250 H     1 <1>   0.0800 
 35 H        0.1300     6.0290    -1.1270 H     1 <1>   0.0800 
 36 H       -1.5230     5.2520    -2.6480 H     1 <1>   0.1500 
 37 H       -5.2120     5.3710     0.5780 H     1 <1>   0.1500 
 38 H       -4.0110     4.2310     2.1710 H     1 <1>   0.0800 
 39 H       -2.4120     4.9020     2.2800 H     1 <1>   0.0800 
 40 H       -2.6500     3.2710     1.6830 H     1 <1>   0.0800 
 41 H       -3.6830     6.1800    -3.2970 H     1 <1>   0.1500 
 42 H        0.6420     8.0350    -0.0250 H     1 <1>   0.3700 
 43 H       -5.5330     6.2450    -1.6760 H     1 <1>   0.1500 
 44 H       -0.5620     9.1990     1.9150 H     1 <1>   0.0800 
 45 H        0.3740     8.1050     2.9020 H     1 <1>   0.0800 
 46 H        2.4340     8.9900     2.1180 H     1 <1>   0.0800 
 47 H        1.4460    10.3950     2.3750 H     1 <1>   0.0800 
 48 H        1.2080    10.7570     0.1480 H     1 <1>   0.4000 
 49 H        4.7310    12.7510    -0.7330 H     1 <1>   0.1500 
 50 H        5.9430     8.6890    -0.9880 H     1 <1>   0.1500 
 51 H        4.3460     6.9890    -0.5890 H     1 <1>   0.0800 
 52 H        2.6810     7.4270    -0.8420 H     1 <1>   0.0800 
 53 H        3.3350     7.3680     0.7770 H     1 <1>   0.0800 
 54 H        6.4590    11.1000    -1.2160 H     1 <1>   0.1500 
@<TRIPOS>BOND
  1   1   2  2   
  2   2   3  am  
  3   2   4  1   
  4   3   5  1   
  5   3   6  1   
  6   4   7  1   
  7   4  29  1   
  8   4  30  1   
  9   5   8  1   
 10   5   9  1   
 11   5  31  1   
 12   6  32  1   
 13   6  33  1   
 14   6  34  1   
 15   7   9  1   
 16   8  10  ar  
 17   8  11  ar  
 18   9  12  1   
 19   9  35  1   
 20  10  13  ar  
 21  10  14  1   
 22  11  15  ar  
 23  11  36  1   
 24  12  16  2   
 25  12  17  am  
 26  13  18  ar  
 27  13  37  1   
 28  14  38  1   
 29  14  39  1   
 30  14  40  1   
 31  15  18  ar  
 32  15  41  1   
 33  17  19  1   
 34  17  42  1   
 35  18  43  1   
 36  19  20  1   
 37  19  44  1   
 38  19  45  1   
 39  20  21  1   
 40  20  46  1   
 41  20  47  1   
 42  21  22  1   
 43  21  48  1   
 44  22  23  ar  
 45  22  24  ar  
 46  23  25  ar  
 47  24  26  ar  
 48  24  27  1   
 49  25  28  ar  
 50  25  49  1   
 51  26  28  ar  
 52  26  50  1   
 53  27  51  1   
 54  27  52  1   
 55  27  53  1   
 56  28  54  1   
@<TRIPOS>SUBSTRUCTURE
  1 ****   9 GROUP 4 **** **** 0

# MOE 2024.06 (io_trps.svl 2023.06)
