@<TRIPOS>MOLECULE
NONAME
39 41 1 0 0 
SMALL
USER_CHARGES


@<TRIPOS>ATOM
  1 S        0.6010    -0.0420     1.0610 S.3   1 <1>  -0.0800 
  2 C        0.6660    -0.7400    -0.5200 C.2   1 <1>   0.1980 
  3 C        0.4930     1.4960     0.2820 C.2   1 <1>   0.1980 
  4 N        0.6130     0.1310    -1.4480 N.2   1 <1>  -0.3380 
  5 C        0.7740    -2.2520    -0.6410 C.3   1 <1>   0.2900 
  6 N        0.5130     1.4150    -0.9860 N.2   1 <1>  -0.3380 
  7 C        0.3880     2.7280     1.1520 C.3   1 <1>  -0.0600 
  8 N       -0.4210    -2.9480    -0.1180 N.3   1 <1>  -0.8100 
  9 C       -1.6580    -2.5590    -0.8180 C.3   1 <1>   0.1100 
 10 C       -0.3250    -4.4150    -0.2310 C.3   1 <1>   0.1100 
 11 C       -2.6230    -3.6990    -0.5220 C.3   1 <1>   0.2000 
 12 C       -1.7120    -4.9170    -0.6590 C.3   1 <1>  -0.0800 
 13 O       -3.0190    -3.5610     0.7970 O.3   1 <1>  -0.6800 
 14 C       -2.1720    -6.1850     0.0840 C.3   1 <1>   0.0210 
 15 C       -1.1890    -7.3240    -0.1110 C.2   1 <1>   0.1080 
 16 N       -0.8260    -7.7580    -1.2790 N.2   1 <1>  -0.7070 
 17 C       -0.5700    -8.0200     0.9220 C.2   1 <1>  -0.1500 
 18 N        0.0370    -8.7580    -1.0180 N.pl3 1 <1>   0.3000 
 19 C        0.2120    -8.9330     0.3080 C.2   1 <1>  -0.3320 
 20 C        1.1240    -9.9810     0.9180 C.3   1 <1>  -0.0600 
 21 H        1.6400    -2.5790    -0.0930 H     1 <1>   0.0800 
 22 H        0.9160    -2.5060    -1.6780 H     1 <1>   0.0800 
 23 H        0.3280     3.6050     0.5330 H     1 <1>   0.0800 
 24 H        1.2540     2.8030     1.7830 H     1 <1>   0.0800 
 25 H       -0.4930     2.6690     1.7630 H     1 <1>   0.0800 
 26 H       -2.0350    -1.6120    -0.4700 H     1 <1>   0.0800 
 27 H       -1.4830    -2.5040    -1.8800 H     1 <1>   0.0800 
 28 H        0.4070    -4.7130    -0.9640 H     1 <1>   0.0800 
 29 H       -0.0430    -4.8230     0.7250 H     1 <1>   0.0800 
 30 H       -3.4910    -3.7220    -1.1570 H     1 <1>   0.0800 
 31 H       -1.6520    -5.1580    -1.7060 H     1 <1>   0.0800 
 32 H       -2.2140    -3.2970     1.2930 H     1 <1>   0.4000 
 33 H       -3.1320    -6.4900    -0.2900 H     1 <1>   0.0800 
 34 H       -2.2730    -5.9880     1.1360 H     1 <1>   0.0800 
 35 H       -0.7070    -7.8460     1.9740 H     1 <1>   0.1500 
 36 H        0.4850    -9.3030    -1.7650 H     1 <1>   0.2700 
 37 H        1.0910    -9.9220     1.9910 H     1 <1>   0.0800 
 38 H        2.1390    -9.8240     0.5970 H     1 <1>   0.0800 
 39 H        0.8110   -10.9660     0.6200 H     1 <1>   0.0800 
@<TRIPOS>BOND
  1   1   2  1   
  2   1   3  1   
  3   2   4  2   
  4   2   5  1   
  5   3   6  2   
  6   3   7  1   
  7   4   6  1   
  8   5   8  1   
  9   5  21  1   
 10   5  22  1   
 11   7  23  1   
 12   7  24  1   
 13   7  25  1   
 14   8   9  1   
 15   8  10  1   
 16   9  11  1   
 17   9  26  1   
 18   9  27  1   
 19  10  12  1   
 20  10  28  1   
 21  10  29  1   
 22  11  12  1   
 23  11  13  1   
 24  11  30  1   
 25  12  14  1   
 26  12  31  1   
 27  13  32  1   
 28  14  15  1   
 29  14  33  1   
 30  14  34  1   
 31  15  16  2   
 32  15  17  1   
 33  16  18  1   
 34  17  19  2   
 35  17  35  1   
 36  18  19  1   
 37  18  36  1   
 38  19  20  1   
 39  20  37  1   
 40  20  38  1   
 41  20  39  1   
@<TRIPOS>SUBSTRUCTURE
  1 ****  10 GROUP 4 **** **** 0

# MOE 2024.06 (io_trps.svl 2023.06)
