@<TRIPOS>MOLECULE
NONAME
54 56 1 0 0 
SMALL
USER_CHARGES


@<TRIPOS>ATOM
  1 O        1.1440     0.5170    -0.7270 O.2   1 <1>  -0.5700 
  2 C        2.0880    -0.2540    -0.7440 C.2   1 <1>   0.7150 
  3 N        3.3260     0.2320    -1.1250 N.am  1 <1>  -0.6600 
  4 C        1.8610    -1.6260    -0.3590 C.2   1 <1>   0.0550 
  5 C        4.4200    -0.6310    -1.6650 C.3   1 <1>   0.1400 
  6 C        3.6700     1.6700    -0.9650 C.3   1 <1>   0.1400 
  7 O        2.8180    -2.3930     0.1160 O.3   1 <1>  -0.0190 
  8 C        0.7420    -2.3840    -0.3500 C.2   1 <1>  -0.1500 
  9 C        5.6120    -0.6900    -0.7040 C.3   1 <1>   0.1400 
 10 C        4.4680     1.8540     0.3320 C.3   1 <1>  -0.1600 
 11 N        2.4140    -3.5880     0.4150 N.2   1 <1>  -0.4100 
 12 C        1.1540    -3.6130     0.1450 C.2   1 <1>   0.1080 
 13 N        6.3910     0.5850    -0.7590 N.am  1 <1>  -0.6600 
 14 C        5.9870     1.6680     0.1880 C.3   1 <1>   0.1400 
 15 C        0.2410    -4.8190     0.3410 C.3   1 <1>   0.1010 
 16 C        7.4760     0.6760    -1.6030 C.2   1 <1>   0.5690 
 17 C        0.1970    -5.2350     1.8160 C.3   1 <1>  -0.2400 
 18 C        0.6970    -5.9940    -0.5330 C.3   1 <1>  -0.2400 
 19 O        7.7000    -0.1870    -2.4210 O.2   1 <1>  -0.5700 
 20 C        8.4480     1.8530    -1.5660 C.3   1 <1>   0.0820 
 21 C        9.0020     2.1640    -0.1770 C.2   1 <1>  -0.1810 
 22 C        9.5300     1.2410     0.7270 C.2   1 <1>   0.1080 
 23 C        9.0880     3.3550     0.4590 C.2   1 <1>  -0.3320 
 24 N        9.8980     1.7980     1.8350 N.2   1 <1>  -0.7070 
 25 C        9.6810    -0.2490     0.5050 C.3   1 <1>  -0.0590 
 26 N        9.6350     3.1040     1.6670 N.pl3 1 <1>   0.3000 
 27 C        8.6940     4.7550     0.0160 C.3   1 <1>  -0.0600 
 28 H        4.7500    -0.2460    -2.6140 H     1 <1>   0.0800 
 29 H        4.0580    -1.6270    -1.8420 H     1 <1>   0.0800 
 30 H        2.7680     2.2570    -0.9090 H     1 <1>   0.0800 
 31 H        4.2320     2.0160    -1.8160 H     1 <1>   0.0800 
 32 H       -0.2500    -2.1030    -0.6540 H     1 <1>   0.1500 
 33 H        6.2480    -1.5090    -0.9940 H     1 <1>   0.0800 
 34 H        5.2770    -0.8860     0.3000 H     1 <1>   0.0800 
 35 H        4.0880     1.1930     1.0900 H     1 <1>   0.0800 
 36 H        4.3030     2.8540     0.6900 H     1 <1>   0.0800 
 37 H        6.4190     1.4680     1.1540 H     1 <1>   0.0800 
 38 H        6.3890     2.6030    -0.1570 H     1 <1>   0.0800 
 39 H       -0.7540    -4.5410     0.0400 H     1 <1>   0.0800 
 40 H        1.1760    -5.5310     2.1500 H     1 <1>   0.0800 
 41 H       -0.4810    -6.0580     1.9550 H     1 <1>   0.0800 
 42 H       -0.1340    -4.4100     2.4210 H     1 <1>   0.0800 
 43 H        1.6880    -6.3060    -0.2510 H     1 <1>   0.0800 
 44 H        0.7150    -5.6970    -1.5670 H     1 <1>   0.0800 
 45 H        0.0260    -6.8270    -0.4250 H     1 <1>   0.0800 
 46 H        7.9460     2.7100    -1.9700 H     1 <1>   0.0800 
 47 H        9.2750     1.6320    -2.2140 H     1 <1>   0.0800 
 48 H        9.9640    -0.4500    -0.5110 H     1 <1>   0.0800 
 49 H        8.7520    -0.7420     0.7200 H     1 <1>   0.0800 
 50 H       10.4400    -0.6380     1.1580 H     1 <1>   0.0800 
 51 H        9.8430     3.7970     2.3960 H     1 <1>   0.2700 
 52 H        8.3110     4.7500    -0.9870 H     1 <1>   0.0800 
 53 H        9.5510     5.4040     0.0460 H     1 <1>   0.0800 
 54 H        7.9360     5.1500     0.6690 H     1 <1>   0.0800 
@<TRIPOS>BOND
  1   1   2  2   
  2   2   3  am  
  3   2   4  1   
  4   3   5  1   
  5   3   6  1   
  6   4   7  1   
  7   4   8  2   
  8   5   9  1   
  9   5  28  1   
 10   5  29  1   
 11   6  10  1   
 12   6  30  1   
 13   6  31  1   
 14   7  11  1   
 15   8  12  1   
 16   8  32  1   
 17   9  13  1   
 18   9  33  1   
 19   9  34  1   
 20  10  14  1   
 21  10  35  1   
 22  10  36  1   
 23  11  12  2   
 24  12  15  1   
 25  13  14  1   
 26  13  16  am  
 27  14  37  1   
 28  14  38  1   
 29  15  17  1   
 30  15  18  1   
 31  15  39  1   
 32  16  19  2   
 33  16  20  1   
 34  17  40  1   
 35  17  41  1   
 36  17  42  1   
 37  18  43  1   
 38  18  44  1   
 39  18  45  1   
 40  20  21  1   
 41  20  46  1   
 42  20  47  1   
 43  21  22  1   
 44  21  23  2   
 45  22  24  2   
 46  22  25  1   
 47  23  26  1   
 48  23  27  1   
 49  24  26  1   
 50  25  48  1   
 51  25  49  1   
 52  25  50  1   
 53  26  51  1   
 54  27  52  1   
 55  27  53  1   
 56  27  54  1   
@<TRIPOS>SUBSTRUCTURE
  1 ****   9 GROUP 4 **** **** 0

# MOE 2024.06 (io_trps.svl 2023.06)
