@<TRIPOS>MOLECULE
NONAME
53 56 1 0 0 
SMALL
USER_CHARGES


@<TRIPOS>ATOM
  1 O        2.8540    -1.0250    -1.0710 O.2   1 <1>  -0.5700 
  2 C        2.8000    -1.0460     0.1460 C.2   1 <1>   0.7030 
  3 N        3.9920    -0.8550     0.8190 N.am  1 <1>  -0.6600 
  4 C        1.5240    -1.2610     0.8280 C.2   1 <1>   0.2770 
  5 C        5.2640    -1.3750     0.2200 C.3   1 <1>   0.1400 
  6 C        4.1180     0.0440     1.9990 C.3   1 <1>   0.1400 
  7 N        0.2340    -1.0840     0.3120 N.pl3 1 <1>  -0.7640 
  8 C        1.3410    -1.7000     2.1020 C.2   1 <1>   0.2000 
  9 C        5.7990    -0.4600    -0.9010 C.3   1 <1>   0.3430 
 10 C        5.1950     1.1190     1.7960 C.3   1 <1>  -0.1600 
 11 C       -0.6410    -1.4050     1.2560 C.cat 1 <1>   0.6500 
 12 C       -0.0840    -0.6590    -1.0840 C.3   1 <1>   0.2740 
 13 N        0.0000    -1.7740     2.3530 N.pl3 1 <1>  -0.7000 
 14 N        6.2760     0.8900    -0.4380 N.4   1 <1>  -0.9590 
 15 C        5.2840     1.6690     0.3690 C.3   1 <1>   0.3430 
 16 C        6.7370     1.6840    -1.6130 C.3   1 <1>   0.4860 
 17 C        7.4970     2.8960    -1.1100 C.ar  1 <1>  -0.1440 
 18 C        6.9180     4.1550    -1.1700 C.ar  1 <1>  -0.1500 
 19 C        8.7700     2.7600    -0.5740 C.ar  1 <1>  -0.1500 
 20 C        7.5920     5.2560    -0.6770 C.ar  1 <1>  -0.1500 
 21 C        9.4430     3.8660    -0.0830 C.ar  1 <1>  -0.1500 
 22 C        8.8610     5.1300    -0.1220 C.ar  1 <1>  -0.0230 
 23 N        9.5370     6.2730     0.3950 N.pl3 1 <1>   0.5930 
 24 N        8.9000     7.2670     1.0620 N.2   1 <1>  -0.7070 
 25 C       10.8640     6.5470     0.3240 C.2   1 <1>  -0.3020 
 26 C        9.8220     8.1180     1.3870 C.2   1 <1>   0.1390 
 27 C       11.0790     7.7210     0.9510 C.2   1 <1>  -0.1500 
 28 H        5.0660    -2.3430    -0.2100 H     1 <1>   0.0800 
 29 H        6.0120    -1.5130     0.9820 H     1 <1>   0.0800 
 30 H        4.3530    -0.5380     2.8760 H     1 <1>   0.0800 
 31 H        3.1760     0.5370     2.1730 H     1 <1>   0.0800 
 32 H        2.0900    -1.9690     2.8300 H     1 <1>   0.1500 
 33 H        5.0190    -0.3360    -1.6350 H     1 <1>   0.0800 
 34 H        6.6150    -0.9700    -1.3870 H     1 <1>   0.0800 
 35 H        6.1530     0.7560     2.1220 H     1 <1>   0.0800 
 36 H        4.9490     1.9380     2.4500 H     1 <1>   0.0800 
 37 H       -1.7180    -1.3760     1.1460 H     1 <1>   0.1500 
 38 H        0.3750     0.2920    -1.2950 H     1 <1>   0.0800 
 39 H       -1.1480    -0.5680    -1.2210 H     1 <1>   0.0800 
 40 H        0.2930    -1.3870    -1.7840 H     1 <1>   0.0800 
 41 H       -0.4400    -2.0800     3.2290 H     1 <1>   0.4500 
 42 H        7.1080     0.7740     0.1530 H     1 <1>   0.4500 
 43 H        5.6080     2.6950     0.4350 H     1 <1>   0.0800 
 44 H        4.3150     1.6560    -0.1040 H     1 <1>   0.0800 
 45 H        5.8940     1.9960    -2.2090 H     1 <1>   0.0800 
 46 H        7.3910     1.0910    -2.2320 H     1 <1>   0.0800 
 47 H        5.9380     4.2990    -1.5950 H     1 <1>   0.1500 
 48 H        9.2570     1.8000    -0.5310 H     1 <1>   0.1500 
 49 H        7.1320     6.2310    -0.7170 H     1 <1>   0.1500 
 50 H       10.4270     3.7450     0.3390 H     1 <1>   0.1500 
 51 H       11.5620     5.8970    -0.1680 H     1 <1>   0.1500 
 52 H        9.6270     9.0270     1.9330 H     1 <1>   0.1500 
 53 H       12.0000     8.2590     1.0960 H     1 <1>   0.1500 
@<TRIPOS>BOND
  1   1   2  2   
  2   2   3  am  
  3   2   4  1   
  4   3   5  1   
  5   3   6  1   
  6   4   7  1   
  7   4   8  2   
  8   5   9  1   
  9   5  28  1   
 10   5  29  1   
 11   6  10  1   
 12   6  30  1   
 13   6  31  1   
 14   7  11  ar  
 15   7  12  1   
 16   8  13  1   
 17   8  32  1   
 18   9  14  1   
 19   9  33  1   
 20   9  34  1   
 21  10  15  1   
 22  10  35  1   
 23  10  36  1   
 24  11  13  ar  
 25  11  37  1   
 26  12  38  1   
 27  12  39  1   
 28  12  40  1   
 29  13  41  1   
 30  14  15  1   
 31  14  16  1   
 32  14  42  1   
 33  15  43  1   
 34  15  44  1   
 35  16  17  1   
 36  16  45  1   
 37  16  46  1   
 38  17  18  ar  
 39  17  19  ar  
 40  18  20  ar  
 41  18  47  1   
 42  19  21  ar  
 43  19  48  1   
 44  20  22  ar  
 45  20  49  1   
 46  21  22  ar  
 47  21  50  1   
 48  22  23  1   
 49  23  24  1   
 50  23  25  1   
 51  24  26  2   
 52  25  27  2   
 53  25  51  1   
 54  26  27  1   
 55  26  52  1   
 56  27  53  1   
@<TRIPOS>SUBSTRUCTURE
  1 ****  15 GROUP 4 **** **** 0

# MOE 2024.06 (io_trps.svl 2023.06)
