@<TRIPOS>MOLECULE
NONAME
46 48 1 0 0 
SMALL
USER_CHARGES


@<TRIPOS>ATOM
  1 O       -3.2210     1.2060    -2.1430 O.2   1 <1>  -0.5700 
  2 C       -2.5340     1.1350    -1.1400 C.2   1 <1>   0.5440 
  3 N       -1.9970    -0.0790    -0.8330 N.am  1 <1>  -0.7300 
  4 C       -2.3000     2.3050    -0.3070 C.ar  1 <1>   0.0860 
  5 C       -2.2740    -1.3610    -1.5180 C.3   1 <1>   0.2200 
  6 C       -1.9820     2.2420     1.0630 C.ar  1 <1>   0.0820 
  7 C       -2.3900     3.5730    -0.8870 C.ar  1 <1>  -0.1500 
  8 C       -3.3370    -2.1600    -0.7780 C.3   1 <1>  -0.0800 
  9 C       -1.0690    -2.2770    -1.3520 C.3   1 <1>   0.1200 
 10 O       -1.9060     1.0250     1.6670 O.3   1 <1>  -0.3630 
 11 C       -1.7600     3.4140     1.7830 C.ar  1 <1>  -0.1500 
 12 C       -2.1720     4.7340    -0.1710 C.ar  1 <1>  -0.1430 
 13 C       -2.5330    -2.8620     0.3200 C.3   1 <1>   0.1200 
 14 C       -4.5470    -1.3620    -0.2570 C.3   1 <1>  -0.0170 
 15 O       -1.1920    -2.8370    -0.0770 O.3   1 <1>  -0.5600 
 16 C       -1.5240     0.8540     3.0150 C.3   1 <1>   0.0400 
 17 C       -1.8530     4.6480     1.1720 C.ar  1 <1>  -0.1500 
 18 C       -2.2780     6.0950    -0.8360 C.3   1 <1>  -0.0970 
 19 C       -5.5630    -2.2820     0.4020 C.ar  1 <1>  -0.1430 
 20 C       -6.4600    -3.0230    -0.3390 C.ar  1 <1>  -0.1500 
 21 C       -5.6400    -2.4250     1.7730 C.ar  1 <1>  -0.1500 
 22 C       -7.3610    -3.8530     0.3070 C.ar  1 <1>   0.1600 
 23 C       -6.5790    -3.2840     2.3200 C.ar  1 <1>   0.1600 
 24 N       -7.4410    -4.0040     1.6190 N.ar  1 <1>  -0.6200 
 25 H       -1.5450    -0.1730     0.0830 H     1 <1>   0.3700 
 26 H       -2.5210    -1.1910    -2.5520 H     1 <1>   0.0800 
 27 H       -2.6390     3.6380    -1.9330 H     1 <1>   0.1500 
 28 H       -3.7000    -2.9210    -1.4460 H     1 <1>   0.0800 
 29 H       -0.1340    -1.7520    -1.4300 H     1 <1>   0.0800 
 30 H       -1.1020    -3.0800    -2.0670 H     1 <1>   0.0800 
 31 H       -1.5140     3.3930     2.8270 H     1 <1>   0.1500 
 32 H       -2.8430    -3.8840     0.4540 H     1 <1>   0.0800 
 33 H       -2.6010    -2.3340     1.2550 H     1 <1>   0.0800 
 34 H       -5.0130    -0.8430    -1.0770 H     1 <1>   0.0800 
 35 H       -4.2310    -0.6180     0.4540 H     1 <1>   0.0800 
 36 H       -1.5070    -0.2000     3.2260 H     1 <1>   0.0800 
 37 H       -2.2450     1.3410     3.6480 H     1 <1>   0.0800 
 38 H       -0.5420     1.2690     3.1560 H     1 <1>   0.0800 
 39 H       -1.6780     5.5440     1.7420 H     1 <1>   0.1500 
 40 H       -2.9990     6.7010    -0.3190 H     1 <1>   0.0800 
 41 H       -2.5860     5.9990    -1.8620 H     1 <1>   0.0800 
 42 H       -1.3240     6.5900    -0.8100 H     1 <1>   0.0800 
 43 H       -6.4660    -2.9610    -1.4120 H     1 <1>   0.1500 
 44 H       -4.9790    -1.8780     2.4200 H     1 <1>   0.1500 
 45 H       -8.0530    -4.4240    -0.2890 H     1 <1>   0.1500 
 46 H       -6.6250    -3.3830     3.3900 H     1 <1>   0.1500 
@<TRIPOS>BOND
  1   1   2  2   
  2   2   3  am  
  3   2   4  1   
  4   3   5  1   
  5   3  25  1   
  6   4   6  ar  
  7   4   7  ar  
  8   5   8  1   
  9   5   9  1   
 10   5  26  1   
 11   6  10  1   
 12   6  11  ar  
 13   7  12  ar  
 14   7  27  1   
 15   8  13  1   
 16   8  14  1   
 17   8  28  1   
 18   9  15  1   
 19   9  29  1   
 20   9  30  1   
 21  10  16  1   
 22  11  17  ar  
 23  11  31  1   
 24  12  17  ar  
 25  12  18  1   
 26  13  15  1   
 27  13  32  1   
 28  13  33  1   
 29  14  19  1   
 30  14  34  1   
 31  14  35  1   
 32  16  36  1   
 33  16  37  1   
 34  16  38  1   
 35  17  39  1   
 36  18  40  1   
 37  18  41  1   
 38  18  42  1   
 39  19  20  ar  
 40  19  21  ar  
 41  20  22  ar  
 42  20  43  1   
 43  21  23  ar  
 44  21  44  1   
 45  22  24  ar  
 46  22  45  1   
 47  23  24  ar  
 48  23  46  1   
@<TRIPOS>SUBSTRUCTURE
  1 ****   3 GROUP 4 **** **** 0

# MOE 2024.06 (io_trps.svl 2023.06)
