@<TRIPOS>MOLECULE
NONAME
51 54 1 0 0 
SMALL
USER_CHARGES


@<TRIPOS>ATOM
  1 O        0.1320     0.4070     1.3370 O.3   1 <1>  -0.6800 
  2 C        1.0260     0.2180     0.2900 C.3   1 <1>   0.2000 
  3 C        1.6680    -1.1570     0.4660 C.3   1 <1>  -0.0800 
  4 C        2.1990     1.1970     0.4740 C.3   1 <1>   0.3430 
  5 C        2.6800    -0.8630     1.5750 C.3   1 <1>   0.3430 
  6 C        2.3160    -1.6310    -0.8600 C.3   1 <1>  -0.0170 
  7 N        3.2790     0.4300     1.1770 N.4   1 <1>  -0.9590 
  8 C        3.5780    -2.4560    -0.6640 C.ar  1 <1>   0.1670 
  9 C        3.9200     1.1750     2.2880 C.3   1 <1>   0.4860 
 10 N        4.6900    -1.7670    -0.4360 N.ar  1 <1>  -0.6200 
 11 C        3.5160    -3.8390    -0.7340 C.ar  1 <1>  -0.1500 
 12 C        4.4540     2.4830     1.7480 C.ar  1 <1>  -0.1440 
 13 C        5.7900    -2.4970    -0.2970 C.ar  1 <1>   0.1600 
 14 C        4.6660    -4.5800    -0.5700 C.ar  1 <1>  -0.1500 
 15 C        5.5220     2.4670     0.8410 C.ar  1 <1>   0.0000 
 16 C        3.9010     3.6910     2.1140 C.ar  1 <1>  -0.1500 
 17 C        5.8300    -3.8790    -0.3490 C.ar  1 <1>  -0.1500 
 18 C        5.9920     3.6610     0.3050 C.ar  1 <1>  -0.1520 
 19 C        6.3130     1.4420     0.2760 C.2   1 <1>  -0.1500 
 20 C        4.3870     4.8890     1.5800 C.ar  1 <1>  -0.1500 
 21 N        7.0220     3.3770    -0.5630 N.pl3 1 <1>   0.0480 
 22 C        5.4250     4.8830     0.6790 C.ar  1 <1>  -0.1500 
 23 C        7.2000     2.0230    -0.5640 C.2   1 <1>  -0.3020 
 24 C        7.8110     4.3520    -1.3450 C.3   1 <1>   0.0960 
 25 C        8.9560     4.9180    -0.5000 C.3   1 <1>  -0.2400 
 26 H       -0.7210    -0.0440     1.1640 H     1 <1>   0.4000 
 27 H        0.5050     0.3590    -0.6430 H     1 <1>   0.0800 
 28 H        0.9610    -1.8980     0.7970 H     1 <1>   0.0800 
 29 H        1.8780     2.0500     1.0490 H     1 <1>   0.0800 
 30 H        2.5650     1.5330    -0.4820 H     1 <1>   0.0800 
 31 H        3.4240    -1.6380     1.6720 H     1 <1>   0.0800 
 32 H        2.1550    -0.7500     2.5110 H     1 <1>   0.0800 
 33 H        2.5840    -0.7910    -1.4770 H     1 <1>   0.0800 
 34 H        1.5960    -2.2010    -1.4210 H     1 <1>   0.0800 
 35 H        4.0150     0.2050     0.4830 H     1 <1>   0.4500 
 36 H        3.1990     1.3690     3.0650 H     1 <1>   0.0800 
 37 H        4.7310     0.5990     2.7030 H     1 <1>   0.0800 
 38 H        2.5830    -4.3410    -0.9200 H     1 <1>   0.1500 
 39 H        6.7150    -1.9690    -0.1340 H     1 <1>   0.1500 
 40 H        4.6570    -5.6570    -0.6180 H     1 <1>   0.1500 
 41 H        3.0850     3.7430     2.8150 H     1 <1>   0.1500 
 42 H        6.7640    -4.3980    -0.2230 H     1 <1>   0.1500 
 43 H        6.2200     0.3940     0.4920 H     1 <1>   0.1500 
 44 H        3.9410     5.8220     1.8840 H     1 <1>   0.1500 
 45 H        5.8010     5.8020     0.2660 H     1 <1>   0.1500 
 46 H        7.9590     1.5530    -1.1650 H     1 <1>   0.1500 
 47 H        8.2060     3.8570    -2.2150 H     1 <1>   0.0800 
 48 H        7.1610     5.1440    -1.6690 H     1 <1>   0.0800 
 49 H        9.6140     4.1270    -0.1860 H     1 <1>   0.0800 
 50 H        8.5680     5.4210     0.3680 H     1 <1>   0.0800 
 51 H        9.5230     5.6240    -1.0790 H     1 <1>   0.0800 
@<TRIPOS>BOND
  1   1   2  1   
  2   1  26  1   
  3   2   3  1   
  4   2   4  1   
  5   2  27  1   
  6   3   5  1   
  7   3   6  1   
  8   3  28  1   
  9   4   7  1   
 10   4  29  1   
 11   4  30  1   
 12   5   7  1   
 13   5  31  1   
 14   5  32  1   
 15   6   8  1   
 16   6  33  1   
 17   6  34  1   
 18   7   9  1   
 19   7  35  1   
 20   8  10  ar  
 21   8  11  ar  
 22   9  12  1   
 23   9  36  1   
 24   9  37  1   
 25  10  13  ar  
 26  11  14  ar  
 27  11  38  1   
 28  12  15  ar  
 29  12  16  ar  
 30  13  17  ar  
 31  13  39  1   
 32  14  17  ar  
 33  14  40  1   
 34  15  18  ar  
 35  15  19  1   
 36  16  20  ar  
 37  16  41  1   
 38  17  42  1   
 39  18  21  1   
 40  18  22  ar  
 41  19  23  2   
 42  19  43  1   
 43  20  22  ar  
 44  20  44  1   
 45  21  23  1   
 46  21  24  1   
 47  22  45  1   
 48  23  46  1   
 49  24  25  1   
 50  24  47  1   
 51  24  48  1   
 52  25  49  1   
 53  25  50  1   
 54  25  51  1   
@<TRIPOS>SUBSTRUCTURE
  1 ****   7 GROUP 4 **** **** 0

# MOE 2024.06 (io_trps.svl 2023.06)
