@<TRIPOS>MOLECULE
NONAME
48 51 1 0 0 
SMALL
USER_CHARGES


@<TRIPOS>ATOM
  1 O        1.1120     0.3180     0.3860 O.2   1 <1>  -0.5700 
  2 C        1.8200     1.2930     0.2030 C.2   1 <1>   0.6950 
  3 N        1.2640     2.5310     0.4220 N.2   1 <1>  -0.6610 
  4 C        3.1890     1.1420    -0.2250 C.ar  1 <1>   0.0860 
  5 C        1.9940     3.5670     0.2410 C.2   1 <1>   0.4390 
  6 C        3.9340     2.3080    -0.4040 C.ar  1 <1>   0.1000 
  7 C        3.8170    -0.0850    -0.4700 C.ar  1 <1>  -0.1500 
  8 N        3.2900     3.5000    -0.1530 N.pl3 1 <1>  -0.5500 
  9 C        1.3910     4.9410     0.4680 C.3   1 <1>  -0.0990 
 10 C        5.2620     2.2490    -0.8140 C.ar  1 <1>  -0.1500 
 11 C        5.1340    -0.1420    -0.8760 C.ar  1 <1>  -0.1500 
 12 C        2.3810     5.9850     0.9940 C.3   1 <1>   0.2090 
 13 C        5.8600     1.0300    -1.0500 C.ar  1 <1>  -0.1500 
 14 N        3.2820     6.4390    -0.0980 N.pl3 1 <1>  -0.8690 
 15 C        4.6390     6.6010     0.0320 C.ar  1 <1>   0.4100 
 16 N        5.2570     5.5960     0.6440 N.ar  1 <1>  -0.6200 
 17 C        5.2940     7.7390    -0.4780 C.ar  1 <1>   0.0860 
 18 C        6.5690     5.6860     0.7460 C.ar  1 <1>   0.1600 
 19 C        4.5500     8.8220    -1.0810 C.2   1 <1>   0.5440 
 20 C        6.6780     7.7840    -0.3700 C.ar  1 <1>  -0.1500 
 21 C        7.3190     6.7400     0.2570 C.ar  1 <1>  -0.1500 
 22 O        3.6770     8.5880    -1.9000 O.2   1 <1>  -0.5700 
 23 N        4.7900    10.1380    -0.7460 N.am  1 <1>  -0.6600 
 24 C        4.0660    11.2580    -1.3920 C.3   1 <1>   0.1400 
 25 C        5.4410    10.5880     0.5050 C.3   1 <1>   0.1400 
 26 C        4.4520    12.4950    -0.5890 C.3   1 <1>  -0.1600 
 27 C        4.8350    11.9580     0.7860 C.3   1 <1>  -0.1600 
 28 H        3.2510    -0.9910    -0.3340 H     1 <1>   0.1500 
 29 H        3.8150     4.3970    -0.1830 H     1 <1>   0.4000 
 30 H        0.6000     4.8370     1.1870 H     1 <1>   0.0800 
 31 H        0.9510     5.2880    -0.4480 H     1 <1>   0.0800 
 32 H        5.8110     3.1640    -0.9450 H     1 <1>   0.1500 
 33 H        5.6030    -1.0930    -1.0610 H     1 <1>   0.1500 
 34 H        2.9500     5.5750     1.8130 H     1 <1>   0.0800 
 35 H        1.8360     6.8380     1.3630 H     1 <1>   0.0800 
 36 H        6.8870     0.9800    -1.3680 H     1 <1>   0.1500 
 37 H        2.8480     7.1020    -0.7650 H     1 <1>   0.4000 
 38 H        7.0770     4.8760     1.2430 H     1 <1>   0.1500 
 39 H        7.2300     8.6170    -0.7700 H     1 <1>   0.1500 
 40 H        8.3890     6.7380     0.3670 H     1 <1>   0.1500 
 41 H        3.0060    11.0790    -1.3240 H     1 <1>   0.0800 
 42 H        4.3490    11.3470    -2.4270 H     1 <1>   0.0800 
 43 H        6.5000    10.6810     0.3390 H     1 <1>   0.0800 
 44 H        5.2550     9.9020     1.3150 H     1 <1>   0.0800 
 45 H        3.6470    13.2080    -0.5440 H     1 <1>   0.0800 
 46 H        5.3050    12.9590    -1.0530 H     1 <1>   0.0800 
 47 H        5.5230    12.6030     1.3030 H     1 <1>   0.0800 
 48 H        3.9520    11.8330     1.3880 H     1 <1>   0.0800 
@<TRIPOS>BOND
  1   1   2  2   
  2   2   3  1   
  3   2   4  1   
  4   3   5  2   
  5   4   6  ar  
  6   4   7  ar  
  7   5   8  1   
  8   5   9  1   
  9   6   8  1   
 10   6  10  ar  
 11   7  11  ar  
 12   7  28  1   
 13   8  29  1   
 14   9  12  1   
 15   9  30  1   
 16   9  31  1   
 17  10  13  ar  
 18  10  32  1   
 19  11  13  ar  
 20  11  33  1   
 21  12  14  1   
 22  12  34  1   
 23  12  35  1   
 24  13  36  1   
 25  14  15  1   
 26  14  37  1   
 27  15  16  ar  
 28  15  17  ar  
 29  16  18  ar  
 30  17  19  1   
 31  17  20  ar  
 32  18  21  ar  
 33  18  38  1   
 34  19  22  2   
 35  19  23  am  
 36  20  21  ar  
 37  20  39  1   
 38  21  40  1   
 39  23  24  1   
 40  23  25  1   
 41  24  26  1   
 42  24  41  1   
 43  24  42  1   
 44  25  27  1   
 45  25  43  1   
 46  25  44  1   
 47  26  27  1   
 48  26  45  1   
 49  26  46  1   
 50  27  47  1   
 51  27  48  1   
@<TRIPOS>SUBSTRUCTURE
  1 ****  15 GROUP 4 **** **** 0

# MOE 2024.06 (io_trps.svl 2023.06)
