@<TRIPOS>MOLECULE
NONAME
41 42 1 0 0 
SMALL
USER_CHARGES


@<TRIPOS>ATOM
  1 O       -0.6620    -0.5080     0.6110 O.co2 1 <1>  -0.9000 
  2 C       -0.6960    -1.7450     0.5230 C.2   1 <1>   1.0330 
  3 O       -1.8050    -2.2910     0.3500 O.co2 1 <1>  -0.9000 
  4 C        0.4970    -2.5360     0.6070 C.2   1 <1>  -0.2330 
  5 C        0.5010    -3.9060     0.8580 C.2   1 <1>   0.3720 
  6 C        1.8210    -2.2400     0.4840 C.2   1 <1>   0.0870 
  7 N        1.6920    -4.3870     0.8850 N.2   1 <1>  -0.4100 
  8 N       -0.6430    -4.6640     1.0420 N.pl3 1 <1>  -0.8520 
  9 O        2.4760    -3.3660     0.6630 O.3   1 <1>  -0.0190 
 10 C        2.5740    -1.0410     0.1980 C.ar  1 <1>   0.0530 
 11 C       -0.7690    -5.8190     0.1220 C.3   1 <1>   0.2090 
 12 C        2.0790    -0.0230    -0.6160 C.ar  1 <1>  -0.1500 
 13 C        3.8590    -0.8690     0.7180 C.ar  1 <1>  -0.1500 
 14 C       -2.1870    -6.4150     0.1690 C.3   1 <1>   0.2000 
 15 C        2.8230     1.1080    -0.8980 C.ar  1 <1>  -0.1500 
 16 C        4.6110     0.2570     0.4400 C.ar  1 <1>  -0.1500 
 17 O       -2.2000    -7.6280    -0.5300 O.3   1 <1>  -0.5600 
 18 C       -3.2350    -5.4870    -0.4710 C.3   1 <1>  -0.1600 
 19 C        4.0940     1.2510    -0.3710 C.ar  1 <1>  -0.1500 
 20 C       -1.8800    -8.7450     0.2310 C.3   1 <1>   0.1200 
 21 C       -4.6550    -6.0710    -0.4410 C.3   1 <1>  -0.2400 
 22 C       -1.8980    -9.9510    -0.6980 C.3   1 <1>  -0.2400 
 23 H       -1.4320    -4.0010     0.8710 H     1 <1>   0.4000 
 24 H       -0.0500    -6.5620     0.4180 H     1 <1>   0.0800 
 25 H       -0.5450    -5.5020    -0.8820 H     1 <1>   0.0800 
 26 H        1.0910    -0.1190    -1.0320 H     1 <1>   0.1500 
 27 H        4.2690    -1.6340     1.3530 H     1 <1>   0.1500 
 28 H       -2.4610    -6.6020     1.1940 H     1 <1>   0.0800 
 29 H        2.4040     1.8760    -1.5240 H     1 <1>   0.1500 
 30 H        5.5980     0.3620     0.8550 H     1 <1>   0.1500 
 31 H       -2.9490    -5.2770    -1.4870 H     1 <1>   0.0800 
 32 H       -3.2410    -4.5490     0.0570 H     1 <1>   0.0800 
 33 H        4.6720     2.1310    -0.5890 H     1 <1>   0.1500 
 34 H       -2.6150    -8.8540     1.0100 H     1 <1>   0.0800 
 35 H       -0.9020    -8.6130     0.6630 H     1 <1>   0.0800 
 36 H       -4.6980    -6.9830    -1.0100 H     1 <1>   0.0800 
 37 H       -5.3470    -5.3670    -0.8680 H     1 <1>   0.0800 
 38 H       -4.9520    -6.2770     0.5720 H     1 <1>   0.0800 
 39 H       -2.8750   -10.0660    -1.1310 H     1 <1>   0.0800 
 40 H       -1.6580   -10.8410    -0.1450 H     1 <1>   0.0800 
 41 H       -1.1720    -9.8240    -1.4810 H     1 <1>   0.0800 
@<TRIPOS>BOND
  1   1   2  ar  
  2   2   3  ar  
  3   2   4  1   
  4   4   5  1   
  5   4   6  2   
  6   5   7  2   
  7   5   8  1   
  8   6   9  1   
  9   6  10  1   
 10   7   9  1   
 11   8  11  1   
 12   8  23  1   
 13  10  12  ar  
 14  10  13  ar  
 15  11  14  1   
 16  11  24  1   
 17  11  25  1   
 18  12  15  ar  
 19  12  26  1   
 20  13  16  ar  
 21  13  27  1   
 22  14  17  1   
 23  14  18  1   
 24  14  28  1   
 25  15  19  ar  
 26  15  29  1   
 27  16  19  ar  
 28  16  30  1   
 29  17  20  1   
 30  18  21  1   
 31  18  31  1   
 32  18  32  1   
 33  19  33  1   
 34  20  22  1   
 35  20  34  1   
 36  20  35  1   
 37  21  36  1   
 38  21  37  1   
 39  21  38  1   
 40  22  39  1   
 41  22  40  1   
 42  22  41  1   
@<TRIPOS>SUBSTRUCTURE
  1 ****   5 GROUP 4 **** **** 0

# MOE 2024.06 (io_trps.svl 2023.06)
