@<TRIPOS>MOLECULE
NONAME
49 52 1 0 0 
SMALL
USER_CHARGES


@<TRIPOS>ATOM
  1 CL      -0.3940     1.3050    -2.8540 Cl    1 <1>  -0.1770 
  2 C       -1.7610     1.9180    -1.9550 C.ar  1 <1>   0.1770 
  3 C       -2.4780     1.1060    -1.0930 C.ar  1 <1>   0.1900 
  4 C       -2.1350     3.2390    -2.1070 C.ar  1 <1>  -0.1500 
  5 F       -2.1330    -0.1460    -0.9420 F     1 <1>  -0.1900 
  6 C       -3.5570     1.5850    -0.3780 C.ar  1 <1>  -0.1500 
  7 C       -3.2190     3.7250    -1.3910 C.ar  1 <1>  -0.1500 
  8 C       -3.9520     2.9190    -0.5090 C.ar  1 <1>   0.0860 
  9 C       -5.0870     3.4330     0.2430 C.2   1 <1>   0.5440 
 10 O       -5.9330     2.6650     0.6610 O.2   1 <1>  -0.5700 
 11 N       -5.1940     4.7700     0.5500 N.am  1 <1>  -0.6600 
 12 C       -6.5540     5.4010     0.7180 C.3   1 <1>   0.2200 
 13 C       -4.1150     5.3250     1.4260 C.3   1 <1>   0.1400 
 14 C       -6.5410     6.9490     0.8990 C.3   1 <1>   0.1380 
 15 C       -7.5790     5.0420    -0.3700 C.3   1 <1>  -0.1600 
 16 C       -4.6710     6.2190     2.5420 C.3   1 <1>  -0.1600 
 17 C       -6.2340     7.7490    -0.4090 C.2   1 <1>  -0.2760 
 18 C       -7.9800     7.2550     1.3940 C.3   1 <1>   0.1200 
 19 C       -5.5310     7.3760     2.0020 C.3   1 <1>  -0.1600 
 20 C       -8.9630     5.5080     0.1010 C.3   1 <1>   0.1200 
 21 C       -7.0280     8.6770    -0.9650 C.2   1 <1>  -0.2880 
 22 C       -4.9260     7.4330    -1.1330 C.3   1 <1>  -0.0220 
 23 O       -8.9480     6.8610     0.4530 O.3   1 <1>  -0.5600 
 24 C       -6.7360     9.3980    -2.2740 C.3   1 <1>   0.2580 
 25 C       -4.5800     8.4930    -2.1880 C.3   1 <1>   0.1200 
 26 O       -5.7010     8.7660    -2.9660 O.3   1 <1>  -0.5600 
 27 H       -1.5860     3.8740    -2.7790 H     1 <1>   0.1500 
 28 H       -4.0950     0.9260     0.2810 H     1 <1>   0.1500 
 29 H       -3.5090     4.7510    -1.5210 H     1 <1>   0.1500 
 30 H       -6.9390     4.9800     1.6320 H     1 <1>   0.0800 
 31 H       -3.5740     4.5120     1.8810 H     1 <1>   0.0800 
 32 H       -3.4140     5.8770     0.8280 H     1 <1>   0.0800 
 33 H       -7.6310     3.9830    -0.5320 H     1 <1>   0.0800 
 34 H       -7.3380     5.5130    -1.3050 H     1 <1>   0.0800 
 35 H       -5.2560     5.6110     3.2110 H     1 <1>   0.0800 
 36 H       -3.8530     6.6210     3.1140 H     1 <1>   0.0800 
 37 H       -8.1020     8.3100     1.5640 H     1 <1>   0.0800 
 38 H       -8.1880     6.7420     2.3170 H     1 <1>   0.0800 
 39 H       -4.8780     8.1370     1.6140 H     1 <1>   0.0800 
 40 H       -6.0480     7.8260     2.8310 H     1 <1>   0.0800 
 41 H       -9.2840     4.9430     0.9600 H     1 <1>   0.0800 
 42 H       -9.6880     5.3830    -0.6840 H     1 <1>   0.0800 
 43 H       -7.9680     8.9970    -0.5540 H     1 <1>   0.1500 
 44 H       -5.0100     6.4780    -1.6170 H     1 <1>   0.0800 
 45 H       -4.1070     7.4030    -0.4460 H     1 <1>   0.0800 
 46 H       -6.4560    10.4210    -2.0940 H     1 <1>   0.0800 
 47 H       -7.6030     9.3770    -2.9110 H     1 <1>   0.0800 
 48 H       -3.8020     8.1380    -2.8400 H     1 <1>   0.0800 
 49 H       -4.2600     9.4090    -1.7210 H     1 <1>   0.0800 
@<TRIPOS>BOND
  1   1   2  1   
  2   2   3  ar  
  3   2   4  ar  
  4   3   5  1   
  5   3   6  ar  
  6   4   7  ar  
  7   4  27  1   
  8   6   8  ar  
  9   6  28  1   
 10   7   8  ar  
 11   7  29  1   
 12   8   9  1   
 13   9  10  2   
 14   9  11  am  
 15  11  12  1   
 16  11  13  1   
 17  12  14  1   
 18  12  15  1   
 19  12  30  1   
 20  13  16  1   
 21  13  31  1   
 22  13  32  1   
 23  14  17  1   
 24  14  18  1   
 25  14  19  1   
 26  15  20  1   
 27  15  33  1   
 28  15  34  1   
 29  16  19  1   
 30  16  35  1   
 31  16  36  1   
 32  17  21  2   
 33  17  22  1   
 34  18  23  1   
 35  18  37  1   
 36  18  38  1   
 37  19  39  1   
 38  19  40  1   
 39  20  23  1   
 40  20  41  1   
 41  20  42  1   
 42  21  24  1   
 43  21  43  1   
 44  22  25  1   
 45  22  44  1   
 46  22  45  1   
 47  24  26  1   
 48  24  46  1   
 49  24  47  1   
 50  25  26  1   
 51  25  48  1   
 52  25  49  1   
@<TRIPOS>SUBSTRUCTURE
  1 ****  11 GROUP 4 **** **** 0

# MOE 2024.06 (io_trps.svl 2023.06)
