@<TRIPOS>MOLECULE
NONAME
36 37 1 0 0 
SMALL
USER_CHARGES


@<TRIPOS>ATOM
  1 S        0.2360    -0.4290    -0.2980 S.o2  1 <1>   1.3330 
  2 O        0.5570    -0.4970    -1.7040 O.2   1 <1>  -0.6500 
  3 O        1.2170    -0.7770     0.6990 O.2   1 <1>  -0.6500 
  4 N       -1.0380    -1.4770    -0.0160 N.am  1 <1>  -0.9140 
  5 C       -0.4780     1.1770     0.0790 C.3   1 <1>  -0.0550 
  6 C       -0.9930    -2.6930    -0.8230 C.3   1 <1>   0.2760 
  7 C        0.5000     2.3570    -0.0660 C.3   1 <1>  -0.2400 
  8 C       -2.2810    -3.4880    -0.6460 C.3   1 <1>  -0.0800 
  9 C        0.0100    -3.6830    -0.2330 C.3   1 <1>   0.1200 
 10 C       -2.0180    -4.3070     0.6230 C.3   1 <1>   0.1200 
 11 C       -3.5840    -2.6660    -0.6080 C.3   1 <1>  -0.0160 
 12 O       -0.6440    -4.2290     0.8710 O.3   1 <1>  -0.5600 
 13 C       -4.7960    -3.5790    -0.5210 C.ar  1 <1>  -0.1440 
 14 C       -5.4400    -3.8320     0.6730 C.ar  1 <1>  -0.1500 
 15 C       -5.3120    -4.2070    -1.6370 C.ar  1 <1>  -0.1500 
 16 C       -6.5350    -4.6800     0.6940 C.ar  1 <1>   0.1600 
 17 C       -6.4120    -5.0370    -1.5080 C.ar  1 <1>   0.1600 
 18 N       -7.0340    -5.2910    -0.3680 N.ar  1 <1>  -0.6200 
 19 H       -0.8690    -1.8140     0.9360 H     1 <1>   0.4200 
 20 H       -1.3130     1.3430    -0.5730 H     1 <1>   0.0800 
 21 H       -0.8500     1.1640     1.0850 H     1 <1>   0.0800 
 22 H       -0.8060    -2.4750    -1.8620 H     1 <1>   0.0800 
 23 H        0.8680     2.4100    -1.0760 H     1 <1>   0.0800 
 24 H        1.3370     2.2280     0.5980 H     1 <1>   0.0800 
 25 H        0.0060     3.2820     0.1730 H     1 <1>   0.0800 
 26 H       -2.3500    -4.1830    -1.4640 H     1 <1>   0.0800 
 27 H        0.9370    -3.2330     0.0770 H     1 <1>   0.0800 
 28 H        0.2120    -4.4800    -0.9270 H     1 <1>   0.0800 
 29 H       -2.2930    -5.3400     0.4950 H     1 <1>   0.0800 
 30 H       -2.5260    -3.8980     1.4790 H     1 <1>   0.0800 
 31 H       -3.6540    -2.0650    -1.4970 H     1 <1>   0.0800 
 32 H       -3.5830    -1.9960     0.2350 H     1 <1>   0.0800 
 33 H       -5.1050    -3.3780     1.5880 H     1 <1>   0.1500 
 34 H       -4.8700    -4.0580    -2.6050 H     1 <1>   0.1500 
 35 H       -7.0260    -4.8670     1.6340 H     1 <1>   0.1500 
 36 H       -6.8020    -5.5190    -2.3880 H     1 <1>   0.1500 
@<TRIPOS>BOND
  1   1   2  2   
  2   1   3  2   
  3   1   4  am  
  4   1   5  1   
  5   4   6  1   
  6   4  19  1   
  7   5   7  1   
  8   5  20  1   
  9   5  21  1   
 10   6   8  1   
 11   6   9  1   
 12   6  22  1   
 13   7  23  1   
 14   7  24  1   
 15   7  25  1   
 16   8  10  1   
 17   8  11  1   
 18   8  26  1   
 19   9  12  1   
 20   9  27  1   
 21   9  28  1   
 22  10  12  1   
 23  10  29  1   
 24  10  30  1   
 25  11  13  1   
 26  11  31  1   
 27  11  32  1   
 28  13  14  ar  
 29  13  15  ar  
 30  14  16  ar  
 31  14  33  1   
 32  15  17  ar  
 33  15  34  1   
 34  16  18  ar  
 35  16  35  1   
 36  17  18  ar  
 37  17  36  1   
@<TRIPOS>SUBSTRUCTURE
  1 ****   8 GROUP 4 **** **** 0

# MOE 2024.06 (io_trps.svl 2023.06)
