@<TRIPOS>MOLECULE
NONAME
54 57 1 0 0 
SMALL
USER_CHARGES


@<TRIPOS>ATOM
  1 O        0.4730    -2.0480     2.9530 O.3   1 <1>  -0.6800 
  2 C        0.8420    -1.3530     1.8100 C.3   1 <1>   0.2000 
  3 C        1.8790    -2.2050     1.0660 C.3   1 <1>  -0.0800 
  4 C        1.5850    -0.0870     2.2640 C.3   1 <1>   0.3430 
  5 C        3.1920    -1.7550     1.7100 C.3   1 <1>   0.3430 
  6 C        1.8430    -2.0210    -0.4770 C.3   1 <1>  -0.0160 
  7 N        3.0170    -0.2970     1.8970 N.4   1 <1>  -0.9590 
  8 C        2.5590    -0.7880    -1.0230 C.ar  1 <1>   0.1670 
  9 C        4.0120     0.4170     2.7230 C.3   1 <1>   0.4860 
 10 N        2.0440     0.3920    -0.7060 N.ar  1 <1>  -0.6200 
 11 C        3.7040    -0.9460    -1.7910 C.ar  1 <1>  -0.1500 
 12 C        4.4230     1.6210     1.9160 C.ar  1 <1>  -0.1430 
 13 C        2.6820     1.4530    -1.1860 C.ar  1 <1>   0.1600 
 14 C        4.3680     0.1650    -2.2660 C.ar  1 <1>  -0.1500 
 15 C        3.6660     2.7680     1.8850 C.ar  1 <1>   0.1600 
 16 C        5.5540     1.6050     1.1360 C.ar  1 <1>   0.1600 
 17 C        3.8330     1.3930    -1.9490 C.ar  1 <1>  -0.1500 
 18 N        3.9700     3.7800     1.1170 N.ar  1 <1>  -0.6200 
 19 N        5.8850     2.6110     0.3710 N.ar  1 <1>  -0.6200 
 20 C        5.0690     3.6640     0.3710 C.ar  1 <1>   0.7200 
 21 N        5.3680     4.6980    -0.4890 N.pl3 1 <1>  -0.8380 
 22 C        4.4300     5.8220    -0.7740 C.3   1 <1>   0.2090 
 23 C        6.7000     4.8490    -1.1450 C.3   1 <1>   0.2090 
 24 C        4.2210     5.9380    -2.2870 C.3   1 <1>  -0.1600 
 25 C        6.5120     4.9510    -2.6610 C.3   1 <1>  -0.1600 
 26 C        5.5510     6.0870    -3.0400 C.3   1 <1>  -0.1600 
 27 H       -0.1920    -2.7410     2.7520 H     1 <1>   0.4000 
 28 H       -0.0430    -1.1270     1.2390 H     1 <1>   0.0800 
 29 H        1.7130    -3.2500     1.2670 H     1 <1>   0.0800 
 30 H        1.4650     0.0380     3.3270 H     1 <1>   0.0800 
 31 H        1.1970     0.7760     1.7470 H     1 <1>   0.0800 
 32 H        4.0420    -1.9810     1.0860 H     1 <1>   0.0800 
 33 H        3.3030    -2.2360     2.6690 H     1 <1>   0.0800 
 34 H        0.8220    -2.0000    -0.8160 H     1 <1>   0.0800 
 35 H        2.2880    -2.8930    -0.9240 H     1 <1>   0.0800 
 36 H        3.0750     0.1100     0.9380 H     1 <1>   0.4500 
 37 H        3.5860     0.7120     3.6690 H     1 <1>   0.0800 
 38 H        4.8690    -0.2100     2.9050 H     1 <1>   0.0800 
 39 H        4.0830    -1.9240    -2.0280 H     1 <1>   0.1500 
 40 H        2.2790     2.4270    -0.9570 H     1 <1>   0.1500 
 41 H        5.2620     0.0830    -2.8620 H     1 <1>   0.1500 
 42 H        2.7790     2.8590     2.4890 H     1 <1>   0.1500 
 43 H        6.2040     0.7450     1.1230 H     1 <1>   0.1500 
 44 H        4.3040     2.3020    -2.2850 H     1 <1>   0.1500 
 45 H        3.4760     5.6740    -0.2990 H     1 <1>   0.0800 
 46 H        4.8520     6.7350    -0.3900 H     1 <1>   0.0800 
 47 H        7.1670     5.7460    -0.7760 H     1 <1>   0.0800 
 48 H        7.3540     4.0250    -0.9190 H     1 <1>   0.0800 
 49 H        3.7070     5.0580    -2.6310 H     1 <1>   0.0800 
 50 H        3.5920     6.7860    -2.4930 H     1 <1>   0.0800 
 51 H        7.4680     5.1160    -3.1250 H     1 <1>   0.0800 
 52 H        6.1290     4.0130    -3.0230 H     1 <1>   0.0800 
 53 H        6.0000     7.0320    -2.7850 H     1 <1>   0.0800 
 54 H        5.3740     6.0770    -4.1010 H     1 <1>   0.0800 
@<TRIPOS>BOND
  1   1   2  1   
  2   1  27  1   
  3   2   3  1   
  4   2   4  1   
  5   2  28  1   
  6   3   5  1   
  7   3   6  1   
  8   3  29  1   
  9   4   7  1   
 10   4  30  1   
 11   4  31  1   
 12   5   7  1   
 13   5  32  1   
 14   5  33  1   
 15   6   8  1   
 16   6  34  1   
 17   6  35  1   
 18   7   9  1   
 19   7  36  1   
 20   8  10  ar  
 21   8  11  ar  
 22   9  12  1   
 23   9  37  1   
 24   9  38  1   
 25  10  13  ar  
 26  11  14  ar  
 27  11  39  1   
 28  12  15  ar  
 29  12  16  ar  
 30  13  17  ar  
 31  13  40  1   
 32  14  17  ar  
 33  14  41  1   
 34  15  18  ar  
 35  15  42  1   
 36  16  19  ar  
 37  16  43  1   
 38  17  44  1   
 39  18  20  ar  
 40  19  20  ar  
 41  20  21  1   
 42  21  22  1   
 43  21  23  1   
 44  22  24  1   
 45  22  45  1   
 46  22  46  1   
 47  23  25  1   
 48  23  47  1   
 49  23  48  1   
 50  24  26  1   
 51  24  49  1   
 52  24  50  1   
 53  25  26  1   
 54  25  51  1   
 55  25  52  1   
 56  26  53  1   
 57  26  54  1   
@<TRIPOS>SUBSTRUCTURE
  1 ****  13 GROUP 4 **** **** 0

# MOE 2024.06 (io_trps.svl 2023.06)
