@<TRIPOS>MOLECULE
NONAME
47 50 1 0 0 
SMALL
USER_CHARGES


@<TRIPOS>ATOM
  1 S        0.1330    -0.5250    -0.6260 S.o2  1 <1>   1.5760 
  2 O        1.2880    -1.3770    -0.7900 O.2   1 <1>  -0.6500 
  3 O       -0.7870    -0.3320    -1.7230 O.2   1 <1>  -0.6500 
  4 N       -0.7300    -1.0430     0.7300 N.am  1 <1>  -0.8490 
  5 N        0.6480     0.9840    -0.0830 N.am  1 <1>  -0.8490 
  6 C       -1.0510    -2.4830     0.6770 C.3   1 <1>   0.1960 
  7 C       -1.9640    -0.2650     0.9830 C.3   1 <1>   0.1960 
  8 C        1.2980     1.7560    -1.1230 C.3   1 <1>   0.1960 
  9 C        1.6060     0.9180     1.0060 C.3   1 <1>   0.1960 
 10 C       -2.2510    -2.8110    -0.2410 C.3   1 <1>   0.3440 
 11 C       -3.1820    -0.6880     0.1200 C.3   1 <1>   0.2950 
 12 C        2.0390     2.8570    -0.3720 C.3   1 <1>  -0.1600 
 13 C        2.2260     2.3100     1.0430 C.3   1 <1>  -0.1600 
 14 O       -3.3680    -2.0720     0.1720 O.3   1 <1>  -0.5600 
 15 C       -2.5700    -4.3020    -0.1830 C.ar  1 <1>  -0.1440 
 16 C       -4.4730    -0.0380     0.6270 C.3   1 <1>  -0.1950 
 17 C       -1.9750    -5.1620    -1.0950 C.ar  1 <1>  -0.1500 
 18 C       -3.4330    -4.8260     0.7710 C.ar  1 <1>  -0.1500 
 19 C       -5.6580     0.1290    -0.2710 C.3   1 <1>  -0.2000 
 20 C       -4.8740     1.3320     0.1750 C.3   1 <1>  -0.2000 
 21 C       -2.2350    -6.5210    -1.0540 C.ar  1 <1>  -0.1500 
 22 C       -3.6940    -6.1840     0.8140 C.ar  1 <1>  -0.1500 
 23 C       -3.0940    -7.0340    -0.0980 C.ar  1 <1>  -0.1500 
 24 H       -0.1900    -3.0430     0.3550 H     1 <1>   0.0800 
 25 H       -1.2910    -2.8210     1.6700 H     1 <1>   0.0800 
 26 H       -2.2330    -0.3930     2.0170 H     1 <1>   0.0800 
 27 H       -1.7760     0.7840     0.8370 H     1 <1>   0.0800 
 28 H        2.0040     1.1380    -1.6540 H     1 <1>   0.0800 
 29 H        0.5750     2.1530    -1.8170 H     1 <1>   0.0800 
 30 H        1.1210     0.6640     1.9340 H     1 <1>   0.0800 
 31 H        2.3710     0.1890     0.7910 H     1 <1>   0.0800 
 32 H       -2.0310    -2.5410    -1.2590 H     1 <1>   0.0800 
 33 H       -3.0360    -0.4090    -0.9080 H     1 <1>   0.0800 
 34 H        2.9780     3.0760    -0.8490 H     1 <1>   0.0800 
 35 H        1.4380     3.7490    -0.3510 H     1 <1>   0.0800 
 36 H        1.6950     2.9210     1.7520 H     1 <1>   0.0800 
 37 H        3.2620     2.2600     1.3270 H     1 <1>   0.0800 
 38 H       -4.6740    -0.2910     1.6530 H     1 <1>   0.1000 
 39 H       -1.3040    -4.7790    -1.8450 H     1 <1>   0.1500 
 40 H       -3.9080    -4.1730     1.4830 H     1 <1>   0.1500 
 41 H       -5.5790    -0.2000    -1.2930 H     1 <1>   0.1000 
 42 H       -6.6380    -0.0410     0.1400 H     1 <1>   0.1000 
 43 H       -5.3240     2.0040     0.8860 H     1 <1>   0.1000 
 44 H       -4.2750     1.8470    -0.5570 H     1 <1>   0.1000 
 45 H       -1.7690    -7.1790    -1.7660 H     1 <1>   0.1500 
 46 H       -4.3650    -6.5780     1.5570 H     1 <1>   0.1500 
 47 H       -3.2970    -8.0900    -0.0660 H     1 <1>   0.1500 
@<TRIPOS>BOND
  1   1   2  2   
  2   1   3  2   
  3   1   4  am  
  4   1   5  am  
  5   4   6  1   
  6   4   7  1   
  7   5   8  1   
  8   5   9  1   
  9   6  10  1   
 10   6  24  1   
 11   6  25  1   
 12   7  11  1   
 13   7  26  1   
 14   7  27  1   
 15   8  12  1   
 16   8  28  1   
 17   8  29  1   
 18   9  13  1   
 19   9  30  1   
 20   9  31  1   
 21  10  14  1   
 22  10  15  1   
 23  10  32  1   
 24  11  14  1   
 25  11  16  1   
 26  11  33  1   
 27  12  13  1   
 28  12  34  1   
 29  12  35  1   
 30  13  36  1   
 31  13  37  1   
 32  15  17  ar  
 33  15  18  ar  
 34  16  19  1   
 35  16  20  1   
 36  16  38  1   
 37  17  21  ar  
 38  17  39  1   
 39  18  22  ar  
 40  18  40  1   
 41  19  20  1   
 42  19  41  1   
 43  19  42  1   
 44  20  43  1   
 45  20  44  1   
 46  21  23  ar  
 47  21  45  1   
 48  22  23  ar  
 49  22  46  1   
 50  23  47  1   
@<TRIPOS>SUBSTRUCTURE
  1 ****   4 GROUP 4 **** **** 0

# MOE 2024.06 (io_trps.svl 2023.06)
