@<TRIPOS>MOLECULE
NONAME
49 50 1 0 0 
SMALL
USER_CHARGES


@<TRIPOS>ATOM
  1 O        1.0800    -2.9930     1.4670 O.2   1 <1>  -0.5700 
  2 C        1.6870    -2.2190     0.7860 C.2   1 <1>   0.4480 
  3 C        1.8350    -2.4740    -0.7100 C.3   1 <1>  -0.0190 
  4 C        2.3540    -0.9890     1.3810 C.3   1 <1>  -0.0990 
  5 C        0.5270    -3.0950    -1.2330 C.3   1 <1>   0.3430 
  6 C        3.0630    -3.3800    -0.9850 C.3   1 <1>  -0.1600 
  7 C        1.3770     0.1800     1.6050 C.3   1 <1>  -0.0800 
  8 N        0.4650    -4.5210    -0.7990 N.4   1 <1>  -0.9590 
  9 C        2.7240    -4.5500    -1.9260 C.3   1 <1>  -0.1600 
 10 C        0.7500     0.6810     0.2970 C.3   1 <1>  -0.2400 
 11 C        2.1030     1.3380     2.3000 C.3   1 <1>  -0.2400 
 12 C        1.5180    -5.3750    -1.4440 C.3   1 <1>   0.3430 
 13 C       -0.9090    -5.0800    -0.8950 C.3   1 <1>   0.3430 
 14 C       -1.0050    -6.3760    -0.0920 C.3   1 <1>  -0.1600 
 15 C       -2.4490    -6.8910    -0.0470 C.3   1 <1>   0.0960 
 16 N       -2.4920    -8.1680     0.6850 N.pl3 1 <1>   0.0480 
 17 C       -2.4220    -9.4110     0.1420 C.2   1 <1>  -0.3020 
 18 C       -2.5570    -8.3210     2.0340 C.2   1 <1>  -0.3020 
 19 C       -2.4440   -10.3410     1.1320 C.2   1 <1>  -0.1500 
 20 C       -2.5300    -9.6440     2.3410 C.2   1 <1>  -0.1500 
 21 H        1.9690    -1.5320    -1.2110 H     1 <1>   0.0800 
 22 H        3.1690    -0.6750     0.7550 H     1 <1>   0.0800 
 23 H        2.7710    -1.2760     2.3300 H     1 <1>   0.0800 
 24 H        0.4950    -3.0390    -2.3090 H     1 <1>   0.0800 
 25 H       -0.3100    -2.5460    -0.8330 H     1 <1>   0.0800 
 26 H        3.4290    -3.7920    -0.0580 H     1 <1>   0.0800 
 27 H        3.8620    -2.7930    -1.4080 H     1 <1>   0.0800 
 28 H        0.5860    -0.1560     2.2580 H     1 <1>   0.0800 
 29 H        0.6940    -4.4610     0.2160 H     1 <1>   0.4500 
 30 H        3.5760    -5.2000    -2.0200 H     1 <1>   0.0800 
 31 H        2.5140    -4.1700    -2.9120 H     1 <1>   0.0800 
 32 H        1.5110     0.9840    -0.4010 H     1 <1>   0.0800 
 33 H        0.1200     1.5320     0.4960 H     1 <1>   0.0800 
 34 H        0.1350    -0.0760    -0.1530 H     1 <1>   0.0800 
 35 H        2.9010     1.7160     1.6850 H     1 <1>   0.0800 
 36 H        2.5170     1.0140     3.2390 H     1 <1>   0.0800 
 37 H        1.4170     2.1430     2.5010 H     1 <1>   0.0800 
 38 H        1.1010    -5.9030    -2.2860 H     1 <1>   0.0800 
 39 H        1.8550    -6.1100    -0.7300 H     1 <1>   0.0800 
 40 H       -1.1650    -5.2620    -1.9270 H     1 <1>   0.0800 
 41 H       -1.6110    -4.3680    -0.4910 H     1 <1>   0.0800 
 42 H       -0.6740    -6.1990     0.9170 H     1 <1>   0.0800 
 43 H       -0.3880    -7.1350    -0.5400 H     1 <1>   0.0800 
 44 H       -2.8290    -7.0570    -1.0390 H     1 <1>   0.0800 
 45 H       -3.0910    -6.1890     0.4570 H     1 <1>   0.0800 
 46 H       -2.3610    -9.5810    -0.9180 H     1 <1>   0.1500 
 47 H       -2.6190    -7.4890     2.7120 H     1 <1>   0.1500 
 48 H       -2.4060   -11.4130     1.0370 H     1 <1>   0.1500 
 49 H       -2.5670   -10.0990     3.3170 H     1 <1>   0.1500 
@<TRIPOS>BOND
  1   1   2  2   
  2   2   3  1   
  3   2   4  1   
  4   3   5  1   
  5   3   6  1   
  6   3  21  1   
  7   4   7  1   
  8   4  22  1   
  9   4  23  1   
 10   5   8  1   
 11   5  24  1   
 12   5  25  1   
 13   6   9  1   
 14   6  26  1   
 15   6  27  1   
 16   7  10  1   
 17   7  11  1   
 18   7  28  1   
 19   8  12  1   
 20   8  13  1   
 21   8  29  1   
 22   9  12  1   
 23   9  30  1   
 24   9  31  1   
 25  10  32  1   
 26  10  33  1   
 27  10  34  1   
 28  11  35  1   
 29  11  36  1   
 30  11  37  1   
 31  12  38  1   
 32  12  39  1   
 33  13  14  1   
 34  13  40  1   
 35  13  41  1   
 36  14  15  1   
 37  14  42  1   
 38  14  43  1   
 39  15  16  1   
 40  15  44  1   
 41  15  45  1   
 42  16  17  1   
 43  16  18  1   
 44  17  19  2   
 45  17  46  1   
 46  18  20  2   
 47  18  47  1   
 48  19  20  1   
 49  19  48  1   
 50  20  49  1   
@<TRIPOS>SUBSTRUCTURE
  1 ****   8 GROUP 4 **** **** 0

# MOE 2024.06 (io_trps.svl 2023.06)
