@<TRIPOS>MOLECULE
NONAME
51 54 1 0 0 
SMALL
USER_CHARGES


@<TRIPOS>ATOM
  1 F        2.8200     3.8850    -3.8510 F     1 <1>  -0.3400 
  2 C        3.3460     3.2500    -2.8120 C.3   1 <1>   1.1640 
  3 F        2.5660     2.2040    -2.5760 F     1 <1>  -0.3400 
  4 F        4.5120     2.7650    -3.2250 F     1 <1>  -0.3400 
  5 C        3.4740     4.1670    -1.5840 C.ar  1 <1>  -0.1440 
  6 C        4.6880     4.3800    -0.9520 C.ar  1 <1>  -0.1500 
  7 C        2.3250     4.8060    -1.0840 C.ar  1 <1>  -0.1500 
  8 C        4.7540     5.2210     0.1570 C.ar  1 <1>   0.2270 
  9 C        2.3820     5.6330     0.0150 C.ar  1 <1>  -0.1500 
 10 N        5.8360     5.5730     0.9050 N.2   1 <1>  -0.5650 
 11 C        3.6160     5.8360     0.6360 C.ar  1 <1>  -0.1520 
 12 C        5.3540     6.3490     1.8200 C.2   1 <1>   0.0060 
 13 N        4.0110     6.5650     1.7140 N.pl3 1 <1>   0.0480 
 14 C        6.2170     6.9810     2.9070 C.3   1 <1>   0.3890 
 15 C        3.1280     7.4080     2.5470 C.3   1 <1>   0.0160 
 16 N        6.7670     8.2900     2.4570 N.pl3 1 <1>  -0.8690 
 17 C        7.3180     8.6650     1.2960 C.ar  1 <1>   0.7710 
 18 N        7.8020     9.8890     1.2670 N.ar  1 <1>  -0.6200 
 19 N        7.3740     7.8360     0.2390 N.ar  1 <1>  -0.1790 
 20 C        8.3800    10.3040     0.1520 C.ar  1 <1>   0.4100 
 21 C        7.9300     8.2250    -0.9300 C.ar  1 <1>   0.2110 
 22 N        8.9110    11.5550     0.1440 N.pl3 1 <1>  -0.8380 
 23 C        8.4430     9.4770    -0.9890 C.ar  1 <1>  -0.1500 
 24 C       10.0950    11.9720    -0.6770 C.3   1 <1>   0.2090 
 25 C        8.4090    12.6510     1.0300 C.3   1 <1>   0.2090 
 26 C        9.7350    13.1840    -1.5530 C.3   1 <1>   0.2000 
 27 C        8.0300    13.8680     0.1750 C.3   1 <1>  -0.1600 
 28 O       10.8600    13.6210    -2.2300 O.3   1 <1>  -0.6800 
 29 C        9.1920    14.3460    -0.7150 C.3   1 <1>  -0.1600 
 30 H        5.5970     3.9110    -1.2840 H     1 <1>   0.1500 
 31 H        1.3760     4.6420    -1.5710 H     1 <1>   0.1500 
 32 H        1.4940     6.1110     0.3910 H     1 <1>   0.1500 
 33 H        7.0310     6.3170     3.1480 H     1 <1>   0.0800 
 34 H        5.6350     7.1200     3.8020 H     1 <1>   0.0800 
 35 H        2.3280     7.7970     1.9430 H     1 <1>   0.0800 
 36 H        3.6820     8.2310     2.9590 H     1 <1>   0.0800 
 37 H        2.7140     6.8140     3.3420 H     1 <1>   0.0800 
 38 H        6.8390     9.0000     3.1940 H     1 <1>   0.4000 
 39 H        6.9310     6.9170     0.3650 H     1 <1>   0.4570 
 40 H        7.9390     7.5400    -1.7630 H     1 <1>   0.1500 
 41 H        8.8810     9.8550    -1.8920 H     1 <1>   0.1500 
 42 H       10.4460    11.1690    -1.2970 H     1 <1>   0.0800 
 43 H       10.8920    12.2450    -0.0070 H     1 <1>   0.0800 
 44 H        9.1800    12.9180     1.7340 H     1 <1>   0.0800 
 45 H        7.5450    12.3320     1.5870 H     1 <1>   0.0800 
 46 H        9.0110    12.8830    -2.2920 H     1 <1>   0.0800 
 47 H        7.7210    14.6700     0.8220 H     1 <1>   0.0800 
 48 H        7.1880    13.6050    -0.4400 H     1 <1>   0.0800 
 49 H       11.4500    14.1160    -1.6300 H     1 <1>   0.4000 
 50 H        8.8460    15.1300    -1.3660 H     1 <1>   0.0800 
 51 H        9.9710    14.7360    -0.0840 H     1 <1>   0.0800 
@<TRIPOS>BOND
  1   1   2  1   
  2   2   3  1   
  3   2   4  1   
  4   2   5  1   
  5   5   6  ar  
  6   5   7  ar  
  7   6   8  ar  
  8   6  30  1   
  9   7   9  ar  
 10   7  31  1   
 11   8  10  1   
 12   8  11  ar  
 13   9  11  ar  
 14   9  32  1   
 15  10  12  2   
 16  11  13  1   
 17  12  13  1   
 18  12  14  1   
 19  13  15  1   
 20  14  16  1   
 21  14  33  1   
 22  14  34  1   
 23  15  35  1   
 24  15  36  1   
 25  15  37  1   
 26  16  17  1   
 27  16  38  1   
 28  17  18  ar  
 29  17  19  ar  
 30  18  20  ar  
 31  19  21  ar  
 32  19  39  1   
 33  20  22  1   
 34  20  23  ar  
 35  21  23  ar  
 36  21  40  1   
 37  22  24  1   
 38  22  25  1   
 39  23  41  1   
 40  24  26  1   
 41  24  42  1   
 42  24  43  1   
 43  25  27  1   
 44  25  44  1   
 45  25  45  1   
 46  26  28  1   
 47  26  29  1   
 48  26  46  1   
 49  27  29  1   
 50  27  47  1   
 51  27  48  1   
 52  28  49  1   
 53  29  50  1   
 54  29  51  1   
@<TRIPOS>SUBSTRUCTURE
  1 ****  19 GROUP 4 **** **** 0

# MOE 2024.06 (io_trps.svl 2023.06)
