@<TRIPOS>MOLECULE
NONAME
33 33 1 0 0 
SMALL
USER_CHARGES


@<TRIPOS>ATOM
  1 O        1.3960    -0.1830    -0.8000 O.2   1 <1>  -0.5700 
  2 C        2.1270    -0.8200    -0.0630 C.2   1 <1>   0.7800 
  3 O        3.2690    -0.3480     0.4140 O.3   1 <1>  -0.4300 
  4 N        1.8030    -2.0740     0.3210 N.am  1 <1>  -0.7300 
  5 C        3.8400     0.9200     0.1660 C.3   1 <1>   0.2800 
  6 C        0.6890    -2.8690    -0.2610 C.3   1 <1>   0.2200 
  7 C        2.9190     2.0260     0.6920 C.3   1 <1>  -0.2400 
  8 C        4.1480     1.0780    -1.3270 C.3   1 <1>  -0.2400 
  9 C        5.1490     0.9320     0.9570 C.3   1 <1>  -0.2400 
 10 C       -0.6800    -2.1940    -0.0860 C.3   1 <1>   0.4230 
 11 C        0.4700    -4.2250     0.3920 C.3   1 <1>   0.1200 
 12 N       -1.0330    -1.3520    -1.2650 N.4   1 <1>  -0.8530 
 13 C       -1.6350    -3.3670     0.1700 C.3   1 <1>   0.1200 
 14 O       -0.8590    -4.5220     0.0960 O.3   1 <1>  -0.5600 
 15 H        2.5280    -2.5750     0.8430 H     1 <1>   0.3700 
 16 H        0.8900    -3.0430    -1.3050 H     1 <1>   0.0800 
 17 H        3.4180     2.9760     0.6250 H     1 <1>   0.0800 
 18 H        2.6710     1.8500     1.7230 H     1 <1>   0.0800 
 19 H        2.0180     2.0950     0.1130 H     1 <1>   0.0800 
 20 H        4.7030     1.9840    -1.4900 H     1 <1>   0.0800 
 21 H        3.2480     1.1420    -1.9090 H     1 <1>   0.0800 
 22 H        4.7420     0.2530    -1.6780 H     1 <1>   0.0800 
 23 H        5.6570     1.8700     0.8250 H     1 <1>   0.0800 
 24 H        5.8000     0.1460     0.6170 H     1 <1>   0.0800 
 25 H        4.9550     0.7990     2.0060 H     1 <1>   0.0800 
 26 H       -0.6550    -1.5800     0.8000 H     1 <1>   0.0800 
 27 H        0.5750    -4.1820     1.4630 H     1 <1>   0.0800 
 28 H        1.1000    -4.9940    -0.0230 H     1 <1>   0.0800 
 29 H       -1.1010    -1.9030    -2.1260 H     1 <1>   0.4500 
 30 H       -0.2550    -0.6700    -1.3840 H     1 <1>   0.4500 
 31 H       -1.8940    -0.8170    -1.1230 H     1 <1>   0.4500 
 32 H       -2.4250    -3.4410    -0.5570 H     1 <1>   0.0800 
 33 H       -2.0480    -3.3140     1.1630 H     1 <1>   0.0800 
@<TRIPOS>BOND
  1   1   2  2   
  2   2   3  1   
  3   2   4  am  
  4   3   5  1   
  5   4   6  1   
  6   4  15  1   
  7   5   7  1   
  8   5   8  1   
  9   5   9  1   
 10   6  10  1   
 11   6  11  1   
 12   6  16  1   
 13   7  17  1   
 14   7  18  1   
 15   7  19  1   
 16   8  20  1   
 17   8  21  1   
 18   8  22  1   
 19   9  23  1   
 20   9  24  1   
 21   9  25  1   
 22  10  12  1   
 23  10  13  1   
 24  10  26  1   
 25  11  14  1   
 26  11  27  1   
 27  11  28  1   
 28  12  29  1   
 29  12  30  1   
 30  12  31  1   
 31  13  14  1   
 32  13  32  1   
 33  13  33  1   
@<TRIPOS>SUBSTRUCTURE
  1 ****   2 GROUP 4 **** **** 0

# MOE 2024.06 (io_trps.svl 2023.06)
