@<TRIPOS>MOLECULE
NONAME
31 32 1 0 0 
SMALL
USER_CHARGES


@<TRIPOS>ATOM
  1 O       -9.6780     2.9310    -0.8380 O.3   1 <1>  -0.3630 
  2 C       -9.3080     1.8520    -0.1170 C.ar  1 <1>   0.3920 
  3 C      -10.8860     3.6110    -0.5570 C.3   1 <1>   0.0400 
  4 N      -10.0950     1.4320     0.8670 N.ar  1 <1>  -0.6200 
  5 C       -8.1080     1.2500    -0.4650 C.ar  1 <1>  -0.1500 
  6 C       -9.6600     0.3710     1.5230 C.ar  1 <1>   0.1600 
  7 C       -7.6590     0.1420     0.2240 C.ar  1 <1>  -0.1430 
  8 C       -8.4780    -0.2970     1.2500 C.ar  1 <1>  -0.1500 
  9 C       -6.3430    -0.5320    -0.1440 C.3   1 <1>   0.0630 
 10 C       -6.5700    -1.9820    -0.5950 C.3   1 <1>  -0.1600 
 11 C       -5.3480    -0.4790     1.0230 C.3   1 <1>  -0.1600 
 12 C       -5.2480    -2.6750    -0.9210 C.3   1 <1>   0.3430 
 13 C       -4.0430    -1.1940     0.6740 C.3   1 <1>   0.3430 
 14 N       -4.3360    -2.5940     0.2540 N.4   1 <1>  -0.9060 
 15 H      -10.9820     4.4310    -1.2450 H     1 <1>   0.0800 
 16 H      -10.8510     3.9770     0.4540 H     1 <1>   0.0800 
 17 H      -11.7070     2.9260    -0.6790 H     1 <1>   0.0800 
 18 H       -7.5510     1.6740    -1.2790 H     1 <1>   0.1500 
 19 H      -10.2830     0.0140     2.3250 H     1 <1>   0.1500 
 20 H       -8.2180    -1.1510     1.8470 H     1 <1>   0.1500 
 21 H       -5.9120     0.0080    -0.9710 H     1 <1>   0.0800 
 22 H       -7.1950    -1.9840    -1.4710 H     1 <1>   0.0800 
 23 H       -7.0870    -2.5380     0.1670 H     1 <1>   0.0800 
 24 H       -5.7740    -0.9250     1.9050 H     1 <1>   0.0800 
 25 H       -5.1340     0.5500     1.2570 H     1 <1>   0.0800 
 26 H       -4.7910    -2.1940    -1.7720 H     1 <1>   0.0800 
 27 H       -5.4340    -3.7070    -1.1780 H     1 <1>   0.0800 
 28 H       -3.3880    -1.1920     1.5310 H     1 <1>   0.0800 
 29 H       -3.5500    -0.6680    -0.1290 H     1 <1>   0.0800 
 30 H       -3.4550    -3.0810     0.0410 H     1 <1>   0.4500 
 31 H       -4.7660    -3.0930     1.0420 H     1 <1>   0.4500 
@<TRIPOS>BOND
  1   1   2  1   
  2   1   3  1   
  3   2   4  ar  
  4   2   5  ar  
  5   3  15  1   
  6   3  16  1   
  7   3  17  1   
  8   4   6  ar  
  9   5   7  ar  
 10   5  18  1   
 11   6   8  ar  
 12   6  19  1   
 13   7   8  ar  
 14   7   9  1   
 15   8  20  1   
 16   9  10  1   
 17   9  11  1   
 18   9  21  1   
 19  10  12  1   
 20  10  22  1   
 21  10  23  1   
 22  11  13  1   
 23  11  24  1   
 24  11  25  1   
 25  12  14  1   
 26  12  26  1   
 27  12  27  1   
 28  13  14  1   
 29  13  28  1   
 30  13  29  1   
 31  14  30  1   
 32  14  31  1   
@<TRIPOS>SUBSTRUCTURE
  1 ****   7 GROUP 4 **** **** 0

# MOE 2024.06 (io_trps.svl 2023.06)
