@<TRIPOS>MOLECULE
NONAME
50 52 1 0 0 
SMALL
USER_CHARGES


@<TRIPOS>ATOM
  1 S       -1.7940     1.2320     2.0840 S.3   1 <1>  -0.0800 
  2 C       -2.6840     0.0530     1.1390 C.2   1 <1>  -0.1100 
  3 C       -1.8240     2.3770     0.7560 C.2   1 <1>  -0.1100 
  4 C       -2.9730     0.5340    -0.0860 C.2   1 <1>  -0.1810 
  5 C       -2.4750     1.8610    -0.3020 C.2   1 <1>  -0.1500 
  6 C       -3.7400    -0.1910    -1.1900 C.3   1 <1>   0.0820 
  7 C       -4.4810    -1.4430    -0.7290 C.2   1 <1>   0.5690 
  8 O       -4.1480    -2.4950    -1.2260 O.2   1 <1>  -0.5700 
  9 N       -5.5050    -1.3900     0.1910 N.am  1 <1>  -0.6600 
 10 C       -6.1450    -2.6580     0.6530 C.3   1 <1>   0.1400 
 11 C       -6.0500    -0.1340     0.7860 C.3   1 <1>   0.1400 
 12 C       -7.2780    -3.0820    -0.2920 C.3   1 <1>   0.1400 
 13 C       -7.5850    -0.0740     0.7690 C.3   1 <1>  -0.1600 
 14 N       -8.4740    -2.1820    -0.2030 N.am  1 <1>  -0.6600 
 15 C       -8.2370    -0.7300    -0.4540 C.3   1 <1>   0.1400 
 16 C       -9.7180    -2.6220     0.2050 C.2   1 <1>   0.5440 
 17 O      -10.4720    -1.8220     0.7280 O.2   1 <1>  -0.5700 
 18 C      -10.1520    -3.9910     0.0450 C.ar  1 <1>   0.0860 
 19 C      -10.8590    -4.6310     1.0590 C.ar  1 <1>   0.1600 
 20 C       -9.9120    -4.7310    -1.1100 C.ar  1 <1>  -0.1500 
 21 N      -11.2940    -5.8790     1.0390 N.ar  1 <1>  -0.6200 
 22 C      -10.3630    -6.0280    -1.1520 C.ar  1 <1>  -0.1500 
 23 C      -11.0410    -6.5780    -0.0640 C.ar  1 <1>   0.4100 
 24 N      -11.4830    -7.8860    -0.1030 N.pl3 1 <1>  -0.8380 
 25 C      -10.5840    -8.9870    -0.5370 C.3   1 <1>   0.1290 
 26 C      -12.6430    -8.3100     0.7290 C.3   1 <1>   0.1290 
 27 H       -2.9000    -0.8910     1.6100 H     1 <1>   0.1500 
 28 H       -1.3430     3.3260     0.9110 H     1 <1>   0.1500 
 29 H       -2.6240     2.3670    -1.2400 H     1 <1>   0.1500 
 30 H       -3.0420    -0.4710    -1.9580 H     1 <1>   0.0800 
 31 H       -4.4520     0.4760    -1.6350 H     1 <1>   0.0800 
 32 H       -6.5220    -2.5470     1.6550 H     1 <1>   0.0800 
 33 H       -5.4040    -3.4380     0.6730 H     1 <1>   0.0800 
 34 H       -5.6800     0.7180     0.2460 H     1 <1>   0.0800 
 35 H       -5.7000    -0.0450     1.8010 H     1 <1>   0.0800 
 36 H       -7.5580    -4.0860    -0.0290 H     1 <1>   0.0800 
 37 H       -6.9120    -3.0990    -1.3040 H     1 <1>   0.0800 
 38 H       -7.8670     0.9630     0.7880 H     1 <1>   0.0800 
 39 H       -7.9840    -0.5140     1.6650 H     1 <1>   0.0800 
 40 H       -7.6260    -0.6030    -1.3310 H     1 <1>   0.0800 
 41 H       -9.1830    -0.2510    -0.6460 H     1 <1>   0.0800 
 42 H      -11.0750    -4.0610     1.9470 H     1 <1>   0.1500 
 43 H       -9.3960    -4.2900    -1.9440 H     1 <1>   0.1500 
 44 H      -10.2120    -6.6320    -2.0250 H     1 <1>   0.1500 
 45 H       -9.6150    -8.6020    -0.8050 H     1 <1>   0.0800 
 46 H      -11.0120    -9.4880    -1.3880 H     1 <1>   0.0800 
 47 H      -10.4580    -9.6940     0.2640 H     1 <1>   0.0800 
 48 H      -13.3410    -7.4960     0.8310 H     1 <1>   0.0800 
 49 H      -12.3020    -8.5990     1.7080 H     1 <1>   0.0800 
 50 H      -13.1470    -9.1390     0.2640 H     1 <1>   0.0800 
@<TRIPOS>BOND
  1   1   2  1   
  2   1   3  1   
  3   2   4  2   
  4   2  27  1   
  5   3   5  2   
  6   3  28  1   
  7   4   5  1   
  8   4   6  1   
  9   5  29  1   
 10   6   7  1   
 11   6  30  1   
 12   6  31  1   
 13   7   8  2   
 14   7   9  am  
 15   9  10  1   
 16   9  11  1   
 17  10  12  1   
 18  10  32  1   
 19  10  33  1   
 20  11  13  1   
 21  11  34  1   
 22  11  35  1   
 23  12  14  1   
 24  12  36  1   
 25  12  37  1   
 26  13  15  1   
 27  13  38  1   
 28  13  39  1   
 29  14  15  1   
 30  14  16  am  
 31  15  40  1   
 32  15  41  1   
 33  16  17  2   
 34  16  18  1   
 35  18  19  ar  
 36  18  20  ar  
 37  19  21  ar  
 38  19  42  1   
 39  20  22  ar  
 40  20  43  1   
 41  21  23  ar  
 42  22  23  ar  
 43  22  44  1   
 44  23  24  1   
 45  24  25  1   
 46  24  26  1   
 47  25  45  1   
 48  25  46  1   
 49  25  47  1   
 50  26  48  1   
 51  26  49  1   
 52  26  50  1   
@<TRIPOS>SUBSTRUCTURE
  1 ****  12 GROUP 4 **** **** 0

# MOE 2024.06 (io_trps.svl 2023.06)
