@<TRIPOS>MOLECULE
NONAME
48 50 1 0 0 
SMALL
USER_CHARGES


@<TRIPOS>ATOM
  1 O        0.8830    -0.4040    -0.8680 O.3   1 <1>  -0.5600 
  2 C        1.9750    -0.2040    -0.0240 C.3   1 <1>   0.2000 
  3 C        0.7170    -1.7610    -1.1230 C.3   1 <1>   0.1200 
  4 C        1.9140    -1.3900     0.9280 C.3   1 <1>  -0.1600 
  5 C        1.9000     1.1640     0.6850 C.3   1 <1>   0.2090 
  6 C        1.3450    -2.4990     0.0580 C.3   1 <1>  -0.1600 
  7 N        2.3260     2.3170    -0.1790 N.pl3 1 <1>  -0.8380 
  8 C        3.6010     2.7810    -0.1420 C.ar  1 <1>   0.4100 
  9 C        1.3720     2.6660    -1.2710 C.3   1 <1>   0.1290 
 10 N        4.5490     1.8640    -0.1320 N.ar  1 <1>  -0.6200 
 11 C        3.9000     4.1670    -0.1090 C.ar  1 <1>  -0.1430 
 12 C        5.8090     2.2590    -0.1760 C.ar  1 <1>   0.7710 
 13 C        5.2070     4.5400    -0.1470 C.ar  1 <1>   0.2180 
 14 C        2.7870     5.2120     0.0060 C.3   1 <1>  -0.0160 
 15 N        6.1370     3.5600    -0.1910 N.ar  1 <1>  -0.1790 
 16 N        6.8050     1.3270    -0.2020 N.pl3 1 <1>  -0.8380 
 17 C        5.6880     5.9880    -0.1110 C.3   1 <1>  -0.0170 
 18 C        3.3070     6.5740     0.4850 C.3   1 <1>  -0.1600 
 19 C        8.2610     1.5670    -0.4540 C.3   1 <1>   0.1290 
 20 C        6.4950    -0.1340    -0.0540 C.3   1 <1>   0.1290 
 21 C        4.5450     6.9910    -0.3160 C.3   1 <1>  -0.1600 
 22 H        2.8690    -0.2600    -0.6210 H     1 <1>   0.0800 
 23 H        1.2210    -1.9940    -2.0450 H     1 <1>   0.0800 
 24 H       -0.3360    -1.9630    -1.2160 H     1 <1>   0.0800 
 25 H        1.2380    -1.1740     1.7370 H     1 <1>   0.0800 
 26 H        2.8830    -1.6320     1.3280 H     1 <1>   0.0800 
 27 H        2.5490     1.1320     1.5420 H     1 <1>   0.0800 
 28 H        0.8990     1.3260     1.0440 H     1 <1>   0.0800 
 29 H        2.1230    -3.1510    -0.2990 H     1 <1>   0.0800 
 30 H        0.6130    -3.0830     0.5860 H     1 <1>   0.0800 
 31 H        0.4680     3.0730    -0.8520 H     1 <1>   0.0800 
 32 H        1.1250     1.7930    -1.8480 H     1 <1>   0.0800 
 33 H        1.8090     3.3840    -1.9410 H     1 <1>   0.0800 
 34 H        2.0320     4.8690     0.6940 H     1 <1>   0.0800 
 35 H        2.3230     5.3400    -0.9550 H     1 <1>   0.0800 
 36 H        7.1280     3.7520    -0.1960 H     1 <1>   0.4570 
 37 H        6.4310     6.1540    -0.8720 H     1 <1>   0.0800 
 38 H        6.1420     6.1740     0.8470 H     1 <1>   0.0800 
 39 H        3.5530     6.5180     1.5320 H     1 <1>   0.0800 
 40 H        2.5310     7.3120     0.3700 H     1 <1>   0.0800 
 41 H        8.4400     2.5290    -0.9000 H     1 <1>   0.0800 
 42 H        8.6410     0.8190    -1.1310 H     1 <1>   0.0800 
 43 H        8.8080     1.4950     0.4720 H     1 <1>   0.0800 
 44 H        5.5850    -0.2890     0.5020 H     1 <1>   0.0800 
 45 H        7.2900    -0.6340     0.4730 H     1 <1>   0.0800 
 46 H        6.3830    -0.5840    -1.0260 H     1 <1>   0.0800 
 47 H        4.2880     7.0380    -1.3620 H     1 <1>   0.0800 
 48 H        4.8640     7.9740    -0.0130 H     1 <1>   0.0800 
@<TRIPOS>BOND
  1   1   2  1   
  2   1   3  1   
  3   2   4  1   
  4   2   5  1   
  5   2  22  1   
  6   3   6  1   
  7   3  23  1   
  8   3  24  1   
  9   4   6  1   
 10   4  25  1   
 11   4  26  1   
 12   5   7  1   
 13   5  27  1   
 14   5  28  1   
 15   6  29  1   
 16   6  30  1   
 17   7   8  1   
 18   7   9  1   
 19   8  10  ar  
 20   8  11  ar  
 21   9  31  1   
 22   9  32  1   
 23   9  33  1   
 24  10  12  ar  
 25  11  13  ar  
 26  11  14  1   
 27  12  15  ar  
 28  12  16  1   
 29  13  15  ar  
 30  13  17  1   
 31  14  18  1   
 32  14  34  1   
 33  14  35  1   
 34  15  36  1   
 35  16  19  1   
 36  16  20  1   
 37  17  21  1   
 38  17  37  1   
 39  17  38  1   
 40  18  21  1   
 41  18  39  1   
 42  18  40  1   
 43  19  41  1   
 44  19  42  1   
 45  19  43  1   
 46  20  44  1   
 47  20  45  1   
 48  20  46  1   
 49  21  47  1   
 50  21  48  1   
@<TRIPOS>SUBSTRUCTURE
  1 ****   8 GROUP 4 **** **** 0

# MOE 2024.06 (io_trps.svl 2023.06)
