@<TRIPOS>MOLECULE
NONAME
50 52 1 0 0 
SMALL
USER_CHARGES


@<TRIPOS>ATOM
  1 F        1.5830     1.4050    -1.5960 F     1 <1>  -0.1900 
  2 C        0.4530     1.6820    -1.0000 C.ar  1 <1>   0.1900 
  3 C       -0.1150     2.9220    -1.1940 C.ar  1 <1>  -0.1500 
  4 C       -0.1270     0.7200    -0.1960 C.ar  1 <1>  -0.1500 
  5 C       -1.3150     3.2480    -0.5640 C.ar  1 <1>   0.0860 
  6 C       -1.3280     1.0220     0.4190 C.ar  1 <1>  -0.1500 
  7 C       -1.9300     2.2600     0.2290 C.ar  1 <1>   0.0830 
  8 C       -1.8360     4.5840    -0.7380 C.2   1 <1>   0.5440 
  9 O       -3.1150     2.4400     0.8560 O.3   1 <1>  -0.3630 
 10 O       -2.2610     4.9040    -1.8340 O.2   1 <1>  -0.5700 
 11 N       -1.8490     5.5120     0.2860 N.am  1 <1>  -0.6600 
 12 C       -4.2190     2.9660     0.1470 C.3   1 <1>   0.0400 
 13 C       -1.3830     5.1780     1.6740 C.3   1 <1>   0.1400 
 14 C       -2.2200     6.9270     0.0160 C.3   1 <1>   0.1400 
 15 C       -0.5460     6.2800     2.3460 C.3   1 <1>   0.1400 
 16 C       -0.9850     7.7130    -0.4420 C.3   1 <1>  -0.1600 
 17 N        0.4670     6.8630     1.4180 N.am  1 <1>  -0.6600 
 18 C        0.0070     8.0680     0.6730 C.3   1 <1>   0.1400 
 19 C        1.6310     6.1740     1.1380 C.2   1 <1>   0.7160 
 20 O        1.7530     5.0400     1.5670 O.2   1 <1>  -0.5700 
 21 C        2.7040     6.7530     0.3610 C.2   1 <1>  -0.0860 
 22 C        3.3970     6.2220    -0.6840 C.2   1 <1>  -0.0400 
 23 C        3.2940     8.0210     0.5510 C.2   1 <1>  -0.1500 
 24 O        4.3010     7.0600    -1.1280 O.3   1 <1>  -0.2800 
 25 C        3.2790     4.8720    -1.3610 C.3   1 <1>  -0.0600 
 26 C        4.2520     8.1450    -0.3890 C.2   1 <1>  -0.0400 
 27 C        5.2160     9.2710    -0.6900 C.3   1 <1>  -0.0600 
 28 H        0.3680     3.6440    -1.8270 H     1 <1>   0.1500 
 29 H        0.3500    -0.2340    -0.0610 H     1 <1>   0.1500 
 30 H       -1.8120     0.2950     1.0480 H     1 <1>   0.1500 
 31 H       -5.1180     2.5790     0.5900 H     1 <1>   0.0800 
 32 H       -4.1600     2.6640    -0.8850 H     1 <1>   0.0800 
 33 H       -4.2120     4.0380     0.2270 H     1 <1>   0.0800 
 34 H       -0.7790     4.2890     1.6560 H     1 <1>   0.0800 
 35 H       -2.2410     4.9640     2.2870 H     1 <1>   0.0800 
 36 H       -2.6580     7.3730     0.8910 H     1 <1>   0.0800 
 37 H       -2.9620     6.9560    -0.7640 H     1 <1>   0.0800 
 38 H       -0.0430     5.8590     3.2000 H     1 <1>   0.0800 
 39 H       -1.1960     7.0540     2.7120 H     1 <1>   0.0800 
 40 H       -1.3220     8.6340    -0.8810 H     1 <1>   0.0800 
 41 H       -0.4780     7.1660    -1.2180 H     1 <1>   0.0800 
 42 H       -0.4570     8.7500     1.3640 H     1 <1>   0.0800 
 43 H        0.8410     8.5810     0.2310 H     1 <1>   0.0800 
 44 H        3.0100     8.7210     1.3150 H     1 <1>   0.1500 
 45 H        2.5560     4.2580    -0.8570 H     1 <1>   0.0800 
 46 H        4.2300     4.3730    -1.3350 H     1 <1>   0.0800 
 47 H        2.9790     5.0030    -2.3840 H     1 <1>   0.0800 
 48 H        5.0630    10.0850    -0.0060 H     1 <1>   0.0800 
 49 H        5.0620     9.6200    -1.6940 H     1 <1>   0.0800 
 50 H        6.2250     8.9160    -0.5940 H     1 <1>   0.0800 
@<TRIPOS>BOND
  1   1   2  1   
  2   2   3  ar  
  3   2   4  ar  
  4   3   5  ar  
  5   3  28  1   
  6   4   6  ar  
  7   4  29  1   
  8   5   7  ar  
  9   5   8  1   
 10   6   7  ar  
 11   6  30  1   
 12   7   9  1   
 13   8  10  2   
 14   8  11  am  
 15   9  12  1   
 16  11  13  1   
 17  11  14  1   
 18  12  31  1   
 19  12  32  1   
 20  12  33  1   
 21  13  15  1   
 22  13  34  1   
 23  13  35  1   
 24  14  16  1   
 25  14  36  1   
 26  14  37  1   
 27  15  17  1   
 28  15  38  1   
 29  15  39  1   
 30  16  18  1   
 31  16  40  1   
 32  16  41  1   
 33  17  18  1   
 34  17  19  am  
 35  18  42  1   
 36  18  43  1   
 37  19  20  2   
 38  19  21  1   
 39  21  22  2   
 40  21  23  1   
 41  22  24  1   
 42  22  25  1   
 43  23  26  2   
 44  23  44  1   
 45  24  26  1   
 46  25  45  1   
 47  25  46  1   
 48  25  47  1   
 49  26  27  1   
 50  27  48  1   
 51  27  49  1   
 52  27  50  1   
@<TRIPOS>SUBSTRUCTURE
  1 ****  19 GROUP 4 **** **** 0

# MOE 2024.06 (io_trps.svl 2023.06)
