@<TRIPOS>MOLECULE
NONAME
40 41 1 0 0 
SMALL
USER_CHARGES


@<TRIPOS>ATOM
  1 S        0.7060     0.4700    -1.1020 S.3   1 <1>  -0.3310 
  2 C        0.4690     2.2320    -0.9700 C.ar  1 <1>   0.7220 
  3 C        1.7340     0.0060     0.3630 C.3   1 <1>  -0.0100 
  4 N        1.0510     2.8280     0.0610 N.ar  1 <1>  -0.6200 
  5 N       -0.2700     2.7710    -1.9250 N.ar  1 <1>  -0.6200 
  6 C        0.8530     4.1260     0.1240 C.ar  1 <1>   0.1600 
  7 C       -0.4390     4.0720    -1.8240 C.ar  1 <1>   0.1600 
  8 C        0.1200     4.8340    -0.8130 C.ar  1 <1>   0.0860 
  9 C       -0.0600     6.2610    -0.7520 C.2   1 <1>   0.5440 
 10 O       -1.1120     6.7440    -1.1160 O.2   1 <1>  -0.5700 
 11 N        0.9670     7.0640    -0.3090 N.am  1 <1>  -0.4940 
 12 C        0.9660     8.4510    -0.0150 C.2   1 <1>  -0.0880 
 13 N        2.0670     9.2040     0.2770 N.pl3 1 <1>   0.3140 
 14 C       -0.0900     9.2970     0.0460 C.2   1 <1>  -0.1500 
 15 N        1.7290    10.4910     0.5240 N.2   1 <1>  -0.7070 
 16 C        3.5010     8.7960     0.3320 C.3   1 <1>   0.1760 
 17 C        0.4450    10.5320     0.3810 C.2   1 <1>   0.1080 
 18 C        3.9940     8.3520    -1.0610 C.3   1 <1>  -0.1600 
 19 C        3.7350     7.7390     1.4270 C.3   1 <1>  -0.2400 
 20 C       -0.3490    11.8040     0.5660 C.3   1 <1>  -0.0590 
 21 C        5.5110     8.1200    -1.1240 C.3   1 <1>  -0.2400 
 22 H        1.8940    -1.0560     0.3270 H     1 <1>   0.0800 
 23 H        1.1920     0.2850     1.2480 H     1 <1>   0.0800 
 24 H        2.6650     0.5390     0.2960 H     1 <1>   0.0800 
 25 H        1.2870     4.6490     0.9590 H     1 <1>   0.1500 
 26 H       -1.0420     4.5610    -2.5730 H     1 <1>   0.1500 
 27 H        1.8760     6.6120    -0.2230 H     1 <1>   0.3700 
 28 H       -1.1280     9.0790    -0.1250 H     1 <1>   0.1500 
 29 H        4.0520     9.6780     0.6090 H     1 <1>   0.0800 
 30 H        3.7450     9.1270    -1.7670 H     1 <1>   0.0800 
 31 H        3.4930     7.4530    -1.3690 H     1 <1>   0.0800 
 32 H        3.3200     6.7880     1.1550 H     1 <1>   0.0800 
 33 H        3.2920     8.0710     2.3510 H     1 <1>   0.0800 
 34 H        4.7880     7.6120     1.5980 H     1 <1>   0.0800 
 35 H       -1.3940    11.6230     0.3950 H     1 <1>   0.0800 
 36 H       -0.0020    12.5470    -0.1280 H     1 <1>   0.0800 
 37 H       -0.2120    12.1700     1.5660 H     1 <1>   0.0800 
 38 H        6.0410     8.9990    -0.7980 H     1 <1>   0.0800 
 39 H        5.8060     7.9070    -2.1370 H     1 <1>   0.0800 
 40 H        5.8040     7.2880    -0.5090 H     1 <1>   0.0800 
@<TRIPOS>BOND
  1   1   2  1   
  2   1   3  1   
  3   2   4  ar  
  4   2   5  ar  
  5   3  22  1   
  6   3  23  1   
  7   3  24  1   
  8   4   6  ar  
  9   5   7  ar  
 10   6   8  ar  
 11   6  25  1   
 12   7   8  ar  
 13   7  26  1   
 14   8   9  1   
 15   9  10  2   
 16   9  11  am  
 17  11  12  1   
 18  11  27  1   
 19  12  13  1   
 20  12  14  2   
 21  13  15  1   
 22  13  16  1   
 23  14  17  1   
 24  14  28  1   
 25  15  17  2   
 26  16  18  1   
 27  16  19  1   
 28  16  29  1   
 29  17  20  1   
 30  18  21  1   
 31  18  30  1   
 32  18  31  1   
 33  19  32  1   
 34  19  33  1   
 35  19  34  1   
 36  20  35  1   
 37  20  36  1   
 38  20  37  1   
 39  21  38  1   
 40  21  39  1   
 41  21  40  1   
@<TRIPOS>SUBSTRUCTURE
  1 ****  11 GROUP 4 **** **** 0

# MOE 2024.06 (io_trps.svl 2023.06)
