@<TRIPOS>MOLECULE
NONAME
48 49 1 0 0 
SMALL
USER_CHARGES


@<TRIPOS>ATOM
  1 S        0.6560    -0.9120     2.2020 S.o2  1 <1>   1.4470 
  2 O        0.0490    -0.2440     3.3280 O.2   1 <1>  -0.6500 
  3 O        1.8890    -1.6430     2.3960 O.2   1 <1>  -0.6500 
  4 N       -0.4760    -2.0550     1.7270 N.am  1 <1>  -0.9140 
  5 C        0.7740     0.1750     0.7450 C.ar  1 <1>  -0.0090 
  6 C        0.0420    -3.0870     0.8370 C.3   1 <1>   0.2760 
  7 C       -0.2730     0.9900     0.3030 C.ar  1 <1>  -0.1430 
  8 C        1.9550     0.1840     0.0070 C.ar  1 <1>  -0.1500 
  9 C       -1.1090    -3.7100     0.0600 C.3   1 <1>  -0.0800 
 10 C        0.5070    -4.2940     1.6480 C.3   1 <1>   0.1200 
 11 C       -0.1220     1.7650    -0.8380 C.ar  1 <1>  -0.1500 
 12 C       -1.6010     1.0680     1.0470 C.3   1 <1>  -0.0970 
 13 C        2.1000     0.9590    -1.1280 C.ar  1 <1>  -0.1500 
 14 C       -1.6380    -4.7840     1.0210 C.3   1 <1>   0.1200 
 15 C       -2.1800    -2.7110    -0.4250 C.3   1 <1>  -0.0550 
 16 O       -0.6690    -4.9430     2.0170 O.3   1 <1>  -0.5600 
 17 C        1.0570     1.7540    -1.5600 C.ar  1 <1>  -0.1430 
 18 S       -3.3990    -3.4580    -1.5010 S.o2  1 <1>   1.3330 
 19 C        1.1990     2.6120    -2.8040 C.3   1 <1>  -0.0960 
 20 O       -2.7070    -3.9220    -2.6820 O.2   1 <1>  -0.6500 
 21 O       -4.2050    -4.3830    -0.7360 O.2   1 <1>  -0.6500 
 22 N       -4.3800    -2.1430    -1.9360 N.am  1 <1>  -0.8490 
 23 C       -5.0110    -2.3330    -3.2460 C.3   1 <1>   0.1160 
 24 C       -5.4020    -1.8240    -0.9330 C.3   1 <1>   0.1160 
 25 H       -0.7300    -2.5390     2.5900 H     1 <1>   0.4200 
 26 H        0.8060    -2.7000     0.1820 H     1 <1>   0.0800 
 27 H        2.7830    -0.4270     0.3250 H     1 <1>   0.1500 
 28 H       -0.6970    -4.2130    -0.7980 H     1 <1>   0.0800 
 29 H        1.0690    -4.0330     2.5280 H     1 <1>   0.0800 
 30 H        1.0810    -4.9680     1.0370 H     1 <1>   0.0800 
 31 H       -0.9310     2.3920    -1.1730 H     1 <1>   0.1500 
 32 H       -2.3060     1.6840     0.5190 H     1 <1>   0.0800 
 33 H       -1.4520     1.4960     2.0230 H     1 <1>   0.0800 
 34 H       -2.0340     0.0910     1.1580 H     1 <1>   0.0800 
 35 H        3.0300     0.9400    -1.6710 H     1 <1>   0.1500 
 36 H       -1.7870    -5.7280     0.5240 H     1 <1>   0.0800 
 37 H       -2.5530    -4.4820     1.5020 H     1 <1>   0.0800 
 38 H       -1.6930    -1.9170    -0.9590 H     1 <1>   0.0800 
 39 H       -2.6760    -2.2780     0.4200 H     1 <1>   0.0800 
 40 H        2.0140     2.2690    -3.4150 H     1 <1>   0.0800 
 41 H        1.3840     3.6330    -2.5220 H     1 <1>   0.0800 
 42 H        0.2970     2.5710    -3.3880 H     1 <1>   0.0800 
 43 H       -5.6120    -1.4770    -3.4990 H     1 <1>   0.0800 
 44 H       -5.6320    -3.2140    -3.2390 H     1 <1>   0.0800 
 45 H       -4.2550    -2.4490    -4.0050 H     1 <1>   0.0800 
 46 H       -5.9350    -0.9330    -1.2190 H     1 <1>   0.0800 
 47 H       -4.9420    -1.6500     0.0250 H     1 <1>   0.0800 
 48 H       -6.1030    -2.6370    -0.8360 H     1 <1>   0.0800 
@<TRIPOS>BOND
  1   1   2  2   
  2   1   3  2   
  3   1   4  am  
  4   1   5  1   
  5   4   6  1   
  6   4  25  1   
  7   5   7  ar  
  8   5   8  ar  
  9   6   9  1   
 10   6  10  1   
 11   6  26  1   
 12   7  11  ar  
 13   7  12  1   
 14   8  13  ar  
 15   8  27  1   
 16   9  14  1   
 17   9  15  1   
 18   9  28  1   
 19  10  16  1   
 20  10  29  1   
 21  10  30  1   
 22  11  17  ar  
 23  11  31  1   
 24  12  32  1   
 25  12  33  1   
 26  12  34  1   
 27  13  17  ar  
 28  13  35  1   
 29  14  16  1   
 30  14  36  1   
 31  14  37  1   
 32  15  18  1   
 33  15  38  1   
 34  15  39  1   
 35  17  19  1   
 36  18  20  2   
 37  18  21  2   
 38  18  22  am  
 39  19  40  1   
 40  19  41  1   
 41  19  42  1   
 42  22  23  1   
 43  22  24  1   
 44  23  43  1   
 45  23  44  1   
 46  23  45  1   
 47  24  46  1   
 48  24  47  1   
 49  24  48  1   
@<TRIPOS>SUBSTRUCTURE
  1 ****  15 GROUP 4 **** **** 0

# MOE 2024.06 (io_trps.svl 2023.06)
