@<TRIPOS>MOLECULE
NONAME
49 52 1 0 0 
SMALL
USER_CHARGES


@<TRIPOS>ATOM
  1 O       -0.6500     0.1820    -1.0570 O.2   1 <1>  -0.5700 
  2 C       -1.3930     0.8080    -0.3210 C.2   1 <1>   0.7150 
  3 N       -2.4640     0.1380     0.2370 N.am  1 <1>  -0.6600 
  4 C       -1.1250     2.2070    -0.0900 C.2   1 <1>   0.0550 
  5 C       -2.5190    -1.3590     0.3000 C.3   1 <1>   0.1400 
  6 C       -3.7710     0.7830     0.5810 C.3   1 <1>   0.1400 
  7 O       -1.6560     2.8740     0.9110 O.3   1 <1>  -0.0190 
  8 C       -0.3390     3.0900    -0.7470 C.2   1 <1>  -0.1500 
  9 C       -3.7500    -1.9060    -0.4450 C.3   1 <1>   0.3440 
 10 C       -4.9400     0.1050    -0.1630 C.3   1 <1>   0.2950 
 11 N       -1.2920     4.1190     0.9450 N.2   1 <1>  -0.4100 
 12 C       -0.4880     4.2790    -0.0490 C.2   1 <1>   0.1080 
 13 O       -4.9130    -1.2790     0.0280 O.3   1 <1>  -0.5600 
 14 C       -3.8650    -3.4150    -0.2510 C.ar  1 <1>  -0.1430 
 15 C       -6.2940     0.6130     0.3400 C.3   1 <1>  -0.1950 
 16 C        0.2050     5.5900    -0.4100 C.3   1 <1>   0.1010 
 17 C       -3.2540    -4.2700    -1.1580 C.ar  1 <1>  -0.1500 
 18 C       -4.5570    -3.9580     0.8240 C.ar  1 <1>  -0.1500 
 19 C       -7.5220     0.5150    -0.5080 C.3   1 <1>  -0.2000 
 20 C       -6.9090     1.8580    -0.2210 C.3   1 <1>  -0.2000 
 21 C        1.1090     6.0610     0.7360 C.3   1 <1>  -0.2400 
 22 C       -0.8240     6.6710    -0.7590 C.3   1 <1>  -0.2400 
 23 C       -3.3320    -5.6420    -0.9940 C.ar  1 <1>  -0.1500 
 24 C       -4.6360    -5.3300     0.9890 C.ar  1 <1>  -0.1500 
 25 C       -4.0230    -6.1730     0.0800 C.ar  1 <1>  -0.1500 
 26 H       -1.6300    -1.7940    -0.1220 H     1 <1>   0.0800 
 27 H       -2.5710    -1.6660     1.3300 H     1 <1>   0.0800 
 28 H       -3.9330     0.7100     1.6430 H     1 <1>   0.0800 
 29 H       -3.7680     1.8240     0.3150 H     1 <1>   0.0800 
 30 H        0.2700     2.9170    -1.6160 H     1 <1>   0.1500 
 31 H       -3.6610    -1.6920    -1.4960 H     1 <1>   0.0800 
 32 H       -4.8560     0.2970    -1.2200 H     1 <1>   0.0800 
 33 H       -6.4180     0.4420     1.3950 H     1 <1>   0.1000 
 34 H        0.8210     5.4190    -1.2760 H     1 <1>   0.0800 
 35 H       -2.7120    -3.8730    -1.9980 H     1 <1>   0.1500 
 36 H       -5.0410    -3.3100     1.5350 H     1 <1>   0.1500 
 37 H       -7.4340     0.0970    -1.4960 H     1 <1>   0.1000 
 38 H       -8.4500     0.2500    -0.0320 H     1 <1>   0.1000 
 39 H       -7.4260     2.5260     0.4460 H     1 <1>   0.1000 
 40 H       -6.4230     2.3770    -1.0290 H     1 <1>   0.1000 
 41 H        0.5240     6.2530     1.6180 H     1 <1>   0.0800 
 42 H        1.6280     6.9610     0.4600 H     1 <1>   0.0800 
 43 H        1.8350     5.3020     0.9680 H     1 <1>   0.0800 
 44 H       -1.4530     6.8750     0.0900 H     1 <1>   0.0800 
 45 H       -1.4460     6.3390    -1.5710 H     1 <1>   0.0800 
 46 H       -0.3300     7.5800    -1.0520 H     1 <1>   0.0800 
 47 H       -2.8560    -6.2970    -1.7030 H     1 <1>   0.1500 
 48 H       -5.1770    -5.7390     1.8240 H     1 <1>   0.1500 
 49 H       -4.0850    -7.2400     0.2080 H     1 <1>   0.1500 
@<TRIPOS>BOND
  1   1   2  2   
  2   2   3  am  
  3   2   4  1   
  4   3   5  1   
  5   3   6  1   
  6   4   7  1   
  7   4   8  2   
  8   5   9  1   
  9   5  26  1   
 10   5  27  1   
 11   6  10  1   
 12   6  28  1   
 13   6  29  1   
 14   7  11  1   
 15   8  12  1   
 16   8  30  1   
 17   9  13  1   
 18   9  14  1   
 19   9  31  1   
 20  10  13  1   
 21  10  15  1   
 22  10  32  1   
 23  11  12  2   
 24  12  16  1   
 25  14  17  ar  
 26  14  18  ar  
 27  15  19  1   
 28  15  20  1   
 29  15  33  1   
 30  16  21  1   
 31  16  22  1   
 32  16  34  1   
 33  17  23  ar  
 34  17  35  1   
 35  18  24  ar  
 36  18  36  1   
 37  19  20  1   
 38  19  37  1   
 39  19  38  1   
 40  20  39  1   
 41  20  40  1   
 42  21  41  1   
 43  21  42  1   
 44  21  43  1   
 45  22  44  1   
 46  22  45  1   
 47  22  46  1   
 48  23  25  ar  
 49  23  47  1   
 50  24  25  ar  
 51  24  48  1   
 52  25  49  1   
@<TRIPOS>SUBSTRUCTURE
  1 ****   3 GROUP 4 **** **** 0

# MOE 2024.06 (io_trps.svl 2023.06)
