@<TRIPOS>MOLECULE
NONAME
56 59 1 0 0 
SMALL
USER_CHARGES


@<TRIPOS>ATOM
  1 O        1.2530    -1.1290     1.2680 O.3   1 <1>  -0.0190 
  2 N        1.3200     0.1620     1.3610 N.2   1 <1>  -0.4100 
  3 C        1.8000    -1.5640     0.1670 C.2   1 <1>  -0.0400 
  4 C        1.9350     0.5740     0.3070 C.2   1 <1>   0.1080 
  5 C        2.2710    -0.5040    -0.5100 C.2   1 <1>  -0.1500 
  6 C        1.7740    -3.0500    -0.1140 C.3   1 <1>   0.5230 
  7 C        2.2480     2.0340    -0.0110 C.3   1 <1>   0.1010 
  8 N        0.3670    -3.5410    -0.0070 N.4   1 <1>  -0.9590 
  9 C        3.1110     2.6690     1.0940 C.3   1 <1>  -0.1600 
 10 C        0.9540     2.8390    -0.2190 C.3   1 <1>  -0.1600 
 11 C        0.2850    -5.0270    -0.0480 C.3   1 <1>   0.3430 
 12 C       -0.5310    -2.8880    -1.0040 C.3   1 <1>   0.3430 
 13 C        3.4100     4.1460     0.7980 C.3   1 <1>  -0.1600 
 14 C        1.2490     4.3160    -0.5170 C.3   1 <1>  -0.1600 
 15 C       -1.1460    -5.4690     0.2430 C.3   1 <1>  -0.1600 
 16 C       -1.9750    -3.2880    -0.7220 C.3   1 <1>  -0.1600 
 17 C        2.1150     4.9400     0.5850 C.3   1 <1>  -0.1600 
 18 C       -2.1440    -4.8060    -0.7110 C.3   1 <1>   0.2000 
 19 O       -3.4210    -5.0500    -0.2410 O.3   1 <1>  -0.5600 
 20 C       -4.0260    -6.2350    -0.6950 C.3   1 <1>   0.2630 
 21 C       -5.3340    -6.5280     0.0350 C.ar  1 <1>   0.1670 
 22 N       -5.7840    -7.7700    -0.0960 N.ar  1 <1>  -0.6200 
 23 C       -5.9870    -5.5470     0.7710 C.ar  1 <1>  -0.1500 
 24 C       -6.9190    -8.0410     0.5290 C.ar  1 <1>   0.1600 
 25 C       -7.1680    -5.8450     1.4170 C.ar  1 <1>  -0.1500 
 26 C       -7.6380    -7.1330     1.2860 C.ar  1 <1>  -0.1500 
 27 H        2.7850    -0.4420    -1.4530 H     1 <1>   0.1500 
 28 H        2.3930    -3.5500     0.6130 H     1 <1>   0.0800 
 29 H        2.1690    -3.2450    -1.0970 H     1 <1>   0.0800 
 30 H        2.8110     2.0650    -0.9280 H     1 <1>   0.0800 
 31 H        0.0370    -3.2290     0.9200 H     1 <1>   0.4500 
 32 H        4.0350     2.1250     1.1880 H     1 <1>   0.0800 
 33 H        2.5910     2.5970     2.0350 H     1 <1>   0.0800 
 34 H        0.3500     2.7730     0.6710 H     1 <1>   0.0800 
 35 H        0.3900     2.4140    -1.0300 H     1 <1>   0.0800 
 36 H        0.9460    -5.4560     0.6890 H     1 <1>   0.0800 
 37 H        0.5820    -5.3840    -1.0210 H     1 <1>   0.0800 
 38 H       -0.2580    -3.1920    -2.0020 H     1 <1>   0.0800 
 39 H       -0.4450    -1.8150    -0.9380 H     1 <1>   0.0800 
 40 H        4.0230     4.2180    -0.0850 H     1 <1>   0.0800 
 41 H        3.9630     4.5720     1.6180 H     1 <1>   0.0800 
 42 H        0.3230     4.8590    -0.5970 H     1 <1>   0.0800 
 43 H        1.7600     4.3970    -1.4610 H     1 <1>   0.0800 
 44 H       -1.3940    -5.2180     1.2600 H     1 <1>   0.0800 
 45 H       -1.2020    -6.5380     0.1430 H     1 <1>   0.0800 
 46 H       -2.6110    -2.8660    -1.4800 H     1 <1>   0.0800 
 47 H       -2.2740    -2.8770     0.2270 H     1 <1>   0.0800 
 48 H        2.3550     5.9570     0.3230 H     1 <1>   0.0800 
 49 H        1.5570     4.9620     1.5060 H     1 <1>   0.0800 
 50 H       -2.0480    -5.1940    -1.7140 H     1 <1>   0.0800 
 51 H       -3.3520    -7.0570    -0.5300 H     1 <1>   0.0800 
 52 H       -4.2210    -6.1410    -1.7480 H     1 <1>   0.0800 
 53 H       -5.5800    -4.5550     0.8410 H     1 <1>   0.1500 
 54 H       -7.2970    -9.0450     0.4340 H     1 <1>   0.1500 
 55 H       -7.6950    -5.1070     1.9950 H     1 <1>   0.1500 
 56 H       -8.5530    -7.4330     1.7640 H     1 <1>   0.1500 
@<TRIPOS>BOND
  1   1   2  1   
  2   1   3  1   
  3   2   4  2   
  4   3   5  2   
  5   3   6  1   
  6   4   5  1   
  7   4   7  1   
  8   5  27  1   
  9   6   8  1   
 10   6  28  1   
 11   6  29  1   
 12   7   9  1   
 13   7  10  1   
 14   7  30  1   
 15   8  11  1   
 16   8  12  1   
 17   8  31  1   
 18   9  13  1   
 19   9  32  1   
 20   9  33  1   
 21  10  14  1   
 22  10  34  1   
 23  10  35  1   
 24  11  15  1   
 25  11  36  1   
 26  11  37  1   
 27  12  16  1   
 28  12  38  1   
 29  12  39  1   
 30  13  17  1   
 31  13  40  1   
 32  13  41  1   
 33  14  17  1   
 34  14  42  1   
 35  14  43  1   
 36  15  18  1   
 37  15  44  1   
 38  15  45  1   
 39  16  18  1   
 40  16  46  1   
 41  16  47  1   
 42  17  48  1   
 43  17  49  1   
 44  18  19  1   
 45  18  50  1   
 46  19  20  1   
 47  20  21  1   
 48  20  51  1   
 49  20  52  1   
 50  21  22  ar  
 51  21  23  ar  
 52  22  24  ar  
 53  23  25  ar  
 54  23  53  1   
 55  24  26  ar  
 56  24  54  1   
 57  25  26  ar  
 58  25  55  1   
 59  26  56  1   
@<TRIPOS>SUBSTRUCTURE
  1 ****  12 GROUP 4 **** **** 0

# MOE 2024.06 (io_trps.svl 2023.06)
