@<TRIPOS>MOLECULE
NONAME
53 55 1 0 0 
SMALL
USER_CHARGES


@<TRIPOS>ATOM
  1 O        1.8690    -0.4550    -2.9770 O.2   1 <1>  -0.5700 
  2 C        2.0470    -0.9900    -1.9080 C.2   1 <1>   0.5690 
  3 N        2.6820    -0.3690    -0.8820 N.am  1 <1>  -0.7300 
  4 C        1.5340    -2.4160    -1.6870 C.3   1 <1>   0.1710 
  5 C        3.2340     1.0040    -0.8970 C.3   1 <1>   0.1400 
  6 N        1.1620    -2.7300    -0.2750 N.3   1 <1>  -0.8100 
  7 C        2.2720     1.9580    -0.1920 C.3   1 <1>  -0.0170 
  8 C       -0.0210    -1.9810     0.1700 C.3   1 <1>   0.1100 
  9 C        0.8090    -4.1460    -0.1040 C.3   1 <1>   0.1100 
 10 C        2.8470     3.3700    -0.1710 C.ar  1 <1>  -0.1440 
 11 C       -0.4980    -2.7480     1.3960 C.3   1 <1>   0.2000 
 12 C       -0.2410    -4.2090     1.0220 C.3   1 <1>  -0.0800 
 13 C        3.8100     3.7410     0.7670 C.ar  1 <1>   0.0820 
 14 C        2.4070     4.2950    -1.1040 C.ar  1 <1>  -0.1500 
 15 O        0.3460    -2.4290     2.4430 O.3   1 <1>  -0.6800 
 16 C       -1.5390    -4.9050     0.5730 C.3   1 <1>  -0.0170 
 17 O        4.2220     2.8000     1.6580 O.3   1 <1>  -0.3630 
 18 C        4.3130     5.0410     0.7570 C.ar  1 <1>  -0.1500 
 19 C        2.9110     5.5840    -1.1080 C.ar  1 <1>  -0.1500 
 20 C       -1.2960    -6.3540     0.1800 C.ar  1 <1>   0.1670 
 21 C        5.1520     3.0970     2.6740 C.3   1 <1>   0.0400 
 22 C        3.8630     5.9560    -0.1770 C.ar  1 <1>  -0.1500 
 23 N       -1.1850    -6.6090    -1.1140 N.ar  1 <1>  -0.6200 
 24 C       -1.1960    -7.3310     1.1690 C.ar  1 <1>   0.1600 
 25 C       -0.9730    -7.8930    -1.3500 C.ar  1 <1>   0.1600 
 26 N       -0.9790    -8.6140     0.9340 N.ar  1 <1>  -0.6200 
 27 C       -0.8730    -8.8630    -0.3600 C.ar  1 <1>   0.1600 
 28 H        2.7130    -0.8770     0.0060 H     1 <1>   0.3700 
 29 H        2.3150    -3.0860    -1.9980 H     1 <1>   0.0800 
 30 H        0.6880    -2.5760    -2.3320 H     1 <1>   0.0800 
 31 H        4.1890     1.0100    -0.4000 H     1 <1>   0.0800 
 32 H        3.3800     1.3270    -1.9140 H     1 <1>   0.0800 
 33 H        1.3300     1.9550    -0.7120 H     1 <1>   0.0800 
 34 H        2.0990     1.6240     0.8150 H     1 <1>   0.0800 
 35 H        0.2130    -0.9560     0.4030 H     1 <1>   0.0800 
 36 H       -0.7840    -2.0090    -0.5900 H     1 <1>   0.0800 
 37 H        0.4010    -4.5350    -1.0220 H     1 <1>   0.0800 
 38 H        1.6860    -4.7160     0.1520 H     1 <1>   0.0800 
 39 H       -1.5100    -2.5250     1.6850 H     1 <1>   0.0800 
 40 H        0.1580    -4.7470     1.8650 H     1 <1>   0.0800 
 41 H        1.6690     4.0170    -1.8360 H     1 <1>   0.1500 
 42 H        1.2590    -2.4870     2.0910 H     1 <1>   0.4000 
 43 H       -1.9710    -4.3800    -0.2610 H     1 <1>   0.0800 
 44 H       -2.2540    -4.8790     1.3770 H     1 <1>   0.0800 
 45 H        5.0530     5.3580     1.4650 H     1 <1>   0.1500 
 46 H        2.5630     6.2950    -1.8370 H     1 <1>   0.1500 
 47 H        5.3010     2.2090     3.2610 H     1 <1>   0.0800 
 48 H        4.7540     3.8810     3.2930 H     1 <1>   0.0800 
 49 H        6.0810     3.3960     2.2210 H     1 <1>   0.0800 
 50 H        4.2540     6.9590    -0.1810 H     1 <1>   0.1500 
 51 H       -1.2970    -7.0380     2.1990 H     1 <1>   0.1500 
 52 H       -0.8730    -8.1940    -2.3780 H     1 <1>   0.1500 
 53 H       -0.6990    -9.8830    -0.6510 H     1 <1>   0.1500 
@<TRIPOS>BOND
  1   1   2  2   
  2   2   3  am  
  3   2   4  1   
  4   3   5  1   
  5   3  28  1   
  6   4   6  1   
  7   4  29  1   
  8   4  30  1   
  9   5   7  1   
 10   5  31  1   
 11   5  32  1   
 12   6   8  1   
 13   6   9  1   
 14   7  10  1   
 15   7  33  1   
 16   7  34  1   
 17   8  11  1   
 18   8  35  1   
 19   8  36  1   
 20   9  12  1   
 21   9  37  1   
 22   9  38  1   
 23  10  13  ar  
 24  10  14  ar  
 25  11  12  1   
 26  11  15  1   
 27  11  39  1   
 28  12  16  1   
 29  12  40  1   
 30  13  17  1   
 31  13  18  ar  
 32  14  19  ar  
 33  14  41  1   
 34  15  42  1   
 35  16  20  1   
 36  16  43  1   
 37  16  44  1   
 38  17  21  1   
 39  18  22  ar  
 40  18  45  1   
 41  19  22  ar  
 42  19  46  1   
 43  20  23  ar  
 44  20  24  ar  
 45  21  47  1   
 46  21  48  1   
 47  21  49  1   
 48  22  50  1   
 49  23  25  ar  
 50  24  26  ar  
 51  24  51  1   
 52  25  27  ar  
 53  25  52  1   
 54  26  27  ar  
 55  27  53  1   
@<TRIPOS>SUBSTRUCTURE
  1 ****   6 GROUP 4 **** **** 0

# MOE 2024.06 (io_trps.svl 2023.06)
