@<TRIPOS>MOLECULE
NONAME
47 49 1 0 0 
SMALL
USER_CHARGES


@<TRIPOS>ATOM
  1 O        0.1310     0.1440    -0.0400 O.2   1 <1>  -0.5700 
  2 C        1.3340     0.0120    -0.0210 C.2   1 <1>   0.7150 
  3 N        1.7660    -1.2410     0.2770 N.am  1 <1>  -0.7300 
  4 C        2.1790     1.1350    -0.3060 C.2   1 <1>  -0.2370 
  5 C        3.0670    -1.8020     0.7310 C.3   1 <1>   0.1400 
  6 N        3.5030     1.1040    -0.5920 N.pl3 1 <1>   0.3140 
  7 C        1.8370     2.4480    -0.3770 C.2   1 <1>  -0.1500 
  8 C        4.2670    -0.8440     0.6750 C.3   1 <1>   0.2000 
  9 N        4.0070     2.3190    -0.8300 N.2   1 <1>  -0.7070 
 10 C        4.3760    -0.0760    -0.6400 C.3   1 <1>   0.0960 
 11 C        2.9890     3.1560    -0.7010 C.2   1 <1>   0.2030 
 12 O        5.4230    -1.5970     0.8440 O.3   1 <1>  -0.6800 
 13 C        3.0600     4.6000    -0.8690 C.2   1 <1>   0.7160 
 14 O        2.0860     5.3180    -0.7170 O.2   1 <1>  -0.5700 
 15 N        4.2560     5.1700    -1.2030 N.am  1 <1>  -0.7300 
 16 C        4.5520     6.6170    -1.3160 C.3   1 <1>   0.1400 
 17 C        5.5860     7.0560    -0.2610 C.3   1 <1>   0.0000 
 18 C        5.0110     7.0110     1.1870 C.3   1 <1>   0.0000 
 19 C        5.6390     8.6100    -0.1380 C.3   1 <1>   0.0000 
 20 C        6.9600     6.3570    -0.4640 C.3   1 <1>  -0.1600 
 21 C        5.5070     8.4650     1.4010 C.3   1 <1>   0.0000 
 22 C        8.0990     6.7500     0.4940 C.3   1 <1>  -0.1600 
 23 C        9.3810     5.9820     0.1620 C.3   1 <1>  -0.2400 
 24 H        0.9740    -1.8770     0.4050 H     1 <1>   0.3700 
 25 H        3.2800    -2.6590     0.1160 H     1 <1>   0.0800 
 26 H        2.9540    -2.1420     1.7470 H     1 <1>   0.0800 
 27 H        0.8640     2.8840    -0.2200 H     1 <1>   0.1500 
 28 H        4.2300    -0.1530     1.5020 H     1 <1>   0.0800 
 29 H        5.3850     0.2700    -0.7780 H     1 <1>   0.0800 
 30 H        4.0870    -0.6870    -1.4750 H     1 <1>   0.0800 
 31 H        5.5660    -2.2190     0.1040 H     1 <1>   0.4000 
 32 H        5.0400     4.5180    -1.2840 H     1 <1>   0.3700 
 33 H        3.6410     7.1780    -1.1920 H     1 <1>   0.0800 
 34 H        4.9310     6.8210    -2.3030 H     1 <1>   0.0800 
 35 H        5.4820     6.2920     1.8330 H     1 <1>   0.0000 
 36 H        3.9360     6.9520     1.2140 H     1 <1>   0.0000 
 37 H        4.7800     9.1000    -0.5620 H     1 <1>   0.0000 
 38 H        6.5650     9.0550    -0.4540 H     1 <1>   0.0000 
 39 H        7.2860     6.5510    -1.4710 H     1 <1>   0.0800 
 40 H        6.8140     5.2950    -0.3760 H     1 <1>   0.0800 
 41 H        6.4520     8.5170     1.9120 H     1 <1>   0.0000 
 42 H        4.7610     9.1110     1.8280 H     1 <1>   0.0000 
 43 H        7.8210     6.5300     1.5100 H     1 <1>   0.0800 
 44 H        8.3040     7.8040     0.4210 H     1 <1>   0.0800 
 45 H        9.2200     4.9220     0.2550 H     1 <1>   0.0800 
 46 H       10.1660     6.2670     0.8390 H     1 <1>   0.0800 
 47 H        9.7010     6.1980    -0.8420 H     1 <1>   0.0800 
@<TRIPOS>BOND
  1   1   2  2   
  2   2   3  am  
  3   2   4  1   
  4   3   5  1   
  5   3  24  1   
  6   4   6  1   
  7   4   7  2   
  8   5   8  1   
  9   5  25  1   
 10   5  26  1   
 11   6   9  1   
 12   6  10  1   
 13   7  11  1   
 14   7  27  1   
 15   8  10  1   
 16   8  12  1   
 17   8  28  1   
 18   9  11  2   
 19  10  29  1   
 20  10  30  1   
 21  11  13  1   
 22  12  31  1   
 23  13  14  2   
 24  13  15  am  
 25  15  16  1   
 26  15  32  1   
 27  16  17  1   
 28  16  33  1   
 29  16  34  1   
 30  17  18  1   
 31  17  19  1   
 32  17  20  1   
 33  18  21  1   
 34  18  35  1   
 35  18  36  1   
 36  19  21  1   
 37  19  37  1   
 38  19  38  1   
 39  20  22  1   
 40  20  39  1   
 41  20  40  1   
 42  21  41  1   
 43  21  42  1   
 44  22  23  1   
 45  22  43  1   
 46  22  44  1   
 47  23  45  1   
 48  23  46  1   
 49  23  47  1   
@<TRIPOS>SUBSTRUCTURE
  1 ****   9 GROUP 4 **** **** 0

# MOE 2024.06 (io_trps.svl 2023.06)
