@<TRIPOS>MOLECULE
NONAME
53 56 1 0 0 
SMALL
USER_CHARGES


@<TRIPOS>ATOM
  1 O       -1.0280     0.7000     1.5310 O.2   1 <1>  -0.5700 
  2 C       -1.9940     1.1900     0.9720 C.2   1 <1>   0.7150 
  3 N       -3.2200     0.5660     1.1210 N.am  1 <1>  -0.6600 
  4 C       -1.8470     2.4040     0.1920 C.2   1 <1>   0.0550 
  5 C       -3.4900    -0.3660     2.2530 C.3   1 <1>   0.1400 
  6 C       -4.3060     0.6270     0.1060 C.3   1 <1>   0.1400 
  7 O       -0.7220     2.6630    -0.4710 O.3   1 <1>  -0.2800 
  8 C       -2.7040     3.4450    -0.0100 C.2   1 <1>  -0.1500 
  9 C       -3.7540    -1.7730     1.7120 C.3   1 <1>  -0.1600 
 10 C       -4.5710    -0.7780    -0.4430 C.3   1 <1>  -0.1600 
 11 C       -0.8330     3.8220    -1.0820 C.2   1 <1>  -0.0400 
 12 C       -2.0480     4.3590    -0.8350 C.2   1 <1>  -0.1500 
 13 C       -4.8870    -1.7850     0.6760 C.3   1 <1>   0.4240 
 14 C        0.3470     4.3250    -1.8960 C.3   1 <1>   0.3000 
 15 O       -6.0280    -1.3280     1.3650 O.3   1 <1>  -0.5600 
 16 C       -5.0910    -3.2070     0.1120 C.ar  1 <1>  -0.1440 
 17 O       -0.0510     5.3960    -2.6810 O.3   1 <1>  -0.6800 
 18 C       -7.2750    -1.6480     0.8300 C.3   1 <1>   0.1200 
 19 C       -6.3120    -3.8590     0.2200 C.ar  1 <1>  -0.1440 
 20 C       -4.0480    -3.8680    -0.5260 C.ar  1 <1>  -0.1500 
 21 C       -7.4700    -3.1590     0.9040 C.3   1 <1>  -0.0170 
 22 C       -6.4800    -5.1350    -0.2930 C.ar  1 <1>  -0.1500 
 23 C       -4.1970    -5.1450    -1.0390 C.ar  1 <1>   0.0820 
 24 C       -5.4360    -5.7950    -0.9350 C.ar  1 <1>   0.0820 
 25 O       -3.0800    -5.6630    -1.6240 O.3   1 <1>  -0.3620 
 26 O       -5.6010    -7.0380    -1.4750 O.3   1 <1>  -0.3620 
 27 C       -2.7810    -7.0370    -1.5170 C.3   1 <1>   0.0400 
 28 C       -6.8650    -7.6600    -1.5540 C.3   1 <1>   0.0400 
 29 H       -4.3510    -0.0160     2.7970 H     1 <1>   0.0800 
 30 H       -2.6570    -0.3900     2.9350 H     1 <1>   0.0800 
 31 H       -4.0330     1.2720    -0.7100 H     1 <1>   0.0800 
 32 H       -5.1980     1.0180     0.5670 H     1 <1>   0.0800 
 33 H       -3.6940     3.5680     0.3900 H     1 <1>   0.1500 
 34 H       -4.0100    -2.4320     2.5210 H     1 <1>   0.0800 
 35 H       -2.8430    -2.1370     1.2750 H     1 <1>   0.0800 
 36 H       -3.6950    -1.1000    -0.9750 H     1 <1>   0.0800 
 37 H       -5.3760    -0.7520    -1.1520 H     1 <1>   0.0800 
 38 H       -2.4450     5.2980    -1.1780 H     1 <1>   0.1500 
 39 H        0.7120     3.5480    -2.5460 H     1 <1>   0.0800 
 40 H        1.1420     4.6520    -1.2490 H     1 <1>   0.0800 
 41 H       -0.8220     5.1300    -3.2160 H     1 <1>   0.4000 
 42 H       -7.3260    -1.3000    -0.1860 H     1 <1>   0.0800 
 43 H       -8.0240    -1.1430     1.4140 H     1 <1>   0.0800 
 44 H       -3.0880    -3.3980    -0.6360 H     1 <1>   0.1500 
 45 H       -8.3980    -3.4190     0.4280 H     1 <1>   0.0800 
 46 H       -7.5200    -3.4630     1.9350 H     1 <1>   0.0800 
 47 H       -7.4390    -5.6020    -0.1820 H     1 <1>   0.1500 
 48 H       -1.7270    -7.1650    -1.6810 H     1 <1>   0.0800 
 49 H       -3.3330    -7.5710    -2.2700 H     1 <1>   0.0800 
 50 H       -3.0470    -7.3800    -0.5330 H     1 <1>   0.0800 
 51 H       -6.7470    -8.5890    -2.0810 H     1 <1>   0.0800 
 52 H       -7.5370    -7.0170    -2.0950 H     1 <1>   0.0800 
 53 H       -7.2250    -7.8490    -0.5590 H     1 <1>   0.0800 
@<TRIPOS>BOND
  1   1   2  2   
  2   2   3  am  
  3   2   4  1   
  4   3   5  1   
  5   3   6  1   
  6   4   7  1   
  7   4   8  2   
  8   5   9  1   
  9   5  29  1   
 10   5  30  1   
 11   6  10  1   
 12   6  31  1   
 13   6  32  1   
 14   7  11  1   
 15   8  12  1   
 16   8  33  1   
 17   9  13  1   
 18   9  34  1   
 19   9  35  1   
 20  10  13  1   
 21  10  36  1   
 22  10  37  1   
 23  11  12  2   
 24  11  14  1   
 25  12  38  1   
 26  13  15  1   
 27  13  16  1   
 28  14  17  1   
 29  14  39  1   
 30  14  40  1   
 31  15  18  1   
 32  16  19  ar  
 33  16  20  ar  
 34  17  41  1   
 35  18  21  1   
 36  18  42  1   
 37  18  43  1   
 38  19  21  1   
 39  19  22  ar  
 40  20  23  ar  
 41  20  44  1   
 42  21  45  1   
 43  21  46  1   
 44  22  24  ar  
 45  22  47  1   
 46  23  24  ar  
 47  23  25  1   
 48  24  26  1   
 49  25  27  1   
 50  26  28  1   
 51  27  48  1   
 52  27  49  1   
 53  27  50  1   
 54  28  51  1   
 55  28  52  1   
 56  28  53  1   
@<TRIPOS>SUBSTRUCTURE
  1 ****  10 GROUP 4 **** **** 0

# MOE 2024.06 (io_trps.svl 2023.06)
