@<TRIPOS>MOLECULE
NONAME
57 60 1 0 0 
SMALL
USER_CHARGES


@<TRIPOS>ATOM
  1 O       -2.1070    -0.0280     2.6490 O.2   1 <1>  -0.5700 
  2 C       -2.7030     0.5710     1.7850 C.2   1 <1>   0.5690 
  3 N       -3.8420     0.0770     1.2080 N.am  1 <1>  -0.6600 
  4 C       -2.0570     1.8690     1.2840 C.3   1 <1>   0.4040 
  5 C       -4.7170     0.7390     0.1950 C.3   1 <1>   0.1400 
  6 C       -4.1380    -1.3780     1.2390 C.3   1 <1>   0.1400 
  7 N       -0.6390     1.6620     0.8000 N.4   1 <1>  -0.9590 
  8 C       -5.5980    -0.3830    -0.3710 C.3   1 <1>   0.2000 
  9 C       -4.7920    -1.6590    -0.1210 C.3   1 <1>  -0.0800 
 10 C        0.0000     2.9360     0.3700 C.3   1 <1>   0.3430 
 11 C       -0.5600     0.5830    -0.2360 C.3   1 <1>   0.3430 
 12 O       -6.7690    -0.4480     0.3640 O.3   1 <1>  -0.6800 
 13 C       -3.7620    -1.8550    -1.2590 C.3   1 <1>  -0.0170 
 14 C        1.4650     2.6920     0.0060 C.3   1 <1>  -0.1600 
 15 C        0.9000     0.3250    -0.6070 C.3   1 <1>  -0.1600 
 16 C       -2.7500    -2.9500    -0.9750 C.ar  1 <1>   0.1670 
 17 C        1.6080     1.6060    -1.0680 C.3   1 <1>  -0.0800 
 18 N       -1.6180    -2.6020    -0.4360 N.ar  1 <1>  -0.6200 
 19 C       -3.0850    -4.2720    -1.3100 C.ar  1 <1>  -0.1500 
 20 C        3.0860     1.3280    -1.3620 C.3   1 <1>  -0.2400 
 21 C       -0.7320    -3.5950    -0.1520 C.ar  1 <1>   0.3100 
 22 C       -2.1990    -5.2760    -1.0700 C.ar  1 <1>  -0.1500 
 23 C       -0.9710    -4.9500    -0.4730 C.ar  1 <1>   0.0000 
 24 C        0.4710    -3.2710     0.4960 C.ar  1 <1>  -0.1500 
 25 C        0.0140    -5.9120    -0.1750 C.ar  1 <1>  -0.1500 
 26 C        1.4140    -4.2220     0.7850 C.ar  1 <1>  -0.1500 
 27 C        1.1840    -5.5570     0.4400 C.ar  1 <1>  -0.1500 
 28 H       -2.0600     2.5710     2.0990 H     1 <1>   0.0800 
 29 H       -2.6560     2.2740     0.4890 H     1 <1>   0.0800 
 30 H       -5.3160     1.5170     0.6380 H     1 <1>   0.0800 
 31 H       -4.1130     1.1490    -0.5950 H     1 <1>   0.0800 
 32 H       -3.2520    -1.9640     1.4140 H     1 <1>   0.0800 
 33 H       -4.8340    -1.5770     2.0370 H     1 <1>   0.0800 
 34 H       -0.1220     1.2920     1.6140 H     1 <1>   0.4500 
 35 H       -5.8630    -0.2310    -1.4040 H     1 <1>   0.0800 
 36 H       -5.4270    -2.5280    -0.0700 H     1 <1>   0.0800 
 37 H       -0.5180     3.3310    -0.4890 H     1 <1>   0.0800 
 38 H       -0.0540     3.6640     1.1640 H     1 <1>   0.0800 
 39 H       -0.9940    -0.3300     0.1420 H     1 <1>   0.0800 
 40 H       -1.1060     0.8770    -1.1170 H     1 <1>   0.0800 
 41 H       -6.5680    -0.5420     1.3160 H     1 <1>   0.4000 
 42 H       -3.2200    -0.9440    -1.4360 H     1 <1>   0.0800 
 43 H       -4.2840    -2.0900    -2.1700 H     1 <1>   0.0800 
 44 H        1.8900     3.6120    -0.3570 H     1 <1>   0.0800 
 45 H        2.0090     2.4140     0.8920 H     1 <1>   0.0800 
 46 H        1.4110    -0.0910     0.2430 H     1 <1>   0.0800 
 47 H        0.9290    -0.4100    -1.3930 H     1 <1>   0.0800 
 48 H        1.1430     1.9510    -1.9790 H     1 <1>   0.0800 
 49 H       -4.0400    -4.4790    -1.7570 H     1 <1>   0.1500 
 50 H        3.5950     0.9770    -0.4810 H     1 <1>   0.0800 
 51 H        3.5760     2.2220    -1.7050 H     1 <1>   0.0800 
 52 H        3.1810     0.5800    -2.1300 H     1 <1>   0.0800 
 53 H       -2.4160    -6.3000    -1.3190 H     1 <1>   0.1500 
 54 H        0.6310    -2.2490     0.7690 H     1 <1>   0.1500 
 55 H       -0.1720    -6.9380    -0.4370 H     1 <1>   0.1500 
 56 H        2.3340    -3.9600     1.2800 H     1 <1>   0.1500 
 57 H        1.9340    -6.2940     0.6680 H     1 <1>   0.1500 
@<TRIPOS>BOND
  1   1   2  2   
  2   2   3  am  
  3   2   4  1   
  4   3   5  1   
  5   3   6  1   
  6   4   7  1   
  7   4  28  1   
  8   4  29  1   
  9   5   8  1   
 10   5  30  1   
 11   5  31  1   
 12   6   9  1   
 13   6  32  1   
 14   6  33  1   
 15   7  10  1   
 16   7  11  1   
 17   7  34  1   
 18   8   9  1   
 19   8  12  1   
 20   8  35  1   
 21   9  13  1   
 22   9  36  1   
 23  10  14  1   
 24  10  37  1   
 25  10  38  1   
 26  11  15  1   
 27  11  39  1   
 28  11  40  1   
 29  12  41  1   
 30  13  16  1   
 31  13  42  1   
 32  13  43  1   
 33  14  17  1   
 34  14  44  1   
 35  14  45  1   
 36  15  17  1   
 37  15  46  1   
 38  15  47  1   
 39  16  18  ar  
 40  16  19  ar  
 41  17  20  1   
 42  17  48  1   
 43  18  21  ar  
 44  19  22  ar  
 45  19  49  1   
 46  20  50  1   
 47  20  51  1   
 48  20  52  1   
 49  21  23  ar  
 50  21  24  ar  
 51  22  23  ar  
 52  22  53  1   
 53  23  25  ar  
 54  24  26  ar  
 55  24  54  1   
 56  25  27  ar  
 57  25  55  1   
 58  26  27  ar  
 59  26  56  1   
 60  27  57  1   
@<TRIPOS>SUBSTRUCTURE
  1 ****  18 GROUP 4 **** **** 0

# MOE 2024.06 (io_trps.svl 2023.06)
