@<TRIPOS>MOLECULE
NONAME
52 54 1 0 0 
SMALL
USER_CHARGES


@<TRIPOS>ATOM
  1 S        0.2540     0.3890    -0.1220 S.o2  1 <1>   1.3330 
  2 O       -0.4030     0.7380    -1.3600 O.2   1 <1>  -0.6500 
  3 O       -0.5110     0.2690     1.0960 O.2   1 <1>  -0.6500 
  4 N        1.4740     1.5530     0.1220 N.am  1 <1>  -0.8490 
  5 C        1.1770    -1.1170    -0.3450 C.3   1 <1>  -0.1350 
  6 C        1.8950     2.1570    -1.1590 C.3   1 <1>   0.1960 
  7 C        1.0720     2.5040     1.1670 C.3   1 <1>   0.1960 
  8 C        3.2810     2.8240    -1.0770 C.3   1 <1>   0.3430 
  9 C        2.1440     3.5390     1.5140 C.3   1 <1>  -0.1600 
 10 N        3.2830     4.2530    -0.6050 N.4   1 <1>  -0.9590 
 11 C        2.2740     4.6100     0.4380 C.3   1 <1>   0.3430 
 12 C        3.2130     5.2080    -1.7500 C.3   1 <1>   0.4860 
 13 C        3.4890     6.6020    -1.2230 C.ar  1 <1>  -0.1440 
 14 C        4.7260     6.8970    -0.6740 C.ar  1 <1>  -0.1500 
 15 C        2.5070     7.5810    -1.2520 C.ar  1 <1>  -0.1500 
 16 C        4.9910     8.1430    -0.1200 C.ar  1 <1>  -0.0230 
 17 C        2.7590     8.8310    -0.7130 C.ar  1 <1>  -0.1500 
 18 N        6.2590     8.3840     0.4790 N.pl3 1 <1>   0.5930 
 19 C        3.9880     9.1070    -0.1430 C.ar  1 <1>  -0.1500 
 20 N        6.7920     7.5020     1.3640 N.2   1 <1>  -0.7070 
 21 C        7.1420     9.3940     0.2400 C.2   1 <1>  -0.3320 
 22 C        7.9540     7.9780     1.6720 C.2   1 <1>   0.1080 
 23 C        8.2320     9.1600     0.9990 C.2   1 <1>  -0.1500 
 24 C        6.9180    10.5460    -0.7270 C.3   1 <1>  -0.0600 
 25 C        8.8800     7.2980     2.6530 C.3   1 <1>  -0.0590 
 26 H        0.5030    -1.9360    -0.5030 H     1 <1>   0.0800 
 27 H        1.7640    -1.3220     0.5290 H     1 <1>   0.0800 
 28 H        1.8270    -1.0400    -1.1930 H     1 <1>   0.0800 
 29 H        1.1490     2.8430    -1.5240 H     1 <1>   0.0800 
 30 H        1.9850     1.3680    -1.8870 H     1 <1>   0.0800 
 31 H        0.8690     1.9530     2.0720 H     1 <1>   0.0800 
 32 H        0.1550     2.9950     0.8810 H     1 <1>   0.0800 
 33 H        3.7390     2.7780    -2.0500 H     1 <1>   0.0800 
 34 H        3.8850     2.2270    -0.4130 H     1 <1>   0.0800 
 35 H        3.0840     3.0720     1.7490 H     1 <1>   0.0800 
 36 H        1.8110     4.0350     2.4090 H     1 <1>   0.0800 
 37 H        4.1980     4.4270    -0.1660 H     1 <1>   0.4500 
 38 H        2.5710     5.5360     0.9060 H     1 <1>   0.0800 
 39 H        1.3100     4.7710    -0.0170 H     1 <1>   0.0800 
 40 H        2.2380     5.1730    -2.2090 H     1 <1>   0.0800 
 41 H        3.9540     4.9590    -2.4920 H     1 <1>   0.0800 
 42 H        5.5150     6.1620    -0.6530 H     1 <1>   0.1500 
 43 H        1.5390     7.3890    -1.6850 H     1 <1>   0.1500 
 44 H        1.9960     9.5910    -0.7320 H     1 <1>   0.1500 
 45 H        4.1660    10.0750     0.2940 H     1 <1>   0.1500 
 46 H        9.1360     9.7380     1.0820 H     1 <1>   0.1500 
 47 H        6.6370    10.1720    -1.6960 H     1 <1>   0.0800 
 48 H        7.8220    11.1190    -0.8340 H     1 <1>   0.0800 
 49 H        6.1460    11.1990    -0.3640 H     1 <1>   0.0800 
 50 H        8.3930     7.2140     3.6070 H     1 <1>   0.0800 
 51 H        9.7860     7.8630     2.7690 H     1 <1>   0.0800 
 52 H        9.1230     6.3140     2.2960 H     1 <1>   0.0800 
@<TRIPOS>BOND
  1   1   2  2   
  2   1   3  2   
  3   1   4  am  
  4   1   5  1   
  5   4   6  1   
  6   4   7  1   
  7   5  26  1   
  8   5  27  1   
  9   5  28  1   
 10   6   8  1   
 11   6  29  1   
 12   6  30  1   
 13   7   9  1   
 14   7  31  1   
 15   7  32  1   
 16   8  10  1   
 17   8  33  1   
 18   8  34  1   
 19   9  11  1   
 20   9  35  1   
 21   9  36  1   
 22  10  11  1   
 23  10  12  1   
 24  10  37  1   
 25  11  38  1   
 26  11  39  1   
 27  12  13  1   
 28  12  40  1   
 29  12  41  1   
 30  13  14  ar  
 31  13  15  ar  
 32  14  16  ar  
 33  14  42  1   
 34  15  17  ar  
 35  15  43  1   
 36  16  18  1   
 37  16  19  ar  
 38  17  19  ar  
 39  17  44  1   
 40  18  20  1   
 41  18  21  1   
 42  19  45  1   
 43  20  22  2   
 44  21  23  2   
 45  21  24  1   
 46  22  23  1   
 47  22  25  1   
 48  23  46  1   
 49  24  47  1   
 50  24  48  1   
 51  24  49  1   
 52  25  50  1   
 53  25  51  1   
 54  25  52  1   
@<TRIPOS>SUBSTRUCTURE
  1 ****  10 GROUP 4 **** **** 0

# MOE 2024.06 (io_trps.svl 2023.06)
