@<TRIPOS>MOLECULE
NONAME
49 50 1 0 0 
SMALL
USER_CHARGES


@<TRIPOS>ATOM
  1 O       -0.0630    -1.2650     0.2920 O.2   1 <1>  -0.5700 
  2 C        1.1190    -1.5350     0.3510 C.2   1 <1>   0.6900 
  3 N        1.5700    -2.8030     0.6580 N.am  1 <1>  -0.4200 
  4 N        2.0310    -0.5500     0.0920 N.am  1 <1>  -0.5390 
  5 C        2.9270    -3.0770     0.6440 C.2   1 <1>   0.6160 
  6 C        0.5870    -3.8730     0.9860 C.3   1 <1>   0.1400 
  7 C        3.3920    -0.7680     0.0970 C.2   1 <1>  -0.0290 
  8 O        3.3320    -4.2050     0.8540 O.2   1 <1>  -0.5700 
  9 C        3.8370    -2.0140     0.3680 C.2   1 <1>  -0.1360 
 10 C        0.1560    -4.6030    -0.2900 C.3   1 <1>   0.1100 
 11 C        4.2840     0.4180    -0.2060 C.3   1 <1>  -0.1020 
 12 N       -0.9800    -5.5050    -0.0160 N.3   1 <1>  -0.8100 
 13 C       -0.9950    -6.6860    -0.9370 C.3   1 <1>   0.2510 
 14 C       -2.2590    -4.7700    -0.0550 C.3   1 <1>   0.1100 
 15 C       -2.3850    -7.3200    -1.2290 C.2   1 <1>   0.5690 
 16 C       -0.0550    -7.7370    -0.3300 C.3   1 <1>  -0.2400 
 17 C       -3.4360    -5.6830     0.3180 C.3   1 <1>   0.1400 
 18 O       -2.4430    -8.2130    -2.0460 O.2   1 <1>  -0.5700 
 19 N       -3.5100    -6.8610    -0.5870 N.am  1 <1>  -0.6600 
 20 C       -4.8410    -7.5100    -0.7450 C.3   1 <1>   0.1400 
 21 C       -5.2690    -8.2600     0.5320 C.3   1 <1>  -0.0800 
 22 C       -4.2790    -9.3750     0.9020 C.3   1 <1>  -0.2400 
 23 C       -6.6670    -8.8600     0.3420 C.3   1 <1>  -0.2400 
 24 H        1.6250     0.3640    -0.1120 H     1 <1>   0.3700 
 25 H       -0.2660    -3.4320     1.4690 H     1 <1>   0.0800 
 26 H        1.0260    -4.5790     1.6690 H     1 <1>   0.0800 
 27 H        4.8790    -2.2700     0.3890 H     1 <1>   0.1500 
 28 H        1.0020    -5.1660    -0.6450 H     1 <1>   0.0800 
 29 H       -0.1190    -3.8910    -1.0500 H     1 <1>   0.0800 
 30 H        4.0650     0.8030    -1.1860 H     1 <1>   0.0800 
 31 H        5.3190     0.1310    -0.1750 H     1 <1>   0.0800 
 32 H        4.1220     1.1960     0.5190 H     1 <1>   0.0800 
 33 H       -0.6040    -6.3850    -1.8940 H     1 <1>   0.0800 
 34 H       -2.4230    -4.3640    -1.0390 H     1 <1>   0.0800 
 35 H       -2.2300    -3.9500     0.6410 H     1 <1>   0.0800 
 36 H       -0.4390    -8.0590     0.6210 H     1 <1>   0.0800 
 37 H        0.9370    -7.3480    -0.2000 H     1 <1>   0.0800 
 38 H        0.0010    -8.5920    -0.9790 H     1 <1>   0.0800 
 39 H       -4.3500    -5.1200     0.2490 H     1 <1>   0.0800 
 40 H       -3.3180    -6.0210     1.3320 H     1 <1>   0.0800 
 41 H       -4.8120    -8.2040    -1.5680 H     1 <1>   0.0800 
 42 H       -5.5690    -6.7560    -0.9860 H     1 <1>   0.0800 
 43 H       -5.3200    -7.5570     1.3450 H     1 <1>   0.0800 
 44 H       -4.1720   -10.0690     0.0870 H     1 <1>   0.0800 
 45 H       -4.6190    -9.9100     1.7710 H     1 <1>   0.0800 
 46 H       -3.3110    -8.9610     1.1220 H     1 <1>   0.0800 
 47 H       -6.6650    -9.5780    -0.4600 H     1 <1>   0.0800 
 48 H       -7.3800    -8.0880     0.1110 H     1 <1>   0.0800 
 49 H       -6.9870    -9.3550     1.2430 H     1 <1>   0.0800 
@<TRIPOS>BOND
  1   1   2  2   
  2   2   3  am  
  3   2   4  am  
  4   3   5  am  
  5   3   6  1   
  6   4   7  1   
  7   4  24  1   
  8   5   8  2   
  9   5   9  1   
 10   6  10  1   
 11   6  25  1   
 12   6  26  1   
 13   7   9  2   
 14   7  11  1   
 15   9  27  1   
 16  10  12  1   
 17  10  28  1   
 18  10  29  1   
 19  11  30  1   
 20  11  31  1   
 21  11  32  1   
 22  12  13  1   
 23  12  14  1   
 24  13  15  1   
 25  13  16  1   
 26  13  33  1   
 27  14  17  1   
 28  14  34  1   
 29  14  35  1   
 30  15  18  2   
 31  15  19  am  
 32  16  36  1   
 33  16  37  1   
 34  16  38  1   
 35  17  19  1   
 36  17  39  1   
 37  17  40  1   
 38  19  20  1   
 39  20  21  1   
 40  20  41  1   
 41  20  42  1   
 42  21  22  1   
 43  21  23  1   
 44  21  43  1   
 45  22  44  1   
 46  22  45  1   
 47  22  46  1   
 48  23  47  1   
 49  23  48  1   
 50  23  49  1   
@<TRIPOS>SUBSTRUCTURE
  1 ****  12 GROUP 4 **** **** 0

# MOE 2024.06 (io_trps.svl 2023.06)
