@<TRIPOS>MOLECULE
NONAME
47 48 1 0 0 
SMALL
USER_CHARGES


@<TRIPOS>ATOM
  1 S        1.4470     0.6960     0.8960 S.o2  1 <1>   1.3330 
  2 O        0.9080     1.3840     2.0470 O.2   1 <1>  -0.6500 
  3 O        0.5760    -0.1210     0.0800 O.2   1 <1>  -0.6500 
  4 N        2.7140    -0.2920     1.4450 N.am  1 <1>  -0.8490 
  5 C        2.2460     1.8930    -0.1730 C.3   1 <1>  -0.0550 
  6 C        3.5410     0.3500     2.4750 C.3   1 <1>   0.1160 
  7 C        2.2240    -1.5800     1.9420 C.3   1 <1>   0.1160 
  8 C        2.8310     1.3140    -1.4790 C.3   1 <1>  -0.0800 
  9 C        3.3460     2.3600    -2.4580 C.3   1 <1>   0.2200 
 10 C        4.0490     0.4010    -1.2870 C.3   1 <1>   0.1200 
 11 N        4.0950     3.4110    -1.7360 N.am  1 <1>  -0.7300 
 12 C        4.3320     1.5270    -3.2630 C.3   1 <1>   0.1200 
 13 O        4.9360     0.6830    -2.3320 O.3   1 <1>  -0.5600 
 14 C        3.6180     4.6230    -1.3600 C.2   1 <1>   0.5690 
 15 O        2.5380     5.0230    -1.7190 O.2   1 <1>  -0.5700 
 16 C        4.4610     5.4630    -0.4180 C.3   1 <1>   0.0820 
 17 C        5.1340     4.5790     0.6280 C.2   1 <1>  -0.1810 
 18 C        4.5690     4.1330     1.8220 C.2   1 <1>   0.1080 
 19 C        6.3680     4.0270     0.6020 C.2   1 <1>  -0.3320 
 20 N        5.3750     3.3680     2.4860 N.2   1 <1>  -0.7070 
 21 C        3.1810     4.4600     2.3360 C.3   1 <1>  -0.0590 
 22 N        6.4920     3.3130     1.7400 N.pl3 1 <1>   0.3000 
 23 C        7.4720     4.1140    -0.4400 C.3   1 <1>  -0.0600 
 24 H        1.5210     2.6380    -0.4380 H     1 <1>   0.0800 
 25 H        3.0210     2.3830     0.3780 H     1 <1>   0.0800 
 26 H        4.3630    -0.2900     2.7460 H     1 <1>   0.0800 
 27 H        2.9570     0.5630     3.3560 H     1 <1>   0.0800 
 28 H        3.9470     1.2720     2.1020 H     1 <1>   0.0800 
 29 H        3.0470    -2.1930     2.2660 H     1 <1>   0.0800 
 30 H        1.7020    -2.1030     1.1570 H     1 <1>   0.0800 
 31 H        1.5460    -1.4290     2.7660 H     1 <1>   0.0800 
 32 H        2.0660     0.7410    -1.9750 H     1 <1>   0.0800 
 33 H        2.5690     2.7930    -3.0660 H     1 <1>   0.0800 
 34 H        3.7780    -0.6410    -1.3250 H     1 <1>   0.0800 
 35 H        4.5620     0.6080    -0.3640 H     1 <1>   0.0800 
 36 H        4.9650     3.0790    -1.3050 H     1 <1>   0.3700 
 37 H        5.0790     2.1240    -3.7550 H     1 <1>   0.0800 
 38 H        3.8170     0.9130    -3.9820 H     1 <1>   0.0800 
 39 H        5.1990     5.9880    -0.9930 H     1 <1>   0.0800 
 40 H        3.8390     6.1940     0.0640 H     1 <1>   0.0800 
 41 H        2.5060     4.6570     1.5240 H     1 <1>   0.0800 
 42 H        3.2300     5.3230     2.9730 H     1 <1>   0.0800 
 43 H        2.7990     3.6320     2.9050 H     1 <1>   0.0800 
 44 H        7.3190     2.7790     2.0320 H     1 <1>   0.2700 
 45 H        7.1600     4.7050    -1.2820 H     1 <1>   0.0800 
 46 H        7.7260     3.1300    -0.7940 H     1 <1>   0.0800 
 47 H        8.3490     4.5670    -0.0130 H     1 <1>   0.0800 
@<TRIPOS>BOND
  1   1   2  2   
  2   1   3  2   
  3   1   4  am  
  4   1   5  1   
  5   4   6  1   
  6   4   7  1   
  7   5   8  1   
  8   5  24  1   
  9   5  25  1   
 10   6  26  1   
 11   6  27  1   
 12   6  28  1   
 13   7  29  1   
 14   7  30  1   
 15   7  31  1   
 16   8   9  1   
 17   8  10  1   
 18   8  32  1   
 19   9  11  1   
 20   9  12  1   
 21   9  33  1   
 22  10  13  1   
 23  10  34  1   
 24  10  35  1   
 25  11  14  am  
 26  11  36  1   
 27  12  13  1   
 28  12  37  1   
 29  12  38  1   
 30  14  15  2   
 31  14  16  1   
 32  16  17  1   
 33  16  39  1   
 34  16  40  1   
 35  17  18  1   
 36  17  19  2   
 37  18  20  2   
 38  18  21  1   
 39  19  22  1   
 40  19  23  1   
 41  20  22  1   
 42  21  41  1   
 43  21  42  1   
 44  21  43  1   
 45  22  44  1   
 46  23  45  1   
 47  23  46  1   
 48  23  47  1   
@<TRIPOS>SUBSTRUCTURE
  1 ****   5 GROUP 4 **** **** 0

# MOE 2024.06 (io_trps.svl 2023.06)
