@<TRIPOS>MOLECULE
NONAME
53 55 1 0 0 
SMALL
USER_CHARGES


@<TRIPOS>ATOM
  1 O       -1.4760    -0.0550    -2.3070 O.2   1 <1>  -0.5700 
  2 C       -1.4010     0.3920    -1.1880 C.2   1 <1>   0.5690 
  3 N       -2.4300     0.2010    -0.3020 N.am  1 <1>  -0.6600 
  4 C       -0.1050     1.1100    -0.8390 C.3   1 <1>  -0.0990 
  5 C       -3.4130    -0.8910    -0.6490 C.3   1 <1>   0.3210 
  6 C       -2.6740     1.0290     0.9320 C.3   1 <1>   0.1400 
  7 C        0.0830     2.4240    -1.6130 C.3   1 <1>   0.0200 
  8 C       -4.4050    -1.2600     0.4550 C.2   1 <1>   0.0460 
  9 C       -3.5350     2.2930     0.6990 C.3   1 <1>   0.3430 
 10 C       -0.7130     3.5730    -1.0210 C.2   1 <1>   0.0060 
 11 N       -5.5210    -0.5280     0.6760 N.2   1 <1>  -0.5650 
 12 C       -4.3420    -2.3060     1.3140 C.2   1 <1>  -0.3320 
 13 N       -4.7170     2.0970    -0.1990 N.4   1 <1>  -0.9590 
 14 N       -1.8080     4.0270    -1.5250 N.2   1 <1>  -0.5650 
 15 N       -0.3080     4.2360     0.0940 N.pl3 1 <1>   0.0330 
 16 C       -6.1130    -1.1500     1.6440 C.2   1 <1>   0.0360 
 17 N       -5.4470    -2.2380     2.0790 N.pl3 1 <1>   0.0330 
 18 C       -3.3040    -3.4050     1.4780 C.3   1 <1>  -0.0600 
 19 C       -4.3550     2.2720    -1.6410 C.3   1 <1>   0.2630 
 20 C       -5.8360     3.0020     0.1720 C.3   1 <1>   0.2630 
 21 C       -2.1550     5.0630    -0.7120 C.ar  1 <1>   0.2270 
 22 C       -1.2460     5.1890     0.3210 C.ar  1 <1>  -0.1520 
 23 C       -3.2500     5.9230    -0.7870 C.ar  1 <1>  -0.1500 
 24 C       -1.4090     6.1560     1.3150 C.ar  1 <1>  -0.1500 
 25 C       -3.4190     6.8800     0.1900 C.ar  1 <1>  -0.1500 
 26 C       -2.5000     6.9930     1.2410 C.ar  1 <1>  -0.1500 
 27 H        0.6900     0.4470    -1.1280 H     1 <1>   0.0800 
 28 H        0.0010     1.2680     0.2140 H     1 <1>   0.0800 
 29 H       -2.8580    -1.7730    -0.9160 H     1 <1>   0.0800 
 30 H       -3.9680    -0.6010    -1.5230 H     1 <1>   0.0800 
 31 H       -1.7410     1.3440     1.3550 H     1 <1>   0.0800 
 32 H       -3.1390     0.4300     1.6930 H     1 <1>   0.0800 
 33 H       -0.2030     2.2840    -2.6420 H     1 <1>   0.0800 
 34 H        1.1250     2.6920    -1.6090 H     1 <1>   0.0800 
 35 H       -2.9110     3.0670     0.3000 H     1 <1>   0.0800 
 36 H       -3.8760     2.6340     1.6620 H     1 <1>   0.0800 
 37 H       -5.0330     1.1120    -0.0490 H     1 <1>   0.4500 
 38 H        0.5580     4.1000     0.6220 H     1 <1>   0.2700 
 39 H       -7.0520    -0.8520     2.0800 H     1 <1>   0.1500 
 40 H       -5.7310    -2.8820     2.8250 H     1 <1>   0.2700 
 41 H       -2.4790    -3.2590     0.8050 H     1 <1>   0.0800 
 42 H       -3.7450    -4.3650     1.2710 H     1 <1>   0.0800 
 43 H       -2.9220    -3.4090     2.4840 H     1 <1>   0.0800 
 44 H       -4.0910     3.2970    -1.8380 H     1 <1>   0.0800 
 45 H       -5.1870     2.0020    -2.2700 H     1 <1>   0.0800 
 46 H       -3.5140     1.6530    -1.9030 H     1 <1>   0.0800 
 47 H       -5.5350     4.0310     0.0610 H     1 <1>   0.0800 
 48 H       -6.1280     2.8310     1.1950 H     1 <1>   0.0800 
 49 H       -6.6880     2.8170    -0.4620 H     1 <1>   0.0800 
 50 H       -3.9320     5.8270    -1.6110 H     1 <1>   0.1500 
 51 H       -0.6930     6.2460     2.1140 H     1 <1>   0.1500 
 52 H       -4.2550     7.5580     0.1500 H     1 <1>   0.1500 
 53 H       -2.6520     7.7520     1.9900 H     1 <1>   0.1500 
@<TRIPOS>BOND
  1   1   2  2   
  2   2   3  am  
  3   2   4  1   
  4   3   5  1   
  5   3   6  1   
  6   4   7  1   
  7   4  27  1   
  8   4  28  1   
  9   5   8  1   
 10   5  29  1   
 11   5  30  1   
 12   6   9  1   
 13   6  31  1   
 14   6  32  1   
 15   7  10  1   
 16   7  33  1   
 17   7  34  1   
 18   8  11  1   
 19   8  12  2   
 20   9  13  1   
 21   9  35  1   
 22   9  36  1   
 23  10  14  2   
 24  10  15  1   
 25  11  16  2   
 26  12  17  1   
 27  12  18  1   
 28  13  19  1   
 29  13  20  1   
 30  13  37  1   
 31  14  21  1   
 32  15  22  1   
 33  15  38  1   
 34  16  17  1   
 35  16  39  1   
 36  17  40  1   
 37  18  41  1   
 38  18  42  1   
 39  18  43  1   
 40  19  44  1   
 41  19  45  1   
 42  19  46  1   
 43  20  47  1   
 44  20  48  1   
 45  20  49  1   
 46  21  22  ar  
 47  21  23  ar  
 48  22  24  ar  
 49  23  25  ar  
 50  23  50  1   
 51  24  26  ar  
 52  24  51  1   
 53  25  26  ar  
 54  25  52  1   
 55  26  53  1   
@<TRIPOS>SUBSTRUCTURE
  1 ****   9 GROUP 4 **** **** 0

# MOE 2024.06 (io_trps.svl 2023.06)
