@<TRIPOS>MOLECULE
NONAME
37 38 1 0 0 
SMALL
USER_CHARGES


@<TRIPOS>ATOM
  1 F        1.5480    -3.2530     2.4190 F     1 <1>  -0.3400 
  2 C        1.2400    -2.2060     1.6580 C.3   1 <1>   1.0810 
  3 F        1.1610    -1.1660     2.4850 F     1 <1>  -0.3400 
  4 F        0.0000    -2.4250     1.2280 F     1 <1>  -0.3400 
  5 C        2.2370    -2.0110     0.4880 C.2   1 <1>   0.4480 
  6 O        2.8580    -1.0040     0.2780 O.2   1 <1>  -0.5700 
  7 C        2.4210    -3.1900    -0.4630 C.3   1 <1>  -0.0990 
  8 C        3.6160    -4.0740    -0.0590 C.3   1 <1>  -0.1600 
  9 C        3.9010    -5.2190    -1.0540 C.3   1 <1>   0.0630 
 10 C        2.6830    -6.1400    -1.1910 C.ar  1 <1>  -0.1440 
 11 C        5.1190    -6.0370    -0.5900 C.3   1 <1>  -0.0990 
 12 C        2.4980    -7.1880    -0.2850 C.ar  1 <1>   0.1170 
 13 C        1.7650    -5.9230    -2.2000 C.ar  1 <1>  -0.1500 
 14 C        4.7640    -6.9030     0.5990 C.2   1 <1>   0.5690 
 15 N        3.5090    -7.4140     0.6530 N.am  1 <1>  -0.5470 
 16 C        1.3430    -7.9940    -0.3460 C.ar  1 <1>   0.0860 
 17 C        0.6410    -6.7210    -2.2950 C.ar  1 <1>  -0.1500 
 18 O        5.5810    -7.1270     1.4540 O.2   1 <1>  -0.5700 
 19 C        1.0830    -9.0610     0.6040 C.2   1 <1>   0.6340 
 20 C        0.4350    -7.7310    -1.3780 C.ar  1 <1>  -0.1500 
 21 O        1.7310    -9.2510     1.6160 O.2   1 <1>  -0.5700 
 22 O        0.0590    -9.8850     0.3530 O.3   1 <1>  -0.4300 
 23 C       -0.2750   -10.9530     1.2190 C.3   1 <1>   0.0400 
 24 H        2.5890    -2.7990    -1.4510 H     1 <1>   0.0800 
 25 H        1.5160    -3.7700    -0.4890 H     1 <1>   0.0800 
 26 H        3.4320    -4.4880     0.9190 H     1 <1>   0.0800 
 27 H        4.4920    -3.4520     0.0140 H     1 <1>   0.0800 
 28 H        4.1350    -4.7890    -2.0140 H     1 <1>   0.0800 
 29 H        5.9390    -5.3910    -0.3360 H     1 <1>   0.0800 
 30 H        5.4380    -6.6850    -1.3850 H     1 <1>   0.0800 
 31 H        1.9100    -5.1320    -2.9170 H     1 <1>   0.1500 
 32 H        3.3190    -8.0750     1.4210 H     1 <1>   0.3700 
 33 H       -0.0750    -6.5510    -3.0820 H     1 <1>   0.1500 
 34 H       -0.4550    -8.3290    -1.4690 H     1 <1>   0.1500 
 35 H       -1.1230   -11.4720     0.8090 H     1 <1>   0.0800 
 36 H       -0.5190   -10.5520     2.1880 H     1 <1>   0.0800 
 37 H        0.5680   -11.6180     1.2930 H     1 <1>   0.0800 
@<TRIPOS>BOND
  1   1   2  1   
  2   2   3  1   
  3   2   4  1   
  4   2   5  1   
  5   5   6  2   
  6   5   7  1   
  7   7   8  1   
  8   7  24  1   
  9   7  25  1   
 10   8   9  1   
 11   8  26  1   
 12   8  27  1   
 13   9  10  1   
 14   9  11  1   
 15   9  28  1   
 16  10  12  ar  
 17  10  13  ar  
 18  11  14  1   
 19  11  29  1   
 20  11  30  1   
 21  12  15  1   
 22  12  16  ar  
 23  13  17  ar  
 24  13  31  1   
 25  14  15  am  
 26  14  18  2   
 27  15  32  1   
 28  16  19  1   
 29  16  20  ar  
 30  17  20  ar  
 31  17  33  1   
 32  19  21  2   
 33  19  22  1   
 34  20  34  1   
 35  22  23  1   
 36  23  35  1   
 37  23  36  1   
 38  23  37  1   
@<TRIPOS>SUBSTRUCTURE
  1 ****  12 GROUP 4 **** **** 0

# MOE 2024.06 (io_trps.svl 2023.06)
