@<TRIPOS>MOLECULE
NONAME
34 36 1 0 0 
SMALL
USER_CHARGES


@<TRIPOS>ATOM
  1 F       -0.9670    -0.5240     1.2490 F     1 <1>  -0.3400 
  2 C       -0.0750    -1.5040     1.1250 C.3   1 <1>   1.2010 
  3 F        0.1020    -1.9890     2.3520 F     1 <1>  -0.3400 
  4 F        1.0760    -0.9200     0.8020 F     1 <1>  -0.3400 
  5 C       -0.5060    -2.5970     0.1080 C.2   1 <1>   0.1080 
  6 N       -0.7570    -2.4100    -1.1690 N.2   1 <1>  -0.7070 
  7 C       -0.6750    -3.9340     0.4460 C.2   1 <1>  -0.1500 
  8 N       -1.0840    -3.6190    -1.6510 N.pl3 1 <1>   0.3140 
  9 C       -1.0490    -4.5780    -0.6950 C.2   1 <1>  -0.2370 
 10 C       -1.4570    -3.7840    -3.0650 C.3   1 <1>   0.0160 
 11 C       -1.3560    -5.9620    -0.9360 C.2   1 <1>   0.7150 
 12 O       -1.0090    -6.4760    -1.9860 O.2   1 <1>  -0.5700 
 13 N       -2.0250    -6.7090    -0.0080 N.am  1 <1>  -0.6600 
 14 C       -2.8210    -6.1430     1.1160 C.3   1 <1>   0.2350 
 15 C       -2.4000    -8.1380    -0.2160 C.3   1 <1>   0.2350 
 16 C       -4.0190    -7.0570     1.2690 C.3   1 <1>  -0.2420 
 17 C       -3.7550    -8.2980     0.4520 C.3   1 <1>  -0.2420 
 18 C       -4.6790    -6.8350     2.6330 C.2   1 <1>   0.9470 
 19 C       -4.8950    -7.3820     0.0850 C.3   1 <1>  -0.2000 
 20 C       -4.0510    -9.7740     0.7310 C.2   1 <1>   0.9470 
 21 O       -5.8740    -6.5180     2.6900 O.co2 1 <1>  -0.9000 
 22 O       -3.9590    -6.7930     3.6410 O.co2 1 <1>  -0.9000 
 23 O       -5.0380   -10.3070     0.2050 O.co2 1 <1>  -0.9000 
 24 O       -3.2110   -10.4480     1.3430 O.co2 1 <1>  -0.9000 
 25 H       -0.5350    -4.3730     1.4200 H     1 <1>   0.1500 
 26 H       -2.3990    -4.2960    -3.1260 H     1 <1>   0.0800 
 27 H       -0.7000    -4.3600    -3.5620 H     1 <1>   0.0800 
 28 H       -1.5380    -2.8170    -3.5270 H     1 <1>   0.0800 
 29 H       -2.2260    -6.1600     2.0130 H     1 <1>   0.0800 
 30 H       -3.1470    -5.1390     0.9110 H     1 <1>   0.0800 
 31 H       -2.4600    -8.3890    -1.2600 H     1 <1>   0.0800 
 32 H       -1.6720    -8.7690     0.2660 H     1 <1>   0.0800 
 33 H       -4.8310    -6.7870    -0.8050 H     1 <1>   0.1000 
 34 H       -5.8960    -7.7290     0.2800 H     1 <1>   0.1000 
@<TRIPOS>BOND
  1   1   2  1   
  2   2   3  1   
  3   2   4  1   
  4   2   5  1   
  5   5   6  2   
  6   5   7  1   
  7   6   8  1   
  8   7   9  2   
  9   7  25  1   
 10   8   9  1   
 11   8  10  1   
 12   9  11  1   
 13  10  26  1   
 14  10  27  1   
 15  10  28  1   
 16  11  12  2   
 17  11  13  am  
 18  13  14  1   
 19  13  15  1   
 20  14  16  1   
 21  14  29  1   
 22  14  30  1   
 23  15  17  1   
 24  15  31  1   
 25  15  32  1   
 26  16  17  1   
 27  16  18  1   
 28  16  19  1   
 29  17  19  1   
 30  17  20  1   
 31  18  21  ar  
 32  18  22  ar  
 33  19  33  1   
 34  19  34  1   
 35  20  23  ar  
 36  20  24  ar  
@<TRIPOS>SUBSTRUCTURE
  1 ****  14 GROUP 4 **** **** 0

# MOE 2024.06 (io_trps.svl 2023.06)
