@<TRIPOS>MOLECULE
NONAME
45 46 1 0 0 
SMALL
USER_CHARGES


@<TRIPOS>ATOM
  1 O        2.8210    -0.3420    -3.4140 O.2   1 <1>  -0.5700 
  2 C        2.0730    -0.7490    -2.5590 C.2   1 <1>   0.5690 
  3 N        1.8100    -0.1060    -1.3880 N.am  1 <1>  -0.4940 
  4 C        1.3440    -2.0780    -2.7660 C.3   1 <1>   0.1710 
  5 C        2.3020     1.0850    -0.8530 C.2   1 <1>   0.2040 
  6 N        0.7720    -2.6390    -1.5020 N.3   1 <1>  -0.8100 
  7 O        3.1550     1.8480    -1.4930 O.3   1 <1>  -0.0190 
  8 C        2.0470     1.6630     0.3370 C.2   1 <1>  -0.1810 
  9 C       -0.3300    -3.5780    -1.7830 C.3   1 <1>   0.2530 
 10 C        1.8210    -3.2850    -0.6880 C.3   1 <1>   0.0300 
 11 N        3.4850     2.9030    -0.7900 N.2   1 <1>  -0.4100 
 12 C        2.8330     2.8130     0.3130 C.2   1 <1>   0.1080 
 13 C        1.1280     1.1830     1.4480 C.3   1 <1>   0.0210 
 14 C       -1.0550    -3.9560    -0.5000 C.ar  1 <1>  -0.1430 
 15 C        2.9290     3.8420     1.4190 C.3   1 <1>  -0.0590 
 16 C        1.9050     0.3430     2.4630 C.3   1 <1>  -0.2400 
 17 C       -1.7230    -2.9870     0.2330 C.ar  1 <1>  -0.1500 
 18 C       -1.0610    -5.2670    -0.0480 C.ar  1 <1>  -0.1500 
 19 C       -2.3860    -3.3230     1.4010 C.ar  1 <1>  -0.1500 
 20 C       -1.7240    -5.6020     1.1200 C.ar  1 <1>  -0.1500 
 21 C       -2.3890    -4.6320     1.8510 C.ar  1 <1>  -0.1430 
 22 C       -3.1180    -5.0020     3.1300 C.3   1 <1>  -0.0970 
 23 H        1.1880    -0.6600    -0.7920 H     1 <1>   0.3700 
 24 H        2.0210    -2.7840    -3.2150 H     1 <1>   0.0800 
 25 H        0.5520    -1.8880    -3.4680 H     1 <1>   0.0800 
 26 H        0.0520    -4.4580    -2.2730 H     1 <1>   0.0800 
 27 H       -1.0410    -3.1100    -2.4430 H     1 <1>   0.0800 
 28 H        2.6320    -2.6010    -0.5040 H     1 <1>   0.0800 
 29 H        2.2090    -4.1540    -1.1910 H     1 <1>   0.0800 
 30 H        1.4180    -3.5860     0.2650 H     1 <1>   0.0800 
 31 H        0.3360     0.5890     1.0270 H     1 <1>   0.0800 
 32 H        0.6780     2.0290     1.9380 H     1 <1>   0.0800 
 33 H        3.2490     3.3720     2.3300 H     1 <1>   0.0800 
 34 H        1.9720     4.3050     1.5720 H     1 <1>   0.0800 
 35 H        3.6420     4.6010     1.1520 H     1 <1>   0.0800 
 36 H        2.3410    -0.5130     1.9780 H     1 <1>   0.0800 
 37 H        1.2480     0.0010     3.2420 H     1 <1>   0.0800 
 38 H        2.6940     0.9250     2.9060 H     1 <1>   0.0800 
 39 H       -1.7220    -1.9670    -0.1080 H     1 <1>   0.1500 
 40 H       -0.5490    -6.0340    -0.6020 H     1 <1>   0.1500 
 41 H       -2.9010    -2.5590     1.9560 H     1 <1>   0.1500 
 42 H       -1.7210    -6.6240     1.4570 H     1 <1>   0.1500 
 43 H       -3.1280    -4.1700     3.8120 H     1 <1>   0.0800 
 44 H       -2.6320    -5.8300     3.6140 H     1 <1>   0.0800 
 45 H       -4.1320    -5.2780     2.9030 H     1 <1>   0.0800 
@<TRIPOS>BOND
  1   1   2  2   
  2   2   3  am  
  3   2   4  1   
  4   3   5  1   
  5   3  23  1   
  6   4   6  1   
  7   4  24  1   
  8   4  25  1   
  9   5   7  1   
 10   5   8  2   
 11   6   9  1   
 12   6  10  1   
 13   7  11  1   
 14   8  12  1   
 15   8  13  1   
 16   9  14  1   
 17   9  26  1   
 18   9  27  1   
 19  10  28  1   
 20  10  29  1   
 21  10  30  1   
 22  11  12  2   
 23  12  15  1   
 24  13  16  1   
 25  13  31  1   
 26  13  32  1   
 27  14  17  ar  
 28  14  18  ar  
 29  15  33  1   
 30  15  34  1   
 31  15  35  1   
 32  16  36  1   
 33  16  37  1   
 34  16  38  1   
 35  17  19  ar  
 36  17  39  1   
 37  18  20  ar  
 38  18  40  1   
 39  19  21  ar  
 40  19  41  1   
 41  20  21  ar  
 42  20  42  1   
 43  21  22  1   
 44  22  43  1   
 45  22  44  1   
 46  22  45  1   
@<TRIPOS>SUBSTRUCTURE
  1 ****   6 GROUP 4 **** **** 0

# MOE 2024.06 (io_trps.svl 2023.06)
