@<TRIPOS>MOLECULE
NONAME
39 40 1 0 0 
SMALL
USER_CHARGES


@<TRIPOS>ATOM
  1 F        3.6750     1.2420     2.5820 F     1 <1>  -0.1900 
  2 C        3.4820     0.3250     1.6680 C.ar  1 <1>   0.1900 
  3 C        3.5040     0.6820     0.3190 C.ar  1 <1>   0.0830 
  4 C        3.2620    -0.9700     2.0950 C.ar  1 <1>  -0.1500 
  5 O        3.7300     1.9860    -0.0040 O.3   1 <1>  -0.3630 
  6 C        3.2940    -0.3170    -0.6350 C.ar  1 <1>  -0.1500 
  7 C        3.0590    -1.9260     1.1200 C.ar  1 <1>   0.1900 
  8 C        3.7520     2.4240    -1.3560 C.3   1 <1>   0.1810 
  9 C        3.0710    -1.6260    -0.2310 C.ar  1 <1>  -0.1500 
 10 F        2.8480    -3.1620     1.4870 F     1 <1>  -0.1900 
 11 C        4.0170     3.9220    -1.4680 C.2   1 <1>   0.5690 
 12 O        3.9130     4.4450    -2.5520 O.2   1 <1>  -0.5700 
 13 N        4.3700     4.6430    -0.3780 N.am  1 <1>  -0.7300 
 14 C        4.7040     6.0740    -0.3740 C.3   1 <1>   0.3200 
 15 C        5.3310     6.4650     0.9610 C.2   1 <1>   0.0060 
 16 N        5.4340     5.6620     1.9780 N.2   1 <1>  -0.5650 
 17 N        5.8380     7.7040     1.1950 N.pl3 1 <1>   0.0480 
 18 C        6.0360     6.4060     2.9210 C.2   1 <1>   0.0770 
 19 C        6.2900     7.6490     2.4640 C.2   1 <1>  -0.3020 
 20 C        5.8990     8.8770     0.2800 C.3   1 <1>   0.1760 
 21 C        7.3580     9.2470    -0.0100 C.3   1 <1>  -0.2400 
 22 C        5.1400    10.0640     0.8830 C.3   1 <1>  -0.2400 
 23 H        3.2500    -1.2210     3.1390 H     1 <1>   0.1500 
 24 H        3.3000    -0.1020    -1.6870 H     1 <1>   0.1500 
 25 H        2.7980     2.2050    -1.7980 H     1 <1>   0.0800 
 26 H        4.5290     1.8930    -1.8720 H     1 <1>   0.0800 
 27 H        2.9070    -2.4080    -0.9520 H     1 <1>   0.1500 
 28 H        4.4900     4.2030     0.5450 H     1 <1>   0.3700 
 29 H        3.8050     6.6420    -0.5330 H     1 <1>   0.0800 
 30 H        5.3910     6.2750    -1.1770 H     1 <1>   0.0800 
 31 H        6.2580     6.0000     3.8940 H     1 <1>   0.1500 
 32 H        6.7580     8.4770     2.9640 H     1 <1>   0.1500 
 33 H        5.4260     8.6120    -0.6480 H     1 <1>   0.0800 
 34 H        7.8620     9.5480     0.8910 H     1 <1>   0.0800 
 35 H        7.4000    10.0610    -0.7110 H     1 <1>   0.0800 
 36 H        7.8740     8.4060    -0.4380 H     1 <1>   0.0800 
 37 H        5.6020    10.3890     1.7980 H     1 <1>   0.0800 
 38 H        4.1190     9.7880     1.0820 H     1 <1>   0.0800 
 39 H        5.1380    10.8890     0.1930 H     1 <1>   0.0800 
@<TRIPOS>BOND
  1   1   2  1   
  2   2   3  ar  
  3   2   4  ar  
  4   3   5  1   
  5   3   6  ar  
  6   4   7  ar  
  7   4  23  1   
  8   5   8  1   
  9   6   9  ar  
 10   6  24  1   
 11   7   9  ar  
 12   7  10  1   
 13   8  11  1   
 14   8  25  1   
 15   8  26  1   
 16   9  27  1   
 17  11  12  2   
 18  11  13  am  
 19  13  14  1   
 20  13  28  1   
 21  14  15  1   
 22  14  29  1   
 23  14  30  1   
 24  15  16  2   
 25  15  17  1   
 26  16  18  1   
 27  17  19  1   
 28  17  20  1   
 29  18  19  2   
 30  18  31  1   
 31  19  32  1   
 32  20  21  1   
 33  20  22  1   
 34  20  33  1   
 35  21  34  1   
 36  21  35  1   
 37  21  36  1   
 38  22  37  1   
 39  22  38  1   
 40  22  39  1   
@<TRIPOS>SUBSTRUCTURE
  1 ****  13 GROUP 4 **** **** 0

# MOE 2024.06 (io_trps.svl 2023.06)
