@<TRIPOS>MOLECULE
NONAME
41 41 1 0 0 
SMALL
USER_CHARGES


@<TRIPOS>ATOM
  1 O       -0.1200     0.4240    -0.3270 O.2   1 <1>  -0.5700 
  2 C       -0.5990     1.4810     0.0340 C.2   1 <1>   0.7800 
  3 O       -1.9080     1.6090     0.2470 O.3   1 <1>  -0.4300 
  4 N        0.1720     2.5990     0.2150 N.am  1 <1>  -0.6600 
  5 C       -2.9140     0.6430     0.0400 C.3   1 <1>   0.2800 
  6 C       -0.4420     3.9460     0.4330 C.3   1 <1>   0.2010 
  7 C        1.6390     2.5850    -0.0540 C.3   1 <1>   0.1400 
  8 C       -2.9610     0.2410    -1.4390 C.3   1 <1>  -0.2400 
  9 C       -4.2210     1.3450     0.4120 C.3   1 <1>  -0.2400 
 10 C       -2.6990    -0.5570     0.9690 C.3   1 <1>  -0.2400 
 11 C       -0.7080     4.6370    -0.8970 C.2   1 <1>   0.4480 
 12 C        1.9920     3.3660    -1.3290 C.3   1 <1>   0.1200 
 13 O       -1.8120     4.7120    -1.3560 O.2   1 <1>  -0.5700 
 14 C        0.4930     5.2230    -1.6220 C.3   1 <1>   0.3220 
 15 O        1.7400     4.7310    -1.1480 O.3   1 <1>  -0.5600 
 16 C        0.4210     6.7340    -1.4570 C.2   1 <1>   0.6590 
 17 O        0.4580     7.4810    -2.4040 O.2   1 <1>  -0.5700 
 18 O        0.3150     7.1890    -0.2100 O.3   1 <1>  -0.4300 
 19 C        0.2420     8.5690     0.0640 C.3   1 <1>   0.1200 
 20 C        0.1110     8.7430     1.5740 C.3   1 <1>  -0.2400 
 21 H        0.2130     4.5530     1.0320 H     1 <1>   0.0800 
 22 H       -1.3720     3.8490     0.9640 H     1 <1>   0.0800 
 23 H        1.9810     1.5710    -0.1660 H     1 <1>   0.0800 
 24 H        2.1640     3.0090     0.7840 H     1 <1>   0.0800 
 25 H       -3.0410     1.1140    -2.0600 H     1 <1>   0.0800 
 26 H       -3.8140    -0.3870    -1.6210 H     1 <1>   0.0800 
 27 H       -2.0840    -0.3140    -1.7180 H     1 <1>   0.0800 
 28 H       -4.3690     2.2080    -0.2130 H     1 <1>   0.0800 
 29 H       -4.1970     1.6570     1.4400 H     1 <1>   0.0800 
 30 H       -5.0540     0.6800     0.2780 H     1 <1>   0.0800 
 31 H       -1.8230    -1.1120     0.6900 H     1 <1>   0.0800 
 32 H       -3.5390    -1.2230     0.9070 H     1 <1>   0.0800 
 33 H       -2.6000    -0.2280     1.9880 H     1 <1>   0.0800 
 34 H        1.4500     2.9900    -2.1810 H     1 <1>   0.0800 
 35 H        3.0450     3.2620    -1.5220 H     1 <1>   0.0800 
 36 H        0.4210     4.9950    -2.6690 H     1 <1>   0.0800 
 37 H       -0.6140     8.9750    -0.4490 H     1 <1>   0.0800 
 38 H        1.1400     9.0380    -0.3040 H     1 <1>   0.0800 
 39 H       -0.7850     8.2640     1.9260 H     1 <1>   0.0800 
 40 H        0.0550     9.7900     1.8130 H     1 <1>   0.0800 
 41 H        0.9660     8.3240     2.0720 H     1 <1>   0.0800 
@<TRIPOS>BOND
  1   1   2  2   
  2   2   3  1   
  3   2   4  am  
  4   3   5  1   
  5   4   6  1   
  6   4   7  1   
  7   5   8  1   
  8   5   9  1   
  9   5  10  1   
 10   6  11  1   
 11   6  21  1   
 12   6  22  1   
 13   7  12  1   
 14   7  23  1   
 15   7  24  1   
 16   8  25  1   
 17   8  26  1   
 18   8  27  1   
 19   9  28  1   
 20   9  29  1   
 21   9  30  1   
 22  10  31  1   
 23  10  32  1   
 24  10  33  1   
 25  11  13  2   
 26  11  14  1   
 27  12  15  1   
 28  12  34  1   
 29  12  35  1   
 30  14  15  1   
 31  14  16  1   
 32  14  36  1   
 33  16  17  2   
 34  16  18  1   
 35  18  19  1   
 36  19  20  1   
 37  19  37  1   
 38  19  38  1   
 39  20  39  1   
 40  20  40  1   
 41  20  41  1   
@<TRIPOS>SUBSTRUCTURE
  1 ****   6 GROUP 4 **** **** 0

# MOE 2024.06 (io_trps.svl 2023.06)
