@<TRIPOS>MOLECULE
NONAME
17 17 1 0 0 
SMALL
USER_CHARGES


@<TRIPOS>ATOM
  1 F       -1.0140    -0.3260     1.3400 F     1 <1>  -0.3400 
  2 C       -1.2740    -0.6360     0.0670 C.3   1 <1>   0.2600 
  3 C       -2.6090     0.0170    -0.3340 C.3   1 <1>   0.2000 
  4 C       -1.3620    -2.1670    -0.0500 C.3   1 <1>   0.1200 
  5 O       -2.6240     1.3560     0.0180 O.3   1 <1>  -0.6800 
  6 C       -3.7940    -0.6720     0.3470 C.3   1 <1>  -0.1600 
  7 O       -2.4990    -2.6710     0.5990 O.3   1 <1>  -0.5600 
  8 C       -3.7220    -2.1880     0.1310 C.3   1 <1>   0.1200 
  9 H       -0.4570    -0.2470    -0.5130 H     1 <1>   0.0800 
 10 H       -2.7290    -0.0400    -1.4020 H     1 <1>   0.0800 
 11 H       -0.4940    -2.6240     0.3930 H     1 <1>   0.0800 
 12 H       -1.4140    -2.4600    -1.0830 H     1 <1>   0.0800 
 13 H       -2.3370     1.4330     0.9520 H     1 <1>   0.4000 
 14 H       -3.7810    -0.4800     1.4060 H     1 <1>   0.0800 
 15 H       -4.7150    -0.2960    -0.0600 H     1 <1>   0.0800 
 16 H       -3.8170    -2.4430    -0.9110 H     1 <1>   0.0800 
 17 H       -4.5010    -2.6830     0.6840 H     1 <1>   0.0800 
@<TRIPOS>BOND
  1   1   2  1   
  2   2   3  1   
  3   2   4  1   
  4   2   9  1   
  5   3   5  1   
  6   3   6  1   
  7   3  10  1   
  8   4   7  1   
  9   4  11  1   
 10   4  12  1   
 11   5  13  1   
 12   6   8  1   
 13   6  14  1   
 14   6  15  1   
 15   7   8  1   
 16   8  16  1   
 17   8  17  1   
@<TRIPOS>SUBSTRUCTURE
  1 ****   3 GROUP 4 **** **** 0

# MOE 2024.06 (io_trps.svl 2023.06)
