@<TRIPOS>MOLECULE
NONAME
46 49 1 0 0 
SMALL
USER_CHARGES


@<TRIPOS>ATOM
  1 O       -0.9930    -1.3910     2.2370 O.2   1 <1>  -0.5700 
  2 C       -1.1040    -2.4100     1.6060 C.2   1 <1>   0.5690 
  3 N       -0.7350    -3.6260     2.1100 N.am  1 <1>  -0.3680 
  4 C       -1.6960    -2.4020     0.2150 C.3   1 <1>  -0.0990 
  5 N       -0.7620    -4.8410     1.4580 N.2   1 <1>  -0.5120 
  6 C       -1.1480    -3.5750    -0.6210 C.3   1 <1>  -0.0990 
  7 C       -0.9820    -4.8800     0.1830 C.2   1 <1>   0.3890 
  8 C       -1.0480    -6.1210    -0.5660 C.2   1 <1>   0.6300 
  9 O       -1.2570    -6.1450    -1.7700 O.2   1 <1>  -0.5700 
 10 N       -0.8950    -7.3300     0.0610 N.am  1 <1>  -0.7300 
 11 C       -0.9160    -8.6690    -0.5780 C.3   1 <1>   0.2200 
 12 C       -2.2250    -9.3990    -0.3020 C.3   1 <1>  -0.0800 
 13 C        0.0670    -9.5760     0.1490 C.3   1 <1>   0.1200 
 14 C       -1.9850    -9.9990     1.0890 C.3   1 <1>   0.1200 
 15 C       -3.4970    -8.5310    -0.4120 C.3   1 <1>  -0.0170 
 16 O       -0.6020    -9.9950     1.3000 O.3   1 <1>  -0.5600 
 17 C       -4.8410    -9.2540    -0.2620 C.ar  1 <1>  -0.1440 
 18 C       -6.0350    -8.4970    -0.1680 C.ar  1 <1>   0.0000 
 19 C       -4.9670   -10.6150    -0.2180 C.ar  1 <1>  -0.1500 
 20 C       -7.2560    -9.1970    -0.0070 C.ar  1 <1>   0.3100 
 21 C       -6.0920    -7.0840    -0.2330 C.ar  1 <1>  -0.1500 
 22 C       -6.2260   -11.2080    -0.0640 C.ar  1 <1>   0.1600 
 23 N       -7.3340   -10.5490     0.0440 N.ar  1 <1>  -0.6200 
 24 C       -8.4520    -8.4680     0.1010 C.ar  1 <1>  -0.1500 
 25 C       -7.2750    -6.4040    -0.1270 C.ar  1 <1>  -0.1500 
 26 C       -8.4720    -7.1020     0.0450 C.ar  1 <1>  -0.1500 
 27 H       -0.4330    -3.5980     3.0900 H     1 <1>   0.3700 
 28 H       -2.7610    -2.4960     0.3150 H     1 <1>   0.0800 
 29 H       -1.4800    -1.4650    -0.2650 H     1 <1>   0.0800 
 30 H       -0.1800    -3.3080    -1.0050 H     1 <1>   0.0800 
 31 H       -1.8010    -3.7280    -1.4620 H     1 <1>   0.0800 
 32 H       -0.7360    -7.3370     1.0750 H     1 <1>   0.3700 
 33 H       -0.6960    -8.5920    -1.6300 H     1 <1>   0.0800 
 34 H       -2.2920   -10.2040    -1.0120 H     1 <1>   0.0800 
 35 H        0.9790    -9.0730     0.4210 H     1 <1>   0.0800 
 36 H        0.2890   -10.4490    -0.4390 H     1 <1>   0.0800 
 37 H       -2.3420   -11.0110     1.1640 H     1 <1>   0.0800 
 38 H       -2.4330    -9.3990     1.8620 H     1 <1>   0.0800 
 39 H       -3.4880    -8.0380    -1.3690 H     1 <1>   0.0800 
 40 H       -3.4490    -7.7710     0.3470 H     1 <1>   0.0800 
 41 H       -4.1310   -11.2810    -0.2990 H     1 <1>   0.1500 
 42 H       -5.1880    -6.5220    -0.3720 H     1 <1>   0.1500 
 43 H       -6.2740   -12.2830    -0.0320 H     1 <1>   0.1500 
 44 H       -9.3600    -9.0280     0.2290 H     1 <1>   0.1500 
 45 H       -7.3000    -5.3290    -0.1760 H     1 <1>   0.1500 
 46 H       -9.3960    -6.5570     0.1290 H     1 <1>   0.1500 
@<TRIPOS>BOND
  1   1   2  2   
  2   2   3  am  
  3   2   4  1   
  4   3   5  1   
  5   3  27  1   
  6   4   6  1   
  7   4  28  1   
  8   4  29  1   
  9   5   7  2   
 10   6   7  1   
 11   6  30  1   
 12   6  31  1   
 13   7   8  1   
 14   8   9  2   
 15   8  10  am  
 16  10  11  1   
 17  10  32  1   
 18  11  12  1   
 19  11  13  1   
 20  11  33  1   
 21  12  14  1   
 22  12  15  1   
 23  12  34  1   
 24  13  16  1   
 25  13  35  1   
 26  13  36  1   
 27  14  16  1   
 28  14  37  1   
 29  14  38  1   
 30  15  17  1   
 31  15  39  1   
 32  15  40  1   
 33  17  18  ar  
 34  17  19  ar  
 35  18  20  ar  
 36  18  21  ar  
 37  19  22  ar  
 38  19  41  1   
 39  20  23  ar  
 40  20  24  ar  
 41  21  25  ar  
 42  21  42  1   
 43  22  23  ar  
 44  22  43  1   
 45  24  26  ar  
 46  24  44  1   
 47  25  26  ar  
 48  25  45  1   
 49  26  46  1   
@<TRIPOS>SUBSTRUCTURE
  1 ****  15 GROUP 4 **** **** 0

# MOE 2024.06 (io_trps.svl 2023.06)
