@<TRIPOS>MOLECULE
NONAME
53 56 1 0 0 
SMALL
USER_CHARGES


@<TRIPOS>ATOM
  1 CL       1.7370     0.2500    -1.1820 Cl    1 <1>  -0.1770 
  2 C        2.2050    -1.2010    -0.3340 C.ar  1 <1>   0.1770 
  3 C        1.2300    -1.9350     0.3260 C.ar  1 <1>  -0.1500 
  4 C        3.5370    -1.5850    -0.3370 C.ar  1 <1>  -0.1500 
  5 C        1.5860    -3.0970     0.9990 C.ar  1 <1>  -0.1440 
  6 C        3.8820    -2.7420     0.3390 C.ar  1 <1>  -0.1440 
  7 C        2.9170    -3.4770     0.9790 C.ar  1 <1>   0.0830 
  8 C        0.6020    -3.9600     1.7520 C.3   1 <1>   0.4870 
  9 C        5.2180    -3.4040     0.5440 C.3   1 <1>   0.1440 
 10 O        3.4010    -4.5790     1.5710 O.3   1 <1>  -0.3630 
 11 N        0.2070    -5.0680     0.8600 N.4   1 <1>  -0.9590 
 12 C        4.8110    -4.6420     1.3840 C.3   1 <1>   0.1200 
 13 C        5.8470    -3.7960    -0.7980 C.3   1 <1>  -0.2400 
 14 C        6.1550    -2.4780     1.3290 C.3   1 <1>  -0.2400 
 15 C       -0.7640    -4.7290    -0.2170 C.3   1 <1>   0.3430 
 16 C       -0.2410    -6.3180     1.5020 C.3   1 <1>   0.3430 
 17 C       -1.5030    -6.0350    -0.5400 C.3   1 <1>   0.2000 
 18 C       -0.9100    -7.1110     0.3790 C.3   1 <1>  -0.0800 
 19 O       -2.8540    -5.8850    -0.2470 O.3   1 <1>  -0.6800 
 20 C        0.0690    -8.0590    -0.3550 C.3   1 <1>   0.0210 
 21 C        1.4100    -7.4790    -0.7960 C.2   1 <1>   0.1080 
 22 N        1.5830    -6.2890    -1.2890 N.2   1 <1>  -0.7070 
 23 C        2.6010    -8.1950    -0.7470 C.2   1 <1>  -0.1500 
 24 N        2.8980    -6.2270    -1.5920 N.pl3 1 <1>   0.3000 
 25 C        3.5330    -7.3700    -1.2660 C.2   1 <1>  -0.3320 
 26 C        5.0110    -7.6290    -1.4980 C.3   1 <1>  -0.0600 
 27 H        0.2130    -1.5830     0.3050 H     1 <1>   0.1500 
 28 H        4.2720    -0.9910    -0.8490 H     1 <1>   0.1500 
 29 H       -0.2590    -3.3860     2.0550 H     1 <1>   0.0800 
 30 H        1.0890    -4.3510     2.6300 H     1 <1>   0.0800 
 31 H        1.0650    -5.3390     0.3280 H     1 <1>   0.4500 
 32 H        5.2750    -4.6370     2.3540 H     1 <1>   0.0800 
 33 H        5.0380    -5.5640     0.8810 H     1 <1>   0.0800 
 34 H        6.0740    -2.9160    -1.3740 H     1 <1>   0.0800 
 35 H        5.1710    -4.4060    -1.3670 H     1 <1>   0.0800 
 36 H        6.7590    -4.3430    -0.6400 H     1 <1>   0.0800 
 37 H        6.3700    -1.5910     0.7600 H     1 <1>   0.0800 
 38 H        7.0830    -2.9760     1.5490 H     1 <1>   0.0800 
 39 H        5.6970    -2.1800     2.2560 H     1 <1>   0.0800 
 40 H       -1.4660    -3.9810     0.1090 H     1 <1>   0.0800 
 41 H       -0.2340    -4.3760    -1.0870 H     1 <1>   0.0800 
 42 H        0.5880    -6.8580     1.9320 H     1 <1>   0.0800 
 43 H       -0.9640    -6.0950     2.2700 H     1 <1>   0.0800 
 44 H       -1.4180    -6.2820    -1.5860 H     1 <1>   0.0800 
 45 H       -1.6920    -7.7280     0.7880 H     1 <1>   0.0800 
 46 H       -3.0330    -5.8170     0.7100 H     1 <1>   0.4000 
 47 H       -0.4190    -8.4580    -1.2270 H     1 <1>   0.0800 
 48 H        0.2740    -8.8950     0.2900 H     1 <1>   0.0800 
 49 H        2.7280    -9.2010    -0.3860 H     1 <1>   0.1500 
 50 H        3.3280    -5.4040    -2.0350 H     1 <1>   0.2700 
 51 H        5.2670    -8.6240    -1.1780 H     1 <1>   0.0800 
 52 H        5.6130    -6.9310    -0.9460 H     1 <1>   0.0800 
 53 H        5.2440    -7.5400    -2.5450 H     1 <1>   0.0800 
@<TRIPOS>BOND
  1   1   2  1   
  2   2   3  ar  
  3   2   4  ar  
  4   3   5  ar  
  5   3  27  1   
  6   4   6  ar  
  7   4  28  1   
  8   5   7  ar  
  9   5   8  1   
 10   6   7  ar  
 11   6   9  1   
 12   7  10  1   
 13   8  11  1   
 14   8  29  1   
 15   8  30  1   
 16   9  12  1   
 17   9  13  1   
 18   9  14  1   
 19  10  12  1   
 20  11  15  1   
 21  11  16  1   
 22  11  31  1   
 23  12  32  1   
 24  12  33  1   
 25  13  34  1   
 26  13  35  1   
 27  13  36  1   
 28  14  37  1   
 29  14  38  1   
 30  14  39  1   
 31  15  17  1   
 32  15  40  1   
 33  15  41  1   
 34  16  18  1   
 35  16  42  1   
 36  16  43  1   
 37  17  18  1   
 38  17  19  1   
 39  17  44  1   
 40  18  20  1   
 41  18  45  1   
 42  19  46  1   
 43  20  21  1   
 44  20  47  1   
 45  20  48  1   
 46  21  22  2   
 47  21  23  1   
 48  22  24  1   
 49  23  25  2   
 50  23  49  1   
 51  24  25  1   
 52  24  50  1   
 53  25  26  1   
 54  26  51  1   
 55  26  52  1   
 56  26  53  1   
@<TRIPOS>SUBSTRUCTURE
  1 ****   7 GROUP 4 **** **** 0

# MOE 2024.06 (io_trps.svl 2023.06)
