@<TRIPOS>MOLECULE
NONAME
42 44 1 0 0 
SMALL
USER_CHARGES


@<TRIPOS>ATOM
  1 O       -2.3520     0.8320     2.6230 O.2   1 <1>  -0.5700 
  2 C       -2.5190     1.1230     1.4490 C.2   1 <1>   0.5440 
  3 N       -3.1860     0.1920     0.6730 N.am  1 <1>  -0.6600 
  4 C       -2.0320     2.4190     0.9540 C.ar  1 <1>   0.3960 
  5 C       -3.7500     0.4090    -0.6820 C.3   1 <1>   0.1400 
  6 C       -3.5260    -1.1710     1.1590 C.3   1 <1>   0.1400 
  7 N       -1.8340     2.6480    -0.3480 N.ar  1 <1>  -0.6200 
  8 C       -1.7620     3.4340     1.8550 C.ar  1 <1>  -0.1500 
  9 C       -4.8040    -0.6860    -0.8360 C.3   1 <1>   0.2000 
 10 C       -4.2720    -1.8530     0.0000 C.3   1 <1>  -0.0800 
 11 C       -1.3910     3.8410    -0.6850 C.ar  1 <1>   0.4760 
 12 C       -1.3060     4.6410     1.3900 C.ar  1 <1>   0.1660 
 13 O       -5.9800    -0.2470    -0.2520 O.3   1 <1>  -0.6800 
 14 C       -3.3410    -2.7510    -0.8400 C.3   1 <1>  -0.0160 
 15 N       -1.1180     4.8560     0.1120 N.ar  1 <1>  -0.6200 
 16 C       -1.1670     4.0890    -2.1570 C.3   1 <1>  -0.0970 
 17 C       -0.9950     5.7850     2.3320 C.3   1 <1>  -0.0970 
 18 C       -2.9240    -4.0040    -0.0850 C.ar  1 <1>   0.1670 
 19 N       -1.7480    -3.9720     0.5200 N.ar  1 <1>  -0.6200 
 20 C       -3.7720    -5.1110    -0.0580 C.ar  1 <1>   0.1600 
 21 C       -1.4800    -5.1030     1.1480 C.ar  1 <1>   0.1600 
 22 N       -3.5060    -6.2440     0.5700 N.ar  1 <1>  -0.6200 
 23 C       -2.3300    -6.2020     1.1730 C.ar  1 <1>   0.1600 
 24 H       -4.1800     1.3910    -0.7870 H     1 <1>   0.0800 
 25 H       -2.9680     0.2780    -1.4090 H     1 <1>   0.0800 
 26 H       -2.6320    -1.6970     1.4470 H     1 <1>   0.0800 
 27 H       -4.1680    -1.0840     2.0190 H     1 <1>   0.0800 
 28 H       -1.9080     3.2710     2.9060 H     1 <1>   0.1500 
 29 H       -5.0100    -0.9360    -1.8630 H     1 <1>   0.0800 
 30 H       -5.0830    -2.4550     0.3720 H     1 <1>   0.0800 
 31 H       -5.7730     0.1140     0.6340 H     1 <1>   0.4000 
 32 H       -2.4610    -2.2040    -1.1320 H     1 <1>   0.0800 
 33 H       -3.8490    -3.0500    -1.7390 H     1 <1>   0.0800 
 34 H       -1.8330     4.8610    -2.4940 H     1 <1>   0.0800 
 35 H       -1.3480     3.1950    -2.7250 H     1 <1>   0.0800 
 36 H       -0.1530     4.4050    -2.3160 H     1 <1>   0.0800 
 37 H       -1.1770     5.5060     3.3530 H     1 <1>   0.0800 
 38 H       -1.6110     6.6300     2.0860 H     1 <1>   0.0800 
 39 H        0.0370     6.0670     2.2260 H     1 <1>   0.0800 
 40 H       -4.7120    -5.0550    -0.5760 H     1 <1>   0.1500 
 41 H       -0.5410    -5.1640     1.6700 H     1 <1>   0.1500 
 42 H       -2.0230    -7.0810     1.7130 H     1 <1>   0.1500 
@<TRIPOS>BOND
  1   1   2  2   
  2   2   3  am  
  3   2   4  1   
  4   3   5  1   
  5   3   6  1   
  6   4   7  ar  
  7   4   8  ar  
  8   5   9  1   
  9   5  24  1   
 10   5  25  1   
 11   6  10  1   
 12   6  26  1   
 13   6  27  1   
 14   7  11  ar  
 15   8  12  ar  
 16   8  28  1   
 17   9  10  1   
 18   9  13  1   
 19   9  29  1   
 20  10  14  1   
 21  10  30  1   
 22  11  15  ar  
 23  11  16  1   
 24  12  15  ar  
 25  12  17  1   
 26  13  31  1   
 27  14  18  1   
 28  14  32  1   
 29  14  33  1   
 30  16  34  1   
 31  16  35  1   
 32  16  36  1   
 33  17  37  1   
 34  17  38  1   
 35  17  39  1   
 36  18  19  ar  
 37  18  20  ar  
 38  19  21  ar  
 39  20  22  ar  
 40  20  40  1   
 41  21  23  ar  
 42  21  41  1   
 43  22  23  ar  
 44  23  42  1   
@<TRIPOS>SUBSTRUCTURE
  1 ****   3 GROUP 4 **** **** 0

# MOE 2024.06 (io_trps.svl 2023.06)
