@<TRIPOS>MOLECULE
NONAME
55 57 1 0 0 
SMALL
USER_CHARGES


@<TRIPOS>ATOM
  1 CL       4.7770     4.5010     2.6590 Cl    1 <1>  -0.1770 
  2 C        3.6270     4.5760     1.3500 C.ar  1 <1>   0.1770 
  3 C        3.7340     5.5880     0.4180 C.ar  1 <1>  -0.1500 
  4 C        2.6280     3.6250     1.2690 C.ar  1 <1>  -0.1500 
  5 C        2.8200     5.6840    -0.6290 C.ar  1 <1>   0.0860 
  6 C        1.7190     3.6940     0.2280 C.ar  1 <1>  -0.1500 
  7 C        2.9180     6.7610    -1.5940 C.2   1 <1>   0.5440 
  8 C        1.8200     4.7110    -0.7070 C.ar  1 <1>  -0.1500 
  9 O        3.9990     7.0140    -2.0910 O.2   1 <1>  -0.5700 
 10 N        1.8320     7.5440    -1.9300 N.am  1 <1>  -0.6600 
 11 C        0.7140     7.8170    -0.9930 C.3   1 <1>   0.1400 
 12 C        1.9060     8.5210    -3.0460 C.3   1 <1>   0.1400 
 13 C        0.9730     9.1700    -0.3280 C.3   1 <1>  -0.1600 
 14 C        2.2030     9.9010    -2.4570 C.3   1 <1>  -0.1600 
 15 C        1.1870    10.3000    -1.3620 C.3   1 <1>  -0.0190 
 16 C        1.6040    11.5950    -0.6710 C.2   1 <1>   0.5690 
 17 O        0.8610    12.5450    -0.7150 O.2   1 <1>  -0.5700 
 18 N        2.8100    11.6000    -0.0280 N.am  1 <1>  -0.4940 
 19 C        3.4810    12.6450     0.6500 C.2   1 <1>  -0.0880 
 20 N        4.6230    12.4860     1.3760 N.pl3 1 <1>   0.3140 
 21 C        3.1700    13.9600     0.7070 C.2   1 <1>  -0.1500 
 22 N        5.0510    13.6740     1.8760 N.2   1 <1>  -0.7070 
 23 C        5.3020    11.1770     1.6400 C.3   1 <1>   0.1760 
 24 C        4.1720    14.5400     1.4720 C.2   1 <1>   0.1390 
 25 C        6.2710    11.2630     2.8420 C.3   1 <1>  -0.1600 
 26 C        5.9830    10.6560     0.3490 C.3   1 <1>  -0.1600 
 27 C        6.8390     9.9050     3.2810 C.3   1 <1>  -0.2400 
 28 C        5.6470     9.1840     0.0580 C.3   1 <1>  -0.2400 
 29 H        4.5300     6.3050     0.4990 H     1 <1>   0.1500 
 30 H        2.5680     2.8450     2.0080 H     1 <1>   0.1500 
 31 H        0.9390     2.9560     0.1450 H     1 <1>   0.1500 
 32 H        1.1150     4.7570    -1.5200 H     1 <1>   0.1500 
 33 H        0.6380     7.0520    -0.2410 H     1 <1>   0.0800 
 34 H       -0.2130     7.8410    -1.5420 H     1 <1>   0.0800 
 35 H        0.9680     8.5330    -3.5740 H     1 <1>   0.0800 
 36 H        2.6780     8.2410    -3.7430 H     1 <1>   0.0800 
 37 H        1.8380     9.0700     0.3030 H     1 <1>   0.0800 
 38 H        0.1390     9.4190     0.3040 H     1 <1>   0.0800 
 39 H        2.1870    10.6330    -3.2460 H     1 <1>   0.0800 
 40 H        3.2030     9.8770    -2.0630 H     1 <1>   0.0800 
 41 H        0.2430    10.4810    -1.8460 H     1 <1>   0.0800 
 42 H        3.3250    10.7230    -0.1060 H     1 <1>   0.3700 
 43 H        2.3340    14.4660     0.2590 H     1 <1>   0.1500 
 44 H        4.5180    10.4950     1.9150 H     1 <1>   0.0800 
 45 H        4.2240    15.5890     1.7090 H     1 <1>   0.1500 
 46 H        5.7420    11.6890     3.6770 H     1 <1>   0.0800 
 47 H        7.0850    11.9250     2.6000 H     1 <1>   0.0800 
 48 H        7.0510    10.7660     0.4300 H     1 <1>   0.0800 
 49 H        5.6740    11.2450    -0.4980 H     1 <1>   0.0800 
 50 H        6.0440     9.2130     3.4980 H     1 <1>   0.0800 
 51 H        7.4310    10.0310     4.1710 H     1 <1>   0.0800 
 52 H        7.4710     9.4870     2.5180 H     1 <1>   0.0800 
 53 H        5.9910     8.5470     0.8520 H     1 <1>   0.0800 
 54 H        6.1270     8.8720    -0.8530 H     1 <1>   0.0800 
 55 H        4.5880     9.0430    -0.0610 H     1 <1>   0.0800 
@<TRIPOS>BOND
  1   1   2  1   
  2   2   3  ar  
  3   2   4  ar  
  4   3   5  ar  
  5   3  29  1   
  6   4   6  ar  
  7   4  30  1   
  8   5   7  1   
  9   5   8  ar  
 10   6   8  ar  
 11   6  31  1   
 12   7   9  2   
 13   7  10  am  
 14   8  32  1   
 15  10  11  1   
 16  10  12  1   
 17  11  13  1   
 18  11  33  1   
 19  11  34  1   
 20  12  14  1   
 21  12  35  1   
 22  12  36  1   
 23  13  15  1   
 24  13  37  1   
 25  13  38  1   
 26  14  15  1   
 27  14  39  1   
 28  14  40  1   
 29  15  16  1   
 30  15  41  1   
 31  16  17  2   
 32  16  18  am  
 33  18  19  1   
 34  18  42  1   
 35  19  20  1   
 36  19  21  2   
 37  20  22  1   
 38  20  23  1   
 39  21  24  1   
 40  21  43  1   
 41  22  24  2   
 42  23  25  1   
 43  23  26  1   
 44  23  44  1   
 45  24  45  1   
 46  25  27  1   
 47  25  46  1   
 48  25  47  1   
 49  26  28  1   
 50  26  48  1   
 51  26  49  1   
 52  27  50  1   
 53  27  51  1   
 54  27  52  1   
 55  28  53  1   
 56  28  54  1   
 57  28  55  1   
@<TRIPOS>SUBSTRUCTURE
  1 ****  28 GROUP 4 **** **** 0

# MOE 2024.06 (io_trps.svl 2023.06)
