@<TRIPOS>MOLECULE
NONAME
46 48 1 0 0 
SMALL
USER_CHARGES


@<TRIPOS>ATOM
  1 S        0.4260     0.8620    -0.8070 S.o2  1 <1>   1.4470 
  2 O        0.9080     0.6690    -2.1560 O.2   1 <1>  -0.6500 
  3 O        0.1410     2.2310    -0.4240 O.2   1 <1>  -0.6500 
  4 N        1.6690     0.3700     0.2440 N.am  1 <1>  -0.8490 
  5 C       -0.9780    -0.2030    -0.4180 C.ar  1 <1>  -0.0090 
  6 C        1.9810     1.2260     1.4220 C.3   1 <1>   0.1960 
  7 C        2.8180    -0.3250    -0.3620 C.3   1 <1>   0.1960 
  8 C       -0.9200    -1.5700    -0.6260 C.ar  1 <1>   0.1900 
  9 C       -2.1630     0.3010     0.1090 C.ar  1 <1>  -0.1500 
 10 C        2.9590     2.4140     1.1650 C.3   1 <1>   0.4230 
 11 C        3.9750     0.5810    -0.8530 C.3   1 <1>  -0.0800 
 12 F        0.1670    -2.1000    -1.1180 F     1 <1>  -0.1900 
 13 C       -1.9680    -2.4240    -0.3360 C.ar  1 <1>  -0.1500 
 14 C       -3.2280    -0.5360     0.4070 C.ar  1 <1>  -0.1500 
 15 N        2.8810     2.8520    -0.2810 N.4   1 <1>  -0.9590 
 16 C        4.3760     2.0780     1.7080 C.3   1 <1>   0.1200 
 17 C        5.1780     0.5680     0.1020 C.3   1 <1>   0.1200 
 18 C        3.6340     2.0200    -1.2760 C.3   1 <1>   0.3430 
 19 C       -3.1370    -1.9020     0.1890 C.ar  1 <1>  -0.1430 
 20 C        3.2410     4.3240    -0.4580 C.3   1 <1>   0.2370 
 21 O        4.7660     0.7700     1.4110 O.3   1 <1>  -0.5600 
 22 C       -4.3110    -2.8060     0.5190 C.3   1 <1>  -0.0970 
 23 C        4.6620     4.7200    -0.0570 C.2   1 <1>   0.9060 
 24 O        5.5900     4.3950    -0.8030 O.co2 1 <1>  -0.9000 
 25 O        4.8230     5.2030     1.0660 O.co2 1 <1>  -0.9000 
 26 H        1.0630     1.6260     1.8160 H     1 <1>   0.0800 
 27 H        2.3850     0.6030     2.2010 H     1 <1>   0.0800 
 28 H        3.2070    -1.0240     0.3600 H     1 <1>   0.0800 
 29 H        2.4730    -0.9220    -1.1890 H     1 <1>   0.0800 
 30 H       -2.2610     1.3590     0.2870 H     1 <1>   0.1500 
 31 H        2.6140     3.2410     1.7640 H     1 <1>   0.0800 
 32 H        4.3470     0.1160    -1.7480 H     1 <1>   0.0800 
 33 H       -1.8620    -3.4780    -0.5220 H     1 <1>   0.1500 
 34 H       -4.1340    -0.1170     0.8120 H     1 <1>   0.1500 
 35 H        1.8780     2.7710    -0.5190 H     1 <1>   0.4500 
 36 H        4.3480     2.1450     2.7810 H     1 <1>   0.0800 
 37 H        5.1370     2.7560     1.3730 H     1 <1>   0.0800 
 38 H        5.9110     1.3160    -0.1600 H     1 <1>   0.0800 
 39 H        5.6550    -0.3960     0.0740 H     1 <1>   0.0800 
 40 H        3.0580     1.9780    -2.1870 H     1 <1>   0.0800 
 41 H        4.5620     2.5150    -1.5160 H     1 <1>   0.0800 
 42 H        3.1170     4.6020    -1.4880 H     1 <1>   0.0800 
 43 H        2.5760     4.9280     0.1310 H     1 <1>   0.0800 
 44 H       -4.7490    -2.5210     1.4580 H     1 <1>   0.0800 
 45 H       -3.9950    -3.8320     0.5910 H     1 <1>   0.0800 
 46 H       -5.0590    -2.7290    -0.2510 H     1 <1>   0.0800 
@<TRIPOS>BOND
  1   1   2  2   
  2   1   3  2   
  3   1   4  am  
  4   1   5  1   
  5   4   6  1   
  6   4   7  1   
  7   5   8  ar  
  8   5   9  ar  
  9   6  10  1   
 10   6  26  1   
 11   6  27  1   
 12   7  11  1   
 13   7  28  1   
 14   7  29  1   
 15   8  12  1   
 16   8  13  ar  
 17   9  14  ar  
 18   9  30  1   
 19  10  15  1   
 20  10  16  1   
 21  10  31  1   
 22  11  17  1   
 23  11  18  1   
 24  11  32  1   
 25  13  19  ar  
 26  13  33  1   
 27  14  19  ar  
 28  14  34  1   
 29  15  18  1   
 30  15  20  1   
 31  15  35  1   
 32  16  21  1   
 33  16  36  1   
 34  16  37  1   
 35  17  21  1   
 36  17  38  1   
 37  17  39  1   
 38  18  40  1   
 39  18  41  1   
 40  19  22  1   
 41  20  23  1   
 42  20  42  1   
 43  20  43  1   
 44  22  44  1   
 45  22  45  1   
 46  22  46  1   
 47  23  24  ar  
 48  23  25  ar  
@<TRIPOS>SUBSTRUCTURE
  1 ****   4 GROUP 4 **** **** 0

# MOE 2024.06 (io_trps.svl 2023.06)
