@<TRIPOS>MOLECULE
NONAME
44 47 1 0 0 
SMALL
USER_CHARGES


@<TRIPOS>ATOM
  1 O       -1.1050    -0.6920     0.8260 O.3   1 <1>  -0.5600 
  2 C       -1.4780     0.5100     1.4230 C.3   1 <1>   0.1200 
  3 C       -1.0250    -0.7320    -0.5620 C.3   1 <1>   0.1200 
  4 C       -2.9140     0.9550     1.0650 C.3   1 <1>   0.4230 
  5 C       -2.4300    -0.8380    -1.1810 C.3   1 <1>  -0.0800 
  6 N       -2.9560     1.5190    -0.3440 N.4   1 <1>  -0.9590 
  7 C       -3.9700    -0.1400     1.4260 C.3   1 <1>   0.2090 
  8 C       -3.3540    -1.7940    -0.4050 C.3   1 <1>   0.2090 
  9 C       -3.1050     0.5120    -1.4460 C.3   1 <1>   0.3430 
 10 C       -4.0010     2.5760    -0.4810 C.3   1 <1>   0.2630 
 11 N       -4.4520    -1.0760     0.3350 N.pl3 1 <1>  -0.8380 
 12 C       -5.7650    -1.4260     0.2180 C.ar  1 <1>   0.1000 
 13 C       -6.2270    -2.7810     0.0700 C.ar  1 <1>   0.0000 
 14 C       -6.7430    -0.4270     0.2050 C.ar  1 <1>  -0.1500 
 15 C       -7.5710    -3.0160    -0.2960 C.ar  1 <1>   0.3610 
 16 C       -5.4420    -3.9240     0.3290 C.ar  1 <1>  -0.1500 
 17 C       -8.0560    -0.7000    -0.0800 C.ar  1 <1>   0.2110 
 18 N       -8.4450    -1.9560    -0.3560 N.ar  1 <1>  -0.1790 
 19 C       -8.0270    -4.3180    -0.5430 C.ar  1 <1>  -0.1500 
 20 C       -5.9070    -5.1950     0.1080 C.ar  1 <1>  -0.1500 
 21 C       -7.2050    -5.3970    -0.3520 C.ar  1 <1>  -0.1500 
 22 H       -1.4140     0.3510     2.4860 H     1 <1>   0.0800 
 23 H       -0.7570     1.2640     1.1630 H     1 <1>   0.0800 
 24 H       -0.4740     0.1210    -0.9210 H     1 <1>   0.0800 
 25 H       -0.4630    -1.6180    -0.8060 H     1 <1>   0.0800 
 26 H       -3.1080     1.7750     1.7360 H     1 <1>   0.0800 
 27 H       -2.2860    -1.2860    -2.1480 H     1 <1>   0.0800 
 28 H       -2.0410     1.9670    -0.4900 H     1 <1>   0.4500 
 29 H       -4.8160     0.3570     1.8620 H     1 <1>   0.0800 
 30 H       -3.5600    -0.7470     2.2160 H     1 <1>   0.0800 
 31 H       -2.7840    -2.3960     0.2830 H     1 <1>   0.0800 
 32 H       -3.8000    -2.4640    -1.1200 H     1 <1>   0.0800 
 33 H       -4.1520     0.3270    -1.6220 H     1 <1>   0.0800 
 34 H       -2.6980     0.9300    -2.3530 H     1 <1>   0.0800 
 35 H       -4.9810     2.1490    -0.3470 H     1 <1>   0.0800 
 36 H       -3.9530     3.0260    -1.4600 H     1 <1>   0.0800 
 37 H       -3.8550     3.3490     0.2560 H     1 <1>   0.0800 
 38 H       -6.4560     0.5890     0.3930 H     1 <1>   0.1500 
 39 H       -4.4510    -3.8100     0.7260 H     1 <1>   0.1500 
 40 H       -8.7940     0.0880    -0.0990 H     1 <1>   0.1500 
 41 H       -9.4210    -2.1650    -0.5840 H     1 <1>   0.4570 
 42 H       -9.0370    -4.4860    -0.8760 H     1 <1>   0.1500 
 43 H       -5.2770    -6.0510     0.2960 H     1 <1>   0.1500 
 44 H       -7.5470    -6.4040    -0.5370 H     1 <1>   0.1500 
@<TRIPOS>BOND
  1   1   2  1   
  2   1   3  1   
  3   2   4  1   
  4   2  22  1   
  5   2  23  1   
  6   3   5  1   
  7   3  24  1   
  8   3  25  1   
  9   4   6  1   
 10   4   7  1   
 11   4  26  1   
 12   5   8  1   
 13   5   9  1   
 14   5  27  1   
 15   6   9  1   
 16   6  10  1   
 17   6  28  1   
 18   7  11  1   
 19   7  29  1   
 20   7  30  1   
 21   8  11  1   
 22   8  31  1   
 23   8  32  1   
 24   9  33  1   
 25   9  34  1   
 26  10  35  1   
 27  10  36  1   
 28  10  37  1   
 29  11  12  1   
 30  12  13  ar  
 31  12  14  ar  
 32  13  15  ar  
 33  13  16  ar  
 34  14  17  ar  
 35  14  38  1   
 36  15  18  ar  
 37  15  19  ar  
 38  16  20  ar  
 39  16  39  1   
 40  17  18  ar  
 41  17  40  1   
 42  18  41  1   
 43  19  21  ar  
 44  19  42  1   
 45  20  21  ar  
 46  20  43  1   
 47  21  44  1   
@<TRIPOS>SUBSTRUCTURE
  1 ****  11 GROUP 4 **** **** 0

# MOE 2024.06 (io_trps.svl 2023.06)
