@<TRIPOS>MOLECULE
NONAME
50 53 1 0 0 
SMALL
USER_CHARGES


@<TRIPOS>ATOM
  1 S       -1.3150     1.0150     1.7770 S.3   1 <1>  -0.0800 
  2 C       -0.6520     2.0880     0.5630 C.2   1 <1>  -0.1400 
  3 C        0.0680     1.3110     2.8200 C.2   1 <1>  -0.1100 
  4 C        0.5260     2.6030     0.9390 C.2   1 <1>  -0.1810 
  5 C       -1.3540     2.3770    -0.7360 C.3   1 <1>   0.0200 
  6 C        0.9380     2.1610     2.2410 C.2   1 <1>  -0.1500 
  7 C        1.2970     3.5570     0.0230 C.3   1 <1>   0.4610 
  8 C       -0.7310     3.6580    -1.3130 C.3   1 <1>   0.1200 
  9 O        0.6760     3.6170    -1.2490 O.3   1 <1>  -0.5600 
 10 C        1.3520     4.9720     0.6170 C.3   1 <1>  -0.1600 
 11 C        2.7140     3.0290    -0.2250 C.3   1 <1>  -0.1600 
 12 C        2.1840     5.9140    -0.2540 C.3   1 <1>   0.1400 
 13 C        3.5390     3.9960    -1.0760 C.3   1 <1>   0.1400 
 14 N        3.5480     5.3370    -0.4230 N.am  1 <1>  -0.6600 
 15 C        4.7220     5.9290    -0.0300 C.2   1 <1>   0.5690 
 16 O        5.7920     5.3890    -0.1870 O.2   1 <1>  -0.5700 
 17 C        4.7060     7.2990     0.6230 C.3   1 <1>  -0.0990 
 18 C        6.1090     7.7880     1.0030 C.3   1 <1>   0.0960 
 19 N        6.0280     9.1380     1.5970 N.pl3 1 <1>   0.0480 
 20 C        6.1480    10.3510     1.0000 C.2   1 <1>   0.0060 
 21 C        5.7620     9.4160     2.8860 C.2   1 <1>  -0.3020 
 22 N        5.9730    11.3450     1.8100 N.2   1 <1>  -0.5650 
 23 C        6.4530    10.5460    -0.4770 C.3   1 <1>   0.0200 
 24 C        5.7330    10.7600     2.9960 C.2   1 <1>   0.0770 
 25 C        7.9550    10.4290    -0.7540 C.3   1 <1>  -0.2400 
 26 H        0.0830     0.8080     3.7710 H     1 <1>   0.1500 
 27 H       -2.4060     2.5250    -0.5710 H     1 <1>   0.0800 
 28 H       -1.2200     1.5560    -1.4170 H     1 <1>   0.0800 
 29 H        1.8610     2.4950     2.6800 H     1 <1>   0.1500 
 30 H       -1.0730     4.5190    -0.7670 H     1 <1>   0.0800 
 31 H       -1.0090     3.7730    -2.3460 H     1 <1>   0.0800 
 32 H        1.7960     4.9270     1.5950 H     1 <1>   0.0800 
 33 H        0.3590     5.3590     0.7400 H     1 <1>   0.0800 
 34 H        2.6540     2.0730    -0.7120 H     1 <1>   0.0800 
 35 H        3.2220     2.8850     0.7100 H     1 <1>   0.0800 
 36 H        2.2180     6.8870     0.1990 H     1 <1>   0.0800 
 37 H        1.7250     6.0150    -1.2240 H     1 <1>   0.0800 
 38 H        3.1060     4.0840    -2.0580 H     1 <1>   0.0800 
 39 H        4.5400     3.6150    -1.1880 H     1 <1>   0.0800 
 40 H        4.1030     7.2460     1.5110 H     1 <1>   0.0800 
 41 H        4.2650     7.9970    -0.0650 H     1 <1>   0.0800 
 42 H        6.7400     7.8190     0.1340 H     1 <1>   0.0800 
 43 H        6.5540     7.1190     1.7180 H     1 <1>   0.0800 
 44 H        5.6100     8.6630     3.6380 H     1 <1>   0.1500 
 45 H        6.1200    11.5270    -0.7670 H     1 <1>   0.0800 
 46 H        5.9090     9.8300    -1.0650 H     1 <1>   0.0800 
 47 H        5.5500    11.3480     3.8800 H     1 <1>   0.1500 
 48 H        8.4870    11.1650    -0.1760 H     1 <1>   0.0800 
 49 H        8.1540    10.5980    -1.7970 H     1 <1>   0.0800 
 50 H        8.3180     9.4540    -0.4840 H     1 <1>   0.0800 
@<TRIPOS>BOND
  1   1   2  1   
  2   1   3  1   
  3   2   4  2   
  4   2   5  1   
  5   3   6  2   
  6   3  26  1   
  7   4   6  1   
  8   4   7  1   
  9   5   8  1   
 10   5  27  1   
 11   5  28  1   
 12   6  29  1   
 13   7   9  1   
 14   7  10  1   
 15   7  11  1   
 16   8   9  1   
 17   8  30  1   
 18   8  31  1   
 19  10  12  1   
 20  10  32  1   
 21  10  33  1   
 22  11  13  1   
 23  11  34  1   
 24  11  35  1   
 25  12  14  1   
 26  12  36  1   
 27  12  37  1   
 28  13  14  1   
 29  13  38  1   
 30  13  39  1   
 31  14  15  am  
 32  15  16  2   
 33  15  17  1   
 34  17  18  1   
 35  17  40  1   
 36  17  41  1   
 37  18  19  1   
 38  18  42  1   
 39  18  43  1   
 40  19  20  1   
 41  19  21  1   
 42  20  22  2   
 43  20  23  1   
 44  21  24  2   
 45  21  44  1   
 46  22  24  1   
 47  23  25  1   
 48  23  45  1   
 49  23  46  1   
 50  24  47  1   
 51  25  48  1   
 52  25  49  1   
 53  25  50  1   
@<TRIPOS>SUBSTRUCTURE
  1 ****  14 GROUP 4 **** **** 0

# MOE 2024.06 (io_trps.svl 2023.06)
