@<TRIPOS>MOLECULE
NONAME
44 45 1 0 0 
SMALL
USER_CHARGES


@<TRIPOS>ATOM
  1 S        0.0370    -0.1560    -0.6970 S.o2  1 <1>   1.3330 
  2 O        0.6670    -0.2910    -1.9910 O.2   1 <1>  -0.6500 
  3 O       -0.9370    -1.1350    -0.2690 O.2   1 <1>  -0.6500 
  4 N        1.2620    -0.1120     0.4790 N.am  1 <1>  -0.8490 
  5 C       -0.6980     1.4790    -0.6160 C.3   1 <1>  -0.0550 
  6 C        0.7720    -0.3310     1.8450 C.3   1 <1>   0.1160 
  7 C        2.3510    -1.0470     0.1850 C.3   1 <1>   0.1160 
  8 C        0.2470     2.6300    -1.0270 C.3   1 <1>  -0.0800 
  9 C       -0.4580     3.9780    -1.2130 C.3   1 <1>   0.2000 
 10 C        1.3720     2.9240    -0.0220 C.3   1 <1>   0.1400 
 11 O       -1.3410     4.1750    -0.1610 O.3   1 <1>  -0.6800 
 12 C        0.6690     4.9980    -1.0770 C.3   1 <1>   0.1400 
 13 N        1.5610     4.3980    -0.0540 N.am  1 <1>  -0.6600 
 14 C        2.2140     5.0860     0.9370 C.2   1 <1>   0.5440 
 15 O        2.6500     4.4730     1.8890 O.2   1 <1>  -0.5700 
 16 C        2.3580     6.5280     0.8820 C.ar  1 <1>   0.0860 
 17 C        3.3330     7.1830     0.1140 C.ar  1 <1>  -0.1440 
 18 C        1.4730     7.3040     1.6300 C.ar  1 <1>  -0.1500 
 19 C        3.3740     8.5750     0.1040 C.ar  1 <1>  -0.1500 
 20 C        4.3430     6.3690    -0.7120 C.3   1 <1>   1.1630 
 21 C        1.5250     8.6830     1.6140 C.ar  1 <1>  -0.1500 
 22 C        2.4770     9.3210     0.8460 C.ar  1 <1>  -0.1500 
 23 F        4.9650     5.4320    -0.0130 F     1 <1>  -0.3400 
 24 F        5.3040     7.1230    -1.2340 F     1 <1>  -0.3400 
 25 F        3.7690     5.7610    -1.7420 F     1 <1>  -0.3400 
 26 H       -1.5430     1.4940    -1.2770 H     1 <1>   0.0800 
 27 H       -1.0710     1.6540     0.3740 H     1 <1>   0.0800 
 28 H        1.5740    -0.1970     2.5500 H     1 <1>   0.0800 
 29 H        0.3770    -1.3290     1.9480 H     1 <1>   0.0800 
 30 H       -0.0060     0.3730     2.0800 H     1 <1>   0.0800 
 31 H        3.1180    -0.9760     0.9380 H     1 <1>   0.0800 
 32 H        2.7950    -0.8090    -0.7680 H     1 <1>   0.0800 
 33 H        1.9780    -2.0570     0.1500 H     1 <1>   0.0800 
 34 H        0.7110     2.3760    -1.9650 H     1 <1>   0.0800 
 35 H       -0.9990     4.0590    -2.1400 H     1 <1>   0.0800 
 36 H        2.2850     2.4220    -0.2960 H     1 <1>   0.0800 
 37 H        1.0930     2.6250     0.9740 H     1 <1>   0.0800 
 38 H       -0.8230     4.2550     0.6660 H     1 <1>   0.4000 
 39 H        0.2970     5.9650    -0.7870 H     1 <1>   0.0800 
 40 H        1.2040     5.0780    -2.0070 H     1 <1>   0.0800 
 41 H        0.7330     6.8090     2.2360 H     1 <1>   0.1500 
 42 H        4.1090     9.1040    -0.4810 H     1 <1>   0.1500 
 43 H        0.8280     9.2590     2.2000 H     1 <1>   0.1500 
 44 H        2.5230    10.3980     0.8290 H     1 <1>   0.1500 
@<TRIPOS>BOND
  1   1   2  2   
  2   1   3  2   
  3   1   4  am  
  4   1   5  1   
  5   4   6  1   
  6   4   7  1   
  7   5   8  1   
  8   5  26  1   
  9   5  27  1   
 10   6  28  1   
 11   6  29  1   
 12   6  30  1   
 13   7  31  1   
 14   7  32  1   
 15   7  33  1   
 16   8   9  1   
 17   8  10  1   
 18   8  34  1   
 19   9  11  1   
 20   9  12  1   
 21   9  35  1   
 22  10  13  1   
 23  10  36  1   
 24  10  37  1   
 25  11  38  1   
 26  12  13  1   
 27  12  39  1   
 28  12  40  1   
 29  13  14  am  
 30  14  15  2   
 31  14  16  1   
 32  16  17  ar  
 33  16  18  ar  
 34  17  19  ar  
 35  17  20  1   
 36  18  21  ar  
 37  18  41  1   
 38  19  22  ar  
 39  19  42  1   
 40  20  23  1   
 41  20  24  1   
 42  20  25  1   
 43  21  22  ar  
 44  21  43  1   
 45  22  44  1   
@<TRIPOS>SUBSTRUCTURE
  1 ****  13 GROUP 4 **** **** 0

# MOE 2024.06 (io_trps.svl 2023.06)
