@<TRIPOS>MOLECULE
NONAME
18 18 1 0 0 
SMALL
USER_CHARGES


@<TRIPOS>ATOM
  1 O       -0.2400    -0.9380     0.3920 O.co2 1 <1>  -0.9000 
  2 C       -1.1040    -1.0160    -0.5010 C.2   1 <1>   0.9060 
  3 O       -0.8830    -1.6010    -1.5730 O.co2 1 <1>  -0.9000 
  4 C       -2.4560    -0.2910    -0.2600 C.3   1 <1>   0.1890 
  5 O       -2.2660     0.7020     0.7120 O.3   1 <1>  -0.6800 
  6 C       -3.6510    -1.1710     0.2060 C.3   1 <1>  -0.1900 
  7 C       -3.4210    -2.2560     1.2100 C.3   1 <1>  -0.2000 
  8 C       -3.7500    -2.6020    -0.2200 C.3   1 <1>  -0.2000 
  9 C       -4.9630    -0.3780     0.2890 C.3   1 <1>  -0.1450 
 10 H       -2.7150     0.2020    -1.1770 H     1 <1>   0.0800 
 11 H       -1.3960     0.4550     1.1150 H     1 <1>   0.4000 
 12 H       -4.1590    -2.4190     1.9750 H     1 <1>   0.1000 
 13 H       -2.4180    -2.4240     1.5640 H     1 <1>   0.1000 
 14 H       -2.9740    -3.0260    -0.8350 H     1 <1>   0.1000 
 15 H       -4.7160    -3.0210    -0.4410 H     1 <1>   0.1000 
 16 H       -4.8690     0.4160     1.0080 H     1 <1>   0.0800 
 17 H       -5.7780    -1.0130     0.5880 H     1 <1>   0.0800 
 18 H       -5.1930     0.0510    -0.6700 H     1 <1>   0.0800 
@<TRIPOS>BOND
  1   1   2  ar  
  2   2   3  ar  
  3   2   4  1   
  4   4   5  1   
  5   4   6  1   
  6   4  10  1   
  7   5  11  1   
  8   6   7  1   
  9   6   8  1   
 10   6   9  1   
 11   7   8  1   
 12   7  12  1   
 13   7  13  1   
 14   8  14  1   
 15   8  15  1   
 16   9  16  1   
 17   9  17  1   
 18   9  18  1   
@<TRIPOS>SUBSTRUCTURE
  1 ****   4 GROUP 4 **** **** 0

# MOE 2024.06 (io_trps.svl 2023.06)
