@<TRIPOS>MOLECULE
NONAME
51 53 1 0 0 
SMALL
USER_CHARGES


@<TRIPOS>ATOM
  1 O        1.0990     0.1440    -0.2930 O.2   1 <1>  -0.5700 
  2 C        2.0810    -0.4080     0.1680 C.2   1 <1>   0.7160 
  3 N        2.9690     0.3650     0.9040 N.am  1 <1>  -0.6600 
  4 C        2.3020    -1.8210    -0.1140 C.2   1 <1>   0.2030 
  5 C        4.0500    -0.1950     1.7730 C.3   1 <1>   0.1400 
  6 C        2.9510     1.8500     0.8300 C.3   1 <1>   0.1400 
  7 N        3.4380    -2.4600    -0.1060 N.2   1 <1>  -0.4100 
  8 C        1.3080    -2.7190    -0.4740 C.2   1 <1>  -0.1500 
  9 C        5.4150    -0.2450     1.0560 C.3   1 <1>   0.3430 
 10 C        3.7940     2.3280    -0.3580 C.3   1 <1>  -0.1600 
 11 O        3.2570    -3.7180    -0.4260 O.3   1 <1>  -0.0190 
 12 C        1.9690    -3.8650    -0.6490 C.2   1 <1>  -0.0400 
 13 N        5.7960     1.0510     0.4050 N.4   1 <1>  -0.9590 
 14 C        4.9510     1.4090    -0.7660 C.3   1 <1>   0.3430 
 15 C        1.4520    -5.2310    -1.0500 C.3   1 <1>  -0.0600 
 16 C        7.2390     1.1060     0.0630 C.3   1 <1>   0.5230 
 17 C        7.6880     2.5470     0.2670 C.2   1 <1>   0.0070 
 18 N        7.0180     3.3950     0.9920 N.2   1 <1>  -0.5650 
 19 N        8.8200     3.0650    -0.2770 N.pl3 1 <1>   0.0480 
 20 C        7.7480     4.5230     0.9210 C.2   1 <1>   0.0770 
 21 C        8.8430     4.3390     0.1550 C.2   1 <1>  -0.3020 
 22 C        9.8270     2.4580    -1.1820 C.3   1 <1>   0.0960 
 23 C       10.7150     1.4390    -0.4620 C.3   1 <1>   0.1200 
 24 O        9.9490     0.3360    -0.0830 O.3   1 <1>  -0.5600 
 25 C       10.6950    -0.6640     0.5420 C.3   1 <1>   0.0400 
 26 H        3.7830    -1.1850     2.1000 H     1 <1>   0.0800 
 27 H        4.1400     0.4060     2.6620 H     1 <1>   0.0800 
 28 H        3.3430     2.2610     1.7450 H     1 <1>   0.0800 
 29 H        1.9390     2.2080     0.7290 H     1 <1>   0.0800 
 30 H        0.2620    -2.4920    -0.5770 H     1 <1>   0.1500 
 31 H        5.3890    -1.0260     0.3130 H     1 <1>   0.0800 
 32 H        6.1640    -0.5170     1.7820 H     1 <1>   0.0800 
 33 H        4.1730     3.3120    -0.1480 H     1 <1>   0.0800 
 34 H        3.1410     2.4260    -1.2070 H     1 <1>   0.0800 
 35 H        5.7200     1.8390     1.0740 H     1 <1>   0.4500 
 36 H        5.5440     1.9220    -1.5060 H     1 <1>   0.0800 
 37 H        4.5560     0.5110    -1.2150 H     1 <1>   0.0800 
 38 H        0.3880    -5.1980    -1.1990 H     1 <1>   0.0800 
 39 H        1.6750    -5.9470    -0.2800 H     1 <1>   0.0800 
 40 H        1.9220    -5.5460    -1.9650 H     1 <1>   0.0800 
 41 H        7.4120     0.7850    -0.9500 H     1 <1>   0.0800 
 42 H        7.8030     0.4760     0.7300 H     1 <1>   0.0800 
 43 H        7.4460     5.4240     1.4330 H     1 <1>   0.1500 
 44 H        9.6180     5.0420    -0.0970 H     1 <1>   0.1500 
 45 H       10.4470     3.2450    -1.5700 H     1 <1>   0.0800 
 46 H        9.3300     1.9900    -2.0110 H     1 <1>   0.0800 
 47 H       11.1620     1.8790     0.4140 H     1 <1>   0.0800 
 48 H       11.4920     1.1010    -1.1270 H     1 <1>   0.0800 
 49 H       10.0340    -1.4730     0.7980 H     1 <1>   0.0800 
 50 H       11.1460    -0.2680     1.4370 H     1 <1>   0.0800 
 51 H       11.4540    -1.0210    -0.1340 H     1 <1>   0.0800 
@<TRIPOS>BOND
  1   1   2  2   
  2   2   3  am  
  3   2   4  1   
  4   3   5  1   
  5   3   6  1   
  6   4   7  2   
  7   4   8  1   
  8   5   9  1   
  9   5  26  1   
 10   5  27  1   
 11   6  10  1   
 12   6  28  1   
 13   6  29  1   
 14   7  11  1   
 15   8  12  2   
 16   8  30  1   
 17   9  13  1   
 18   9  31  1   
 19   9  32  1   
 20  10  14  1   
 21  10  33  1   
 22  10  34  1   
 23  11  12  1   
 24  12  15  1   
 25  13  14  1   
 26  13  16  1   
 27  13  35  1   
 28  14  36  1   
 29  14  37  1   
 30  15  38  1   
 31  15  39  1   
 32  15  40  1   
 33  16  17  1   
 34  16  41  1   
 35  16  42  1   
 36  17  18  2   
 37  17  19  1   
 38  18  20  1   
 39  19  21  1   
 40  19  22  1   
 41  20  21  2   
 42  20  43  1   
 43  21  44  1   
 44  22  23  1   
 45  22  45  1   
 46  22  46  1   
 47  23  24  1   
 48  23  47  1   
 49  23  48  1   
 50  24  25  1   
 51  25  49  1   
 52  25  50  1   
 53  25  51  1   
@<TRIPOS>SUBSTRUCTURE
  1 ****  13 GROUP 4 **** **** 0

# MOE 2024.06 (io_trps.svl 2023.06)
