@<TRIPOS>MOLECULE
NONAME
49 52 1 0 0 
SMALL
USER_CHARGES


@<TRIPOS>ATOM
  1 O        1.0480     0.2210     1.7690 O.2   1 <1>  -0.5700 
  2 C        1.5240    -0.5470     0.9660 C.2   1 <1>   0.5690 
  3 N        0.8430    -1.6770     0.6470 N.am  1 <1>  -0.7300 
  4 C        2.8890    -0.2440     0.3100 C.3   1 <1>   0.2810 
  5 C        1.2280    -2.6740    -0.3780 C.3   1 <1>   0.1400 
  6 N        3.0540     1.1900    -0.0500 N.am  1 <1>  -0.7300 
  7 C        3.1180    -1.0770    -0.9610 C.3   1 <1>  -0.1600 
  8 C        2.7140    -2.5420    -0.7300 C.3   1 <1>  -0.1600 
  9 C        4.1150     1.9660     0.2870 C.2   1 <1>   0.7160 
 10 O        5.1270     1.4110     0.6680 O.2   1 <1>  -0.5700 
 11 C        4.0240     3.3940     0.1950 C.2   1 <1>  -0.0860 
 12 C        2.8480     4.1370     0.0120 C.2   1 <1>   0.3720 
 13 C        4.9860     4.3560     0.2760 C.2   1 <1>   0.0870 
 14 N        3.0920     5.4000    -0.0040 N.2   1 <1>  -0.4100 
 15 N        1.5550     3.6100    -0.1260 N.pl3 1 <1>  -0.8210 
 16 O        4.3810     5.5110     0.1590 O.3   1 <1>  -0.0190 
 17 C        6.4190     4.3350     0.4410 C.ar  1 <1>   0.0530 
 18 C        0.8490     3.4520     1.1870 C.3   1 <1>   0.2090 
 19 C        0.6810     4.3650    -1.0810 C.3   1 <1>   0.2090 
 20 C        7.2280     3.4030    -0.2080 C.ar  1 <1>  -0.1500 
 21 C        7.0510     5.2780     1.2520 C.ar  1 <1>  -0.1500 
 22 C       -0.5630     2.8680     0.9960 C.3   1 <1>   0.1200 
 23 C       -0.7150     3.7270    -1.1790 C.3   1 <1>   0.1200 
 24 C        8.6020     3.4050    -0.0500 C.ar  1 <1>  -0.1500 
 25 C        8.4250     5.2880     1.4140 C.ar  1 <1>  -0.1500 
 26 O       -1.3070     3.6320     0.0860 O.3   1 <1>  -0.5600 
 27 C        9.2040     4.3490     0.7630 C.ar  1 <1>  -0.1500 
 28 H       -0.0580    -1.8110     1.1130 H     1 <1>   0.3700 
 29 H        3.6410    -0.5130     1.0320 H     1 <1>   0.0800 
 30 H        0.6290    -2.5110    -1.2590 H     1 <1>   0.0800 
 31 H        1.0270    -3.6660    -0.0090 H     1 <1>   0.0800 
 32 H        2.1800     1.7120    -0.2110 H     1 <1>   0.3700 
 33 H        4.1570    -1.0230    -1.2340 H     1 <1>   0.0800 
 34 H        2.5280    -0.6730    -1.7660 H     1 <1>   0.0800 
 35 H        2.9180    -3.1170    -1.6160 H     1 <1>   0.0800 
 36 H        3.3050    -2.9590     0.0680 H     1 <1>   0.0800 
 37 H        0.7710     4.4100     1.6720 H     1 <1>   0.0800 
 38 H        1.4180     2.8020     1.8290 H     1 <1>   0.0800 
 39 H        1.1420     4.3740    -2.0530 H     1 <1>   0.0800 
 40 H        0.5740     5.3860    -0.7540 H     1 <1>   0.0800 
 41 H        6.7760     2.6650    -0.8460 H     1 <1>   0.1500 
 42 H        6.4550     6.0130     1.7630 H     1 <1>   0.1500 
 43 H       -1.0910     2.8630     1.9330 H     1 <1>   0.0800 
 44 H       -0.5090     1.8580     0.6290 H     1 <1>   0.0800 
 45 H       -0.6510     2.7410    -1.6050 H     1 <1>   0.0800 
 46 H       -1.3560     4.3310    -1.7950 H     1 <1>   0.0800 
 47 H        9.2030     2.6710    -0.5580 H     1 <1>   0.1500 
 48 H        8.8880     6.0250     2.0460 H     1 <1>   0.1500 
 49 H       10.2730     4.3520     0.8870 H     1 <1>   0.1500 
@<TRIPOS>BOND
  1   1   2  2   
  2   2   3  am  
  3   2   4  1   
  4   3   5  1   
  5   3  28  1   
  6   4   6  1   
  7   4   7  1   
  8   4  29  1   
  9   5   8  1   
 10   5  30  1   
 11   5  31  1   
 12   6   9  am  
 13   6  32  1   
 14   7   8  1   
 15   7  33  1   
 16   7  34  1   
 17   8  35  1   
 18   8  36  1   
 19   9  10  2   
 20   9  11  1   
 21  11  12  1   
 22  11  13  2   
 23  12  14  2   
 24  12  15  1   
 25  13  16  1   
 26  13  17  1   
 27  14  16  1   
 28  15  18  1   
 29  15  19  1   
 30  17  20  ar  
 31  17  21  ar  
 32  18  22  1   
 33  18  37  1   
 34  18  38  1   
 35  19  23  1   
 36  19  39  1   
 37  19  40  1   
 38  20  24  ar  
 39  20  41  1   
 40  21  25  ar  
 41  21  42  1   
 42  22  26  1   
 43  22  43  1   
 44  22  44  1   
 45  23  26  1   
 46  23  45  1   
 47  23  46  1   
 48  24  27  ar  
 49  24  47  1   
 50  25  27  ar  
 51  25  48  1   
 52  27  49  1   
@<TRIPOS>SUBSTRUCTURE
  1 ****   9 GROUP 4 **** **** 0

# MOE 2024.06 (io_trps.svl 2023.06)
