@<TRIPOS>MOLECULE
NONAME
43 46 1 0 0 
SMALL
USER_CHARGES


@<TRIPOS>ATOM
  1 N        0.0110     1.5950    -0.0560 N.pl3 1 <1>   0.0330 
  2 C       -1.2470     1.0940    -0.0300 C.ar  1 <1>  -0.1520 
  3 C        0.7500     0.7990     0.7600 C.2   1 <1>   0.0060 
  4 C       -1.1870    -0.0010     0.8090 C.ar  1 <1>   0.2270 
  5 C       -2.4420     1.4800    -0.6400 C.ar  1 <1>  -0.1500 
  6 N        0.0780    -0.1650     1.2940 N.2   1 <1>  -0.5650 
  7 C        2.2330     1.0430     1.0040 C.3   1 <1>   0.2900 
  8 C       -2.3360    -0.7500     1.0490 C.ar  1 <1>  -0.1500 
  9 C       -3.5780     0.7370    -0.3990 C.ar  1 <1>  -0.1440 
 10 N        2.6930     2.3400     0.4590 N.3   1 <1>  -0.8100 
 11 C       -3.5200    -0.3800     0.4470 C.ar  1 <1>  -0.1500 
 12 C       -4.9030     1.1100    -1.0370 C.3   1 <1>  -0.0970 
 13 C        2.1420     3.4990     1.1960 C.3   1 <1>   0.2900 
 14 C        4.1540     2.3920     0.3490 C.3   1 <1>   0.0300 
 15 C        1.6930     4.5700     0.2090 C.2   1 <1>   0.0060 
 16 N        0.5580     4.5280    -0.4240 N.2   1 <1>  -0.5650 
 17 N        2.4430     5.6610    -0.0910 N.pl3 1 <1>   0.2940 
 18 C        0.5710     5.6410    -1.1790 C.2   1 <1>   0.0770 
 19 C        1.7100     6.3400    -0.9900 C.2   1 <1>  -0.3020 
 20 C        3.7760     6.0660     0.4190 C.3   1 <1>  -0.0910 
 21 C        3.9530     6.4010     1.8720 C.3   1 <1>  -0.2000 
 22 C        4.0050     7.4870     0.8460 C.3   1 <1>  -0.2000 
 23 H        0.3410     2.4660    -0.4990 H     1 <1>   0.2700 
 24 H       -2.4510     2.3440    -1.2810 H     1 <1>   0.1500 
 25 H        2.7700     0.2440     0.5220 H     1 <1>   0.0800 
 26 H        2.4360     0.9890     2.0590 H     1 <1>   0.0800 
 27 H       -2.2690    -1.6000     1.7020 H     1 <1>   0.1500 
 28 H       -4.4130    -0.9520     0.6270 H     1 <1>   0.1500 
 29 H       -4.7960     1.9790    -1.6610 H     1 <1>   0.0800 
 30 H       -5.6290     1.3240    -0.2730 H     1 <1>   0.0800 
 31 H       -5.2600     0.2960    -1.6410 H     1 <1>   0.0800 
 32 H        2.8650     3.8860     1.8910 H     1 <1>   0.0800 
 33 H        1.2780     3.2040     1.7670 H     1 <1>   0.0800 
 34 H        4.5070     1.5650    -0.2440 H     1 <1>   0.0800 
 35 H        4.6100     2.3450     1.3240 H     1 <1>   0.0800 
 36 H        4.4530     3.3010    -0.1410 H     1 <1>   0.0800 
 37 H       -0.2530     5.8850    -1.8300 H     1 <1>   0.1500 
 38 H        2.0350     7.2620    -1.4330 H     1 <1>   0.1500 
 39 H        4.5720     5.5710    -0.1080 H     1 <1>   0.1000 
 40 H        4.8720     6.1350     2.3660 H     1 <1>   0.1000 
 41 H        3.1040     6.3740     2.5330 H     1 <1>   0.1000 
 42 H        3.1900     8.1900     0.8050 H     1 <1>   0.1000 
 43 H        4.9570     7.9480     0.6450 H     1 <1>   0.1000 
@<TRIPOS>BOND
  1   1   2  1   
  2   1   3  1   
  3   1  23  1   
  4   2   4  ar  
  5   2   5  ar  
  6   3   6  2   
  7   3   7  1   
  8   4   6  1   
  9   4   8  ar  
 10   5   9  ar  
 11   5  24  1   
 12   7  10  1   
 13   7  25  1   
 14   7  26  1   
 15   8  11  ar  
 16   8  27  1   
 17   9  11  ar  
 18   9  12  1   
 19  10  13  1   
 20  10  14  1   
 21  11  28  1   
 22  12  29  1   
 23  12  30  1   
 24  12  31  1   
 25  13  15  1   
 26  13  32  1   
 27  13  33  1   
 28  14  34  1   
 29  14  35  1   
 30  14  36  1   
 31  15  16  2   
 32  15  17  1   
 33  16  18  1   
 34  17  19  1   
 35  17  20  1   
 36  18  19  2   
 37  18  37  1   
 38  19  38  1   
 39  20  21  1   
 40  20  22  1   
 41  20  39  1   
 42  21  22  1   
 43  21  40  1   
 44  21  41  1   
 45  22  42  1   
 46  22  43  1   
@<TRIPOS>SUBSTRUCTURE
  1 ****   1 GROUP 4 **** **** 0

# MOE 2024.06 (io_trps.svl 2023.06)
