@<TRIPOS>MOLECULE
NONAME
55 58 1 0 0 
SMALL
USER_CHARGES


@<TRIPOS>ATOM
  1 O       -1.4440     0.1330    -1.7610 O.2   1 <1>  -0.5700 
  2 C       -1.7030     0.4180    -0.6040 C.2   1 <1>   0.7160 
  3 N       -2.0720    -0.5870     0.2670 N.am  1 <1>  -0.6600 
  4 C       -1.6260     1.7840    -0.1970 C.2   1 <1>  -0.0860 
  5 C       -2.3000    -1.9860    -0.1920 C.3   1 <1>   0.1400 
  6 C       -2.4610    -0.3450     1.6840 C.3   1 <1>   0.1400 
  7 C       -2.7170     2.6280     0.0280 C.2   1 <1>   0.3720 
  8 C       -0.5520     2.5590     0.1050 C.2   1 <1>   0.0870 
  9 C       -3.7880    -2.3400    -0.0490 C.3   1 <1>  -0.0800 
 10 C       -3.9400    -0.6960     1.8760 C.3   1 <1>  -0.1600 
 11 N       -2.3260     3.7860     0.4350 N.2   1 <1>  -0.4100 
 12 N       -4.0630     2.2710    -0.1300 N.pl3 1 <1>  -0.8210 
 13 O       -1.0210     3.7260     0.4700 O.3   1 <1>  -0.0190 
 14 C        0.8680     2.3110     0.1140 C.ar  1 <1>   0.0530 
 15 C       -4.2600    -2.1220     1.4020 C.3   1 <1>  -0.1600 
 16 C       -4.0270    -3.7800    -0.5190 C.3   1 <1>   0.1200 
 17 C       -5.0670     3.1850     0.4960 C.3   1 <1>   0.2090 
 18 C       -4.4810     1.9090    -1.5200 C.3   1 <1>   0.2090 
 19 C        1.6890     2.9270     1.0590 C.ar  1 <1>  -0.1500 
 20 C        1.4780     1.4580    -0.8060 C.ar  1 <1>  -0.1500 
 21 O       -5.3890    -4.0580    -0.4590 O.3   1 <1>  -0.5600 
 22 C       -6.4860     2.5980     0.3880 C.3   1 <1>   0.1200 
 23 C       -5.9250     1.3760    -1.5320 C.3   1 <1>   0.1200 
 24 C        3.0520     2.6960     1.0930 C.ar  1 <1>  -0.1500 
 25 C        2.8400     1.2210    -0.7760 C.ar  1 <1>  -0.1500 
 26 C       -5.7230    -5.3470    -0.8590 C.3   1 <1>   0.0400 
 27 O       -6.8030     2.2950    -0.9430 O.3   1 <1>  -0.5600 
 28 C        3.6310     1.8390     0.1750 C.ar  1 <1>  -0.1500 
 29 H       -1.7040    -2.6500     0.4100 H     1 <1>   0.0800 
 30 H       -1.9960    -2.1060    -1.2170 H     1 <1>   0.0800 
 31 H       -2.2940     0.6790     1.9670 H     1 <1>   0.0800 
 32 H       -1.8550    -0.9670     2.3210 H     1 <1>   0.0800 
 33 H       -4.3410    -1.6880    -0.7030 H     1 <1>   0.0800 
 34 H       -4.5370     0.0070     1.3230 H     1 <1>   0.0800 
 35 H       -4.1980    -0.5940     2.9150 H     1 <1>   0.0800 
 36 H       -3.7730    -2.8300     2.0500 H     1 <1>   0.0800 
 37 H       -5.3210    -2.2890     1.4680 H     1 <1>   0.0800 
 38 H       -3.5060    -4.4770     0.1150 H     1 <1>   0.0800 
 39 H       -3.7000    -3.9010    -1.5390 H     1 <1>   0.0800 
 40 H       -5.0400     4.1440     0.0070 H     1 <1>   0.0800 
 41 H       -4.8190     3.3310     1.5330 H     1 <1>   0.0800 
 42 H       -3.8320     1.1540    -1.9230 H     1 <1>   0.0800 
 43 H       -4.4150     2.7770    -2.1530 H     1 <1>   0.0800 
 44 H        1.2510     3.5960     1.7790 H     1 <1>   0.1500 
 45 H        0.8860     0.9770    -1.5630 H     1 <1>   0.1500 
 46 H       -7.2090     3.3090     0.7440 H     1 <1>   0.0800 
 47 H       -6.5640     1.6990     0.9730 H     1 <1>   0.0800 
 48 H       -5.9840     0.4460    -0.9940 H     1 <1>   0.0800 
 49 H       -6.2500     1.2130    -2.5440 H     1 <1>   0.0800 
 50 H        3.6630     3.1820     1.8330 H     1 <1>   0.1500 
 51 H        3.2850     0.5570    -1.4970 H     1 <1>   0.1500 
 52 H       -6.7900    -5.4550    -0.7760 H     1 <1>   0.0800 
 53 H       -5.2350    -6.0570    -0.2140 H     1 <1>   0.0800 
 54 H       -5.4220    -5.4920    -1.8820 H     1 <1>   0.0800 
 55 H        4.6910     1.6550     0.1990 H     1 <1>   0.1500 
@<TRIPOS>BOND
  1   1   2  2   
  2   2   3  am  
  3   2   4  1   
  4   3   5  1   
  5   3   6  1   
  6   4   7  1   
  7   4   8  2   
  8   5   9  1   
  9   5  29  1   
 10   5  30  1   
 11   6  10  1   
 12   6  31  1   
 13   6  32  1   
 14   7  11  2   
 15   7  12  1   
 16   8  13  1   
 17   8  14  1   
 18   9  15  1   
 19   9  16  1   
 20   9  33  1   
 21  10  15  1   
 22  10  34  1   
 23  10  35  1   
 24  11  13  1   
 25  12  17  1   
 26  12  18  1   
 27  14  19  ar  
 28  14  20  ar  
 29  15  36  1   
 30  15  37  1   
 31  16  21  1   
 32  16  38  1   
 33  16  39  1   
 34  17  22  1   
 35  17  40  1   
 36  17  41  1   
 37  18  23  1   
 38  18  42  1   
 39  18  43  1   
 40  19  24  ar  
 41  19  44  1   
 42  20  25  ar  
 43  20  45  1   
 44  21  26  1   
 45  22  27  1   
 46  22  46  1   
 47  22  47  1   
 48  23  27  1   
 49  23  48  1   
 50  23  49  1   
 51  24  28  ar  
 52  24  50  1   
 53  25  28  ar  
 54  25  51  1   
 55  26  52  1   
 56  26  53  1   
 57  26  54  1   
 58  28  55  1   
@<TRIPOS>SUBSTRUCTURE
  1 ****   2 GROUP 4 **** **** 0

# MOE 2024.06 (io_trps.svl 2023.06)
