@<TRIPOS>MOLECULE
NONAME
52 56 1 0 0 
SMALL
USER_CHARGES


@<TRIPOS>ATOM
  1 F       -1.0260    -0.0450     1.1540 F     1 <1>  -0.1370 
  2 C       -1.9430     0.3770     0.3190 C.2   1 <1>  -0.0150 
  3 N       -2.0940     1.6770     0.0670 N.pl3 1 <1>   0.3340 
  4 C       -2.8450    -0.3670    -0.3820 C.2   1 <1>   0.1410 
  5 C       -3.1440     1.6950    -0.8220 C.2   1 <1>   0.1410 
  6 C       -1.4740     2.8490     0.4900 C.2   1 <1>  -0.1810 
  7 N       -3.6140     0.5000    -1.1060 N.2   1 <1>  -0.5650 
  8 C       -2.9620    -1.8200    -0.3890 C.2   1 <1>   0.7160 
  9 C       -3.5850     2.9520    -1.3110 C.2   1 <1>  -0.1050 
 10 C       -1.8990     4.0530     0.0240 C.2   1 <1>  -0.1380 
 11 O       -1.9580    -2.4970    -0.2390 O.2   1 <1>  -0.5700 
 12 N       -4.1660    -2.4840    -0.5560 N.am  1 <1>  -0.6600 
 13 C       -2.9800     4.1020    -0.9000 C.2   1 <1>  -0.1500 
 14 C       -1.2570     5.3590     0.4540 C.3   1 <1>  -0.1020 
 15 C       -5.5110    -1.8400    -0.4340 C.3   1 <1>   0.1400 
 16 C       -4.2340    -3.9440    -0.8770 C.3   1 <1>   0.1400 
 17 C       -6.4390    -2.6440     0.4980 C.3   1 <1>   0.1900 
 18 C       -5.1930    -4.6810     0.0710 C.3   1 <1>   0.1100 
 19 N       -6.5360    -4.0610     0.0670 N.3   1 <1>  -0.8100 
 20 C       -7.8370    -1.9960     0.5470 C.3   1 <1>   0.1200 
 21 C       -7.4850    -4.7910     0.9410 C.3   1 <1>   0.3330 
 22 O       -8.6830    -2.7180     1.3950 O.3   1 <1>  -0.5600 
 23 C       -7.7060    -6.2180     0.4430 C.ar  1 <1>  -0.1430 
 24 C       -8.8420    -4.0570     1.0070 C.3   1 <1>   0.1200 
 25 C       -7.9650    -6.4730    -0.8970 C.ar  1 <1>  -0.1500 
 26 C       -7.6550    -7.2820     1.3320 C.ar  1 <1>  -0.1500 
 27 C       -8.1700    -7.7670    -1.3420 C.ar  1 <1>  -0.1500 
 28 C       -7.8590    -8.5780     0.8900 C.ar  1 <1>  -0.1500 
 29 C       -8.1180    -8.8210    -0.4470 C.ar  1 <1>  -0.1500 
 30 H       -0.6650     2.7300     1.1870 H     1 <1>   0.1500 
 31 H       -4.4030     2.9520    -2.0090 H     1 <1>   0.1500 
 32 H       -3.3030     5.0630    -1.2630 H     1 <1>   0.1500 
 33 H       -1.9880     5.9900     0.9270 H     1 <1>   0.0800 
 34 H       -0.8570     5.8710    -0.4030 H     1 <1>   0.0800 
 35 H       -0.4570     5.1800     1.1500 H     1 <1>   0.0800 
 36 H       -5.4190    -0.8470    -0.0340 H     1 <1>   0.0800 
 37 H       -5.9540    -1.7680    -1.4110 H     1 <1>   0.0800 
 38 H       -4.5840    -4.0620    -1.8870 H     1 <1>   0.0800 
 39 H       -3.2610    -4.3970    -0.8130 H     1 <1>   0.0800 
 40 H       -6.0240    -2.6000     1.4910 H     1 <1>   0.0800 
 41 H       -4.7820    -4.6720     1.0660 H     1 <1>   0.0800 
 42 H       -5.2620    -5.7060    -0.2510 H     1 <1>   0.0800 
 43 H       -8.2770    -1.9670    -0.4350 H     1 <1>   0.0800 
 44 H       -7.7720    -0.9930     0.9300 H     1 <1>   0.0800 
 45 H       -7.0830    -4.8280     1.9390 H     1 <1>   0.0800 
 46 H       -9.4820    -4.5350     1.7250 H     1 <1>   0.0800 
 47 H       -9.3250    -4.0810     0.0460 H     1 <1>   0.0800 
 48 H       -8.0000    -5.6550    -1.5970 H     1 <1>   0.1500 
 49 H       -7.4560    -7.1090     2.3760 H     1 <1>   0.1500 
 50 H       -8.3700    -7.9530    -2.3830 H     1 <1>   0.1500 
 51 H       -7.8180    -9.3970     1.5860 H     1 <1>   0.1500 
 52 H       -8.2770    -9.8280    -0.7920 H     1 <1>   0.1500 
@<TRIPOS>BOND
  1   1   2  1   
  2   2   3  1   
  3   2   4  2   
  4   3   5  1   
  5   3   6  1   
  6   4   7  1   
  7   4   8  1   
  8   5   7  2   
  9   5   9  1   
 10   6  10  2   
 11   6  30  1   
 12   8  11  2   
 13   8  12  am  
 14   9  13  2   
 15   9  31  1   
 16  10  13  1   
 17  10  14  1   
 18  12  15  1   
 19  12  16  1   
 20  13  32  1   
 21  14  33  1   
 22  14  34  1   
 23  14  35  1   
 24  15  17  1   
 25  15  36  1   
 26  15  37  1   
 27  16  18  1   
 28  16  38  1   
 29  16  39  1   
 30  17  19  1   
 31  17  20  1   
 32  17  40  1   
 33  18  19  1   
 34  18  41  1   
 35  18  42  1   
 36  19  21  1   
 37  20  22  1   
 38  20  43  1   
 39  20  44  1   
 40  21  23  1   
 41  21  24  1   
 42  21  45  1   
 43  22  24  1   
 44  23  25  ar  
 45  23  26  ar  
 46  24  46  1   
 47  24  47  1   
 48  25  27  ar  
 49  25  48  1   
 50  26  28  ar  
 51  26  49  1   
 52  27  29  ar  
 53  27  50  1   
 54  28  29  ar  
 55  28  51  1   
 56  29  52  1   
@<TRIPOS>SUBSTRUCTURE
  1 ****  15 GROUP 4 **** **** 0

# MOE 2024.06 (io_trps.svl 2023.06)
