@<TRIPOS>MOLECULE
NONAME
58 61 1 0 0 
SMALL
USER_CHARGES


@<TRIPOS>ATOM
  1 O       -2.7330     1.1570    -1.2780 O.2   1 <1>  -0.5700 
  2 C       -2.1330     0.9280    -0.2570 C.2   1 <1>   0.5690 
  3 N       -1.9090    -0.3350     0.1750 N.am  1 <1>  -0.7300 
  4 C       -1.6200     2.0860     0.5670 C.3   1 <1>  -0.0990 
  5 C       -2.3940    -1.5460    -0.5240 C.3   1 <1>   0.2200 
  6 C       -0.3050     2.6330    -0.0040 C.3   1 <1>  -0.0990 
  7 C       -3.7620    -1.9150     0.0190 C.3   1 <1>  -0.0800 
  8 C       -1.5580    -2.7600    -0.1310 C.3   1 <1>   0.1200 
  9 C        0.2050     3.7890     0.8250 C.2   1 <1>   0.5690 
 10 C       -3.4070    -2.7530     1.2500 C.3   1 <1>   0.1200 
 11 C       -4.5840    -2.7090    -1.0140 C.3   1 <1>  -0.0170 
 12 O       -2.1220    -3.2650     1.0430 O.3   1 <1>  -0.5600 
 13 O        0.7740     3.5500     1.8610 O.2   1 <1>  -0.5700 
 14 N       -0.0120     5.0510     0.3820 N.am  1 <1>  -0.7300 
 15 C       -6.0090    -2.9480    -0.5250 C.ar  1 <1>  -0.1440 
 16 C        0.4150     6.2790     1.0720 C.3   1 <1>   0.2200 
 17 C       -6.9860    -1.9230    -0.5180 C.ar  1 <1>   0.0000 
 18 C       -6.3820    -4.1790    -0.0720 C.ar  1 <1>  -0.1500 
 19 C       -0.8040     7.1630     1.3010 C.3   1 <1>  -0.1600 
 20 C        1.2730     7.1040     0.1210 C.3   1 <1>  -0.1600 
 21 C       -8.2730    -2.2480    -0.0250 C.ar  1 <1>   0.3100 
 22 C       -6.7640    -0.6010    -0.9710 C.ar  1 <1>  -0.1500 
 23 C       -7.6860    -4.3950     0.3890 C.ar  1 <1>   0.1600 
 24 C       -1.0430     7.8980    -0.0230 C.3   1 <1>  -0.1600 
 25 C        0.2900     7.8590    -0.7810 C.3   1 <1>  -0.1600 
 26 N       -8.6060    -3.4850     0.4240 N.ar  1 <1>  -0.6200 
 27 C       -9.2610    -1.2500     0.0050 C.ar  1 <1>  -0.1500 
 28 C       -7.7500     0.3470    -0.9290 C.ar  1 <1>  -0.1500 
 29 C       -9.0150     0.0220    -0.4340 C.ar  1 <1>  -0.1500 
 30 H       -1.4570    -0.5090     1.0760 H     1 <1>   0.3700 
 31 H       -2.3650     2.8620     0.5670 H     1 <1>   0.0800 
 32 H       -1.4720     1.7710     1.5840 H     1 <1>   0.0800 
 33 H       -2.3910    -1.3790    -1.5890 H     1 <1>   0.0800 
 34 H       -0.4520     2.9510    -1.0210 H     1 <1>   0.0800 
 35 H        0.4410     1.8590    -0.0030 H     1 <1>   0.0800 
 36 H       -4.3120    -1.0370     0.3080 H     1 <1>   0.0800 
 37 H       -0.5250    -2.5160     0.0390 H     1 <1>   0.0800 
 38 H       -1.6320    -3.5270    -0.8810 H     1 <1>   0.0800 
 39 H       -4.0890    -3.5680     1.4170 H     1 <1>   0.0800 
 40 H       -3.3700    -2.1340     2.1300 H     1 <1>   0.0800 
 41 H       -4.1060    -3.6520    -1.2130 H     1 <1>   0.0800 
 42 H       -4.6210    -2.1740    -1.9470 H     1 <1>   0.0800 
 43 H       -0.5050     5.2150    -0.4940 H     1 <1>   0.3700 
 44 H        0.9300     6.0440     1.9900 H     1 <1>   0.0800 
 45 H       -5.6950    -5.0060    -0.0540 H     1 <1>   0.1500 
 46 H       -1.6600     6.5990     1.6270 H     1 <1>   0.0800 
 47 H       -0.5600     7.8840     2.0610 H     1 <1>   0.0800 
 48 H        1.8320     7.8160     0.7010 H     1 <1>   0.0800 
 49 H        1.9660     6.4950    -0.4330 H     1 <1>   0.0800 
 50 H       -5.8010    -0.3250    -1.3600 H     1 <1>   0.1500 
 51 H       -7.9380    -5.3820     0.7380 H     1 <1>   0.1500 
 52 H       -1.8000     7.3880    -0.5940 H     1 <1>   0.0800 
 53 H       -1.3660     8.9100     0.1540 H     1 <1>   0.0800 
 54 H        0.6510     8.8510    -0.9940 H     1 <1>   0.0800 
 55 H        0.1640     7.3300    -1.7100 H     1 <1>   0.0800 
 56 H      -10.2270    -1.5240     0.3880 H     1 <1>   0.1500 
 57 H       -7.5650     1.3500    -1.2760 H     1 <1>   0.1500 
 58 H       -9.7820     0.7770    -0.4060 H     1 <1>   0.1500 
@<TRIPOS>BOND
  1   1   2  2   
  2   2   3  am  
  3   2   4  1   
  4   3   5  1   
  5   3  30  1   
  6   4   6  1   
  7   4  31  1   
  8   4  32  1   
  9   5   7  1   
 10   5   8  1   
 11   5  33  1   
 12   6   9  1   
 13   6  34  1   
 14   6  35  1   
 15   7  10  1   
 16   7  11  1   
 17   7  36  1   
 18   8  12  1   
 19   8  37  1   
 20   8  38  1   
 21   9  13  2   
 22   9  14  am  
 23  10  12  1   
 24  10  39  1   
 25  10  40  1   
 26  11  15  1   
 27  11  41  1   
 28  11  42  1   
 29  14  16  1   
 30  14  43  1   
 31  15  17  ar  
 32  15  18  ar  
 33  16  19  1   
 34  16  20  1   
 35  16  44  1   
 36  17  21  ar  
 37  17  22  ar  
 38  18  23  ar  
 39  18  45  1   
 40  19  24  1   
 41  19  46  1   
 42  19  47  1   
 43  20  25  1   
 44  20  48  1   
 45  20  49  1   
 46  21  26  ar  
 47  21  27  ar  
 48  22  28  ar  
 49  22  50  1   
 50  23  26  ar  
 51  23  51  1   
 52  24  25  1   
 53  24  52  1   
 54  24  53  1   
 55  25  54  1   
 56  25  55  1   
 57  27  29  ar  
 58  27  56  1   
 59  28  29  ar  
 60  28  57  1   
 61  29  58  1   
@<TRIPOS>SUBSTRUCTURE
  1 ****   2 GROUP 4 **** **** 0

# MOE 2024.06 (io_trps.svl 2023.06)
