@<TRIPOS>MOLECULE
NONAME
46 48 1 0 0 
SMALL
USER_CHARGES


@<TRIPOS>ATOM
  1 F        0.8760     1.1360     0.9650 F     1 <1>  -0.3400 
  2 C        0.4930     2.3420     0.5710 C.3   1 <1>   0.8800 
  3 F       -0.4010     2.1460    -0.3890 F     1 <1>  -0.3400 
  4 O        1.6130     2.9960     0.0210 O.3   1 <1>  -0.3630 
  5 C        1.5970     4.3170    -0.2650 C.ar  1 <1>   0.0830 
  6 C        0.4780     5.1350    -0.1240 C.ar  1 <1>  -0.1500 
  7 C        2.7800     4.8690    -0.7310 C.ar  1 <1>  -0.1500 
  8 C        0.5650     6.4820    -0.4290 C.ar  1 <1>  -0.1500 
  9 C        2.8570     6.2150    -1.0370 C.ar  1 <1>  -0.1500 
 10 C        1.7550     7.0550    -0.8770 C.ar  1 <1>   0.0860 
 11 C        1.8410     8.4720    -1.1610 C.2   1 <1>   0.5440 
 12 O        1.0800     8.9780    -1.9620 O.2   1 <1>  -0.5700 
 13 N        2.7550     9.2820    -0.5220 N.am  1 <1>  -0.6600 
 14 C        3.1680     9.0200     0.9040 C.3   1 <1>   0.2200 
 15 C        3.2110    10.5170    -1.2310 C.3   1 <1>   0.1400 
 16 C        2.8110    10.1940     1.8310 C.3   1 <1>   0.1200 
 17 C        4.6620     8.6420     1.0350 C.3   1 <1>   0.3430 
 18 C        4.3150    11.3240    -0.5250 C.3   1 <1>  -0.0800 
 19 O        3.8160    11.1620     1.8360 O.3   1 <1>  -0.5600 
 20 N        5.4850     9.1020    -0.1190 N.4   1 <1>  -0.9590 
 21 C        3.8170    12.0250     0.7470 C.3   1 <1>   0.1200 
 22 C        5.6380    10.5690    -0.3050 C.3   1 <1>   0.3430 
 23 C        6.8030     8.3740    -0.2720 C.3   1 <1>   0.2370 
 24 C        6.9520     7.8660    -1.7060 C.2   1 <1>   0.9060 
 25 O        8.0640     7.5930    -2.1520 O.co2 1 <1>  -0.9000 
 26 O        5.8960     7.8050    -2.3560 O.co2 1 <1>  -0.9000 
 27 H        0.0520     2.8740     1.3950 H     1 <1>   0.0800 
 28 H       -0.4690     4.7500     0.2050 H     1 <1>   0.1500 
 29 H        3.6400     4.2350    -0.8660 H     1 <1>   0.1500 
 30 H       -0.3030     7.1120    -0.3320 H     1 <1>   0.1500 
 31 H        3.7790     6.6200    -1.4250 H     1 <1>   0.1500 
 32 H        2.5980     8.1850     1.2710 H     1 <1>   0.0800 
 33 H        3.5640    10.2260    -2.2080 H     1 <1>   0.0800 
 34 H        2.3550    11.1530    -1.3850 H     1 <1>   0.0800 
 35 H        2.7340     9.8330     2.8420 H     1 <1>   0.0800 
 36 H        1.8680    10.6390     1.5600 H     1 <1>   0.0800 
 37 H        4.7240     7.5680     1.0940 H     1 <1>   0.0800 
 38 H        5.0570     9.0440     1.9530 H     1 <1>   0.0800 
 39 H        4.5510    12.1260    -1.2000 H     1 <1>   0.0800 
 40 H        4.9900     8.7680    -0.9850 H     1 <1>   0.4500 
 41 H        2.8280    12.4340     0.6160 H     1 <1>   0.0800 
 42 H        4.4810    12.8350     0.9970 H     1 <1>   0.0800 
 43 H        6.1520    10.9900     0.5440 H     1 <1>   0.0800 
 44 H        6.2570    10.7280    -1.1750 H     1 <1>   0.0800 
 45 H        7.6320     9.0200    -0.0500 H     1 <1>   0.0800 
 46 H        6.8410     7.5190     0.3750 H     1 <1>   0.0800 
@<TRIPOS>BOND
  1   1   2  1   
  2   2   3  1   
  3   2   4  1   
  4   2  27  1   
  5   4   5  1   
  6   5   6  ar  
  7   5   7  ar  
  8   6   8  ar  
  9   6  28  1   
 10   7   9  ar  
 11   7  29  1   
 12   8  10  ar  
 13   8  30  1   
 14   9  10  ar  
 15   9  31  1   
 16  10  11  1   
 17  11  12  2   
 18  11  13  am  
 19  13  14  1   
 20  13  15  1   
 21  14  16  1   
 22  14  17  1   
 23  14  32  1   
 24  15  18  1   
 25  15  33  1   
 26  15  34  1   
 27  16  19  1   
 28  16  35  1   
 29  16  36  1   
 30  17  20  1   
 31  17  37  1   
 32  17  38  1   
 33  18  21  1   
 34  18  22  1   
 35  18  39  1   
 36  19  21  1   
 37  20  22  1   
 38  20  23  1   
 39  20  40  1   
 40  21  41  1   
 41  21  42  1   
 42  22  43  1   
 43  22  44  1   
 44  23  24  1   
 45  23  45  1   
 46  23  46  1   
 47  24  25  ar  
 48  24  26  ar  
@<TRIPOS>SUBSTRUCTURE
  1 ****   9 GROUP 4 **** **** 0

# MOE 2024.06 (io_trps.svl 2023.06)
