@<TRIPOS>MOLECULE
NONAME
52 55 1 0 0 
SMALL
USER_CHARGES


@<TRIPOS>ATOM
  1 F       -0.7490     1.1150    -0.1920 F     1 <1>  -0.3400 
  2 C       -1.6360     0.7740     0.7380 C.3   1 <1>   1.1640 
  3 F       -1.0890     1.0870     1.9080 F     1 <1>  -0.3400 
  4 F       -1.6850    -0.5570     0.7100 F     1 <1>  -0.3400 
  5 C       -3.0250     1.4330     0.5270 C.ar  1 <1>   0.1660 
  6 N       -3.1080     2.7470     0.3700 N.ar  1 <1>  -0.6200 
  7 C       -4.1650     0.6660     0.5050 C.ar  1 <1>  -0.1500 
  8 C       -4.3220     3.2600     0.2030 C.ar  1 <1>   0.7200 
  9 C       -5.3840     1.2860     0.3110 C.ar  1 <1>   0.4100 
 10 N       -5.4600     2.5860     0.1690 N.ar  1 <1>  -0.6200 
 11 N       -4.4000     4.6310     0.0490 N.pl3 1 <1>  -0.8380 
 12 N       -6.5640     0.5620     0.2690 N.pl3 1 <1>  -0.8380 
 13 C       -3.2050     5.4650    -0.2600 C.3   1 <1>   0.1290 
 14 C       -5.6800     5.3730     0.2210 C.3   1 <1>   0.1290 
 15 C       -7.8780     1.2270     0.0190 C.3   1 <1>   0.2090 
 16 C       -6.6280    -0.8550    -0.1610 C.3   1 <1>   0.2090 
 17 C       -8.7690     0.1590    -0.6160 C.3   1 <1>   0.2000 
 18 C       -8.1150    -1.1790    -0.2840 C.3   1 <1>  -0.0800 
 19 O      -10.0600     0.1870    -0.1060 O.3   1 <1>  -0.6800 
 20 C       -8.4250    -2.2700    -1.3230 C.3   1 <1>  -0.0170 
 21 C       -7.6980    -3.5700    -0.9930 C.ar  1 <1>  -0.1430 
 22 C       -8.1350    -4.4460     0.0290 C.ar  1 <1>   0.0000 
 23 C       -6.5770    -3.9210    -1.6870 C.ar  1 <1>  -0.1500 
 24 C       -7.3620    -5.6060     0.2760 C.ar  1 <1>   0.3100 
 25 C       -9.2930    -4.2420     0.8160 C.ar  1 <1>  -0.1500 
 26 C       -5.8900    -5.0990    -1.3690 C.ar  1 <1>   0.1600 
 27 N       -6.2440    -5.9150    -0.4280 N.ar  1 <1>  -0.6200 
 28 C       -7.7610    -6.4850     1.2950 C.ar  1 <1>  -0.1500 
 29 C       -9.6560    -5.1210     1.8000 C.ar  1 <1>  -0.1500 
 30 C       -8.8810    -6.2560     2.0470 C.ar  1 <1>  -0.1500 
 31 H       -4.1300    -0.3960     0.6430 H     1 <1>   0.1500 
 32 H       -3.4900     6.3150    -0.8550 H     1 <1>   0.0800 
 33 H       -2.4780     4.8950    -0.8120 H     1 <1>   0.0800 
 34 H       -2.7570     5.8060     0.6580 H     1 <1>   0.0800 
 35 H       -5.4910     6.3430     0.6440 H     1 <1>   0.0800 
 36 H       -6.3410     4.8390     0.8820 H     1 <1>   0.0800 
 37 H       -6.1590     5.4880    -0.7350 H     1 <1>   0.0800 
 38 H       -8.2810     1.5690     0.9560 H     1 <1>   0.0800 
 39 H       -7.7670     2.0590    -0.6550 H     1 <1>   0.0800 
 40 H       -6.1340    -0.9560    -1.1130 H     1 <1>   0.0800 
 41 H       -6.1580    -1.5010     0.5620 H     1 <1>   0.0800 
 42 H       -8.8210     0.3190    -1.6790 H     1 <1>   0.0800 
 43 H       -8.4400    -1.4990     0.6900 H     1 <1>   0.0800 
 44 H      -10.0390     0.1090     0.8670 H     1 <1>   0.4000 
 45 H       -8.1230    -1.9270    -2.2970 H     1 <1>   0.0800 
 46 H       -9.4860    -2.4430    -1.3720 H     1 <1>   0.0800 
 47 H       -6.1910    -3.3130    -2.4850 H     1 <1>   0.1500 
 48 H       -9.9080    -3.3800     0.6400 H     1 <1>   0.1500 
 49 H       -5.0100    -5.3390    -1.9410 H     1 <1>   0.1500 
 50 H       -7.1510    -7.3530     1.4650 H     1 <1>   0.1500 
 51 H      -10.5400    -4.9530     2.3930 H     1 <1>   0.1500 
 52 H       -9.1760    -6.9390     2.8250 H     1 <1>   0.1500 
@<TRIPOS>BOND
  1   1   2  1   
  2   2   3  1   
  3   2   4  1   
  4   2   5  1   
  5   5   6  ar  
  6   5   7  ar  
  7   6   8  ar  
  8   7   9  ar  
  9   7  31  1   
 10   8  10  ar  
 11   8  11  1   
 12   9  10  ar  
 13   9  12  1   
 14  11  13  1   
 15  11  14  1   
 16  12  15  1   
 17  12  16  1   
 18  13  32  1   
 19  13  33  1   
 20  13  34  1   
 21  14  35  1   
 22  14  36  1   
 23  14  37  1   
 24  15  17  1   
 25  15  38  1   
 26  15  39  1   
 27  16  18  1   
 28  16  40  1   
 29  16  41  1   
 30  17  18  1   
 31  17  19  1   
 32  17  42  1   
 33  18  20  1   
 34  18  43  1   
 35  19  44  1   
 36  20  21  1   
 37  20  45  1   
 38  20  46  1   
 39  21  22  ar  
 40  21  23  ar  
 41  22  24  ar  
 42  22  25  ar  
 43  23  26  ar  
 44  23  47  1   
 45  24  27  ar  
 46  24  28  ar  
 47  25  29  ar  
 48  25  48  1   
 49  26  27  ar  
 50  26  49  1   
 51  28  30  ar  
 52  28  50  1   
 53  29  30  ar  
 54  29  51  1   
 55  30  52  1   
@<TRIPOS>SUBSTRUCTURE
  1 ****  16 GROUP 4 **** **** 0

# MOE 2024.06 (io_trps.svl 2023.06)
