@<TRIPOS>MOLECULE
NONAME
38 39 1 0 0 
SMALL
USER_CHARGES


@<TRIPOS>ATOM
  1 S       -0.0390    -0.1730     0.0780 S.3   1 <1>  -0.0800 
  2 C        1.3280     0.8960    -0.2610 C.2   1 <1>  -0.0450 
  3 C        0.9130    -1.6130    -0.2070 C.2   1 <1>  -0.1400 
  4 C        1.1350     2.3220    -0.1750 C.2   1 <1>   0.7150 
  5 C        2.4070     0.1260    -0.5670 C.2   1 <1>  -0.1500 
  6 C        2.1740    -1.2800    -0.5360 C.2   1 <1>  -0.1500 
  7 C        0.2180    -2.9490    -0.0510 C.3   1 <1>  -0.0600 
  8 O        0.0390     2.8060     0.0360 O.2   1 <1>  -0.5700 
  9 N        2.2280     3.1380    -0.3320 N.am  1 <1>  -0.4940 
 10 C        2.3750     4.5470    -0.3150 C.2   1 <1>  -0.0880 
 11 N        1.4980     5.4910    -0.7620 N.pl3 1 <1>   0.3140 
 12 C        3.4620     5.2220     0.1310 C.2   1 <1>  -0.1810 
 13 N        2.0020     6.7360    -0.6190 N.2   1 <1>  -0.7070 
 14 C        0.1980     5.3110    -1.4220 C.3   1 <1>   0.0160 
 15 C        3.1680     6.5670    -0.0820 C.2   1 <1>   0.1080 
 16 C        4.7300     4.6480     0.7420 C.3   1 <1>   0.0210 
 17 C        4.0670     7.7450     0.2530 C.3   1 <1>   0.0210 
 18 C        5.7740     4.3790    -0.3420 C.3   1 <1>  -0.2400 
 19 C        3.8150     8.2430     1.6800 C.3   1 <1>  -0.2400 
 20 H        3.3820     0.4980    -0.8240 H     1 <1>   0.1500 
 21 H        2.9610    -1.9790    -0.7610 H     1 <1>   0.1500 
 22 H       -0.6060    -3.0160    -0.7390 H     1 <1>   0.0800 
 23 H       -0.1560    -3.0530     0.9510 H     1 <1>   0.0800 
 24 H        0.9050    -3.7520    -0.2520 H     1 <1>   0.0800 
 25 H        3.1100     2.6340    -0.3420 H     1 <1>   0.3700 
 26 H        0.2290     4.4350    -2.0420 H     1 <1>   0.0800 
 27 H       -0.0130     6.1730    -2.0250 H     1 <1>   0.0800 
 28 H       -0.5610     5.2020    -0.6710 H     1 <1>   0.0800 
 29 H        4.4970     3.7330     1.2570 H     1 <1>   0.0800 
 30 H        5.1250     5.3350     1.4700 H     1 <1>   0.0800 
 31 H        3.8650     8.5390    -0.4440 H     1 <1>   0.0800 
 32 H        5.0960     7.4610     0.1380 H     1 <1>   0.0800 
 33 H        5.3890     3.6850    -1.0670 H     1 <1>   0.0800 
 34 H        6.6670     3.9680     0.0950 H     1 <1>   0.0800 
 35 H        6.0270     5.2940    -0.8480 H     1 <1>   0.0800 
 36 H        2.7870     8.5440     1.7810 H     1 <1>   0.0800 
 37 H        4.4470     9.0850     1.8970 H     1 <1>   0.0800 
 38 H        4.0150     7.4610     2.3890 H     1 <1>   0.0800 
@<TRIPOS>BOND
  1   1   2  1   
  2   1   3  1   
  3   2   4  1   
  4   2   5  2   
  5   3   6  2   
  6   3   7  1   
  7   4   8  2   
  8   4   9  am  
  9   5   6  1   
 10   5  20  1   
 11   6  21  1   
 12   7  22  1   
 13   7  23  1   
 14   7  24  1   
 15   9  10  1   
 16   9  25  1   
 17  10  11  1   
 18  10  12  2   
 19  11  13  1   
 20  11  14  1   
 21  12  15  1   
 22  12  16  1   
 23  13  15  2   
 24  14  26  1   
 25  14  27  1   
 26  14  28  1   
 27  15  17  1   
 28  16  18  1   
 29  16  29  1   
 30  16  30  1   
 31  17  19  1   
 32  17  31  1   
 33  17  32  1   
 34  18  33  1   
 35  18  34  1   
 36  18  35  1   
 37  19  36  1   
 38  19  37  1   
 39  19  38  1   
@<TRIPOS>SUBSTRUCTURE
  1 ****   9 GROUP 4 **** **** 0

# MOE 2024.06 (io_trps.svl 2023.06)
