@<TRIPOS>MOLECULE
NONAME
47 48 1 0 0 
SMALL
USER_CHARGES


@<TRIPOS>ATOM
  1 O       -0.8380    -0.0740     2.2880 O.2   1 <1>  -0.5700 
  2 C       -1.4570     0.4560     1.3940 C.2   1 <1>   0.5690 
  3 N       -2.1150    -0.2960     0.4430 N.am  1 <1>  -0.6600 
  4 C       -1.5100     1.9980     1.3970 C.3   1 <1>   0.1710 
  5 C       -1.9570    -1.7790     0.4350 C.3   1 <1>   0.3200 
  6 C       -2.9710     0.2710    -0.6410 C.3   1 <1>   0.1400 
  7 N       -0.3400     2.6980     0.7920 N.3   1 <1>  -0.8100 
  8 C       -3.2920    -2.4420     0.7030 C.2   1 <1>  -0.3320 
  9 C       -4.4010     0.5380    -0.1530 C.3   1 <1>   0.1200 
 10 C       -0.3890     4.1470     1.0590 C.3   1 <1>   0.2530 
 11 C       -0.1480     2.3990    -0.6350 C.3   1 <1>   0.0300 
 12 N       -4.1360    -2.8990    -0.2430 N.pl3 1 <1>   0.0330 
 13 C       -3.8830    -2.6970     1.8900 C.2   1 <1>   0.0770 
 14 O       -5.1470     1.0430    -1.2100 O.3   1 <1>  -0.6800 
 15 C        0.8950     4.8490     0.6350 C.ar  1 <1>  -0.1440 
 16 C       -5.1930    -3.3950     0.4350 C.2   1 <1>   0.0060 
 17 N       -5.0780    -3.2930     1.7170 N.2   1 <1>  -0.5650 
 18 C        0.8530     5.9540    -0.2030 C.ar  1 <1>  -0.1500 
 19 C        2.1220     4.3920     1.0900 C.ar  1 <1>  -0.1500 
 20 C       -6.3950    -4.0030    -0.2540 C.3   1 <1>  -0.0600 
 21 C        2.0230     6.5930    -0.5800 C.ar  1 <1>  -0.1500 
 22 C        3.2930     5.0280     0.7150 C.ar  1 <1>  -0.1500 
 23 C        3.2430     6.1300    -0.1200 C.ar  1 <1>  -0.1500 
 24 H       -1.5710     2.2880     2.4310 H     1 <1>   0.0800 
 25 H       -2.4110     2.3360     0.9250 H     1 <1>   0.0800 
 26 H       -1.2580    -2.0940     1.1910 H     1 <1>   0.0800 
 27 H       -1.5640    -2.0950    -0.5150 H     1 <1>   0.0800 
 28 H       -3.0050    -0.4210    -1.4650 H     1 <1>   0.0800 
 29 H       -2.5420     1.1860    -1.0000 H     1 <1>   0.0800 
 30 H       -4.4210     1.2540     0.6500 H     1 <1>   0.0800 
 31 H       -4.8760    -0.3690     0.1750 H     1 <1>   0.0800 
 32 H       -0.5200     4.3080     2.1150 H     1 <1>   0.0800 
 33 H       -1.2320     4.5800     0.5470 H     1 <1>   0.0800 
 34 H       -0.0880     1.3350    -0.7860 H     1 <1>   0.0800 
 35 H        0.7780     2.8280    -0.9800 H     1 <1>   0.0800 
 36 H       -0.9550     2.8030    -1.2190 H     1 <1>   0.0800 
 37 H       -4.0240    -2.8740    -1.2600 H     1 <1>   0.2700 
 38 H       -3.5060    -2.4730     2.8750 H     1 <1>   0.1500 
 39 H       -4.9630     1.9910    -1.3550 H     1 <1>   0.4000 
 40 H       -0.0890     6.3250    -0.5670 H     1 <1>   0.1500 
 41 H        2.1610     3.5300     1.7340 H     1 <1>   0.1500 
 42 H       -6.0960    -4.8540    -0.8380 H     1 <1>   0.0800 
 43 H       -6.8630    -3.2760    -0.8910 H     1 <1>   0.0800 
 44 H       -7.1090    -4.3260     0.4830 H     1 <1>   0.0800 
 45 H        1.9840     7.4490    -1.2290 H     1 <1>   0.1500 
 46 H        4.2390     4.6630     1.0730 H     1 <1>   0.1500 
 47 H        4.1530     6.6260    -0.4120 H     1 <1>   0.1500 
@<TRIPOS>BOND
  1   1   2  2   
  2   2   3  am  
  3   2   4  1   
  4   3   5  1   
  5   3   6  1   
  6   4   7  1   
  7   4  24  1   
  8   4  25  1   
  9   5   8  1   
 10   5  26  1   
 11   5  27  1   
 12   6   9  1   
 13   6  28  1   
 14   6  29  1   
 15   7  10  1   
 16   7  11  1   
 17   8  12  1   
 18   8  13  2   
 19   9  14  1   
 20   9  30  1   
 21   9  31  1   
 22  10  15  1   
 23  10  32  1   
 24  10  33  1   
 25  11  34  1   
 26  11  35  1   
 27  11  36  1   
 28  12  16  1   
 29  12  37  1   
 30  13  17  1   
 31  13  38  1   
 32  14  39  1   
 33  15  18  ar  
 34  15  19  ar  
 35  16  17  2   
 36  16  20  1   
 37  18  21  ar  
 38  18  40  1   
 39  19  22  ar  
 40  19  41  1   
 41  20  42  1   
 42  20  43  1   
 43  20  44  1   
 44  21  23  ar  
 45  21  45  1   
 46  22  23  ar  
 47  22  46  1   
 48  23  47  1   
@<TRIPOS>SUBSTRUCTURE
  1 ****   2 GROUP 4 **** **** 0

# MOE 2024.06 (io_trps.svl 2023.06)
