@<TRIPOS>MOLECULE
NONAME
54 58 1 0 0 
SMALL
USER_CHARGES


@<TRIPOS>ATOM
  1 O       -0.3310     4.7600     1.5850 O.2   1 <1>  -0.5700 
  2 C       -0.1730     3.9210     0.7180 C.2   1 <1>   0.5440 
  3 N       -1.2830     3.3310     0.1480 N.am  1 <1>  -0.6600 
  4 C        1.1690     3.5920     0.2930 C.ar  1 <1>   0.0860 
  5 C       -2.6630     3.5530     0.6800 C.3   1 <1>   0.1400 
  6 C       -1.2560     2.5660    -1.1290 C.3   1 <1>   0.1400 
  7 C        1.7020     2.2880     0.4850 C.ar  1 <1>   0.0000 
  8 C        1.9480     4.5530    -0.3190 C.ar  1 <1>  -0.1500 
  9 C       -3.5120     4.3460    -0.3310 C.3   1 <1>   0.1440 
 10 C       -2.0650     3.3210    -2.1900 C.3   1 <1>  -0.1600 
 11 C        2.9930     1.9900    -0.0080 C.ar  1 <1>   0.3100 
 12 C        1.0170     1.2530     1.1540 C.ar  1 <1>  -0.1500 
 13 C        3.2290     4.2650    -0.7860 C.ar  1 <1>  -0.1500 
 14 C       -4.9420     4.4690     0.1590 C.ar  1 <1>   0.1660 
 15 C       -3.4930     3.6440    -1.7090 C.3   1 <1>  -0.1600 
 16 C       -3.0610     5.8300    -0.4270 C.3   1 <1>  -0.1600 
 17 N        3.5610     0.7610     0.0990 N.ar  1 <1>  -0.6200 
 18 C        3.7320     3.0030    -0.6350 C.ar  1 <1>  -0.1500 
 19 C        1.6140     0.0340     1.2620 C.ar  1 <1>  -0.1500 
 20 N       -5.6810     3.4760     0.5890 N.ar  1 <1>  -0.6200 
 21 C       -5.3880     5.7540     0.0960 C.ar  1 <1>  -0.1430 
 22 C       -4.3370     6.6910    -0.4420 C.3   1 <1>  -0.0170 
 23 C        2.8860    -0.1610     0.7130 C.ar  1 <1>   0.1600 
 24 C       -6.9170     3.8090     0.9700 C.ar  1 <1>   0.7200 
 25 C       -6.6720     6.0020     0.5100 C.ar  1 <1>   0.1600 
 26 N       -7.4460     5.0370     0.9470 N.ar  1 <1>  -0.6200 
 27 N       -7.7250     2.7870     1.4290 N.pl3 1 <1>  -0.8380 
 28 C       -7.1790     1.4560     1.8120 C.3   1 <1>   0.1290 
 29 C       -9.1940     2.9570     1.5950 C.3   1 <1>   0.1290 
 30 H       -2.6360     4.0720     1.6220 H     1 <1>   0.0800 
 31 H       -3.1230     2.5960     0.8540 H     1 <1>   0.0800 
 32 H       -1.6890     1.5940    -0.9630 H     1 <1>   0.0800 
 33 H       -0.2480     2.4270    -1.4800 H     1 <1>   0.0800 
 34 H        1.5590     5.5500    -0.4420 H     1 <1>   0.1500 
 35 H       -2.1170     2.7230    -3.0830 H     1 <1>   0.0800 
 36 H       -1.5430     4.2270    -2.4420 H     1 <1>   0.0800 
 37 H        0.0410     1.4280     1.5740 H     1 <1>   0.1500 
 38 H        3.8090     5.0390    -1.2600 H     1 <1>   0.1500 
 39 H       -3.9990     4.2530    -2.4380 H     1 <1>   0.0800 
 40 H       -4.0410     2.7210    -1.6260 H     1 <1>   0.0800 
 41 H       -2.4450     6.0240    -1.2850 H     1 <1>   0.0800 
 42 H       -2.4950     6.0870     0.4520 H     1 <1>   0.0800 
 43 H        4.7150     2.7530    -0.9910 H     1 <1>   0.1500 
 44 H        1.1310    -0.7860     1.7630 H     1 <1>   0.1500 
 45 H       -4.5900     6.9780    -1.4480 H     1 <1>   0.0800 
 46 H       -4.2290     7.5660     0.1750 H     1 <1>   0.0800 
 47 H        3.3330    -1.1360     0.8080 H     1 <1>   0.1500 
 48 H       -7.0700     7.0020     0.4800 H     1 <1>   0.1500 
 49 H       -6.1590     1.5480     2.1440 H     1 <1>   0.0800 
 50 H       -7.2130     0.7970     0.9630 H     1 <1>   0.0800 
 51 H       -7.7590     1.0350     2.6140 H     1 <1>   0.0800 
 52 H       -9.5730     3.6760     0.8880 H     1 <1>   0.0800 
 53 H       -9.4050     3.3040     2.5910 H     1 <1>   0.0800 
 54 H       -9.6970     2.0220     1.4280 H     1 <1>   0.0800 
@<TRIPOS>BOND
  1   1   2  2   
  2   2   3  am  
  3   2   4  1   
  4   3   5  1   
  5   3   6  1   
  6   4   7  ar  
  7   4   8  ar  
  8   5   9  1   
  9   5  30  1   
 10   5  31  1   
 11   6  10  1   
 12   6  32  1   
 13   6  33  1   
 14   7  11  ar  
 15   7  12  ar  
 16   8  13  ar  
 17   8  34  1   
 18   9  14  1   
 19   9  15  1   
 20   9  16  1   
 21  10  15  1   
 22  10  35  1   
 23  10  36  1   
 24  11  17  ar  
 25  11  18  ar  
 26  12  19  ar  
 27  12  37  1   
 28  13  18  ar  
 29  13  38  1   
 30  14  20  ar  
 31  14  21  ar  
 32  15  39  1   
 33  15  40  1   
 34  16  22  1   
 35  16  41  1   
 36  16  42  1   
 37  17  23  ar  
 38  18  43  1   
 39  19  23  ar  
 40  19  44  1   
 41  20  24  ar  
 42  21  22  1   
 43  21  25  ar  
 44  22  45  1   
 45  22  46  1   
 46  23  47  1   
 47  24  26  ar  
 48  24  27  1   
 49  25  26  ar  
 50  25  48  1   
 51  27  28  1   
 52  27  29  1   
 53  28  49  1   
 54  28  50  1   
 55  28  51  1   
 56  29  52  1   
 57  29  53  1   
 58  29  54  1   
@<TRIPOS>SUBSTRUCTURE
  1 ****   5 GROUP 4 **** **** 0

# MOE 2024.06 (io_trps.svl 2023.06)
