@<TRIPOS>MOLECULE
NONAME
52 55 1 0 0 
SMALL
USER_CHARGES


@<TRIPOS>ATOM
  1 O       -0.3910    -0.2930     0.6950 O.2   1 <1>  -0.5700 
  2 C       -1.2760     0.3140     0.1250 C.2   1 <1>   0.7160 
  3 N       -2.2720    -0.3970    -0.4710 N.am  1 <1>  -0.7300 
  4 C       -1.3040     1.7450     0.0790 C.2   1 <1>  -0.0860 
  5 C       -2.5180    -1.8490    -0.3570 C.3   1 <1>   0.1400 
  6 C       -2.4460     2.5330    -0.1200 C.2   1 <1>   0.3720 
  7 C       -0.3100     2.6660     0.2130 C.2   1 <1>   0.0870 
  8 C       -3.9750    -2.0970     0.0540 C.3   1 <1>  -0.0800 
  9 N       -2.1550     3.7860    -0.1070 N.2   1 <1>  -0.4100 
 10 N       -3.7550     2.0480    -0.2830 N.pl3 1 <1>  -0.8210 
 11 O       -0.8680     3.8450     0.0980 O.3   1 <1>  -0.0190 
 12 C        1.1140     2.5790     0.4230 C.ar  1 <1>   0.0530 
 13 C       -4.1960    -3.5930     0.3270 C.3   1 <1>   0.1200 
 14 C       -4.9750    -1.6060    -1.0110 C.3   1 <1>  -0.1600 
 15 C       -4.6550     2.8670    -1.1650 C.3   1 <1>   0.2090 
 16 C       -4.4300     1.6860     1.0070 C.3   1 <1>   0.2090 
 17 C        1.8880     1.5660    -0.1430 C.ar  1 <1>  -0.1500 
 18 C        1.7760     3.5320     1.1990 C.ar  1 <1>  -0.1500 
 19 O       -5.5240    -3.8110     0.6980 O.3   1 <1>  -0.5600 
 20 C       -6.3990    -2.0190    -0.6200 C.3   1 <1>  -0.1600 
 21 C       -5.3830     3.9880    -0.3960 C.3   1 <1>   0.1200 
 22 C       -5.1380     2.8930     1.6480 C.3   1 <1>   0.1200 
 23 C        3.2540     1.5020     0.0610 C.ar  1 <1>  -0.1500 
 24 C        3.1420     3.4750     1.4060 C.ar  1 <1>  -0.1500 
 25 C       -6.4630    -3.5140    -0.2890 C.3   1 <1>   0.1200 
 26 O       -6.0240     3.4810     0.7400 O.3   1 <1>  -0.5600 
 27 C        3.8850     2.4570     0.8370 C.ar  1 <1>  -0.1500 
 28 H       -3.0600     0.1750    -0.8060 H     1 <1>   0.3700 
 29 H       -1.8540    -2.2710     0.3790 H     1 <1>   0.0800 
 30 H       -2.3130    -2.3170    -1.3040 H     1 <1>   0.0800 
 31 H       -4.1520    -1.5790     0.9810 H     1 <1>   0.0800 
 32 H       -3.5750    -3.9250     1.1410 H     1 <1>   0.0800 
 33 H       -3.9810    -4.1900    -0.5430 H     1 <1>   0.0800 
 34 H       -4.7300    -2.0470    -1.9630 H     1 <1>   0.0800 
 35 H       -4.9290    -0.5370    -1.1190 H     1 <1>   0.0800 
 36 H       -5.3890     2.2200    -1.6110 H     1 <1>   0.0800 
 37 H       -4.0800     3.3030    -1.9630 H     1 <1>   0.0800 
 38 H       -3.7080     1.2920     1.7010 H     1 <1>   0.0800 
 39 H       -5.1580     0.9150     0.8230 H     1 <1>   0.0800 
 40 H        1.4170     0.8160    -0.7510 H     1 <1>   0.1500 
 41 H        1.2100     4.3290     1.6480 H     1 <1>   0.1500 
 42 H       -7.0790    -1.7990    -1.4240 H     1 <1>   0.0800 
 43 H       -6.7190    -1.4620     0.2430 H     1 <1>   0.0800 
 44 H       -6.1310     4.4390    -1.0220 H     1 <1>   0.0800 
 45 H       -4.6880     4.7500    -0.0890 H     1 <1>   0.0800 
 46 H       -4.4200     3.6310     1.9610 H     1 <1>   0.0800 
 47 H       -5.7070     2.5770     2.5050 H     1 <1>   0.0800 
 48 H        3.8270     0.7060    -0.3830 H     1 <1>   0.1500 
 49 H        3.6280     4.2220     2.0090 H     1 <1>   0.1500 
 50 H       -7.4350    -3.7750     0.0940 H     1 <1>   0.0800 
 51 H       -6.2550    -4.1180    -1.1560 H     1 <1>   0.0800 
 52 H        4.9480     2.4080     0.9970 H     1 <1>   0.1500 
@<TRIPOS>BOND
  1   1   2  2   
  2   2   3  am  
  3   2   4  1   
  4   3   5  1   
  5   3  28  1   
  6   4   6  1   
  7   4   7  2   
  8   5   8  1   
  9   5  29  1   
 10   5  30  1   
 11   6   9  2   
 12   6  10  1   
 13   7  11  1   
 14   7  12  1   
 15   8  13  1   
 16   8  14  1   
 17   8  31  1   
 18   9  11  1   
 19  10  15  1   
 20  10  16  1   
 21  12  17  ar  
 22  12  18  ar  
 23  13  19  1   
 24  13  32  1   
 25  13  33  1   
 26  14  20  1   
 27  14  34  1   
 28  14  35  1   
 29  15  21  1   
 30  15  36  1   
 31  15  37  1   
 32  16  22  1   
 33  16  38  1   
 34  16  39  1   
 35  17  23  ar  
 36  17  40  1   
 37  18  24  ar  
 38  18  41  1   
 39  19  25  1   
 40  20  25  1   
 41  20  42  1   
 42  20  43  1   
 43  21  26  1   
 44  21  44  1   
 45  21  45  1   
 46  22  26  1   
 47  22  46  1   
 48  22  47  1   
 49  23  27  ar  
 50  23  48  1   
 51  24  27  ar  
 52  24  49  1   
 53  25  50  1   
 54  25  51  1   
 55  27  52  1   
@<TRIPOS>SUBSTRUCTURE
  1 ****   4 GROUP 4 **** **** 0

# MOE 2024.06 (io_trps.svl 2023.06)
