@<TRIPOS>MOLECULE
NONAME
44 46 1 0 0 
SMALL
USER_CHARGES


@<TRIPOS>ATOM
  1 S        0.3960     0.5850     1.7000 S.3   1 <1>  -0.0800 
  2 C        1.1970    -0.6440     0.7570 C.2   1 <1>  -0.1400 
  3 C        1.5740     1.7460     1.1360 C.2   1 <1>   0.1980 
  4 C        2.2510    -0.0910     0.1360 C.2   1 <1>   0.0460 
  5 C        0.6260    -2.0410     0.8010 C.3   1 <1>   0.5230 
  6 N        2.4440     1.2580     0.3480 N.2   1 <1>  -0.5650 
  7 C        1.4470     3.1710     1.6230 C.3   1 <1>  -0.0600 
  8 C        3.2610    -0.7620    -0.7720 C.3   1 <1>  -0.0590 
  9 N       -0.2670    -2.2560    -0.3780 N.4   1 <1>  -0.9590 
 10 C       -1.4430    -1.3240    -0.3720 C.3   1 <1>   0.4230 
 11 C       -0.5980    -3.7080    -0.5260 C.3   1 <1>   0.2630 
 12 C       -2.4910    -1.6680     0.6890 C.3   1 <1>  -0.1600 
 13 C       -2.2070    -1.3800    -1.6930 C.3   1 <1>  -0.1600 
 14 C       -3.5540    -2.5470     0.0100 C.3   1 <1>  -0.0800 
 15 C       -3.3790    -2.3580    -1.5040 C.3   1 <1>  -0.0800 
 16 C       -5.0000    -2.1410     0.3380 C.3   1 <1>  -0.1600 
 17 C       -4.7230    -1.8360    -2.0390 C.3   1 <1>  -0.1600 
 18 C       -5.4840    -1.2950    -0.8340 C.3   1 <1>   0.2000 
 19 O       -5.0910     0.0080    -0.6230 O.3   1 <1>  -0.6800 
 20 H        0.0890    -2.1910     1.7230 H     1 <1>   0.0800 
 21 H        1.4410    -2.7460     0.7680 H     1 <1>   0.0800 
 22 H        2.2310     3.7700     1.1970 H     1 <1>   0.0800 
 23 H        1.5290     3.2000     2.6930 H     1 <1>   0.0800 
 24 H        0.4980     3.5770     1.3270 H     1 <1>   0.0800 
 25 H        3.0600    -1.8110    -0.8810 H     1 <1>   0.0800 
 26 H        4.2470    -0.6400    -0.3590 H     1 <1>   0.0800 
 27 H        3.2420    -0.2960    -1.7410 H     1 <1>   0.0800 
 28 H        0.2930    -1.9700    -1.1910 H     1 <1>   0.4500 
 29 H       -1.0900    -0.3160    -0.2220 H     1 <1>   0.0800 
 30 H       -1.1930    -4.0460     0.3070 H     1 <1>   0.0800 
 31 H        0.3030    -4.2980    -0.5680 H     1 <1>   0.0800 
 32 H       -1.1530    -3.8740    -1.4350 H     1 <1>   0.0800 
 33 H       -2.0780    -2.1400     1.5620 H     1 <1>   0.0800 
 34 H       -2.9420    -0.7440     1.0060 H     1 <1>   0.0800 
 35 H       -2.5940    -0.3940    -1.8850 H     1 <1>   0.0800 
 36 H       -1.5830    -1.6510    -2.5260 H     1 <1>   0.0800 
 37 H       -3.4030    -3.5800     0.2780 H     1 <1>   0.0800 
 38 H       -3.1500    -3.3000    -1.9740 H     1 <1>   0.0800 
 39 H       -5.1110    -1.6350     1.2820 H     1 <1>   0.0800 
 40 H       -5.6050    -3.0310     0.3680 H     1 <1>   0.0800 
 41 H       -5.2800    -2.6710    -2.4280 H     1 <1>   0.0800 
 42 H       -4.6290    -1.1090    -2.8270 H     1 <1>   0.0800 
 43 H       -6.5540    -1.3110    -0.9610 H     1 <1>   0.0800 
 44 H       -4.1260     0.0470    -0.5360 H     1 <1>   0.4000 
@<TRIPOS>BOND
  1   1   2  1   
  2   1   3  1   
  3   2   4  2   
  4   2   5  1   
  5   3   6  2   
  6   3   7  1   
  7   4   6  1   
  8   4   8  1   
  9   5   9  1   
 10   5  20  1   
 11   5  21  1   
 12   7  22  1   
 13   7  23  1   
 14   7  24  1   
 15   8  25  1   
 16   8  26  1   
 17   8  27  1   
 18   9  10  1   
 19   9  11  1   
 20   9  28  1   
 21  10  12  1   
 22  10  13  1   
 23  10  29  1   
 24  11  30  1   
 25  11  31  1   
 26  11  32  1   
 27  12  14  1   
 28  12  33  1   
 29  12  34  1   
 30  13  15  1   
 31  13  35  1   
 32  13  36  1   
 33  14  15  1   
 34  14  16  1   
 35  14  37  1   
 36  15  17  1   
 37  15  38  1   
 38  16  18  1   
 39  16  39  1   
 40  16  40  1   
 41  17  18  1   
 42  17  41  1   
 43  17  42  1   
 44  18  19  1   
 45  18  43  1   
 46  19  44  1   
@<TRIPOS>SUBSTRUCTURE
  1 ****  10 GROUP 4 **** **** 0

# MOE 2024.06 (io_trps.svl 2023.06)
