@<TRIPOS>MOLECULE
NONAME
51 54 1 0 0 
SMALL
USER_CHARGES


@<TRIPOS>ATOM
  1 O        1.0400    -0.7070     1.8120 O.2   1 <1>  -0.5700 
  2 C        0.5270    -1.7250     1.4140 C.2   1 <1>   0.9370 
  3 N        1.2520    -2.6090     0.6090 N.pl3 1 <1>  -0.5760 
  4 C       -0.8170    -2.0310     1.7390 C.2   1 <1>  -0.1360 
  5 C        0.6630    -3.7420     0.1560 C.cat 1 <1>   0.7390 
  6 C        2.5640    -2.3480     0.2780 C.2   1 <1>   0.1910 
  7 C       -1.4020    -3.1540     1.2760 C.2   1 <1>   0.2030 
  8 N       -0.6330    -3.9950     0.4820 N.pl3 1 <1>  -0.6450 
  9 C        1.3940    -4.6360    -0.6400 C.2   1 <1>  -0.1800 
 10 C        3.2930    -3.2070    -0.5000 C.2   1 <1>  -0.1380 
 11 C       -2.8650    -3.5150     1.6040 C.3   1 <1>   0.4810 
 12 C        2.6970    -4.3810    -0.9720 C.2   1 <1>  -0.1500 
 13 C        4.7420    -2.9250    -0.8690 C.3   1 <1>  -0.1020 
 14 N       -3.7820    -3.3940     0.4210 N.4   1 <1>  -0.9590 
 15 C       -5.1370    -3.9260     0.7940 C.3   1 <1>   0.3430 
 16 C       -3.9100    -1.9890    -0.0830 C.3   1 <1>   0.3430 
 17 C       -6.1090    -3.9480    -0.4080 C.3   1 <1>   0.0000 
 18 C       -4.8080    -1.9580    -1.3200 C.3   1 <1>  -0.1600 
 19 C       -7.4900    -4.4550     0.0550 C.3   1 <1>   0.2000 
 20 C       -6.2000    -2.5380    -1.0250 C.3   1 <1>  -0.1600 
 21 C       -5.6850    -5.0130    -1.4350 C.3   1 <1>  -0.1600 
 22 O       -7.7070    -4.1300     1.3840 O.3   1 <1>  -0.6800 
 23 C       -7.4870    -5.9780    -0.1140 C.3   1 <1>  -0.1600 
 24 C       -6.1980    -6.3340    -0.8620 C.3   1 <1>  -0.1600 
 25 H       -1.3140    -1.3140     2.3670 H     1 <1>   0.1500 
 26 H        3.0210    -1.4400     0.6480 H     1 <1>   0.1500 
 27 H       -0.9910    -4.9000     0.1570 H     1 <1>   0.4500 
 28 H        0.9250    -5.5340    -0.9960 H     1 <1>   0.1500 
 29 H       -3.2190    -2.8660     2.3890 H     1 <1>   0.0800 
 30 H       -2.8970    -4.5240     1.9840 H     1 <1>   0.0800 
 31 H        3.2690    -5.0630    -1.5850 H     1 <1>   0.1500 
 32 H        5.3770    -3.7130    -0.5040 H     1 <1>   0.0800 
 33 H        5.0790    -1.9950    -0.4450 H     1 <1>   0.0800 
 34 H        4.8470    -2.8670    -1.9380 H     1 <1>   0.0800 
 35 H       -3.4590    -3.9720    -0.3630 H     1 <1>   0.4500 
 36 H       -5.0570    -4.9260     1.1880 H     1 <1>   0.0800 
 37 H       -5.5650    -3.3050     1.5650 H     1 <1>   0.0800 
 38 H       -4.3430    -1.3620     0.6820 H     1 <1>   0.0800 
 39 H       -2.9420    -1.5910    -0.3420 H     1 <1>   0.0800 
 40 H       -4.9190    -0.9380    -1.6450 H     1 <1>   0.0800 
 41 H       -4.3420    -2.4980    -2.1260 H     1 <1>   0.0800 
 42 H       -8.2770    -4.0180    -0.5390 H     1 <1>   0.0800 
 43 H       -6.7850    -2.5610    -1.9300 H     1 <1>   0.0800 
 44 H       -6.7100    -1.8870    -0.3340 H     1 <1>   0.0800 
 45 H       -6.1920    -4.8330    -2.3690 H     1 <1>   0.0800 
 46 H       -4.6290    -5.0450    -1.6290 H     1 <1>   0.0800 
 47 H       -8.6070    -4.4110     1.6530 H     1 <1>   0.4000 
 48 H       -7.5330    -6.4970     0.8280 H     1 <1>   0.0800 
 49 H       -8.3360    -6.2650    -0.7100 H     1 <1>   0.0800 
 50 H       -5.4820    -6.7450    -0.1710 H     1 <1>   0.0800 
 51 H       -6.3790    -7.0590    -1.6390 H     1 <1>   0.0800 
@<TRIPOS>BOND
  1   1   2  2   
  2   2   3  1   
  3   2   4  1   
  4   3   5  ar  
  5   3   6  1   
  6   4   7  2   
  7   4  25  1   
  8   5   8  ar  
  9   5   9  1   
 10   6  10  2   
 11   6  26  1   
 12   7   8  1   
 13   7  11  1   
 14   8  27  1   
 15   9  12  2   
 16   9  28  1   
 17  10  12  1   
 18  10  13  1   
 19  11  14  1   
 20  11  29  1   
 21  11  30  1   
 22  12  31  1   
 23  13  32  1   
 24  13  33  1   
 25  13  34  1   
 26  14  15  1   
 27  14  16  1   
 28  14  35  1   
 29  15  17  1   
 30  15  36  1   
 31  15  37  1   
 32  16  18  1   
 33  16  38  1   
 34  16  39  1   
 35  17  19  1   
 36  17  20  1   
 37  17  21  1   
 38  18  20  1   
 39  18  40  1   
 40  18  41  1   
 41  19  22  1   
 42  19  23  1   
 43  19  42  1   
 44  20  43  1   
 45  20  44  1   
 46  21  24  1   
 47  21  45  1   
 48  21  46  1   
 49  22  47  1   
 50  23  24  1   
 51  23  48  1   
 52  23  49  1   
 53  24  50  1   
 54  24  51  1   
@<TRIPOS>SUBSTRUCTURE
  1 ****   7 GROUP 4 **** **** 0

# MOE 2024.06 (io_trps.svl 2023.06)
