@<TRIPOS>MOLECULE
NONAME
57 59 1 0 0 
SMALL
USER_CHARGES


@<TRIPOS>ATOM
  1 O       -0.7280    -1.3060    -2.1440 O.2   1 <1>  -0.5700 
  2 C       -0.6310    -2.3720    -1.5880 C.2   1 <1>   0.5690 
  3 N        0.5180    -3.0160    -1.2910 N.am  1 <1>  -0.6600 
  4 C       -1.8210    -3.1680    -1.1380 C.3   1 <1>  -0.0990 
  5 C        0.2780    -4.3210    -0.6500 C.3   1 <1>   0.1400 
  6 C        1.8670    -2.5490    -1.6700 C.3   1 <1>   0.2780 
  7 C       -1.1970    -4.2400    -0.2240 C.3   1 <1>  -0.0190 
  8 C        2.7410    -2.4530    -0.4320 C.2   1 <1>  -0.2880 
  9 C       -1.9150    -5.5830    -0.3030 C.2   1 <1>   0.5690 
 10 C        3.1840    -1.3140     0.1080 C.2   1 <1>  -0.3000 
 11 O       -1.7330    -6.2500    -1.2950 O.2   1 <1>  -0.5700 
 12 N       -2.7620    -6.0130     0.6890 N.am  1 <1>  -0.6600 
 13 C       -3.5270    -7.2920     0.5240 C.3   1 <1>   0.1400 
 14 C       -3.1500    -5.2510     1.9120 C.3   1 <1>   0.1400 
 15 C       -4.9500    -7.0520    -0.0090 C.3   1 <1>   0.1400 
 16 C       -4.2350    -4.2070     1.6110 C.3   1 <1>  -0.1600 
 17 N       -5.7060    -6.0520     0.8140 N.am  1 <1>  -0.6600 
 18 C       -5.2890    -4.6430     0.5840 C.3   1 <1>   0.1400 
 19 C       -6.7270    -6.3420     1.6880 C.2   1 <1>   0.5690 
 20 O       -7.2770    -5.4670     2.3170 O.2   1 <1>  -0.5700 
 21 C       -7.1940    -7.7720     1.9370 C.3   1 <1>   0.0440 
 22 C       -7.8850    -8.4180     0.7380 C.ar  1 <1>  -0.1430 
 23 C       -7.6060    -9.7320     0.3940 C.ar  1 <1>  -0.1500 
 24 C       -8.7990    -7.7020    -0.0200 C.ar  1 <1>  -0.1500 
 25 C       -8.2250   -10.3180    -0.6970 C.ar  1 <1>  -0.1500 
 26 C       -9.4170    -8.2890    -1.1100 C.ar  1 <1>  -0.1500 
 27 C       -9.1330    -9.5990    -1.4550 C.ar  1 <1>  -0.1430 
 28 C       -9.8110   -10.2400    -2.6530 C.3   1 <1>  -0.0970 
 29 H       -2.2840    -3.6090    -2.0020 H     1 <1>   0.0800 
 30 H       -2.5220    -2.5440    -0.6180 H     1 <1>   0.0800 
 31 H        0.9180    -4.4650     0.2030 H     1 <1>   0.0800 
 32 H        0.4470    -5.1030    -1.3710 H     1 <1>   0.0800 
 33 H        1.7910    -1.5810    -2.1370 H     1 <1>   0.0800 
 34 H        2.3000    -3.2320    -2.3800 H     1 <1>   0.0800 
 35 H       -1.1970    -3.8660     0.7790 H     1 <1>   0.0800 
 36 H        2.9790    -3.4170    -0.0190 H     1 <1>   0.1500 
 37 H        3.8050    -1.2650     0.9860 H     1 <1>   0.1500 
 38 H        2.9600    -0.3340    -0.2800 H     1 <1>   0.1500 
 39 H       -3.5810    -7.8050     1.4680 H     1 <1>   0.0800 
 40 H       -3.0090    -7.9450    -0.1580 H     1 <1>   0.0800 
 41 H       -2.2910    -4.7830     2.3590 H     1 <1>   0.0800 
 42 H       -3.5390    -5.9400     2.6420 H     1 <1>   0.0800 
 43 H       -5.4680    -7.9910    -0.0420 H     1 <1>   0.0800 
 44 H       -4.8850    -6.7000    -1.0240 H     1 <1>   0.0800 
 45 H       -3.7770    -3.2990     1.2690 H     1 <1>   0.0800 
 46 H       -4.7380    -3.9680     2.5310 H     1 <1>   0.0800 
 47 H       -4.8850    -4.5480    -0.4100 H     1 <1>   0.0800 
 48 H       -6.1460    -3.9930     0.6470 H     1 <1>   0.0800 
 49 H       -7.8850    -7.7660     2.7590 H     1 <1>   0.0800 
 50 H       -6.3450    -8.3550     2.2380 H     1 <1>   0.0800 
 51 H       -6.9080   -10.3110     0.9730 H     1 <1>   0.1500 
 52 H       -9.0360    -6.6830     0.2340 H     1 <1>   0.1500 
 53 H       -7.9970   -11.3370    -0.9520 H     1 <1>   0.1500 
 54 H      -10.1210    -7.7170    -1.6890 H     1 <1>   0.1500 
 55 H       -9.9230   -11.2990    -2.5000 H     1 <1>   0.0800 
 56 H       -9.2180   -10.0770    -3.5350 H     1 <1>   0.0800 
 57 H      -10.7860    -9.8150    -2.8060 H     1 <1>   0.0800 
@<TRIPOS>BOND
  1   1   2  2   
  2   2   3  am  
  3   2   4  1   
  4   3   5  1   
  5   3   6  1   
  6   4   7  1   
  7   4  29  1   
  8   4  30  1   
  9   5   7  1   
 10   5  31  1   
 11   5  32  1   
 12   6   8  1   
 13   6  33  1   
 14   6  34  1   
 15   7   9  1   
 16   7  35  1   
 17   8  10  2   
 18   8  36  1   
 19   9  11  2   
 20   9  12  am  
 21  10  37  1   
 22  10  38  1   
 23  12  13  1   
 24  12  14  1   
 25  13  15  1   
 26  13  39  1   
 27  13  40  1   
 28  14  16  1   
 29  14  41  1   
 30  14  42  1   
 31  15  17  1   
 32  15  43  1   
 33  15  44  1   
 34  16  18  1   
 35  16  45  1   
 36  16  46  1   
 37  17  18  1   
 38  17  19  am  
 39  18  47  1   
 40  18  48  1   
 41  19  20  2   
 42  19  21  1   
 43  21  22  1   
 44  21  49  1   
 45  21  50  1   
 46  22  23  ar  
 47  22  24  ar  
 48  23  25  ar  
 49  23  51  1   
 50  24  26  ar  
 51  24  52  1   
 52  25  27  ar  
 53  25  53  1   
 54  26  27  ar  
 55  26  54  1   
 56  27  28  1   
 57  28  55  1   
 58  28  56  1   
 59  28  57  1   
@<TRIPOS>SUBSTRUCTURE
  1 ****  12 GROUP 4 **** **** 0

# MOE 2024.06 (io_trps.svl 2023.06)
