@<TRIPOS>MOLECULE
NONAME
59 62 1 0 0 
SMALL
USER_CHARGES


@<TRIPOS>ATOM
  1 O        1.6470    -4.3740    -1.7800 O.2   1 <1>  -0.5700 
  2 C        1.8360    -3.6860    -0.7900 C.2   1 <1>   0.5440 
  3 N        2.5410    -2.5100    -0.9270 N.am  1 <1>  -0.6600 
  4 C        1.3250    -4.1390     0.4940 C.ar  1 <1>   0.3960 
  5 C        2.5830    -1.4130     0.0700 C.3   1 <1>   0.1400 
  6 C        3.0840    -2.0580    -2.2290 C.3   1 <1>   0.1400 
  7 N        0.0170    -4.4150     0.6160 N.ar  1 <1>  -0.6200 
  8 C        2.2200    -4.3170     1.5510 C.ar  1 <1>   0.1600 
  9 C        2.8960    -0.1630    -0.7430 C.3   1 <1>  -0.1600 
 10 C        3.6700    -0.6770    -1.9540 C.3   1 <1>  -0.1600 
 11 C       -0.3050    -4.8930     1.7960 C.ar  1 <1>   0.4100 
 12 N        1.8990    -4.7680     2.7550 N.ar  1 <1>  -0.6200 
 13 N       -1.6200    -5.2570     1.8920 N.pl3 1 <1>  -0.8690 
 14 C        0.6150    -5.0490     2.8440 C.ar  1 <1>   0.1600 
 15 C       -1.9800    -6.7060     1.7670 C.3   1 <1>   0.2090 
 16 C       -2.8490    -7.1080     0.5210 C.3   1 <1>   0.5030 
 17 N       -2.2310    -6.7330    -0.8040 N.4   1 <1>  -0.9590 
 18 C       -3.0130    -8.6460     0.4920 C.3   1 <1>  -0.1600 
 19 C       -4.2560    -6.4650     0.6070 C.3   1 <1>  -0.1600 
 20 C       -0.7980    -7.1530    -1.0120 C.3   1 <1>   0.3430 
 21 C       -2.3720    -5.3020    -1.2690 C.3   1 <1>   0.3430 
 22 C       -3.8760    -9.2090     1.6350 C.3   1 <1>  -0.1600 
 23 C       -5.1320    -7.0140     1.7470 C.3   1 <1>  -0.1600 
 24 C       -0.3980    -7.0110    -2.5000 C.3   1 <1>   0.1200 
 25 C       -1.7180    -5.0880    -2.6540 C.3   1 <1>   0.1200 
 26 C       -5.2520    -8.5390     1.6700 C.3   1 <1>  -0.1600 
 27 O       -1.3850    -6.3240    -3.2260 O.3   1 <1>  -0.5600 
 28 H        3.3760    -1.6010     0.7740 H     1 <1>   0.0800 
 29 H        1.6450    -1.3150     0.5910 H     1 <1>   0.0800 
 30 H        2.2810    -1.9920    -2.9440 H     1 <1>   0.0800 
 31 H        3.8320    -2.7430    -2.5910 H     1 <1>   0.0800 
 32 H        3.2570    -4.0790     1.3820 H     1 <1>   0.1500 
 33 H        3.4570     0.5570    -0.1730 H     1 <1>   0.0800 
 34 H        1.9730     0.2870    -1.0650 H     1 <1>   0.0800 
 35 H        3.5780    -0.0280    -2.8060 H     1 <1>   0.0800 
 36 H        4.7120    -0.7830    -1.7060 H     1 <1>   0.0800 
 37 H       -2.2330    -4.6310     1.3670 H     1 <1>   0.4000 
 38 H        0.2460    -5.4250     3.7820 H     1 <1>   0.1500 
 39 H       -2.5050    -6.9830     2.6630 H     1 <1>   0.0800 
 40 H       -1.0760    -7.2910     1.7600 H     1 <1>   0.0800 
 41 H       -2.7400    -7.2570    -1.5280 H     1 <1>   0.4500 
 42 H       -2.0530    -9.1270     0.5370 H     1 <1>   0.0800 
 43 H       -3.4820    -8.9340    -0.4340 H     1 <1>   0.0800 
 44 H       -4.7820    -6.6440    -0.3150 H     1 <1>   0.0800 
 45 H       -4.1750    -5.4020     0.7440 H     1 <1>   0.0800 
 46 H       -0.6490    -8.1750    -0.7100 H     1 <1>   0.0800 
 47 H       -0.1440    -6.5390    -0.4180 H     1 <1>   0.0800 
 48 H       -1.9270    -4.6230    -0.5660 H     1 <1>   0.0800 
 49 H       -3.4150    -5.0450    -1.3490 H     1 <1>   0.0800 
 50 H       -3.3860    -9.0750     2.5840 H     1 <1>   0.0800 
 51 H       -4.0070   -10.2700     1.4950 H     1 <1>   0.0800 
 52 H       -6.1160    -6.5810     1.6820 H     1 <1>   0.0800 
 53 H       -4.7260    -6.7320     2.7030 H     1 <1>   0.0800 
 54 H       -0.2820    -7.9810    -2.9490 H     1 <1>   0.0800 
 55 H        0.5350    -6.4830    -2.5970 H     1 <1>   0.0800 
 56 H       -0.8240    -4.4930    -2.5670 H     1 <1>   0.0800 
 57 H       -2.3970    -4.5830    -3.3170 H     1 <1>   0.0800 
 58 H       -5.8080    -8.9000     2.5200 H     1 <1>   0.0800 
 59 H       -5.8050    -8.8100     0.7850 H     1 <1>   0.0800 
@<TRIPOS>BOND
  1   1   2  2   
  2   2   3  am  
  3   2   4  1   
  4   3   5  1   
  5   3   6  1   
  6   4   7  ar  
  7   4   8  ar  
  8   5   9  1   
  9   5  28  1   
 10   5  29  1   
 11   6  10  1   
 12   6  30  1   
 13   6  31  1   
 14   7  11  ar  
 15   8  12  ar  
 16   8  32  1   
 17   9  10  1   
 18   9  33  1   
 19   9  34  1   
 20  10  35  1   
 21  10  36  1   
 22  11  13  1   
 23  11  14  ar  
 24  12  14  ar  
 25  13  15  1   
 26  13  37  1   
 27  14  38  1   
 28  15  16  1   
 29  15  39  1   
 30  15  40  1   
 31  16  17  1   
 32  16  18  1   
 33  16  19  1   
 34  17  20  1   
 35  17  21  1   
 36  17  41  1   
 37  18  22  1   
 38  18  42  1   
 39  18  43  1   
 40  19  23  1   
 41  19  44  1   
 42  19  45  1   
 43  20  24  1   
 44  20  46  1   
 45  20  47  1   
 46  21  25  1   
 47  21  48  1   
 48  21  49  1   
 49  22  26  1   
 50  22  50  1   
 51  22  51  1   
 52  23  26  1   
 53  23  52  1   
 54  23  53  1   
 55  24  27  1   
 56  24  54  1   
 57  24  55  1   
 58  25  27  1   
 59  25  56  1   
 60  25  57  1   
 61  26  58  1   
 62  26  59  1   
@<TRIPOS>SUBSTRUCTURE
  1 ****   7 GROUP 4 **** **** 0

# MOE 2024.06 (io_trps.svl 2023.06)
