@<TRIPOS>MOLECULE
NONAME
53 56 1 0 0 
SMALL
USER_CHARGES


@<TRIPOS>ATOM
  1 O       -0.9010    -0.4260    -0.6010 O.2   1 <1>  -0.5700 
  2 C       -1.8460    -0.1580     0.1140 C.2   1 <1>   0.9370 
  3 N       -2.3300     1.1760     0.1610 N.pl3 1 <1>  -0.5760 
  4 C       -2.3850    -1.1510     0.9650 C.2   1 <1>   0.0290 
  5 C       -3.0620     1.5220     1.2580 C.cat 1 <1>   0.7390 
  6 C       -2.1670     2.1170    -0.8450 C.2   1 <1>   0.2030 
  7 C       -2.2420    -2.5400     0.6780 C.2   1 <1>   0.6160 
  8 C       -3.0700    -0.7270     2.0500 C.2   1 <1>   0.1910 
  9 N       -3.3230     0.6030     2.2200 N.pl3 1 <1>  -0.6450 
 10 C       -3.5410     2.8270     1.4150 C.2   1 <1>  -0.1800 
 11 C       -2.6400     3.3950    -0.6930 C.2   1 <1>  -0.1500 
 12 C       -1.4860     1.7830    -2.1690 C.3   1 <1>  -0.1020 
 13 O       -1.7280    -3.2390     1.5300 O.2   1 <1>  -0.5700 
 14 N       -2.8000    -3.1680    -0.4240 N.am  1 <1>  -0.6600 
 15 C       -3.3310     3.7760     0.4560 C.2   1 <1>  -0.1500 
 16 C       -3.5700    -4.4330    -0.2000 C.3   1 <1>   0.1400 
 17 C       -3.0380    -2.5400    -1.7690 C.3   1 <1>   0.1400 
 18 C       -5.1060    -4.2690    -0.4370 C.3   1 <1>   0.4230 
 19 C       -4.5090    -2.6550    -2.2200 C.3   1 <1>  -0.1600 
 20 N       -6.0050    -4.5700     0.7300 N.4   1 <1>  -0.9590 
 21 C       -5.4750    -2.8880    -1.0310 C.3   1 <1>  -0.1060 
 22 C       -7.4310    -4.6620     0.3060 C.3   1 <1>   0.3430 
 23 C       -5.6180    -5.7170     1.5990 C.3   1 <1>   0.2630 
 24 C       -5.3090    -1.7710     0.0230 C.2   1 <1>   0.9060 
 25 C       -6.9360    -2.9440    -1.5300 C.3   1 <1>  -0.1600 
 26 C       -7.8840    -3.3770    -0.3980 C.3   1 <1>  -0.1600 
 27 O       -5.4830    -2.0250     1.2260 O.co2 1 <1>  -0.9000 
 28 O       -4.9030    -0.6510    -0.3090 O.co2 1 <1>  -0.9000 
 29 H       -3.4830    -1.4240     2.7650 H     1 <1>   0.1500 
 30 H       -3.9720     0.8750     2.9610 H     1 <1>   0.4500 
 31 H       -4.0890     3.0770     2.3040 H     1 <1>   0.1500 
 32 H       -2.5010     4.1330    -1.4640 H     1 <1>   0.1500 
 33 H       -1.9350     0.9120    -2.6090 H     1 <1>   0.0800 
 34 H       -0.4360     1.6050    -2.0160 H     1 <1>   0.0800 
 35 H       -1.5830     2.5910    -2.8710 H     1 <1>   0.0800 
 36 H       -3.6930     4.7870     0.5600 H     1 <1>   0.1500 
 37 H       -3.1970    -5.1640    -0.8950 H     1 <1>   0.0800 
 38 H       -3.3720    -4.8050     0.7860 H     1 <1>   0.0800 
 39 H       -2.7870    -1.4990    -1.7540 H     1 <1>   0.0800 
 40 H       -2.3960    -3.0080    -2.4960 H     1 <1>   0.0800 
 41 H       -5.3440    -4.9970    -1.1940 H     1 <1>   0.0800 
 42 H       -4.7780    -1.7490    -2.7370 H     1 <1>   0.0800 
 43 H       -4.5940    -3.4570    -2.9330 H     1 <1>   0.0800 
 44 H       -5.9280    -3.6790     1.2900 H     1 <1>   0.4500 
 45 H       -7.5520    -5.4970    -0.3640 H     1 <1>   0.0800 
 46 H       -8.0570    -4.8270     1.1680 H     1 <1>   0.0800 
 47 H       -5.5710    -6.6260     1.0230 H     1 <1>   0.0800 
 48 H       -6.3410    -5.8420     2.3880 H     1 <1>   0.0800 
 49 H       -4.6580    -5.5380     2.0540 H     1 <1>   0.0800 
 50 H       -7.2310    -1.9720    -1.8930 H     1 <1>   0.0800 
 51 H       -7.0190    -3.6390    -2.3490 H     1 <1>   0.0800 
 52 H       -8.8720    -3.5260    -0.7980 H     1 <1>   0.0800 
 53 H       -7.9590    -2.5900     0.3330 H     1 <1>   0.0800 
@<TRIPOS>BOND
  1   1   2  2   
  2   2   3  1   
  3   2   4  1   
  4   3   5  ar  
  5   3   6  1   
  6   4   7  1   
  7   4   8  2   
  8   5   9  ar  
  9   5  10  1   
 10   6  11  2   
 11   6  12  1   
 12   7  13  2   
 13   7  14  am  
 14   8   9  1   
 15   8  29  1   
 16   9  30  1   
 17  10  15  2   
 18  10  31  1   
 19  11  15  1   
 20  11  32  1   
 21  12  33  1   
 22  12  34  1   
 23  12  35  1   
 24  14  16  1   
 25  14  17  1   
 26  15  36  1   
 27  16  18  1   
 28  16  37  1   
 29  16  38  1   
 30  17  19  1   
 31  17  39  1   
 32  17  40  1   
 33  18  20  1   
 34  18  21  1   
 35  18  41  1   
 36  19  21  1   
 37  19  42  1   
 38  19  43  1   
 39  20  22  1   
 40  20  23  1   
 41  20  44  1   
 42  21  24  1   
 43  21  25  1   
 44  22  26  1   
 45  22  45  1   
 46  22  46  1   
 47  23  47  1   
 48  23  48  1   
 49  23  49  1   
 50  24  27  ar  
 51  24  28  ar  
 52  25  26  1   
 53  25  50  1   
 54  25  51  1   
 55  26  52  1   
 56  26  53  1   
@<TRIPOS>SUBSTRUCTURE
  1 ****  28 GROUP 4 **** **** 0

# MOE 2024.06 (io_trps.svl 2023.06)
