@<TRIPOS>MOLECULE
NONAME
48 52 1 0 0 
SMALL
USER_CHARGES


@<TRIPOS>ATOM
  1 F       -0.4630    -0.8660    -1.4900 F     1 <1>  -0.2320 
  2 C        0.2160    -1.2590    -0.4230 C.3   1 <1>   0.4630 
  3 F        0.5950    -0.1840     0.2500 F     1 <1>  -0.2320 
  4 C       -0.1770    -2.4960     0.3140 C.3   1 <1>  -0.1950 
  5 C        1.0850    -2.4780    -0.4900 C.3   1 <1>  -0.2000 
  6 C       -1.3930    -3.3350    -0.1210 C.3   1 <1>  -0.0040 
  7 C       -1.3660    -4.7810     0.3680 C.2   1 <1>   0.5690 
  8 O       -0.3130    -5.2460     0.7420 O.2   1 <1>  -0.5700 
  9 N       -2.5150    -5.5340     0.3730 N.am  1 <1>  -0.6600 
 10 C       -2.4980    -6.8910     1.0000 C.3   1 <1>   0.1400 
 11 C       -3.8040    -5.0870    -0.2400 C.3   1 <1>   0.1400 
 12 C       -3.8880    -7.2730     1.5120 C.3   1 <1>  -0.1600 
 13 C       -4.5810    -6.2990    -0.7480 C.3   1 <1>  -0.1600 
 14 C       -4.9640    -7.2300     0.4140 C.3   1 <1>   0.4600 
 15 O       -6.1130    -6.7030     1.0410 O.3   1 <1>  -0.5600 
 16 C       -5.2610    -8.6370    -0.0970 C.2   1 <1>  -0.3320 
 17 C       -7.3790    -7.0020     0.4990 C.3   1 <1>   0.1200 
 18 N       -4.3670    -9.5000    -0.6690 N.pl3 1 <1>   0.0330 
 19 C       -6.4710    -9.2280    -0.0380 C.2   1 <1>  -0.1810 
 20 C       -7.6640    -8.5110     0.5400 C.3   1 <1>   0.0210 
 21 C       -5.0330   -10.6630    -0.9730 C.ar  1 <1>  -0.1520 
 22 C       -6.3630   -10.5240    -0.5840 C.ar  1 <1>   0.0000 
 23 C       -4.5800   -11.8450    -1.5630 C.ar  1 <1>  -0.1500 
 24 C       -7.2570   -11.5800    -0.7840 C.ar  1 <1>  -0.1500 
 25 C       -5.4710   -12.8760    -1.7560 C.ar  1 <1>  -0.1500 
 26 C       -6.8100   -12.7440    -1.3650 C.ar  1 <1>  -0.1500 
 27 H       -0.0510    -2.4860     1.3820 H     1 <1>   0.1000 
 28 H        2.0190    -2.4810     0.0420 H     1 <1>   0.1000 
 29 H        1.1180    -3.0440    -1.4020 H     1 <1>   0.1000 
 30 H       -1.4590    -3.3480    -1.1930 H     1 <1>   0.0800 
 31 H       -2.2750    -2.8590     0.2640 H     1 <1>   0.0800 
 32 H       -1.8030    -6.9020     1.8230 H     1 <1>   0.0800 
 33 H       -2.1610    -7.6070     0.2720 H     1 <1>   0.0800 
 34 H       -3.6160    -4.4230    -1.0650 H     1 <1>   0.0800 
 35 H       -4.3880    -4.5640     0.4990 H     1 <1>   0.0800 
 36 H       -4.1430    -6.5860     2.2990 H     1 <1>   0.0800 
 37 H       -3.8520    -8.2550     1.9460 H     1 <1>   0.0800 
 38 H       -3.9610    -6.8240    -1.4500 H     1 <1>   0.0800 
 39 H       -5.4580    -5.9810    -1.2780 H     1 <1>   0.0800 
 40 H       -7.4110    -6.6470    -0.5150 H     1 <1>   0.0800 
 41 H       -8.1160    -6.4700     1.0740 H     1 <1>   0.0800 
 42 H       -3.3730    -9.3320    -0.8450 H     1 <1>   0.2700 
 43 H       -8.5440    -8.7310    -0.0350 H     1 <1>   0.0800 
 44 H       -7.8240    -8.8290     1.5550 H     1 <1>   0.0800 
 45 H       -3.5510   -11.9400    -1.8600 H     1 <1>   0.1500 
 46 H       -8.2800   -11.4640    -0.4790 H     1 <1>   0.1500 
 47 H       -5.1470   -13.7970    -2.2080 H     1 <1>   0.1500 
 48 H       -7.4850   -13.5650    -1.5260 H     1 <1>   0.1500 
@<TRIPOS>BOND
  1   1   2  1   
  2   2   3  1   
  3   2   4  1   
  4   2   5  1   
  5   4   5  1   
  6   4   6  1   
  7   4  27  1   
  8   5  28  1   
  9   5  29  1   
 10   6   7  1   
 11   6  30  1   
 12   6  31  1   
 13   7   8  2   
 14   7   9  am  
 15   9  10  1   
 16   9  11  1   
 17  10  12  1   
 18  10  32  1   
 19  10  33  1   
 20  11  13  1   
 21  11  34  1   
 22  11  35  1   
 23  12  14  1   
 24  12  36  1   
 25  12  37  1   
 26  13  14  1   
 27  13  38  1   
 28  13  39  1   
 29  14  15  1   
 30  14  16  1   
 31  15  17  1   
 32  16  18  1   
 33  16  19  2   
 34  17  20  1   
 35  17  40  1   
 36  17  41  1   
 37  18  21  1   
 38  18  42  1   
 39  19  20  1   
 40  19  22  1   
 41  20  43  1   
 42  20  44  1   
 43  21  22  ar  
 44  21  23  ar  
 45  22  24  ar  
 46  23  25  ar  
 47  23  45  1   
 48  24  26  ar  
 49  24  46  1   
 50  25  26  ar  
 51  25  47  1   
 52  26  48  1   
@<TRIPOS>SUBSTRUCTURE
  1 ****  13 GROUP 4 **** **** 0

# MOE 2024.06 (io_trps.svl 2023.06)
