@<TRIPOS>MOLECULE
NONAME
47 48 1 0 0 
SMALL
USER_CHARGES


@<TRIPOS>ATOM
  1 S       -1.4410    -3.0840    -1.6070 S.3   1 <1>  -0.4600 
  2 C       -2.5570    -3.6940    -0.3160 C.3   1 <1>   0.0700 
  3 C       -0.3510    -4.5000    -1.9050 C.3   1 <1>  -0.0100 
  4 C       -3.5470    -2.5750     0.0140 C.3   1 <1>  -0.0990 
  5 C       -4.5440    -2.9670     1.0910 C.2   1 <1>   0.5690 
  6 O       -4.4320    -4.0510     1.6180 O.2   1 <1>  -0.5700 
  7 N       -5.5590    -2.1150     1.4400 N.am  1 <1>  -0.6600 
  8 C       -6.5720    -2.5350     2.4520 C.3   1 <1>   0.1400 
  9 C       -5.8470    -0.8110     0.7830 C.3   1 <1>   0.1400 
 10 C       -7.6610    -3.4350     1.8390 C.3   1 <1>   0.1400 
 11 C       -6.9410    -0.9510    -0.2840 C.3   1 <1>  -0.1600 
 12 N       -8.0780    -3.0300     0.4520 N.am  1 <1>  -0.6600 
 13 C       -8.2530    -1.5670     0.2210 C.3   1 <1>   0.1400 
 14 C       -8.2980    -3.9290    -0.5750 C.2   1 <1>   0.5440 
 15 O       -8.7610    -3.5250    -1.6230 O.2   1 <1>  -0.5700 
 16 C       -8.0250    -5.3380    -0.4550 C.ar  1 <1>   0.0860 
 17 C       -9.0330    -6.2730    -0.5690 C.ar  1 <1>   0.1600 
 18 C       -6.7620    -5.8550    -0.2440 C.ar  1 <1>   0.1600 
 19 N       -8.8330    -7.5700    -0.4590 N.ar  1 <1>  -0.6200 
 20 N       -6.5220    -7.1450    -0.1360 N.ar  1 <1>  -0.6200 
 21 C       -7.5770    -7.9360    -0.2490 C.ar  1 <1>   0.4770 
 22 C       -7.3200    -9.4290    -0.1250 C.3   1 <1>  -0.0170 
 23 C       -7.0650   -10.0880    -1.4890 C.3   1 <1>  -0.2400 
 24 H       -1.9580    -3.9570     0.5390 H     1 <1>   0.0800 
 25 H       -3.0590    -4.5660    -0.7000 H     1 <1>   0.0800 
 26 H        0.3490    -4.2180    -2.6720 H     1 <1>   0.0800 
 27 H       -0.9590    -5.3260    -2.2250 H     1 <1>   0.0800 
 28 H        0.1590    -4.7260    -0.9860 H     1 <1>   0.0800 
 29 H       -4.0840    -2.3190    -0.8800 H     1 <1>   0.0800 
 30 H       -2.9990    -1.7160     0.3510 H     1 <1>   0.0800 
 31 H       -7.0290    -1.6670     2.8900 H     1 <1>   0.0800 
 32 H       -6.0840    -3.0710     3.2490 H     1 <1>   0.0800 
 33 H       -4.9570    -0.4130     0.3300 H     1 <1>   0.0800 
 34 H       -6.1620    -0.1040     1.5310 H     1 <1>   0.0800 
 35 H       -8.5240    -3.4200     2.4810 H     1 <1>   0.0800 
 36 H       -7.2860    -4.4410     1.8420 H     1 <1>   0.0800 
 37 H       -6.5730    -1.5280    -1.1140 H     1 <1>   0.0800 
 38 H       -7.1590     0.0320    -0.6600 H     1 <1>   0.0800 
 39 H       -9.0210    -1.4100    -0.5180 H     1 <1>   0.0800 
 40 H       -8.5780    -1.0830     1.1250 H     1 <1>   0.0800 
 41 H      -10.0370    -5.9320    -0.7590 H     1 <1>   0.1500 
 42 H       -5.9280    -5.1790    -0.1600 H     1 <1>   0.1500 
 43 H       -8.1700    -9.8910     0.3430 H     1 <1>   0.0800 
 44 H       -6.4690    -9.5850     0.5130 H     1 <1>   0.0800 
 45 H       -7.9200    -9.9530    -2.1290 H     1 <1>   0.0800 
 46 H       -6.8850   -11.1410    -1.3660 H     1 <1>   0.0800 
 47 H       -6.2080    -9.6400    -1.9590 H     1 <1>   0.0800 
@<TRIPOS>BOND
  1   1   2  1   
  2   1   3  1   
  3   2   4  1   
  4   2  24  1   
  5   2  25  1   
  6   3  26  1   
  7   3  27  1   
  8   3  28  1   
  9   4   5  1   
 10   4  29  1   
 11   4  30  1   
 12   5   6  2   
 13   5   7  am  
 14   7   8  1   
 15   7   9  1   
 16   8  10  1   
 17   8  31  1   
 18   8  32  1   
 19   9  11  1   
 20   9  33  1   
 21   9  34  1   
 22  10  12  1   
 23  10  35  1   
 24  10  36  1   
 25  11  13  1   
 26  11  37  1   
 27  11  38  1   
 28  12  13  1   
 29  12  14  am  
 30  13  39  1   
 31  13  40  1   
 32  14  15  2   
 33  14  16  1   
 34  16  17  ar  
 35  16  18  ar  
 36  17  19  ar  
 37  17  41  1   
 38  18  20  ar  
 39  18  42  1   
 40  19  21  ar  
 41  20  21  ar  
 42  21  22  1   
 43  22  23  1   
 44  22  43  1   
 45  22  44  1   
 46  23  45  1   
 47  23  46  1   
 48  23  47  1   
@<TRIPOS>SUBSTRUCTURE
  1 ****  18 GROUP 4 **** **** 0

# MOE 2024.06 (io_trps.svl 2023.06)
