@<TRIPOS>MOLECULE
NONAME
44 47 1 0 0 
SMALL
USER_CHARGES


@<TRIPOS>ATOM
  1 O       -2.9160    -0.4280    -3.0310 O.2   1 <1>  -0.5700 
  2 C       -2.8060    -0.8310    -1.9060 C.2   1 <1>   0.5690 
  3 N       -2.5130     0.0180    -0.9070 N.am  1 <1>  -0.7300 
  4 C       -3.0330    -2.2890    -1.6100 C.3   1 <1>  -0.0190 
  5 C       -2.3490    -0.3490     0.5180 C.3   1 <1>   0.2200 
  6 C       -1.7670    -2.9570    -1.0280 C.3   1 <1>   0.1200 
  7 C       -4.3240    -2.4270    -0.7910 C.3   1 <1>   0.3430 
  8 C       -1.1980    -1.3730     0.6820 C.3   1 <1>   0.1200 
  9 C       -3.7030    -0.8310     1.1160 C.3   1 <1>   0.3430 
 10 O       -1.5720    -2.6830     0.3350 O.3   1 <1>  -0.5600 
 11 N       -4.1420    -2.2060     0.6860 N.4   1 <1>  -0.9590 
 12 C       -5.2900    -2.7160     1.4830 C.3   1 <1>   0.4860 
 13 C       -5.4220    -4.2000     1.2340 C.ar  1 <1>  -0.1440 
 14 C       -6.4170    -4.6560     0.3600 C.ar  1 <1>   0.0000 
 15 C       -4.5740    -5.1120     1.8270 C.ar  1 <1>  -0.1500 
 16 C       -6.5230    -6.0160     0.0850 C.ar  1 <1>  -0.1520 
 17 C       -7.4280    -4.0200    -0.3950 C.2   1 <1>  -0.1500 
 18 C       -4.6950    -6.4780     1.5520 C.ar  1 <1>  -0.1500 
 19 N       -7.5540    -6.2030    -0.8040 N.pl3 1 <1>   0.0480 
 20 C       -5.6590    -6.9350     0.6850 C.ar  1 <1>  -0.1500 
 21 C       -8.0890    -4.9790    -1.0840 C.2   1 <1>  -0.3020 
 22 C       -8.0220    -7.4960    -1.3330 C.3   1 <1>   0.0160 
 23 H       -2.3190     0.9870    -1.1840 H     1 <1>   0.3700 
 24 H       -3.2180    -2.7550    -2.5610 H     1 <1>   0.0800 
 25 H       -2.0620     0.5480     1.0390 H     1 <1>   0.0800 
 26 H       -0.8870    -2.6540    -1.5720 H     1 <1>   0.0800 
 27 H       -1.8580    -4.0270    -1.1170 H     1 <1>   0.0800 
 28 H       -4.6910    -3.4270    -0.9510 H     1 <1>   0.0800 
 29 H       -5.0660    -1.7470    -1.1770 H     1 <1>   0.0800 
 30 H       -0.8980    -1.4050     1.7160 H     1 <1>   0.0800 
 31 H       -0.3390    -1.0850     0.0990 H     1 <1>   0.0800 
 32 H       -4.4640    -0.1110     0.8640 H     1 <1>   0.0800 
 33 H       -3.5990    -0.8290     2.1880 H     1 <1>   0.0800 
 34 H       -3.3340    -2.8220     0.9090 H     1 <1>   0.4500 
 35 H       -5.1160    -2.5510     2.5330 H     1 <1>   0.0800 
 36 H       -6.1990    -2.2110     1.2010 H     1 <1>   0.0800 
 37 H       -3.8020    -4.8010     2.5100 H     1 <1>   0.1500 
 38 H       -7.6330    -2.9650    -0.4060 H     1 <1>   0.1500 
 39 H       -4.0230    -7.1730     2.0270 H     1 <1>   0.1500 
 40 H       -5.7540    -7.9850     0.4700 H     1 <1>   0.1500 
 41 H       -8.9200    -4.8650    -1.7580 H     1 <1>   0.1500 
 42 H       -8.8590    -7.3380    -1.9880 H     1 <1>   0.0800 
 43 H       -8.3210    -8.1250    -0.5150 H     1 <1>   0.0800 
 44 H       -7.2230    -7.9670    -1.8770 H     1 <1>   0.0800 
@<TRIPOS>BOND
  1   1   2  2   
  2   2   3  am  
  3   2   4  1   
  4   3   5  1   
  5   3  23  1   
  6   4   6  1   
  7   4   7  1   
  8   4  24  1   
  9   5   8  1   
 10   5   9  1   
 11   5  25  1   
 12   6  10  1   
 13   6  26  1   
 14   6  27  1   
 15   7  11  1   
 16   7  28  1   
 17   7  29  1   
 18   8  10  1   
 19   8  30  1   
 20   8  31  1   
 21   9  11  1   
 22   9  32  1   
 23   9  33  1   
 24  11  12  1   
 25  11  34  1   
 26  12  13  1   
 27  12  35  1   
 28  12  36  1   
 29  13  14  ar  
 30  13  15  ar  
 31  14  16  ar  
 32  14  17  1   
 33  15  18  ar  
 34  15  37  1   
 35  16  19  1   
 36  16  20  ar  
 37  17  21  2   
 38  17  38  1   
 39  18  20  ar  
 40  18  39  1   
 41  19  21  1   
 42  19  22  1   
 43  20  40  1   
 44  21  41  1   
 45  22  42  1   
 46  22  43  1   
 47  22  44  1   
@<TRIPOS>SUBSTRUCTURE
  1 ****   7 GROUP 4 **** **** 0

# MOE 2024.06 (io_trps.svl 2023.06)
