@<TRIPOS>MOLECULE
NONAME
48 50 1 0 0 
SMALL
USER_CHARGES


@<TRIPOS>ATOM
  1 S        0.1540     0.4080    -1.8710 S.o2  1 <1>   1.4470 
  2 O       -0.2140     1.3590    -2.8920 O.2   1 <1>  -0.6500 
  3 O        1.1620    -0.5910    -2.1650 O.2   1 <1>  -0.6500 
  4 N        0.8520     1.3120    -0.6140 N.am  1 <1>  -0.8490 
  5 C       -1.3190    -0.3550    -1.1380 C.ar  1 <1>  -0.0090 
  6 C        1.0830     0.6000     0.6770 C.3   1 <1>   0.2760 
  7 C        1.8720     2.2560    -1.1090 C.3   1 <1>   0.1960 
  8 C       -1.2360    -1.6150    -0.5640 C.ar  1 <1>  -0.1500 
  9 C       -2.5390     0.3040    -1.0820 C.ar  1 <1>  -0.1500 
 10 C        1.2490     1.5810     1.8510 C.3   1 <1>   0.1200 
 11 C        2.2460    -0.4320     0.6760 C.3   1 <1>   0.3430 
 12 C        3.1840     2.3450    -0.3110 C.3   1 <1>  -0.0800 
 13 C       -2.3030    -2.2190     0.0940 C.ar  1 <1>   0.0860 
 14 C       -3.6300    -0.2770    -0.4600 C.ar  1 <1>  -0.1500 
 15 O        2.5780     1.9870     1.9870 O.3   1 <1>  -0.5600 
 16 N        3.2680    -0.2220    -0.4060 N.4   1 <1>  -0.9590 
 17 C        2.9940     2.9540     1.0850 C.3   1 <1>   0.1200 
 18 C        4.0340     1.0590    -0.2820 C.3   1 <1>   0.3430 
 19 C       -2.1110    -3.5070     0.7350 C.2   1 <1>   0.5440 
 20 C       -3.5110    -1.5240     0.1270 C.ar  1 <1>  -0.1500 
 21 C        4.1820    -1.3950    -0.4970 C.3   1 <1>   0.2630 
 22 O       -1.0220    -3.7840     1.2010 O.2   1 <1>  -0.5700 
 23 N       -3.1290    -4.4160     0.8170 N.am  1 <1>  -0.7300 
 24 C       -3.0410    -5.7540     1.4590 C.3   1 <1>   0.0600 
 25 H        0.1870     0.0590     0.9190 H     1 <1>   0.0800 
 26 H        2.1300     2.0100    -2.1270 H     1 <1>   0.0800 
 27 H        1.4200     3.2340    -1.1460 H     1 <1>   0.0800 
 28 H       -0.3070    -2.1580    -0.6170 H     1 <1>   0.1500 
 29 H       -2.6380     1.2820    -1.5270 H     1 <1>   0.1500 
 30 H        0.9900     1.0810     2.7680 H     1 <1>   0.0800 
 31 H        0.6080     2.4400     1.7450 H     1 <1>   0.0800 
 32 H        1.8110    -1.4100     0.5550 H     1 <1>   0.0800 
 33 H        2.7270    -0.4160     1.6400 H     1 <1>   0.0800 
 34 H        3.7800     3.0690    -0.8360 H     1 <1>   0.0800 
 35 H       -4.5720     0.2470    -0.4280 H     1 <1>   0.1500 
 36 H        2.7120    -0.1950    -1.2870 H     1 <1>   0.4500 
 37 H        2.2880     3.7680     1.0790 H     1 <1>   0.0800 
 38 H        3.9350     3.3310     1.4500 H     1 <1>   0.0800 
 39 H        4.6060     1.0460     0.6320 H     1 <1>   0.0800 
 40 H        4.7350     1.1100    -1.0990 H     1 <1>   0.0800 
 41 H       -4.3610    -1.9550     0.6260 H     1 <1>   0.1500 
 42 H        4.7530    -1.4980     0.4120 H     1 <1>   0.0800 
 43 H        4.8620    -1.2760    -1.3240 H     1 <1>   0.0800 
 44 H        3.6130    -2.2980    -0.6530 H     1 <1>   0.0800 
 45 H       -4.0070    -4.2190     0.3340 H     1 <1>   0.3700 
 46 H       -2.0940    -5.8720     1.9580 H     1 <1>   0.0800 
 47 H       -3.1380    -6.5230     0.7130 H     1 <1>   0.0800 
 48 H       -3.8280    -5.8620     2.1850 H     1 <1>   0.0800 
@<TRIPOS>BOND
  1   1   2  2   
  2   1   3  2   
  3   1   4  am  
  4   1   5  1   
  5   4   6  1   
  6   4   7  1   
  7   5   8  ar  
  8   5   9  ar  
  9   6  10  1   
 10   6  11  1   
 11   6  25  1   
 12   7  12  1   
 13   7  26  1   
 14   7  27  1   
 15   8  13  ar  
 16   8  28  1   
 17   9  14  ar  
 18   9  29  1   
 19  10  15  1   
 20  10  30  1   
 21  10  31  1   
 22  11  16  1   
 23  11  32  1   
 24  11  33  1   
 25  12  17  1   
 26  12  18  1   
 27  12  34  1   
 28  13  19  1   
 29  13  20  ar  
 30  14  20  ar  
 31  14  35  1   
 32  15  17  1   
 33  16  18  1   
 34  16  21  1   
 35  16  36  1   
 36  17  37  1   
 37  17  38  1   
 38  18  39  1   
 39  18  40  1   
 40  19  22  2   
 41  19  23  am  
 42  20  41  1   
 43  21  42  1   
 44  21  43  1   
 45  21  44  1   
 46  23  24  1   
 47  23  45  1   
 48  24  46  1   
 49  24  47  1   
 50  24  48  1   
@<TRIPOS>SUBSTRUCTURE
  1 ****   6 GROUP 4 **** **** 0

# MOE 2024.06 (io_trps.svl 2023.06)
