@<TRIPOS>MOLECULE
NONAME
58 60 1 0 0 
SMALL
USER_CHARGES


@<TRIPOS>ATOM
  1 O       -0.8230    -0.2600    -0.4920 O.2   1 <1>  -0.5700 
  2 C       -0.9350     0.3660     0.5340 C.2   1 <1>   0.5690 
  3 N        0.0190     1.2140     0.9810 N.am  1 <1>  -0.7300 
  4 C       -2.2090     0.2210     1.3280 C.3   1 <1>  -0.0990 
  5 C        1.3140     1.4550     0.3190 C.3   1 <1>   0.2200 
  6 C       -3.4180    -0.0400     0.4260 C.3   1 <1>   0.3430 
  7 C        2.4420     1.0880     1.2890 C.3   1 <1>  -0.1600 
  8 C        1.3910     2.9280    -0.0940 C.3   1 <1>  -0.1600 
  9 N       -3.8350     1.1780    -0.3280 N.4   1 <1>  -0.9590 
 10 C        3.8160     1.4190     0.6890 C.3   1 <1>  -0.1600 
 11 C        2.7640     3.2620    -0.6970 C.3   1 <1>  -0.1600 
 12 C       -5.2780     1.1520    -0.6770 C.3   1 <1>   0.3430 
 13 C       -2.9720     1.4670    -1.5220 C.3   1 <1>   0.3430 
 14 C        3.8980     2.8930     0.2690 C.3   1 <1>  -0.1600 
 15 C       -5.7330     2.5870    -1.0380 C.3   1 <1>   0.0000 
 16 C       -3.7030     2.3160    -2.5760 C.3   1 <1>  -0.1600 
 17 C       -6.0120     3.3950     0.2420 C.3   1 <1>   0.2000 
 18 C       -4.6960     3.3060    -1.9450 C.3   1 <1>  -0.1600 
 19 C       -7.1280     2.5110    -1.6720 C.3   1 <1>  -0.1600 
 20 O       -5.0150     3.1660     1.2010 O.3   1 <1>  -0.5600 
 21 C       -7.3870     2.9300     0.7310 C.3   1 <1>  -0.1600 
 22 C       -8.0950     2.3350    -0.4960 C.3   1 <1>  -0.1600 
 23 C       -5.0230     4.0720     2.2640 C.3   1 <1>   0.0400 
 24 H       -0.0810     1.6890     1.8780 H     1 <1>   0.3700 
 25 H       -2.0840    -0.6230     1.9800 H     1 <1>   0.0800 
 26 H       -2.3830     1.0890     1.9360 H     1 <1>   0.0800 
 27 H        1.3960     0.8380    -0.5620 H     1 <1>   0.0800 
 28 H       -4.2360    -0.3600     1.0510 H     1 <1>   0.0800 
 29 H       -3.1930    -0.8400    -0.2620 H     1 <1>   0.0800 
 30 H        2.3240     1.6350     2.2080 H     1 <1>   0.0800 
 31 H        2.3960     0.0360     1.5070 H     1 <1>   0.0800 
 32 H        0.6270     3.1360    -0.8210 H     1 <1>   0.0800 
 33 H        1.2280     3.5540     0.7660 H     1 <1>   0.0800 
 34 H       -3.7920     1.9960     0.3120 H     1 <1>   0.4500 
 35 H        4.5860     1.2060     1.4110 H     1 <1>   0.0800 
 36 H        3.9900     0.7940    -0.1710 H     1 <1>   0.0800 
 37 H        2.8910     2.7200    -1.6180 H     1 <1>   0.0800 
 38 H        2.8130     4.3130    -0.9250 H     1 <1>   0.0800 
 39 H       -5.4380     0.4930    -1.5140 H     1 <1>   0.0800 
 40 H       -5.8590     0.7970     0.1580 H     1 <1>   0.0800 
 41 H       -2.0870     1.9900    -1.1960 H     1 <1>   0.0800 
 42 H       -2.6500     0.5430    -1.9770 H     1 <1>   0.0800 
 43 H        4.8480     3.0800    -0.2030 H     1 <1>   0.0800 
 44 H        3.8390     3.5170     1.1440 H     1 <1>   0.0800 
 45 H       -2.9730     2.8490    -3.1600 H     1 <1>   0.0800 
 46 H       -4.2260     1.6620    -3.2510 H     1 <1>   0.0800 
 47 H       -6.0440     4.4470     0.0040 H     1 <1>   0.0800 
 48 H       -5.1860     3.8710    -2.7200 H     1 <1>   0.0800 
 49 H       -4.1290     4.0070    -1.3560 H     1 <1>   0.0800 
 50 H       -7.3600     3.4420    -2.1620 H     1 <1>   0.0800 
 51 H       -7.2200     1.7170    -2.3940 H     1 <1>   0.0800 
 52 H       -7.2900     2.1780     1.4960 H     1 <1>   0.0800 
 53 H       -7.9450     3.7640     1.1200 H     1 <1>   0.0800 
 54 H       -8.2960     1.2900    -0.3300 H     1 <1>   0.0800 
 55 H       -9.0300     2.8350    -0.6900 H     1 <1>   0.0800 
 56 H       -4.2150     3.8220     2.9300 H     1 <1>   0.0800 
 57 H       -5.9580     4.0000     2.7940 H     1 <1>   0.0800 
 58 H       -4.8820     5.0700     1.8860 H     1 <1>   0.0800 
@<TRIPOS>BOND
  1   1   2  2   
  2   2   3  am  
  3   2   4  1   
  4   3   5  1   
  5   3  24  1   
  6   4   6  1   
  7   4  25  1   
  8   4  26  1   
  9   5   7  1   
 10   5   8  1   
 11   5  27  1   
 12   6   9  1   
 13   6  28  1   
 14   6  29  1   
 15   7  10  1   
 16   7  30  1   
 17   7  31  1   
 18   8  11  1   
 19   8  32  1   
 20   8  33  1   
 21   9  12  1   
 22   9  13  1   
 23   9  34  1   
 24  10  14  1   
 25  10  35  1   
 26  10  36  1   
 27  11  14  1   
 28  11  37  1   
 29  11  38  1   
 30  12  15  1   
 31  12  39  1   
 32  12  40  1   
 33  13  16  1   
 34  13  41  1   
 35  13  42  1   
 36  14  43  1   
 37  14  44  1   
 38  15  17  1   
 39  15  18  1   
 40  15  19  1   
 41  16  18  1   
 42  16  45  1   
 43  16  46  1   
 44  17  20  1   
 45  17  21  1   
 46  17  47  1   
 47  18  48  1   
 48  18  49  1   
 49  19  22  1   
 50  19  50  1   
 51  19  51  1   
 52  20  23  1   
 53  21  22  1   
 54  21  52  1   
 55  21  53  1   
 56  22  54  1   
 57  22  55  1   
 58  23  56  1   
 59  23  57  1   
 60  23  58  1   
@<TRIPOS>SUBSTRUCTURE
  1 ****   9 GROUP 4 **** **** 0

# MOE 2024.06 (io_trps.svl 2023.06)
