@<TRIPOS>MOLECULE
NONAME
38 41 1 0 0 
SMALL
USER_CHARGES


@<TRIPOS>ATOM
  1 F        2.0760    -2.7200    -2.4150 F     1 <1>  -0.1900 
  2 C        1.8660    -2.5530    -1.1360 C.ar  1 <1>   0.1900 
  3 C        0.5670    -2.5250    -0.6450 C.ar  1 <1>  -0.0320 
  4 C        2.9750    -2.4030    -0.3230 C.ar  1 <1>  -0.1500 
  5 C        0.4030    -2.3350     0.7200 C.ar  1 <1>  -0.1500 
  6 C       -0.6410    -2.7030    -1.5620 C.3   1 <1>   0.0320 
  7 C        2.7870    -2.2180     1.0360 C.ar  1 <1>  -0.1500 
  8 C        1.5020    -2.1850     1.5530 C.ar  1 <1>  -0.1500 
  9 C       -0.9230    -4.1760    -1.9060 C.2   1 <1>   0.6300 
 10 C       -1.7920    -1.7350    -1.4570 C.3   1 <1>  -0.2000 
 11 C       -0.8620    -1.6530    -2.6200 C.3   1 <1>  -0.2000 
 12 O       -0.5870    -4.5820    -2.9970 O.2   1 <1>  -0.5700 
 13 N       -1.5440    -4.9860    -1.0010 N.am  1 <1>  -0.6600 
 14 C       -2.0690    -4.5900     0.3330 C.3   1 <1>   0.2350 
 15 C       -1.9050    -6.4040    -1.2750 C.3   1 <1>   0.2350 
 16 C       -3.2000    -5.5570     0.6300 C.3   1 <1>  -0.2420 
 17 C       -3.0810    -6.6950    -0.3560 C.3   1 <1>  -0.2420 
 18 C       -3.5890    -5.4810     2.1120 C.2   1 <1>   0.9470 
 19 C       -4.2940    -5.8030    -0.3810 C.3   1 <1>  -0.2000 
 20 C       -3.2550    -8.2010    -0.1630 C.2   1 <1>   0.9470 
 21 O       -4.7810    -5.3990     2.4370 O.co2 1 <1>  -0.9000 
 22 O       -2.6910    -5.3180     2.9520 O.co2 1 <1>  -0.9000 
 23 O       -2.3130    -8.8610     0.2960 O.co2 1 <1>  -0.9000 
 24 O       -4.2670    -8.7560    -0.6130 O.co2 1 <1>  -0.9000 
 25 H        3.9610    -2.4340    -0.7500 H     1 <1>   0.1500 
 26 H       -0.5840    -2.3100     1.1490 H     1 <1>   0.1500 
 27 H        3.6350    -2.1030     1.6890 H     1 <1>   0.1500 
 28 H        1.3510    -2.0480     2.6110 H     1 <1>   0.1500 
 29 H       -2.7880    -2.1120    -1.6170 H     1 <1>   0.1000 
 30 H       -1.7580    -0.9610    -0.7110 H     1 <1>   0.1000 
 31 H       -0.1670    -0.8340    -2.6790 H     1 <1>   0.1000 
 32 H       -1.1970    -1.9800    -3.5890 H     1 <1>   0.1000 
 33 H       -1.2860    -4.7040     1.0630 H     1 <1>   0.0800 
 34 H       -2.4380    -3.5830     0.3430 H     1 <1>   0.0800 
 35 H       -2.1770    -6.5480    -2.3060 H     1 <1>   0.0800 
 36 H       -1.0720    -7.0390    -1.0250 H     1 <1>   0.0800 
 37 H       -4.4310    -5.1170    -1.1960 H     1 <1>   0.1000 
 38 H       -5.2230    -6.2240    -0.0340 H     1 <1>   0.1000 
@<TRIPOS>BOND
  1   1   2  1   
  2   2   3  ar  
  3   2   4  ar  
  4   3   5  ar  
  5   3   6  1   
  6   4   7  ar  
  7   4  25  1   
  8   5   8  ar  
  9   5  26  1   
 10   6   9  1   
 11   6  10  1   
 12   6  11  1   
 13   7   8  ar  
 14   7  27  1   
 15   8  28  1   
 16   9  12  2   
 17   9  13  am  
 18  10  11  1   
 19  10  29  1   
 20  10  30  1   
 21  11  31  1   
 22  11  32  1   
 23  13  14  1   
 24  13  15  1   
 25  14  16  1   
 26  14  33  1   
 27  14  34  1   
 28  15  17  1   
 29  15  35  1   
 30  15  36  1   
 31  16  17  1   
 32  16  18  1   
 33  16  19  1   
 34  17  19  1   
 35  17  20  1   
 36  18  21  ar  
 37  18  22  ar  
 38  19  37  1   
 39  19  38  1   
 40  20  23  ar  
 41  20  24  ar  
@<TRIPOS>SUBSTRUCTURE
  1 ****  13 GROUP 4 **** **** 0

# MOE 2024.06 (io_trps.svl 2023.06)
