@<TRIPOS>MOLECULE
NONAME
52 56 1 0 0 
SMALL
USER_CHARGES


@<TRIPOS>ATOM
  1 O        0.3410     0.9130     1.0660 O.2   1 <1>  -0.5700 
  2 C       -0.3030     1.8500     0.6200 C.2   1 <1>   0.7150 
  3 N       -1.6820     1.7270     0.5850 N.am  1 <1>  -0.6600 
  4 C        0.4450     3.0140     0.1590 C.2   1 <1>   0.1010 
  5 C       -2.5960     2.5600    -0.2600 C.3   1 <1>   0.1400 
  6 C       -2.4010     0.6850     1.3720 C.3   1 <1>   0.1400 
  7 N        0.0320     4.2230    -0.1330 N.2   1 <1>  -0.5650 
  8 N        1.7970     2.9020     0.0080 N.pl3 1 <1>   0.0330 
  9 C       -3.6460     3.2790     0.6080 C.3   1 <1>   0.1430 
 10 C       -3.4650     1.3450     2.2610 C.3   1 <1>  -0.1600 
 11 C        1.1460     4.9070    -0.4930 C.ar  1 <1>   0.2270 
 12 C        2.2620     4.1000    -0.4090 C.ar  1 <1>  -0.1520 
 13 C       -4.5490     4.0810    -0.3100 C.ar  1 <1>   0.1660 
 14 C       -4.4190     2.2390     1.4480 C.3   1 <1>  -0.1600 
 15 C       -3.0120     4.3860     1.4920 C.3   1 <1>  -0.1600 
 16 C        1.2790     6.2330    -0.9070 C.ar  1 <1>  -0.1500 
 17 C        3.5340     4.5810    -0.7260 C.ar  1 <1>  -0.1500 
 18 N       -5.4780     3.5830    -1.0880 N.ar  1 <1>  -0.6200 
 19 C       -4.2650     5.4110    -0.2510 C.ar  1 <1>  -0.1430 
 20 C       -3.1400     5.7040     0.7100 C.3   1 <1>  -0.0170 
 21 C        2.5280     6.7190    -1.2230 C.ar  1 <1>  -0.1500 
 22 C        3.6560     5.8910    -1.1310 C.ar  1 <1>  -0.1500 
 23 C       -6.1460     4.4780    -1.8210 C.ar  1 <1>   0.7200 
 24 C       -5.0000     6.2560    -1.0420 C.ar  1 <1>   0.1600 
 25 N       -5.9460     5.8010    -1.8290 N.ar  1 <1>  -0.6200 
 26 N       -7.1360     3.9890    -2.6530 N.pl3 1 <1>  -0.8380 
 27 C       -8.1340     4.8840    -3.3010 C.3   1 <1>   0.1290 
 28 C       -7.2690     2.5380    -2.9580 C.3   1 <1>   0.1290 
 29 H       -3.1100     1.9100    -0.9470 H     1 <1>   0.0800 
 30 H       -2.0580     3.2720    -0.8550 H     1 <1>   0.0800 
 31 H       -1.7160     0.1290     1.9910 H     1 <1>   0.0800 
 32 H       -2.8690    -0.0060     0.6920 H     1 <1>   0.0800 
 33 H        2.3320     2.0540     0.2170 H     1 <1>   0.2700 
 34 H       -2.9700     1.9280     3.0180 H     1 <1>   0.0800 
 35 H       -4.0300     0.5790     2.7610 H     1 <1>   0.0800 
 36 H       -4.9930     1.6160     0.7830 H     1 <1>   0.0800 
 37 H       -5.1160     2.7340     2.1020 H     1 <1>   0.0800 
 38 H       -1.9910     4.1770     1.7550 H     1 <1>   0.0800 
 39 H       -3.5780     4.4850     2.4010 H     1 <1>   0.0800 
 40 H        0.3980     6.8440    -0.9690 H     1 <1>   0.1500 
 41 H        4.3930     3.9370    -0.6530 H     1 <1>   0.1500 
 42 H       -2.2360     5.9060     0.1600 H     1 <1>   0.0800 
 43 H       -3.3680     6.5310     1.3590 H     1 <1>   0.0800 
 44 H        2.6500     7.7390    -1.5430 H     1 <1>   0.1500 
 45 H        4.6220     6.2950    -1.3830 H     1 <1>   0.1500 
 46 H       -4.8110     7.3150    -1.0300 H     1 <1>   0.1500 
 47 H       -8.3190     5.7490    -2.6870 H     1 <1>   0.0800 
 48 H       -9.0640     4.3630    -3.4410 H     1 <1>   0.0800 
 49 H       -7.7580     5.2070    -4.2560 H     1 <1>   0.0800 
 50 H       -6.3080     2.0560    -2.9220 H     1 <1>   0.0800 
 51 H       -7.6790     2.4020    -3.9430 H     1 <1>   0.0800 
 52 H       -7.9180     2.0780    -2.2340 H     1 <1>   0.0800 
@<TRIPOS>BOND
  1   1   2  2   
  2   2   3  am  
  3   2   4  1   
  4   3   5  1   
  5   3   6  1   
  6   4   7  2   
  7   4   8  1   
  8   5   9  1   
  9   5  29  1   
 10   5  30  1   
 11   6  10  1   
 12   6  31  1   
 13   6  32  1   
 14   7  11  1   
 15   8  12  1   
 16   8  33  1   
 17   9  13  1   
 18   9  14  1   
 19   9  15  1   
 20  10  14  1   
 21  10  34  1   
 22  10  35  1   
 23  11  12  ar  
 24  11  16  ar  
 25  12  17  ar  
 26  13  18  ar  
 27  13  19  ar  
 28  14  36  1   
 29  14  37  1   
 30  15  20  1   
 31  15  38  1   
 32  15  39  1   
 33  16  21  ar  
 34  16  40  1   
 35  17  22  ar  
 36  17  41  1   
 37  18  23  ar  
 38  19  20  1   
 39  19  24  ar  
 40  20  42  1   
 41  20  43  1   
 42  21  22  ar  
 43  21  44  1   
 44  22  45  1   
 45  23  25  ar  
 46  23  26  1   
 47  24  25  ar  
 48  24  46  1   
 49  26  27  1   
 50  26  28  1   
 51  27  47  1   
 52  27  48  1   
 53  27  49  1   
 54  28  50  1   
 55  28  51  1   
 56  28  52  1   
@<TRIPOS>SUBSTRUCTURE
  1 ****   5 GROUP 4 **** **** 0

# MOE 2024.06 (io_trps.svl 2023.06)
