@<TRIPOS>MOLECULE
NONAME
48 50 1 0 0 
SMALL
USER_CHARGES


@<TRIPOS>ATOM
  1 CL       1.7460     0.3890     3.3300 Cl    1 <1>  -0.1770 
  2 C        2.2550    -0.5990     1.9850 C.ar  1 <1>   0.1770 
  3 C        2.2490    -1.9750     2.1190 C.ar  1 <1>  -0.1500 
  4 C        2.6530     0.0080     0.8100 C.ar  1 <1>  -0.1500 
  5 C        2.6470    -2.7850     1.0630 C.ar  1 <1>  -0.1440 
  6 C        3.0510    -0.7870    -0.2490 C.ar  1 <1>  -0.1500 
  7 C        3.0520    -2.1700    -0.1280 C.ar  1 <1>   0.0830 
  8 C        2.6250    -4.2940     1.3090 C.3   1 <1>   0.4870 
  9 O        3.4090    -2.8640    -1.2290 O.3   1 <1>  -0.3630 
 10 N        1.9550    -5.0650     0.2320 N.4   1 <1>  -0.9590 
 11 C        4.7350    -3.3940    -1.3060 C.3   1 <1>   0.0140 
 12 C        0.7940    -4.4670    -0.4760 C.3   1 <1>   0.3430 
 13 C        1.6710    -6.4760     0.5650 C.3   1 <1>   0.3430 
 14 C        4.7580    -4.8450    -0.8700 C.2   1 <1>   0.9060 
 15 C       -0.2390    -5.5920    -0.6130 C.3   1 <1>   0.2000 
 16 C        0.5600    -6.8830    -0.3990 C.3   1 <1>  -0.0800 
 17 O        4.0090    -5.6490    -1.4430 O.co2 1 <1>  -0.9000 
 18 O        5.3180    -5.1510     0.1830 O.co2 1 <1>  -0.9000 
 19 O       -1.1950    -5.4430     0.3880 O.3   1 <1>  -0.6800 
 20 C       -0.2450    -8.1110     0.0740 C.3   1 <1>   0.0210 
 21 C        0.6840    -9.2370     0.4760 C.2   1 <1>   0.1080 
 22 N        1.3060    -9.2460     1.6150 N.2   1 <1>  -0.7070 
 23 C        0.9860   -10.3490    -0.3010 C.2   1 <1>  -0.1500 
 24 N        2.0350   -10.3800     1.5910 N.pl3 1 <1>   0.3000 
 25 C        1.8570   -11.0640     0.4410 C.2   1 <1>  -0.3320 
 26 C        2.5440   -12.3770     0.1160 C.3   1 <1>  -0.0600 
 27 H        1.9350    -2.3930     3.0590 H     1 <1>   0.1500 
 28 H        2.6490     1.0800     0.7290 H     1 <1>   0.1500 
 29 H        3.3600    -0.3410    -1.1770 H     1 <1>   0.1500 
 30 H        2.1050    -4.4760     2.2330 H     1 <1>   0.0800 
 31 H        3.6310    -4.6520     1.4400 H     1 <1>   0.0800 
 32 H        2.7020    -5.1650    -0.5020 H     1 <1>   0.4500 
 33 H        5.0560    -3.3360    -2.3270 H     1 <1>   0.0800 
 34 H        5.3900    -2.8130    -0.6840 H     1 <1>   0.0800 
 35 H        0.3810    -3.6330     0.0660 H     1 <1>   0.0800 
 36 H        1.1150    -4.1360    -1.4500 H     1 <1>   0.0800 
 37 H        2.5500    -7.0900     0.4340 H     1 <1>   0.0800 
 38 H        1.3250    -6.5630     1.5810 H     1 <1>   0.0800 
 39 H       -0.7440    -5.5620    -1.5630 H     1 <1>   0.0800 
 40 H        1.0450    -7.1390    -1.3260 H     1 <1>   0.0800 
 41 H       -0.7990    -5.5410     1.2760 H     1 <1>   0.4000 
 42 H       -0.9000    -8.4420    -0.7110 H     1 <1>   0.0800 
 43 H       -0.8510    -7.8750     0.9300 H     1 <1>   0.0800 
 44 H        0.5990   -10.5660    -1.2810 H     1 <1>   0.1500 
 45 H        2.6470   -10.6580     2.3690 H     1 <1>   0.2700 
 46 H        2.2390   -12.7230    -0.8560 H     1 <1>   0.0800 
 47 H        2.2850   -13.1240     0.8440 H     1 <1>   0.0800 
 48 H        3.6120   -12.2460     0.1110 H     1 <1>   0.0800 
@<TRIPOS>BOND
  1   1   2  1   
  2   2   3  ar  
  3   2   4  ar  
  4   3   5  ar  
  5   3  27  1   
  6   4   6  ar  
  7   4  28  1   
  8   5   7  ar  
  9   5   8  1   
 10   6   7  ar  
 11   6  29  1   
 12   7   9  1   
 13   8  10  1   
 14   8  30  1   
 15   8  31  1   
 16   9  11  1   
 17  10  12  1   
 18  10  13  1   
 19  10  32  1   
 20  11  14  1   
 21  11  33  1   
 22  11  34  1   
 23  12  15  1   
 24  12  35  1   
 25  12  36  1   
 26  13  16  1   
 27  13  37  1   
 28  13  38  1   
 29  14  17  ar  
 30  14  18  ar  
 31  15  16  1   
 32  15  19  1   
 33  15  39  1   
 34  16  20  1   
 35  16  40  1   
 36  19  41  1   
 37  20  21  1   
 38  20  42  1   
 39  20  43  1   
 40  21  22  2   
 41  21  23  1   
 42  22  24  1   
 43  23  25  2   
 44  23  44  1   
 45  24  25  1   
 46  24  45  1   
 47  25  26  1   
 48  26  46  1   
 49  26  47  1   
 50  26  48  1   
@<TRIPOS>SUBSTRUCTURE
  1 ****  10 GROUP 4 **** **** 0

# MOE 2024.06 (io_trps.svl 2023.06)
