@<TRIPOS>MOLECULE
NONAME
33 34 1 0 0 
SMALL
USER_CHARGES


@<TRIPOS>ATOM
  1 S       -0.3740     0.4240    -0.1590 S.3   1 <1>  -0.0800 
  2 C        0.8430     1.1950     0.7940 C.2   1 <1>   0.4340 
  3 C        0.0780    -1.0390     0.6520 C.2   1 <1>   0.1980 
  4 S        1.1080     2.9530     0.5880 S.3   1 <1>  -0.2860 
  5 N        1.4630     0.4170     1.5850 N.2   1 <1>  -0.3380 
  6 N        1.0160    -0.8770     1.4980 N.2   1 <1>  -0.3380 
  7 C       -0.6550    -2.3100     0.2880 C.3   1 <1>  -0.0600 
  8 C       -0.1100     3.4990    -0.7100 C.3   1 <1>   0.1310 
  9 C       -0.0040     4.9900    -0.9920 C.2   1 <1>   0.5690 
 10 O       -0.7670     5.4530    -1.8010 O.2   1 <1>  -0.5700 
 11 N        0.9350     5.7290    -0.3250 N.am  1 <1>  -0.4940 
 12 C        1.2400     7.0900    -0.4190 C.2   1 <1>   0.2040 
 13 O        0.6450     7.8900    -1.2720 O.3   1 <1>  -0.0190 
 14 C        2.1360     7.8230     0.2710 C.2   1 <1>  -0.1810 
 15 N        1.0990     9.1150    -1.1890 N.2   1 <1>  -0.4100 
 16 C        1.9960     9.1000    -0.2700 C.2   1 <1>   0.1080 
 17 C        3.0830     7.3870     1.3760 C.3   1 <1>   0.0210 
 18 C        2.7750    10.3300     0.1450 C.3   1 <1>  -0.0590 
 19 C        4.4590     7.0450     0.8030 C.3   1 <1>  -0.2400 
 20 H       -1.7040    -2.2000     0.4940 H     1 <1>   0.0800 
 21 H       -0.2710    -3.1310     0.8660 H     1 <1>   0.0800 
 22 H       -0.5190    -2.5260    -0.7560 H     1 <1>   0.0800 
 23 H       -1.0950     3.2670    -0.3490 H     1 <1>   0.0800 
 24 H        0.0970     2.9440    -1.6050 H     1 <1>   0.0800 
 25 H        1.5070     5.2050     0.3360 H     1 <1>   0.3700 
 26 H        2.6800     6.5240     1.8760 H     1 <1>   0.0800 
 27 H        3.1750     8.1720     2.1060 H     1 <1>   0.0800 
 28 H        3.8240    10.1730    -0.0210 H     1 <1>   0.0800 
 29 H        2.6040    10.5380     1.1850 H     1 <1>   0.0800 
 30 H        2.4550    11.1780    -0.4340 H     1 <1>   0.0800 
 31 H        4.3740     6.2520     0.0800 H     1 <1>   0.0800 
 32 H        5.1200     6.7260     1.5890 H     1 <1>   0.0800 
 33 H        4.8880     7.9040     0.3190 H     1 <1>   0.0800 
@<TRIPOS>BOND
  1   1   2  1   
  2   1   3  1   
  3   2   4  1   
  4   2   5  2   
  5   3   6  2   
  6   3   7  1   
  7   4   8  1   
  8   5   6  1   
  9   7  20  1   
 10   7  21  1   
 11   7  22  1   
 12   8   9  1   
 13   8  23  1   
 14   8  24  1   
 15   9  10  2   
 16   9  11  am  
 17  11  12  1   
 18  11  25  1   
 19  12  13  1   
 20  12  14  2   
 21  13  15  1   
 22  14  16  1   
 23  14  17  1   
 24  15  16  2   
 25  16  18  1   
 26  17  19  1   
 27  17  26  1   
 28  17  27  1   
 29  18  28  1   
 30  18  29  1   
 31  18  30  1   
 32  19  31  1   
 33  19  32  1   
 34  19  33  1   
@<TRIPOS>SUBSTRUCTURE
  1 ****  11 GROUP 4 **** **** 0

# MOE 2024.06 (io_trps.svl 2023.06)
