@<TRIPOS>MOLECULE
NONAME
49 51 1 0 0 
SMALL
USER_CHARGES


@<TRIPOS>ATOM
  1 O       -0.1860    -0.0430    -0.2880 O.3   1 <1>  -0.5600 
  2 C        1.1340    -0.4650    -0.5490 C.3   1 <1>   0.2000 
  3 C       -0.3920     1.3330    -0.1690 C.3   1 <1>   0.1200 
  4 C        2.1620     0.1460     0.4580 C.3   1 <1>   0.5660 
  5 C        1.0860    -2.0020    -0.4800 C.3   1 <1>   0.1200 
  6 C        0.4150     1.8730     1.0190 C.3   1 <1>   0.3430 
  7 N        1.8550     1.5610     0.8320 N.4   1 <1>  -0.9590 
  8 C        3.5890     0.1550    -0.0890 C.ar  1 <1>  -0.1440 
  9 O        2.3550    -2.5550    -0.3730 O.3   1 <1>  -0.6800 
 10 C        2.7270     2.1070     1.8970 C.3   1 <1>   0.5240 
 11 C        3.9370     0.9160    -1.2000 C.ar  1 <1>  -0.1500 
 12 C        4.5700    -0.5920     0.5480 C.ar  1 <1>  -0.1500 
 13 C        3.4920     3.2420     1.2350 C.2   1 <1>   0.0460 
 14 C        5.2430     0.9320    -1.6570 C.ar  1 <1>  -0.1500 
 15 C        5.8750    -0.5760     0.0900 C.ar  1 <1>  -0.1500 
 16 N        2.8420     4.0960     0.4130 N.2   1 <1>  -0.5650 
 17 C        4.8120     3.5330     1.2900 C.2   1 <1>  -0.3320 
 18 C        6.2130     0.1880    -1.0120 C.ar  1 <1>  -0.1500 
 19 C        3.7690     4.8990     0.0030 C.2   1 <1>   0.0060 
 20 N        4.9900     4.6090     0.5020 N.pl3 1 <1>   0.0330 
 21 C        5.9600     2.8590     2.0230 C.3   1 <1>  -0.0600 
 22 C        3.5330     6.0610    -0.9460 C.3   1 <1>   0.0200 
 23 C        3.7280     7.4070    -0.2410 C.3   1 <1>  -0.2400 
 24 H        1.3780    -0.1640    -1.5520 H     1 <1>   0.0800 
 25 H       -0.1080     1.8140    -1.0890 H     1 <1>   0.0800 
 26 H       -1.4440     1.4930    -0.0060 H     1 <1>   0.0800 
 27 H        2.1380    -0.4650     1.3450 H     1 <1>   0.0800 
 28 H        0.6070    -2.4120    -1.3530 H     1 <1>   0.0800 
 29 H        0.5390    -2.3070     0.3960 H     1 <1>   0.0800 
 30 H        0.0480     1.4230     1.9260 H     1 <1>   0.0800 
 31 H        0.2800     2.9410     1.0890 H     1 <1>   0.0800 
 32 H        2.1720     2.1470     0.0400 H     1 <1>   0.4500 
 33 H        2.7760    -2.6700    -1.2510 H     1 <1>   0.4000 
 34 H        2.1410     2.4920     2.7140 H     1 <1>   0.0800 
 35 H        3.4150     1.3640     2.2610 H     1 <1>   0.0800 
 36 H        3.2080     1.5110    -1.7240 H     1 <1>   0.1500 
 37 H        4.3280    -1.2050     1.4010 H     1 <1>   0.1500 
 38 H        5.5080     1.5250    -2.5160 H     1 <1>   0.1500 
 39 H        6.6300    -1.1630     0.5870 H     1 <1>   0.1500 
 40 H        7.2290     0.1990    -1.3690 H     1 <1>   0.1500 
 41 H        5.8640     5.1100     0.3120 H     1 <1>   0.2700 
 42 H        5.6110     2.0200     2.5980 H     1 <1>   0.0800 
 43 H        6.4370     3.5560     2.6900 H     1 <1>   0.0800 
 44 H        6.6880     2.5020     1.3150 H     1 <1>   0.0800 
 45 H        4.2050     5.9850    -1.7820 H     1 <1>   0.0800 
 46 H        2.5270     6.0050    -1.3250 H     1 <1>   0.0800 
 47 H        4.7380     7.5100     0.1120 H     1 <1>   0.0800 
 48 H        3.0590     7.4820     0.5980 H     1 <1>   0.0800 
 49 H        3.5180     8.2130    -0.9210 H     1 <1>   0.0800 
@<TRIPOS>BOND
  1   1   2  1   
  2   1   3  1   
  3   2   4  1   
  4   2   5  1   
  5   2  24  1   
  6   3   6  1   
  7   3  25  1   
  8   3  26  1   
  9   4   7  1   
 10   4   8  1   
 11   4  27  1   
 12   5   9  1   
 13   5  28  1   
 14   5  29  1   
 15   6   7  1   
 16   6  30  1   
 17   6  31  1   
 18   7  10  1   
 19   7  32  1   
 20   8  11  ar  
 21   8  12  ar  
 22   9  33  1   
 23  10  13  1   
 24  10  34  1   
 25  10  35  1   
 26  11  14  ar  
 27  11  36  1   
 28  12  15  ar  
 29  12  37  1   
 30  13  16  1   
 31  13  17  2   
 32  14  18  ar  
 33  14  38  1   
 34  15  18  ar  
 35  15  39  1   
 36  16  19  2   
 37  17  20  1   
 38  17  21  1   
 39  18  40  1   
 40  19  20  1   
 41  19  22  1   
 42  20  41  1   
 43  21  42  1   
 44  21  43  1   
 45  21  44  1   
 46  22  23  1   
 47  22  45  1   
 48  22  46  1   
 49  23  47  1   
 50  23  48  1   
 51  23  49  1   
@<TRIPOS>SUBSTRUCTURE
  1 ****   7 GROUP 4 **** **** 0

# MOE 2024.06 (io_trps.svl 2023.06)
