@<TRIPOS>MOLECULE
NONAME
49 51 1 0 0 
SMALL
USER_CHARGES


@<TRIPOS>ATOM
  1 O        1.7790    -1.3440    -2.2660 O.2   1 <1>  -0.5700 
  2 C        2.0270    -1.3210    -1.0860 C.2   1 <1>   0.5690 
  3 N        2.7120    -0.2630    -0.5380 N.am  1 <1>  -0.6600 
  4 C        1.5780    -2.5010    -0.2410 C.3   1 <1>  -0.0990 
  5 C        3.4140    -0.3290     0.8010 C.3   1 <1>   0.2200 
  6 C        2.7800     1.0150    -1.3310 C.3   1 <1>   0.1400 
  7 C        0.5080    -3.3490    -0.9440 C.3   1 <1>   0.0960 
  8 C        3.0590     0.8520     1.7190 C.3   1 <1>   0.1200 
  9 C        4.9490    -0.4510     0.6200 C.3   1 <1>   0.3430 
 10 C        3.8880     2.0060    -0.9250 C.3   1 <1>  -0.0800 
 11 N        0.0050    -4.3860    -0.0200 N.pl3 1 <1>   0.0480 
 12 O        3.9080     1.9330     1.4830 O.3   1 <1>  -0.5600 
 13 N        5.4080    -0.0340    -0.7510 N.4   1 <1>  -0.9590 
 14 C        3.5790     2.7280     0.3940 C.3   1 <1>   0.1200 
 15 C        5.3230     1.4460    -0.9650 C.3   1 <1>   0.3430 
 16 C       -1.1810    -4.4580     0.6390 C.2   1 <1>   0.0060 
 17 C        0.6840    -5.4770     0.3780 C.2   1 <1>  -0.3020 
 18 C        6.7770    -0.5450    -1.0540 C.3   1 <1>   0.2630 
 19 N       -1.2790    -5.4920     1.4100 N.2   1 <1>  -0.5650 
 20 C       -2.3080    -3.4450     0.4990 C.3   1 <1>   0.0200 
 21 C       -0.1110    -6.1360     1.2460 C.2   1 <1>   0.0770 
 22 C       -2.0210    -2.1520     1.2690 C.3   1 <1>  -0.2400 
 23 H        2.4310    -3.1170    -0.0260 H     1 <1>   0.0800 
 24 H        1.1660    -2.1300     0.6790 H     1 <1>   0.0800 
 25 H        3.0920    -1.2070     1.3290 H     1 <1>   0.0800 
 26 H        2.9180     0.7740    -2.3720 H     1 <1>   0.0800 
 27 H        1.8240     1.5070    -1.2550 H     1 <1>   0.0800 
 28 H        0.9210    -3.8300    -1.8130 H     1 <1>   0.0800 
 29 H       -0.3100    -2.7280    -1.2610 H     1 <1>   0.0800 
 30 H        3.2160     0.5640     2.7440 H     1 <1>   0.0800 
 31 H        2.0300     1.1530     1.6110 H     1 <1>   0.0800 
 32 H        5.2180    -1.4810     0.7820 H     1 <1>   0.0800 
 33 H        5.4500     0.1340     1.3750 H     1 <1>   0.0800 
 34 H        3.8580     2.7850    -1.6660 H     1 <1>   0.0800 
 35 H        4.7210    -0.4570    -1.4010 H     1 <1>   0.4500 
 36 H        2.5430     3.0180     0.4640 H     1 <1>   0.0800 
 37 H        4.1780     3.6200     0.4710 H     1 <1>   0.0800 
 38 H        5.9220     1.9560    -0.2280 H     1 <1>   0.0800 
 39 H        5.7380     1.6730    -1.9340 H     1 <1>   0.0800 
 40 H        1.6690    -5.7280     0.0320 H     1 <1>   0.1500 
 41 H        7.4960    -0.1140    -0.3760 H     1 <1>   0.0800 
 42 H        7.0580    -0.2890    -2.0630 H     1 <1>   0.0800 
 43 H        6.8080    -1.6180    -0.9540 H     1 <1>   0.0800 
 44 H       -2.4800    -3.2320    -0.5410 H     1 <1>   0.0800 
 45 H       -3.2080    -3.8880     0.8890 H     1 <1>   0.0800 
 46 H        0.0950    -7.0550     1.7690 H     1 <1>   0.1500 
 47 H       -1.1780    -1.6360     0.8520 H     1 <1>   0.0800 
 48 H       -1.8170    -2.3830     2.3000 H     1 <1>   0.0800 
 49 H       -2.8770    -1.5030     1.2250 H     1 <1>   0.0800 
@<TRIPOS>BOND
  1   1   2  2   
  2   2   3  am  
  3   2   4  1   
  4   3   5  1   
  5   3   6  1   
  6   4   7  1   
  7   4  23  1   
  8   4  24  1   
  9   5   8  1   
 10   5   9  1   
 11   5  25  1   
 12   6  10  1   
 13   6  26  1   
 14   6  27  1   
 15   7  11  1   
 16   7  28  1   
 17   7  29  1   
 18   8  12  1   
 19   8  30  1   
 20   8  31  1   
 21   9  13  1   
 22   9  32  1   
 23   9  33  1   
 24  10  14  1   
 25  10  15  1   
 26  10  34  1   
 27  11  16  1   
 28  11  17  1   
 29  12  14  1   
 30  13  15  1   
 31  13  18  1   
 32  13  35  1   
 33  14  36  1   
 34  14  37  1   
 35  15  38  1   
 36  15  39  1   
 37  16  19  2   
 38  16  20  1   
 39  17  21  2   
 40  17  40  1   
 41  18  41  1   
 42  18  42  1   
 43  18  43  1   
 44  19  21  1   
 45  20  22  1   
 46  20  44  1   
 47  20  45  1   
 48  21  46  1   
 49  22  47  1   
 50  22  48  1   
 51  22  49  1   
@<TRIPOS>SUBSTRUCTURE
  1 ****   2 GROUP 4 **** **** 0

# MOE 2024.06 (io_trps.svl 2023.06)
