@<TRIPOS>MOLECULE
NONAME
39 40 1 0 0 
SMALL
USER_CHARGES


@<TRIPOS>ATOM
  1 O       -2.7090     0.9690    -1.4470 O.2   1 <1>  -0.5700 
  2 C       -2.2940     0.6160    -0.3710 C.2   1 <1>   0.5690 
  3 N       -2.0980    -0.6910    -0.0780 N.am  1 <1>  -0.7300 
  4 C       -1.9940     1.6530     0.6850 C.3   1 <1>  -0.0990 
  5 C       -2.3180    -1.8140    -1.0190 C.3   1 <1>   0.2200 
  6 C       -0.9630     2.6510     0.1690 C.3   1 <1>   0.1200 
  7 C       -3.5940    -2.5750    -0.6860 C.3   1 <1>  -0.0800 
  8 C       -1.2760    -2.8910    -0.7480 C.3   1 <1>   0.1200 
  9 O       -0.6480     3.5150     1.2110 O.3   1 <1>  -0.5600 
 10 C       -3.1410    -3.5510     0.4060 C.3   1 <1>   0.1200 
 11 C       -4.8120    -1.7140    -0.3020 C.3   1 <1>  -0.0160 
 12 O       -1.7430    -3.5700     0.3770 O.3   1 <1>  -0.5600 
 13 C        0.2540     4.5130     0.8590 C.3   1 <1>   0.0400 
 14 C       -6.0430    -2.5810    -0.0860 C.ar  1 <1>  -0.1440 
 15 C       -6.8060    -3.0320    -1.1440 C.ar  1 <1>  -0.1500 
 16 C       -6.4590    -2.9640     1.1730 C.ar  1 <1>  -0.1500 
 17 C       -7.9140    -3.8260    -0.8990 C.ar  1 <1>   0.1600 
 18 C       -7.5840    -3.7610     1.3090 C.ar  1 <1>   0.1600 
 19 N       -8.3200    -4.2040     0.3030 N.ar  1 <1>  -0.6200 
 20 H       -1.7700    -0.9830     0.8460 H     1 <1>   0.3700 
 21 H       -2.9030     2.1720     0.9240 H     1 <1>   0.0800 
 22 H       -1.6170     1.1760     1.5700 H     1 <1>   0.0800 
 23 H       -2.2940    -1.4670    -2.0380 H     1 <1>   0.0800 
 24 H       -1.3680     3.2200    -0.6520 H     1 <1>   0.0800 
 25 H       -0.0660     2.1430    -0.1440 H     1 <1>   0.0800 
 26 H       -3.8590    -3.1610    -1.5480 H     1 <1>   0.0800 
 27 H       -0.2980    -2.4880    -0.5530 H     1 <1>   0.0800 
 28 H       -1.2290    -3.5920    -1.5630 H     1 <1>   0.0800 
 29 H       -3.5100    -4.5470     0.2270 H     1 <1>   0.0800 
 30 H       -3.4410    -3.2230     1.3850 H     1 <1>   0.0800 
 31 H       -5.0090    -1.0050    -1.0880 H     1 <1>   0.0800 
 32 H       -4.6110    -1.1530     0.5930 H     1 <1>   0.0800 
 33 H        0.4330     5.1230     1.7270 H     1 <1>   0.0800 
 34 H       -0.1710     5.1150     0.0740 H     1 <1>   0.0800 
 35 H        1.1760     4.0620     0.5350 H     1 <1>   0.0800 
 36 H       -6.5510    -2.7730    -2.1550 H     1 <1>   0.1500 
 37 H       -5.9230    -2.6500     2.0490 H     1 <1>   0.1500 
 38 H       -8.4980    -4.1680    -1.7360 H     1 <1>   0.1500 
 39 H       -7.8940    -4.0510     2.2990 H     1 <1>   0.1500 
@<TRIPOS>BOND
  1   1   2  2   
  2   2   3  am  
  3   2   4  1   
  4   3   5  1   
  5   3  20  1   
  6   4   6  1   
  7   4  21  1   
  8   4  22  1   
  9   5   7  1   
 10   5   8  1   
 11   5  23  1   
 12   6   9  1   
 13   6  24  1   
 14   6  25  1   
 15   7  10  1   
 16   7  11  1   
 17   7  26  1   
 18   8  12  1   
 19   8  27  1   
 20   8  28  1   
 21   9  13  1   
 22  10  12  1   
 23  10  29  1   
 24  10  30  1   
 25  11  14  1   
 26  11  31  1   
 27  11  32  1   
 28  13  33  1   
 29  13  34  1   
 30  13  35  1   
 31  14  15  ar  
 32  14  16  ar  
 33  15  17  ar  
 34  15  36  1   
 35  16  18  ar  
 36  16  37  1   
 37  17  19  ar  
 38  17  38  1   
 39  18  19  ar  
 40  18  39  1   
@<TRIPOS>SUBSTRUCTURE
  1 ****  11 GROUP 4 **** **** 0

# MOE 2024.06 (io_trps.svl 2023.06)
