@<TRIPOS>MOLECULE
NONAME
45 47 1 0 0 
SMALL
USER_CHARGES


@<TRIPOS>ATOM
  1 S        0.9150     0.2630     0.6550 S.3   1 <1>  -0.0800 
  2 C       -0.5240     1.2910     0.6160 C.2   1 <1>  -0.0450 
  3 C       -0.0280    -1.1940     0.4520 C.2   1 <1>  -0.1100 
  4 C       -1.6200     0.4980     0.4680 C.2   1 <1>  -0.1810 
  5 C       -0.3620     2.7180     0.7690 C.2   1 <1>   0.7150 
  6 C       -1.3370    -0.8970     0.3710 C.2   1 <1>  -0.1500 
  7 C       -3.0590     0.9820     0.4110 C.3   1 <1>  -0.0590 
  8 O       -1.0070     3.2970     1.6260 O.2   1 <1>  -0.5700 
  9 N        0.4840     3.4610    -0.0320 N.am  1 <1>  -0.6600 
 10 C        1.0790     2.9640    -1.3150 C.3   1 <1>   0.1400 
 11 C        0.7490     4.9000     0.2410 C.3   1 <1>   0.1400 
 12 C        2.6060     2.7850    -1.2380 C.3   1 <1>   0.1400 
 13 C        1.9870     5.0680     1.1300 C.3   1 <1>  -0.1600 
 14 N        3.3030     4.0030    -0.7160 N.am  1 <1>  -0.6600 
 15 C        3.1820     4.1780     0.7600 C.3   1 <1>   0.1400 
 16 C        4.0050     4.8340    -1.5540 C.2   1 <1>   0.5690 
 17 O        4.0470     4.6340    -2.7470 O.2   1 <1>  -0.5700 
 18 C        4.7490     6.0500    -1.0340 C.3   1 <1>   0.0440 
 19 C        6.0290     5.6610    -0.3190 C.ar  1 <1>   0.1670 
 20 N        6.1960     6.1570     0.9000 N.ar  1 <1>  -0.6200 
 21 C        6.9460     4.8330    -0.9500 C.ar  1 <1>  -0.1500 
 22 C        7.3180     5.8110     1.5110 C.ar  1 <1>   0.1600 
 23 C        8.1080     4.4790    -0.2990 C.ar  1 <1>  -0.1500 
 24 C        8.2900     4.9880     0.9680 C.ar  1 <1>  -0.1500 
 25 H        0.4990    -2.1310     0.4170 H     1 <1>   0.1500 
 26 H       -2.1270    -1.6180     0.2480 H     1 <1>   0.1500 
 27 H       -3.1080     2.0540     0.4790 H     1 <1>   0.0800 
 28 H       -3.6160     0.5650     1.2300 H     1 <1>   0.0800 
 29 H       -3.5140     0.6760    -0.5130 H     1 <1>   0.0800 
 30 H        0.8570     3.6650    -2.1000 H     1 <1>   0.0800 
 31 H        0.6300     2.0290    -1.5970 H     1 <1>   0.0800 
 32 H       -0.1030     5.3550     0.7170 H     1 <1>   0.0800 
 33 H        0.9080     5.4150    -0.6910 H     1 <1>   0.0800 
 34 H        2.9720     2.5440    -2.2210 H     1 <1>   0.0800 
 35 H        2.8390     1.9470    -0.6070 H     1 <1>   0.0800 
 36 H        1.7100     4.8570     2.1480 H     1 <1>   0.0800 
 37 H        2.2910     6.0980     1.1020 H     1 <1>   0.0800 
 38 H        3.0440     3.2110     1.2140 H     1 <1>   0.0800 
 39 H        4.0860     4.5880     1.1730 H     1 <1>   0.0800 
 40 H        4.1080     6.6080    -0.3800 H     1 <1>   0.0800 
 41 H        5.0000     6.6890    -1.8600 H     1 <1>   0.0800 
 42 H        6.7540     4.4660    -1.9430 H     1 <1>   0.1500 
 43 H        7.4730     6.2060     2.5010 H     1 <1>   0.1500 
 44 H        8.8380     3.8360    -0.7610 H     1 <1>   0.1500 
 45 H        9.1740     4.7530     1.5300 H     1 <1>   0.1500 
@<TRIPOS>BOND
  1   1   2  1   
  2   1   3  1   
  3   2   4  2   
  4   2   5  1   
  5   3   6  2   
  6   3  25  1   
  7   4   6  1   
  8   4   7  1   
  9   5   8  2   
 10   5   9  am  
 11   6  26  1   
 12   7  27  1   
 13   7  28  1   
 14   7  29  1   
 15   9  10  1   
 16   9  11  1   
 17  10  12  1   
 18  10  30  1   
 19  10  31  1   
 20  11  13  1   
 21  11  32  1   
 22  11  33  1   
 23  12  14  1   
 24  12  34  1   
 25  12  35  1   
 26  13  15  1   
 27  13  36  1   
 28  13  37  1   
 29  14  15  1   
 30  14  16  am  
 31  15  38  1   
 32  15  39  1   
 33  16  17  2   
 34  16  18  1   
 35  18  19  1   
 36  18  40  1   
 37  18  41  1   
 38  19  20  ar  
 39  19  21  ar  
 40  20  22  ar  
 41  21  23  ar  
 42  21  42  1   
 43  22  24  ar  
 44  22  43  1   
 45  23  24  ar  
 46  23  44  1   
 47  24  45  1   
@<TRIPOS>SUBSTRUCTURE
  1 ****  14 GROUP 4 **** **** 0

# MOE 2024.06 (io_trps.svl 2023.06)
