@<TRIPOS>MOLECULE
NONAME
47 50 1 0 0 
SMALL
USER_CHARGES


@<TRIPOS>ATOM
  1 S       -0.4290    -1.2470    -0.4560 S.3   1 <1>  -0.0800 
  2 C       -1.9010    -1.6530     0.4150 C.2   1 <1>  -0.1400 
  3 C       -1.1420     0.2370    -1.0580 C.2   1 <1>  -0.1100 
  4 C       -2.8350    -0.7000     0.2320 C.2   1 <1>  -0.1500 
  5 C       -1.9000    -2.9490     1.1970 C.3   1 <1>   0.5230 
  6 C       -2.4020     0.3750    -0.6070 C.2   1 <1>  -0.1500 
  7 N       -1.6600    -4.0670     0.2500 N.4   1 <1>  -0.9590 
  8 C       -2.8330    -4.1630    -0.7020 C.3   1 <1>   0.3430 
  9 C       -1.3590    -5.3160     1.0140 C.3   1 <1>   0.3430 
 10 C       -2.8680    -5.3990    -1.6280 C.3   1 <1>   0.2090 
 11 C       -0.6520    -6.3410     0.1230 C.3   1 <1>  -0.1600 
 12 N       -2.9030    -6.6880    -0.8730 N.pl3 1 <1>  -0.8380 
 13 C       -1.6140    -7.3340    -0.5350 C.3   1 <1>   0.2090 
 14 C       -4.0510    -7.0740    -0.1930 C.ar  1 <1>   0.4100 
 15 N       -4.5320    -6.2120     0.6790 N.ar  1 <1>  -0.3100 
 16 C       -4.6330    -8.3470    -0.4150 C.ar  1 <1>   0.0000 
 17 N       -5.5810    -6.5250     1.4250 N.ar  1 <1>  -0.3100 
 18 C       -5.7320    -8.6810     0.3900 C.ar  1 <1>   0.0000 
 19 C       -4.1930    -9.2760    -1.3830 C.ar  1 <1>  -0.1500 
 20 C       -6.1530    -7.6920     1.3010 C.ar  1 <1>   0.1670 
 21 C       -6.3270    -9.9540     0.2270 C.ar  1 <1>  -0.1500 
 22 C       -4.7910   -10.4980    -1.5260 C.ar  1 <1>  -0.1500 
 23 C       -7.3440    -7.9550     2.2080 C.3   1 <1>  -0.0970 
 24 C       -5.8680   -10.8420    -0.7060 C.ar  1 <1>  -0.1500 
 25 H       -0.5360     0.8610    -1.6930 H     1 <1>   0.1500 
 26 H       -3.8290    -0.6910     0.6520 H     1 <1>   0.1500 
 27 H       -2.8450    -3.0820     1.6990 H     1 <1>   0.0800 
 28 H       -1.1170    -2.9130     1.9370 H     1 <1>   0.0800 
 29 H       -3.0560     1.2020    -0.8310 H     1 <1>   0.1500 
 30 H       -0.8300    -3.8060    -0.2940 H     1 <1>   0.4500 
 31 H       -2.8490    -3.2830    -1.3240 H     1 <1>   0.0800 
 32 H       -3.7490    -4.1550    -0.1350 H     1 <1>   0.0800 
 33 H       -2.2620    -5.7380     1.4260 H     1 <1>   0.0800 
 34 H       -0.7000    -5.0760     1.8330 H     1 <1>   0.0800 
 35 H       -2.0240    -5.3860    -2.2950 H     1 <1>   0.0800 
 36 H       -3.7570    -5.3410    -2.2340 H     1 <1>   0.0800 
 37 H        0.0230    -6.9140     0.7330 H     1 <1>   0.0800 
 38 H       -0.0540    -5.8520    -0.6250 H     1 <1>   0.0800 
 39 H       -1.8020    -8.1480     0.1480 H     1 <1>   0.0800 
 40 H       -1.1700    -7.7500    -1.4240 H     1 <1>   0.0800 
 41 H       -3.3720    -9.0080    -2.0230 H     1 <1>   0.1500 
 42 H       -7.1600   -10.2310     0.8470 H     1 <1>   0.1500 
 43 H       -4.4470   -11.2020    -2.2640 H     1 <1>   0.1500 
 44 H       -7.5410    -7.1010     2.8320 H     1 <1>   0.0800 
 45 H       -7.1440    -8.7980     2.8430 H     1 <1>   0.0800 
 46 H       -8.2200    -8.1510     1.6170 H     1 <1>   0.0800 
 47 H       -6.3280   -11.8090    -0.8250 H     1 <1>   0.1500 
@<TRIPOS>BOND
  1   1   2  1   
  2   1   3  1   
  3   2   4  2   
  4   2   5  1   
  5   3   6  2   
  6   3  25  1   
  7   4   6  1   
  8   4  26  1   
  9   5   7  1   
 10   5  27  1   
 11   5  28  1   
 12   6  29  1   
 13   7   8  1   
 14   7   9  1   
 15   7  30  1   
 16   8  10  1   
 17   8  31  1   
 18   8  32  1   
 19   9  11  1   
 20   9  33  1   
 21   9  34  1   
 22  10  12  1   
 23  10  35  1   
 24  10  36  1   
 25  11  13  1   
 26  11  37  1   
 27  11  38  1   
 28  12  13  1   
 29  12  14  1   
 30  13  39  1   
 31  13  40  1   
 32  14  15  ar  
 33  14  16  ar  
 34  15  17  ar  
 35  16  18  ar  
 36  16  19  ar  
 37  17  20  ar  
 38  18  20  ar  
 39  18  21  ar  
 40  19  22  ar  
 41  19  41  1   
 42  20  23  1   
 43  21  24  ar  
 44  21  42  1   
 45  22  24  ar  
 46  22  43  1   
 47  23  44  1   
 48  23  45  1   
 49  23  46  1   
 50  24  47  1   
@<TRIPOS>SUBSTRUCTURE
  1 ****  15 GROUP 4 **** **** 0

# MOE 2024.06 (io_trps.svl 2023.06)
