@<TRIPOS>MOLECULE
NONAME
49 51 1 0 0 
SMALL
USER_CHARGES


@<TRIPOS>ATOM
  1 O        0.6310     0.6470    -1.2870 O.2   1 <1>  -0.5700 
  2 C        1.3830    -0.2140    -0.9030 C.2   1 <1>   0.5690 
  3 N        2.5900     0.1150    -0.3200 N.am  1 <1>  -0.6600 
  4 C        0.9150    -1.6410    -1.0880 C.3   1 <1>   0.1570 
  5 C        3.6780    -0.8510     0.0570 C.3   1 <1>   0.1400 
  6 C        2.7800     1.4940     0.2150 C.3   1 <1>   0.1400 
  7 N        0.6680    -2.2270     0.2310 N.pl3 1 <1>   0.3140 
  8 C        5.0200    -0.6050    -0.6730 C.3   1 <1>   0.3430 
  9 C        3.5210     2.3710    -0.7960 C.3   1 <1>  -0.1600 
 10 N        1.4280    -3.1660     0.7500 N.2   1 <1>  -0.4180 
 11 C       -0.2470    -1.9140     1.1290 C.2   1 <1>   0.0360 
 12 N        5.4660     0.8280    -0.7040 N.4   1 <1>  -0.9590 
 13 C        4.6020     1.6530    -1.5990 C.3   1 <1>   0.3430 
 14 N        0.9650    -3.3980     1.9260 N.2   1 <1>   0.0000 
 15 N       -0.0820    -2.6200     2.1800 N.2   1 <1>  -0.3380 
 16 C        6.8860     0.9610    -1.0900 C.3   1 <1>   0.5230 
 17 C        7.3310     2.2870    -0.5270 C.2   1 <1>  -0.3320 
 18 N        7.8200     2.4600     0.7370 N.pl3 1 <1>   0.0480 
 19 C        7.3250     3.4860    -1.1650 C.2   1 <1>  -0.1500 
 20 C        8.0970     3.7740     0.8760 C.2   1 <1>  -0.3020 
 21 C        8.0750     1.4360     1.7700 C.3   1 <1>   0.0160 
 22 C        7.8050     4.4630    -0.2750 C.2   1 <1>  -0.0860 
 23 C        7.9310     5.8620    -0.5880 C.2   1 <1>   0.5950 
 24 O        7.5550     6.3360    -1.6300 O.2   1 <1>  -0.5700 
 25 C        8.5510     6.7910     0.4310 C.3   1 <1>  -0.1790 
 26 H        1.6540    -2.2180    -1.6080 H     1 <1>   0.0800 
 27 H        0.0010    -1.6560    -1.6500 H     1 <1>   0.0800 
 28 H        3.3830    -1.8590    -0.1620 H     1 <1>   0.0800 
 29 H        3.8360    -0.8030     1.1210 H     1 <1>   0.0800 
 30 H        3.3310     1.4480     1.1390 H     1 <1>   0.0800 
 31 H        1.8250     1.9410     0.4420 H     1 <1>   0.0800 
 32 H        4.9280    -0.9680    -1.6830 H     1 <1>   0.0800 
 33 H        5.7720    -1.2050    -0.1880 H     1 <1>   0.0800 
 34 H        3.9500     3.2170    -0.2870 H     1 <1>   0.0800 
 35 H        2.8000     2.7660    -1.4910 H     1 <1>   0.0800 
 36 H       -1.0060    -1.1670     0.9840 H     1 <1>   0.1500 
 37 H        5.4050     1.2500     0.2280 H     1 <1>   0.4500 
 38 H        5.1910     2.3930    -2.1170 H     1 <1>   0.0800 
 39 H        4.1360     1.0230    -2.3390 H     1 <1>   0.0800 
 40 H        6.9900     0.9500    -2.1640 H     1 <1>   0.0800 
 41 H        7.4810     0.1670    -0.6700 H     1 <1>   0.0800 
 42 H        7.0220     3.7220    -2.1730 H     1 <1>   0.1500 
 43 H        8.5010     4.1810     1.7880 H     1 <1>   0.1500 
 44 H        7.1550     0.9550     2.0440 H     1 <1>   0.0800 
 45 H        8.4990     1.9030     2.6410 H     1 <1>   0.0800 
 46 H        8.7720     0.7100     1.3920 H     1 <1>   0.0800 
 47 H        9.5240     6.4310     0.7060 H     1 <1>   0.0800 
 48 H        7.9260     6.8410     1.3020 H     1 <1>   0.0800 
 49 H        8.6500     7.7770     0.0140 H     1 <1>   0.0800 
@<TRIPOS>BOND
  1   1   2  2   
  2   2   3  am  
  3   2   4  1   
  4   3   5  1   
  5   3   6  1   
  6   4   7  1   
  7   4  26  1   
  8   4  27  1   
  9   5   8  1   
 10   5  28  1   
 11   5  29  1   
 12   6   9  1   
 13   6  30  1   
 14   6  31  1   
 15   7  10  1   
 16   7  11  1   
 17   8  12  1   
 18   8  32  1   
 19   8  33  1   
 20   9  13  1   
 21   9  34  1   
 22   9  35  1   
 23  10  14  2   
 24  11  15  2   
 25  11  36  1   
 26  12  13  1   
 27  12  16  1   
 28  12  37  1   
 29  13  38  1   
 30  13  39  1   
 31  14  15  1   
 32  16  17  1   
 33  16  40  1   
 34  16  41  1   
 35  17  18  1   
 36  17  19  2   
 37  18  20  1   
 38  18  21  1   
 39  19  22  1   
 40  19  42  1   
 41  20  22  2   
 42  20  43  1   
 43  21  44  1   
 44  21  45  1   
 45  21  46  1   
 46  22  23  1   
 47  23  24  2   
 48  23  25  1   
 49  25  47  1   
 50  25  48  1   
 51  25  49  1   
@<TRIPOS>SUBSTRUCTURE
  1 ****  12 GROUP 4 **** **** 0

# MOE 2024.06 (io_trps.svl 2023.06)
