@<TRIPOS>MOLECULE
NONAME
42 45 1 0 0 
SMALL
USER_CHARGES


@<TRIPOS>ATOM
  1 S       -0.2830     0.4770     1.3640 S.3   1 <1>  -0.0800 
  2 C       -0.0970     1.7170     0.1430 C.2   1 <1>  -0.1400 
  3 C        1.1450     1.0640     2.2040 C.2   1 <1>  -0.1100 
  4 C        0.9720     2.4890     0.3720 C.2   1 <1>  -0.1810 
  5 C       -1.0510     1.8690    -1.0110 C.3   1 <1>   0.0200 
  6 C        1.6850     2.1180     1.5610 C.2   1 <1>  -0.1500 
  7 C        1.3380     3.6310    -0.5800 C.3   1 <1>   0.4610 
  8 C       -0.8470     3.2790    -1.5860 C.3   1 <1>   0.1200 
  9 O        0.5220     3.5770    -1.7370 O.3   1 <1>  -0.5600 
 10 C        2.7810     3.4760    -1.0720 C.3   1 <1>  -0.1600 
 11 C        1.1520     4.9970     0.0970 C.3   1 <1>  -0.1600 
 12 C        3.2010     4.6430    -1.9660 C.3   1 <1>   0.1400 
 13 C        1.5870     6.1450    -0.8160 C.3   1 <1>   0.1400 
 14 N        3.0010     5.9240    -1.2280 N.am  1 <1>  -0.6600 
 15 C        4.0690     6.7500    -0.9390 C.2   1 <1>   0.5690 
 16 O        5.2060     6.3660    -1.1170 O.2   1 <1>  -0.5700 
 17 C        3.8520     8.1590    -0.3300 C.3   1 <1>   0.2610 
 18 O        4.7390     9.1230    -0.8400 O.3   1 <1>  -0.5600 
 19 C        4.0560     8.1820     1.1920 C.3   1 <1>  -0.1600 
 20 C        5.8070     9.2930     0.0260 C.3   1 <1>   0.1200 
 21 C        5.1900     9.1720     1.4090 C.3   1 <1>  -0.1600 
 22 H        1.4330     0.5490     3.1040 H     1 <1>   0.1500 
 23 H       -0.8430     1.1260    -1.7590 H     1 <1>   0.0800 
 24 H       -2.0670     1.7530    -0.6780 H     1 <1>   0.0800 
 25 H        2.5630     2.6530     1.8780 H     1 <1>   0.1500 
 26 H       -1.2870     4.0150    -0.9370 H     1 <1>   0.0800 
 27 H       -1.3080     3.3550    -2.5550 H     1 <1>   0.0800 
 28 H        3.4530     3.4330    -0.2360 H     1 <1>   0.0800 
 29 H        2.8720     2.5500    -1.6110 H     1 <1>   0.0800 
 30 H        0.1290     5.1250     0.3940 H     1 <1>   0.0800 
 31 H        1.7460     5.0280     0.9920 H     1 <1>   0.0800 
 32 H        2.6020     4.6550    -2.8610 H     1 <1>   0.0800 
 33 H        4.2290     4.5230    -2.2600 H     1 <1>   0.0800 
 34 H        1.4640     7.0720    -0.2900 H     1 <1>   0.0800 
 35 H        0.9650     6.1720    -1.6950 H     1 <1>   0.0800 
 36 H        2.8730     8.5150    -0.5830 H     1 <1>   0.0800 
 37 H        3.1590     8.4870     1.6990 H     1 <1>   0.0800 
 38 H        4.3380     7.2030     1.5400 H     1 <1>   0.0800 
 39 H        6.5160     8.5030    -0.1600 H     1 <1>   0.0800 
 40 H        6.2600    10.2530    -0.1500 H     1 <1>   0.0800 
 41 H        5.9070     8.8310     2.1360 H     1 <1>   0.0800 
 42 H        4.8040    10.1300     1.7090 H     1 <1>   0.0800 
@<TRIPOS>BOND
  1   1   2  1   
  2   1   3  1   
  3   2   4  2   
  4   2   5  1   
  5   3   6  2   
  6   3  22  1   
  7   4   6  1   
  8   4   7  1   
  9   5   8  1   
 10   5  23  1   
 11   5  24  1   
 12   6  25  1   
 13   7   9  1   
 14   7  10  1   
 15   7  11  1   
 16   8   9  1   
 17   8  26  1   
 18   8  27  1   
 19  10  12  1   
 20  10  28  1   
 21  10  29  1   
 22  11  13  1   
 23  11  30  1   
 24  11  31  1   
 25  12  14  1   
 26  12  32  1   
 27  12  33  1   
 28  13  14  1   
 29  13  34  1   
 30  13  35  1   
 31  14  15  am  
 32  15  16  2   
 33  15  17  1   
 34  17  18  1   
 35  17  19  1   
 36  17  36  1   
 37  18  20  1   
 38  19  21  1   
 39  19  37  1   
 40  19  38  1   
 41  20  21  1   
 42  20  39  1   
 43  20  40  1   
 44  21  41  1   
 45  21  42  1   
@<TRIPOS>SUBSTRUCTURE
  1 ****  11 GROUP 4 **** **** 0

# MOE 2024.06 (io_trps.svl 2023.06)
