@<TRIPOS>MOLECULE
NONAME
58 60 1 0 0 
SMALL
USER_CHARGES


@<TRIPOS>ATOM
  1 O        1.2810    -1.8270     0.3520 O.3   1 <1>  -0.3630 
  2 C        0.7050    -2.9500     0.8330 C.ar  1 <1>   0.0820 
  3 C        0.7840    -1.3070    -0.8610 C.3   1 <1>   0.2000 
  4 C        1.2350    -4.2050     0.5460 C.ar  1 <1>  -0.1440 
  5 C       -0.4100    -2.8290     1.6460 C.ar  1 <1>  -0.1500 
  6 C        1.9800    -0.8200    -1.6770 C.3   1 <1>  -0.2400 
  7 C       -0.1740    -0.1580    -0.5490 C.3   1 <1>  -0.2400 
  8 C        0.6030    -5.3320     1.0510 C.ar  1 <1>  -0.1500 
  9 C        2.5050    -4.3600    -0.2840 C.3   1 <1>   0.1220 
 10 C       -1.0260    -3.9570     2.1530 C.ar  1 <1>  -0.1500 
 11 C       -0.5280    -5.2160     1.8500 C.ar  1 <1>  -0.1430 
 12 C        2.1790    -4.7180    -1.7250 C.2   1 <1>  -0.2880 
 13 C       -1.2150    -6.4520     2.3960 C.3   1 <1>   0.4860 
 14 C        2.7270    -5.7240    -2.4130 C.2   1 <1>  -0.3000 
 15 N       -2.0630    -7.0370     1.3300 N.4   1 <1>  -0.9590 
 16 C       -3.0690    -6.1120     0.7300 C.3   1 <1>   0.3430 
 17 C       -2.7680    -8.2960     1.6590 C.3   1 <1>   0.3430 
 18 C       -4.2150    -7.0010     0.2270 C.3   1 <1>   0.2000 
 19 C       -3.8260    -8.4480     0.5630 C.3   1 <1>  -0.0800 
 20 O       -5.3820    -6.6780     0.9110 O.3   1 <1>  -0.6800 
 21 C       -3.3120    -9.2350    -0.6700 C.3   1 <1>  -0.0170 
 22 C       -1.8560    -8.9910    -1.0590 C.ar  1 <1>   0.1670 
 23 N       -1.5190    -7.7520    -1.3870 N.ar  1 <1>  -0.6200 
 24 C       -0.9630   -10.0540    -1.0480 C.ar  1 <1>  -0.1500 
 25 C       -0.2560    -7.5690    -1.7490 C.ar  1 <1>   0.1600 
 26 C        0.3520    -9.8460    -1.4040 C.ar  1 <1>  -0.1500 
 27 C        0.7030    -8.5660    -1.7670 C.ar  1 <1>  -0.1500 
 28 H        0.2720    -2.0910    -1.3940 H     1 <1>   0.0800 
 29 H       -0.7830    -1.8500     1.8840 H     1 <1>   0.1500 
 30 H        2.5180    -0.0630    -1.1350 H     1 <1>   0.0800 
 31 H        1.6450    -0.4040    -2.6090 H     1 <1>   0.0800 
 32 H        2.6410    -1.6390    -1.8930 H     1 <1>   0.0800 
 33 H        0.3180     0.5850     0.0520 H     1 <1>   0.0800 
 34 H       -1.0410    -0.5230    -0.0320 H     1 <1>   0.0800 
 35 H       -0.5030     0.3020    -1.4630 H     1 <1>   0.0800 
 36 H        1.0080    -6.3020     0.8200 H     1 <1>   0.1500 
 37 H        3.0750    -3.4480    -0.2660 H     1 <1>   0.0800 
 38 H        3.1270    -5.1220     0.1500 H     1 <1>   0.0800 
 39 H       -1.8890    -3.8350     2.7850 H     1 <1>   0.1500 
 40 H        1.4530    -4.0510    -2.1570 H     1 <1>   0.1500 
 41 H       -1.8190    -6.1850     3.2480 H     1 <1>   0.0800 
 42 H       -0.4720    -7.1650     2.7120 H     1 <1>   0.0800 
 43 H        2.4870    -5.9500    -3.4390 H     1 <1>   0.1500 
 44 H        3.4660    -6.4000    -2.0180 H     1 <1>   0.1500 
 45 H       -1.4460    -7.2580     0.5200 H     1 <1>   0.4500 
 46 H       -3.4400    -5.4130     1.4600 H     1 <1>   0.0800 
 47 H       -2.6250    -5.5730    -0.0920 H     1 <1>   0.0800 
 48 H       -2.0920    -9.1370     1.6790 H     1 <1>   0.0800 
 49 H       -3.2520    -8.2020     2.6180 H     1 <1>   0.0800 
 50 H       -4.3970    -6.8450    -0.8230 H     1 <1>   0.0800 
 51 H       -4.6780    -8.9820     0.9460 H     1 <1>   0.0800 
 52 H       -5.3570    -6.9210     1.8560 H     1 <1>   0.4000 
 53 H       -3.9330    -9.0170    -1.5220 H     1 <1>   0.0800 
 54 H       -3.4390   -10.2840    -0.4690 H     1 <1>   0.0800 
 55 H       -1.2840   -11.0440    -0.7760 H     1 <1>   0.1500 
 56 H        0.0330    -6.5740    -2.0470 H     1 <1>   0.1500 
 57 H        1.0700   -10.6500    -1.4100 H     1 <1>   0.1500 
 58 H        1.7110    -8.3430    -2.0690 H     1 <1>   0.1500 
@<TRIPOS>BOND
  1   1   2  1   
  2   1   3  1   
  3   2   4  ar  
  4   2   5  ar  
  5   3   6  1   
  6   3   7  1   
  7   3  28  1   
  8   4   8  ar  
  9   4   9  1   
 10   5  10  ar  
 11   5  29  1   
 12   6  30  1   
 13   6  31  1   
 14   6  32  1   
 15   7  33  1   
 16   7  34  1   
 17   7  35  1   
 18   8  11  ar  
 19   8  36  1   
 20   9  12  1   
 21   9  37  1   
 22   9  38  1   
 23  10  11  ar  
 24  10  39  1   
 25  11  13  1   
 26  12  14  2   
 27  12  40  1   
 28  13  15  1   
 29  13  41  1   
 30  13  42  1   
 31  14  43  1   
 32  14  44  1   
 33  15  16  1   
 34  15  17  1   
 35  15  45  1   
 36  16  18  1   
 37  16  46  1   
 38  16  47  1   
 39  17  19  1   
 40  17  48  1   
 41  17  49  1   
 42  18  19  1   
 43  18  20  1   
 44  18  50  1   
 45  19  21  1   
 46  19  51  1   
 47  20  52  1   
 48  21  22  1   
 49  21  53  1   
 50  21  54  1   
 51  22  23  ar  
 52  22  24  ar  
 53  23  25  ar  
 54  24  26  ar  
 55  24  55  1   
 56  25  27  ar  
 57  25  56  1   
 58  26  27  ar  
 59  26  57  1   
 60  27  58  1   
@<TRIPOS>SUBSTRUCTURE
  1 ****   8 GROUP 4 **** **** 0

# MOE 2024.06 (io_trps.svl 2023.06)
