@<TRIPOS>MOLECULE
NONAME
52 54 1 0 0 
SMALL
USER_CHARGES


@<TRIPOS>ATOM
  1 S        1.4710    -1.0220     0.9570 S.o2  1 <1>   1.5760 
  2 O        2.2560    -2.2240     0.8050 O.2   1 <1>  -0.6500 
  3 O        1.7850    -0.0580     1.9820 O.2   1 <1>  -0.6500 
  4 N        1.2860    -0.2890    -0.5530 N.am  1 <1>  -0.8490 
  5 N       -0.1080    -1.4920     1.2110 N.am  1 <1>  -0.9140 
  6 C        0.4980     0.9500    -0.5660 C.3   1 <1>   0.1960 
  7 C        2.5260    -0.1840    -1.3220 C.3   1 <1>   0.1960 
  8 C       -0.5000    -2.6640     0.4460 C.3   1 <1>   0.2760 
  9 C        1.3060     2.1880    -0.1500 C.3   1 <1>  -0.1600 
 10 C        3.3980     0.9790    -0.8360 C.3   1 <1>  -0.1600 
 11 C       -2.0180    -2.6980     0.3780 C.3   1 <1>  -0.0800 
 12 C       -0.2090    -3.9520     1.2230 C.3   1 <1>   0.1200 
 13 C        2.6330     2.3080    -0.9180 C.3   1 <1>  -0.0800 
 14 C       -2.3840    -3.3630     1.7090 C.3   1 <1>   0.1200 
 15 C       -2.5160    -3.5050    -0.8370 C.3   1 <1>  -0.0170 
 16 O       -1.2800    -4.1270     2.1020 O.3   1 <1>  -0.5600 
 17 C        3.4910     3.4620    -0.3820 C.3   1 <1>   0.1200 
 18 C       -4.0350    -3.5290    -0.9060 C.ar  1 <1>  -0.1430 
 19 O        2.8020     4.6570    -0.5670 O.3   1 <1>  -0.5600 
 20 C       -4.7620    -2.4290    -1.3140 C.ar  1 <1>  -0.1500 
 21 C       -4.7650    -4.6500    -0.5660 C.ar  1 <1>  -0.1500 
 22 C        3.4570     5.7690    -0.0510 C.3   1 <1>   0.0400 
 23 C       -6.1450    -2.4990    -1.3560 C.ar  1 <1>   0.1600 
 24 C       -6.1480    -4.6160    -0.6430 C.ar  1 <1>   0.1600 
 25 N       -6.8550    -3.5660    -1.0280 N.ar  1 <1>  -0.6200 
 26 H       -0.1260    -1.7690     2.1900 H     1 <1>   0.4200 
 27 H        0.1350     1.1050    -1.5680 H     1 <1>   0.0800 
 28 H       -0.3620     0.8480     0.0740 H     1 <1>   0.0800 
 29 H        3.0790    -1.1070    -1.2650 H     1 <1>   0.0800 
 30 H        2.2750    -0.0240    -2.3570 H     1 <1>   0.0800 
 31 H       -0.0460    -2.6540    -0.5320 H     1 <1>   0.0800 
 32 H        0.7100     3.0640    -0.3330 H     1 <1>   0.0800 
 33 H        1.4960     2.1590     0.9070 H     1 <1>   0.0800 
 34 H        3.7170     0.7930     0.1750 H     1 <1>   0.0800 
 35 H        4.2780     1.0330    -1.4500 H     1 <1>   0.0800 
 36 H       -2.4260    -1.7040     0.3220 H     1 <1>   0.0800 
 37 H        0.7100    -3.9190     1.7820 H     1 <1>   0.0800 
 38 H       -0.1910    -4.7980     0.5600 H     1 <1>   0.0800 
 39 H        2.4180     2.5080    -1.9540 H     1 <1>   0.0800 
 40 H       -3.2470    -4.0010     1.6450 H     1 <1>   0.0800 
 41 H       -2.5490    -2.6190     2.4700 H     1 <1>   0.0800 
 42 H       -2.1430    -4.5140    -0.7940 H     1 <1>   0.0800 
 43 H       -2.1390    -3.0590    -1.7410 H     1 <1>   0.0800 
 44 H        4.4220     3.5200    -0.9180 H     1 <1>   0.0800 
 45 H        3.6830     3.3290     0.6700 H     1 <1>   0.0800 
 46 H       -4.2680    -1.5190    -1.5990 H     1 <1>   0.1500 
 47 H       -4.2750    -5.5500    -0.2410 H     1 <1>   0.1500 
 48 H        2.8510     6.6350    -0.2500 H     1 <1>   0.0800 
 49 H        4.4130     5.8750    -0.5350 H     1 <1>   0.0800 
 50 H        3.5790     5.6480     1.0110 H     1 <1>   0.0800 
 51 H       -6.6960    -1.6320    -1.6770 H     1 <1>   0.1500 
 52 H       -6.7010    -5.4990    -0.3730 H     1 <1>   0.1500 
@<TRIPOS>BOND
  1   1   2  2   
  2   1   3  2   
  3   1   4  am  
  4   1   5  am  
  5   4   6  1   
  6   4   7  1   
  7   5   8  1   
  8   5  26  1   
  9   6   9  1   
 10   6  27  1   
 11   6  28  1   
 12   7  10  1   
 13   7  29  1   
 14   7  30  1   
 15   8  11  1   
 16   8  12  1   
 17   8  31  1   
 18   9  13  1   
 19   9  32  1   
 20   9  33  1   
 21  10  13  1   
 22  10  34  1   
 23  10  35  1   
 24  11  14  1   
 25  11  15  1   
 26  11  36  1   
 27  12  16  1   
 28  12  37  1   
 29  12  38  1   
 30  13  17  1   
 31  13  39  1   
 32  14  16  1   
 33  14  40  1   
 34  14  41  1   
 35  15  18  1   
 36  15  42  1   
 37  15  43  1   
 38  17  19  1   
 39  17  44  1   
 40  17  45  1   
 41  18  20  ar  
 42  18  21  ar  
 43  19  22  1   
 44  20  23  ar  
 45  20  46  1   
 46  21  24  ar  
 47  21  47  1   
 48  22  48  1   
 49  22  49  1   
 50  22  50  1   
 51  23  25  ar  
 52  23  51  1   
 53  24  25  ar  
 54  24  52  1   
@<TRIPOS>SUBSTRUCTURE
  1 ****   5 GROUP 4 **** **** 0

# MOE 2024.06 (io_trps.svl 2023.06)
