@<TRIPOS>MOLECULE
NONAME
51 54 1 0 0 
SMALL
USER_CHARGES


@<TRIPOS>ATOM
  1 O        2.1580    -0.7080     2.6010 O.2   1 <1>  -0.5700 
  2 C        2.1720    -1.0980     1.4490 C.2   1 <1>   0.5440 
  3 N        2.3600    -0.1730     0.4340 N.am  1 <1>  -0.6600 
  4 C        2.0260    -2.5130     1.1810 C.ar  1 <1>   0.0860 
  5 C        2.5790     1.2650     0.7980 C.3   1 <1>   0.1400 
  6 C        2.6800    -0.5970    -0.9660 C.3   1 <1>   0.1400 
  7 C        0.8140    -3.0480     0.7560 C.ar  1 <1>  -0.1500 
  8 C        3.1080    -3.3780     1.3260 C.ar  1 <1>  -0.1500 
  9 C        4.0740     1.6820     0.8160 C.3   1 <1>   0.4230 
 10 C        4.0450    -0.0960    -1.4910 C.3   1 <1>  -0.0800 
 11 C        0.6620    -4.3990     0.4690 C.ar  1 <1>   0.0000 
 12 C        2.9820    -4.7260     1.0460 C.ar  1 <1>  -0.1500 
 13 N        4.5680     2.1840    -0.5200 N.4   1 <1>  -0.9590 
 14 C        5.0460     0.6050     1.3700 C.3   1 <1>   0.1200 
 15 C        5.2870    -0.6170    -0.7340 C.3   1 <1>   0.1200 
 16 C        4.0490     1.4210    -1.6940 C.3   1 <1>   0.3430 
 17 C       -0.6100    -4.9260     0.0340 C.ar  1 <1>   0.0000 
 18 C        1.7680    -5.2300     0.6190 C.ar  1 <1>  -0.1500 
 19 C        4.3080     3.6480    -0.6870 C.3   1 <1>   0.2630 
 20 O        5.1230    -0.6020     0.6490 O.3   1 <1>  -0.5600 
 21 C       -1.2090    -4.4770    -1.1420 C.ar  1 <1>  -0.1500 
 22 C       -1.2730    -5.8970     0.7810 C.ar  1 <1>  -0.1500 
 23 C       -2.4290    -4.9780    -1.5560 C.ar  1 <1>  -0.1500 
 24 C       -2.4940    -6.4040     0.3750 C.ar  1 <1>  -0.1500 
 25 C       -3.0690    -5.9400    -0.7970 C.ar  1 <1>   0.0820 
 26 O       -4.2510    -6.4180    -1.2070 O.3   1 <1>  -0.5330 
 27 H        2.0190     1.8930     0.1300 H     1 <1>   0.0800 
 28 H        2.1790     1.4480     1.7800 H     1 <1>   0.0800 
 29 H        2.6760    -1.6710    -1.0380 H     1 <1>   0.0800 
 30 H        1.8940    -0.2430    -1.6110 H     1 <1>   0.0800 
 31 H       -0.0350    -2.3950     0.6550 H     1 <1>   0.1500 
 32 H        4.0510    -2.9800     1.6620 H     1 <1>   0.1500 
 33 H        4.1370     2.5090     1.5030 H     1 <1>   0.0800 
 34 H        4.1220    -0.5010    -2.4840 H     1 <1>   0.0800 
 35 H        3.8280    -5.3820     1.1630 H     1 <1>   0.1500 
 36 H        5.5870     2.0380    -0.5000 H     1 <1>   0.4500 
 37 H        4.7290     0.3390     2.3650 H     1 <1>   0.0800 
 38 H        6.0410     1.0060     1.4460 H     1 <1>   0.0800 
 39 H        6.1800    -0.0720    -0.9870 H     1 <1>   0.0800 
 40 H        5.4470    -1.6490    -1.0000 H     1 <1>   0.0800 
 41 H        3.0440     1.7400    -1.9200 H     1 <1>   0.0800 
 42 H        4.6610     1.6510    -2.5510 H     1 <1>   0.0800 
 43 H        1.6710    -6.2790     0.3990 H     1 <1>   0.1500 
 44 H        3.2480     3.8420    -0.7030 H     1 <1>   0.0800 
 45 H        4.7360     4.0020    -1.6110 H     1 <1>   0.0800 
 46 H        4.7480     4.2030     0.1260 H     1 <1>   0.0800 
 47 H       -0.7120    -3.7320    -1.7350 H     1 <1>   0.1500 
 48 H       -0.8240    -6.2500     1.6930 H     1 <1>   0.1500 
 49 H       -2.8890    -4.6300    -2.4630 H     1 <1>   0.1500 
 50 H       -2.9880    -7.1510     0.9680 H     1 <1>   0.1500 
 51 H       -4.6240    -7.0910    -0.6110 H     1 <1>   0.4500 
@<TRIPOS>BOND
  1   1   2  2   
  2   2   3  am  
  3   2   4  1   
  4   3   5  1   
  5   3   6  1   
  6   4   7  ar  
  7   4   8  ar  
  8   5   9  1   
  9   5  27  1   
 10   5  28  1   
 11   6  10  1   
 12   6  29  1   
 13   6  30  1   
 14   7  11  ar  
 15   7  31  1   
 16   8  12  ar  
 17   8  32  1   
 18   9  13  1   
 19   9  14  1   
 20   9  33  1   
 21  10  15  1   
 22  10  16  1   
 23  10  34  1   
 24  11  17  1   
 25  11  18  ar  
 26  12  18  ar  
 27  12  35  1   
 28  13  16  1   
 29  13  19  1   
 30  13  36  1   
 31  14  20  1   
 32  14  37  1   
 33  14  38  1   
 34  15  20  1   
 35  15  39  1   
 36  15  40  1   
 37  16  41  1   
 38  16  42  1   
 39  17  21  ar  
 40  17  22  ar  
 41  18  43  1   
 42  19  44  1   
 43  19  45  1   
 44  19  46  1   
 45  21  23  ar  
 46  21  47  1   
 47  22  24  ar  
 48  22  48  1   
 49  23  25  ar  
 50  23  49  1   
 51  24  25  ar  
 52  24  50  1   
 53  25  26  1   
 54  26  51  1   
@<TRIPOS>SUBSTRUCTURE
  1 ****   4 GROUP 4 **** **** 0

# MOE 2024.06 (io_trps.svl 2023.06)
