@<TRIPOS>MOLECULE
NONAME
50 52 1 0 0 
SMALL
USER_CHARGES


@<TRIPOS>ATOM
  1 O       -0.4220     0.0990     0.3110 O.2   1 <1>  -0.5700 
  2 C       -1.4760     0.6790     0.4220 C.2   1 <1>   0.6300 
  3 N       -2.6600     0.0010     0.5650 N.am  1 <1>  -0.6600 
  4 C       -1.4520     2.2040     0.3550 C.3   1 <1>  -0.0950 
  5 C       -2.7040    -1.4910     0.6740 C.3   1 <1>   0.1400 
  6 C       -4.0230     0.6140     0.5240 C.3   1 <1>   0.1400 
  7 C       -0.5090     2.9430     1.2660 C.3   1 <1>  -0.2000 
  8 C       -1.9860     3.0030     1.5170 C.3   1 <1>  -0.2000 
  9 C       -1.6120     2.6490    -1.1070 C.3   1 <1>   0.2150 
 10 C       -3.6600    -2.0950    -0.3700 C.3   1 <1>   0.3440 
 11 C       -4.9040    -0.0860    -0.5370 C.3   1 <1>   0.2000 
 12 O       -1.7820     4.0210    -1.1950 O.3   1 <1>  -0.6800 
 13 O       -4.9150    -1.4700    -0.2940 O.3   1 <1>  -0.5600 
 14 C       -3.8250    -3.5950    -0.1450 C.ar  1 <1>  -0.1440 
 15 C       -6.3710     0.4350    -0.6120 C.3   1 <1>   0.0000 
 16 C       -2.9900    -4.4850    -0.8060 C.ar  1 <1>  -0.1500 
 17 C       -4.7880    -4.0940     0.7230 C.ar  1 <1>  -0.1500 
 18 C       -7.1420     0.1930     0.7000 C.3   1 <1>  -0.2400 
 19 C       -7.1150    -0.2900    -1.7490 C.3   1 <1>  -0.2400 
 20 C       -6.4030     1.9430    -0.9240 C.3   1 <1>  -0.2400 
 21 C       -3.1140    -5.8490    -0.6040 C.ar  1 <1>  -0.1500 
 22 C       -4.9140    -5.4570     0.9260 C.ar  1 <1>  -0.1500 
 23 C       -4.0760    -6.3360     0.2620 C.ar  1 <1>  -0.1500 
 24 H       -1.7250    -1.9140     0.5370 H     1 <1>   0.0800 
 25 H       -3.0420    -1.7640     1.6580 H     1 <1>   0.0800 
 26 H       -4.4760     0.5150     1.4940 H     1 <1>   0.0800 
 27 H       -3.9600     1.6600     0.2940 H     1 <1>   0.0800 
 28 H        0.1090     2.3640     1.9320 H     1 <1>   0.1000 
 29 H       -0.0080     3.8290     0.9200 H     1 <1>   0.1000 
 30 H       -2.5090     3.9250     1.3300 H     1 <1>   0.1000 
 31 H       -2.3730     2.4810     2.3760 H     1 <1>   0.1000 
 32 H       -2.4760     2.1880    -1.5530 H     1 <1>   0.0800 
 33 H       -0.7400     2.3770    -1.6770 H     1 <1>   0.0800 
 34 H       -3.2680    -1.9270    -1.3580 H     1 <1>   0.0800 
 35 H       -4.4520     0.0670    -1.5030 H     1 <1>   0.0800 
 36 H       -1.0650     4.4690    -0.7070 H     1 <1>   0.4000 
 37 H       -2.2360    -4.1220    -1.4830 H     1 <1>   0.1500 
 38 H       -5.4470    -3.4180     1.2400 H     1 <1>   0.1500 
 39 H       -8.1670     0.5020     0.5960 H     1 <1>   0.0800 
 40 H       -6.7100     0.7420     1.5150 H     1 <1>   0.0800 
 41 H       -7.1330    -0.8540     0.9510 H     1 <1>   0.0800 
 42 H       -8.1230     0.0750    -1.8420 H     1 <1>   0.0800 
 43 H       -7.1610    -1.3480    -1.5560 H     1 <1>   0.0800 
 44 H       -6.6120    -0.1410    -2.6870 H     1 <1>   0.0800 
 45 H       -7.4160     2.2730    -1.0770 H     1 <1>   0.0800 
 46 H       -5.8430     2.1570    -1.8180 H     1 <1>   0.0800 
 47 H       -5.9930     2.5210    -0.1160 H     1 <1>   0.0800 
 48 H       -2.4630    -6.5310    -1.1210 H     1 <1>   0.1500 
 49 H       -5.6650    -5.8330     1.5990 H     1 <1>   0.1500 
 50 H       -4.1740    -7.3960     0.4190 H     1 <1>   0.1500 
@<TRIPOS>BOND
  1   1   2  2   
  2   2   3  am  
  3   2   4  1   
  4   3   5  1   
  5   3   6  1   
  6   4   7  1   
  7   4   8  1   
  8   4   9  1   
  9   5  10  1   
 10   5  24  1   
 11   5  25  1   
 12   6  11  1   
 13   6  26  1   
 14   6  27  1   
 15   7   8  1   
 16   7  28  1   
 17   7  29  1   
 18   8  30  1   
 19   8  31  1   
 20   9  12  1   
 21   9  32  1   
 22   9  33  1   
 23  10  13  1   
 24  10  14  1   
 25  10  34  1   
 26  11  13  1   
 27  11  15  1   
 28  11  35  1   
 29  12  36  1   
 30  14  16  ar  
 31  14  17  ar  
 32  15  18  1   
 33  15  19  1   
 34  15  20  1   
 35  16  21  ar  
 36  16  37  1   
 37  17  22  ar  
 38  17  38  1   
 39  18  39  1   
 40  18  40  1   
 41  18  41  1   
 42  19  42  1   
 43  19  43  1   
 44  19  44  1   
 45  20  45  1   
 46  20  46  1   
 47  20  47  1   
 48  21  23  ar  
 49  21  48  1   
 50  22  23  ar  
 51  22  49  1   
 52  23  50  1   
@<TRIPOS>SUBSTRUCTURE
  1 ****   3 GROUP 4 **** **** 0

# MOE 2024.06 (io_trps.svl 2023.06)
