@<TRIPOS>MOLECULE
NONAME
55 58 1 0 0 
SMALL
USER_CHARGES


@<TRIPOS>ATOM
  1 O       -0.2480    -0.4880    -0.7920 O.2   1 <1>  -0.5700 
  2 C        0.7250    -1.2150    -0.6750 C.2   1 <1>   0.5440 
  3 N        0.9780    -2.1790    -1.6210 N.am  1 <1>  -0.4200 
  4 C        1.6130    -1.1210     0.4500 C.ar  1 <1>   0.0860 
  5 C        2.0690    -3.0030    -1.4770 C.2   1 <1>   0.4500 
  6 C        0.0260    -2.4410    -2.7450 C.3   1 <1>   0.2010 
  7 C        2.6800    -2.0250     0.5030 C.ar  1 <1>   0.1790 
  8 C        1.4600    -0.1950     1.4860 C.ar  1 <1>  -0.1500 
  9 N        2.8810    -2.9600    -0.4920 N.2   1 <1>  -0.6290 
 10 C       -0.5450    -3.8550    -2.6650 C.2   1 <1>   0.5690 
 11 C        3.5570    -1.9860     1.5810 C.ar  1 <1>  -0.1500 
 12 C        2.3380    -0.1680     2.5490 C.ar  1 <1>  -0.1500 
 13 O       -0.1660    -4.6350    -3.5060 O.2   1 <1>  -0.5700 
 14 N       -1.3960    -4.2390    -1.6540 N.am  1 <1>  -0.6600 
 15 C        3.3920    -1.0680     2.5970 C.ar  1 <1>  -0.1500 
 16 C       -1.6610    -5.6860    -1.3610 C.3   1 <1>   0.1400 
 17 C       -2.1330    -3.2980    -0.7660 C.3   1 <1>   0.1400 
 18 C       -1.2830    -6.0480     0.1000 C.3   1 <1>   0.0000 
 19 C       -1.7470    -3.5700     0.6860 C.3   1 <1>  -0.1600 
 20 C       -2.0200    -5.0380     1.0220 C.3   1 <1>   0.2000 
 21 C       -1.8410    -7.4530     0.4410 C.3   1 <1>   0.1200 
 22 C        0.2650    -5.9820     0.3080 C.3   1 <1>  -0.0170 
 23 O       -1.7020    -5.2380     2.3550 O.3   1 <1>  -0.6800 
 24 O       -1.5310    -8.3830    -0.5420 O.3   1 <1>  -0.6800 
 25 C        1.0610    -7.1330    -0.3010 C.ar  1 <1>  -0.1430 
 26 C        1.3930    -8.2330     0.4770 C.ar  1 <1>  -0.1500 
 27 C        1.4620    -7.1010    -1.6260 C.ar  1 <1>  -0.1500 
 28 C        2.0980    -9.2920    -0.0670 C.ar  1 <1>  -0.1500 
 29 C        2.1670    -8.1580    -2.1740 C.ar  1 <1>  -0.1500 
 30 C        2.4850    -9.2560    -1.3950 C.ar  1 <1>  -0.1500 
 31 H        2.2240    -3.7320    -2.2550 H     1 <1>   0.0600 
 32 H       -0.7780    -1.7290    -2.7540 H     1 <1>   0.0800 
 33 H        0.5560    -2.3370    -3.6740 H     1 <1>   0.0800 
 34 H        0.6420     0.5050     1.4460 H     1 <1>   0.1500 
 35 H        4.3720    -2.6880     1.6050 H     1 <1>   0.1500 
 36 H        2.2110     0.5510     3.3420 H     1 <1>   0.1500 
 37 H        4.0790    -1.0480     3.4260 H     1 <1>   0.1500 
 38 H       -2.7080    -5.8810    -1.5200 H     1 <1>   0.0800 
 39 H       -1.1200    -6.3150    -2.0470 H     1 <1>   0.0800 
 40 H       -1.9330    -2.2740    -1.0150 H     1 <1>   0.0800 
 41 H       -3.1900    -3.4590    -0.8950 H     1 <1>   0.0800 
 42 H       -2.3410    -2.9390     1.3240 H     1 <1>   0.0800 
 43 H       -0.7120    -3.3240     0.8320 H     1 <1>   0.0800 
 44 H       -3.0810    -5.2070     0.9370 H     1 <1>   0.0800 
 45 H       -2.9140    -7.4270     0.5170 H     1 <1>   0.0800 
 46 H       -1.4440    -7.8050     1.3780 H     1 <1>   0.0800 
 47 H        0.6490    -5.0600    -0.0870 H     1 <1>   0.0800 
 48 H        0.4890    -5.9720     1.3580 H     1 <1>   0.0800 
 49 H       -0.8060    -4.9000     2.5460 H     1 <1>   0.4000 
 50 H       -0.5530    -8.4200    -0.6660 H     1 <1>   0.4000 
 51 H        1.1000    -8.2760     1.5120 H     1 <1>   0.1500 
 52 H        1.2300    -6.2550    -2.2460 H     1 <1>   0.1500 
 53 H        2.3480   -10.1430     0.5420 H     1 <1>   0.1500 
 54 H        2.4680    -8.1230    -3.2060 H     1 <1>   0.1500 
 55 H        3.0320   -10.0780    -1.8210 H     1 <1>   0.1500 
@<TRIPOS>BOND
  1   1   2  2   
  2   2   3  am  
  3   2   4  1   
  4   3   5  1   
  5   3   6  1   
  6   4   7  ar  
  7   4   8  ar  
  8   5   9  2   
  9   5  31  1   
 10   6  10  1   
 11   6  32  1   
 12   6  33  1   
 13   7   9  1   
 14   7  11  ar  
 15   8  12  ar  
 16   8  34  1   
 17  10  13  2   
 18  10  14  am  
 19  11  15  ar  
 20  11  35  1   
 21  12  15  ar  
 22  12  36  1   
 23  14  16  1   
 24  14  17  1   
 25  15  37  1   
 26  16  18  1   
 27  16  38  1   
 28  16  39  1   
 29  17  19  1   
 30  17  40  1   
 31  17  41  1   
 32  18  20  1   
 33  18  21  1   
 34  18  22  1   
 35  19  20  1   
 36  19  42  1   
 37  19  43  1   
 38  20  23  1   
 39  20  44  1   
 40  21  24  1   
 41  21  45  1   
 42  21  46  1   
 43  22  25  1   
 44  22  47  1   
 45  22  48  1   
 46  23  49  1   
 47  24  50  1   
 48  25  26  ar  
 49  25  27  ar  
 50  26  28  ar  
 51  26  51  1   
 52  27  29  ar  
 53  27  52  1   
 54  28  30  ar  
 55  28  53  1   
 56  29  30  ar  
 57  29  54  1   
 58  30  55  1   
@<TRIPOS>SUBSTRUCTURE
  1 ****  22 GROUP 4 **** **** 0

# MOE 2024.06 (io_trps.svl 2023.06)
