@<TRIPOS>MOLECULE
NONAME
39 41 1 0 0 
SMALL
USER_CHARGES


@<TRIPOS>ATOM
  1 F        0.2940    -1.3200    -0.8290 F     1 <1>  -0.3400 
  2 C       -0.9560    -1.7380    -0.6360 C.3   1 <1>   0.8560 
  3 F       -1.6260    -0.6540    -0.2470 F     1 <1>  -0.3400 
  4 N       -0.9960    -2.7890     0.4370 N.pl3 1 <1>   0.3140 
  5 N       -1.4960    -4.0320     0.2380 N.2   1 <1>  -0.7070 
  6 C       -0.5560    -2.6530     1.7070 C.2   1 <1>  -0.3020 
  7 C       -1.3680    -4.6740     1.3910 C.2   1 <1>   0.2030 
  8 C       -0.7760    -3.8230     2.3340 C.2   1 <1>  -0.1500 
  9 C       -1.7510    -6.0520     1.7100 C.2   1 <1>   0.7160 
 10 O       -1.4570    -6.5200     2.7990 O.2   1 <1>  -0.5700 
 11 N       -2.4390    -6.8830     0.8440 N.am  1 <1>  -0.6600 
 12 C       -2.9210    -6.5340    -0.5170 C.3   1 <1>   0.1400 
 13 C       -2.6870    -8.3180     1.1270 C.3   1 <1>   0.1400 
 14 C       -3.8100    -7.7080    -0.9230 C.3   1 <1>   0.2000 
 15 C       -3.1860    -8.9050    -0.1980 C.3   1 <1>  -0.0800 
 16 O       -5.0840    -7.4780    -0.4270 O.3   1 <1>  -0.6800 
 17 C       -4.1170   -10.1210    -0.0290 C.3   1 <1>   0.0200 
 18 C       -3.4160   -11.3300     0.5670 C.2   1 <1>  -0.0400 
 19 O       -4.1340   -12.3710     0.8960 O.3   1 <1>  -0.0190 
 20 C       -2.1350   -11.6120     0.8570 C.2   1 <1>  -0.1500 
 21 N       -3.4060   -13.3280     1.3930 N.2   1 <1>  -0.4100 
 22 C       -2.1960   -12.8990     1.3820 C.2   1 <1>   0.1080 
 23 C       -1.0080   -13.6940     1.8750 C.3   1 <1>  -0.0590 
 24 H       -1.3590    -2.0810    -1.5710 H     1 <1>   0.0800 
 25 H       -0.1200    -1.7430     2.0810 H     1 <1>   0.1500 
 26 H       -0.5550    -4.0930     3.3530 H     1 <1>   0.1500 
 27 H       -3.4650    -5.6050    -0.5250 H     1 <1>   0.0800 
 28 H       -2.0750    -6.4620    -1.1790 H     1 <1>   0.0800 
 29 H       -1.7850    -8.7990     1.4660 H     1 <1>   0.0800 
 30 H       -3.4390    -8.3980     1.8940 H     1 <1>   0.0800 
 31 H       -3.8770    -7.8400    -1.9900 H     1 <1>   0.0800 
 32 H       -2.3250    -9.2120    -0.7650 H     1 <1>   0.0800 
 33 H       -5.0130    -7.1700     0.4990 H     1 <1>   0.4000 
 34 H       -4.5190   -10.3990    -0.9870 H     1 <1>   0.0800 
 35 H       -4.9460    -9.8640     0.6070 H     1 <1>   0.0800 
 36 H       -1.2440   -11.0250     0.7330 H     1 <1>   0.1500 
 37 H       -0.2900   -13.8060     1.0850 H     1 <1>   0.0800 
 38 H       -1.3270   -14.6700     2.1960 H     1 <1>   0.0800 
 39 H       -0.5500   -13.1880     2.7050 H     1 <1>   0.0800 
@<TRIPOS>BOND
  1   1   2  1   
  2   2   3  1   
  3   2   4  1   
  4   2  24  1   
  5   4   5  1   
  6   4   6  1   
  7   5   7  2   
  8   6   8  2   
  9   6  25  1   
 10   7   8  1   
 11   7   9  1   
 12   8  26  1   
 13   9  10  2   
 14   9  11  am  
 15  11  12  1   
 16  11  13  1   
 17  12  14  1   
 18  12  27  1   
 19  12  28  1   
 20  13  15  1   
 21  13  29  1   
 22  13  30  1   
 23  14  15  1   
 24  14  16  1   
 25  14  31  1   
 26  15  17  1   
 27  15  32  1   
 28  16  33  1   
 29  17  18  1   
 30  17  34  1   
 31  17  35  1   
 32  18  19  1   
 33  18  20  2   
 34  19  21  1   
 35  20  22  1   
 36  20  36  1   
 37  21  22  2   
 38  22  23  1   
 39  23  37  1   
 40  23  38  1   
 41  23  39  1   
@<TRIPOS>SUBSTRUCTURE
  1 ****  11 GROUP 4 **** **** 0

# MOE 2024.06 (io_trps.svl 2023.06)
