@<TRIPOS>MOLECULE
NONAME
50 53 1 0 0 
SMALL
USER_CHARGES


@<TRIPOS>ATOM
  1 S        0.6760     0.0480    -1.3210 S.3   1 <1>  -0.0800 
  2 C        1.5690    -0.8230    -0.0720 C.2   1 <1>  -0.0450 
  3 C        0.1610    -1.4280    -2.0980 C.2   1 <1>  -0.1100 
  4 C        2.2690    -0.0580     0.9240 C.2   1 <1>   0.5940 
  5 C        1.4290    -2.1580    -0.2980 C.2   1 <1>  -0.1500 
  6 C        0.6300    -2.5010    -1.4340 C.2   1 <1>  -0.1810 
  7 O        2.2290     1.1420     1.0060 O.2   1 <1>  -0.5700 
  8 C        3.1080    -0.7930     1.9470 C.3   1 <1>  -0.1790 
  9 C        0.3590    -3.9400    -1.8240 C.3   1 <1>   0.5240 
 10 N       -0.5480    -4.5300    -0.8110 N.4   1 <1>  -0.9590 
 11 C       -0.5140    -6.0320    -0.8170 C.3   1 <1>   0.6030 
 12 C       -1.9160    -3.9060    -0.9520 C.3   1 <1>   0.3430 
 13 C       -1.8150    -6.5680    -0.2370 C.2   1 <1>  -0.3320 
 14 C        0.6790    -6.5610     0.0350 C.3   1 <1>  -0.0800 
 15 C       -2.8760    -4.3300     0.1610 C.3   1 <1>   0.0210 
 16 N       -2.1190    -7.8980    -0.0810 N.pl3 1 <1>   0.0330 
 17 C       -2.8530    -5.8320     0.2160 C.2   1 <1>  -0.1810 
 18 C        0.6800    -6.0450     1.4890 C.3   1 <1>  -0.2400 
 19 C        2.0740    -6.3440    -0.5780 C.3   1 <1>  -0.2400 
 20 C       -3.3610    -7.9880     0.4920 C.ar  1 <1>  -0.1520 
 21 C       -3.8510    -6.7030     0.6960 C.ar  1 <1>   0.0000 
 22 C       -4.1110    -9.1080     0.8590 C.ar  1 <1>  -0.1500 
 23 C       -5.1110    -6.5260     1.2770 C.ar  1 <1>  -0.1500 
 24 C       -5.3490    -8.9200     1.4280 C.ar  1 <1>  -0.1500 
 25 C       -5.8490    -7.6290     1.6380 C.ar  1 <1>  -0.1500 
 26 H       -0.4480    -1.3190    -2.9800 H     1 <1>   0.1500 
 27 H        1.8870    -2.9140     0.3160 H     1 <1>   0.1500 
 28 H        3.8070    -1.4410     1.4520 H     1 <1>   0.0800 
 29 H        2.4730    -1.3690     2.5930 H     1 <1>   0.0800 
 30 H        3.6560    -0.0860     2.5430 H     1 <1>   0.0800 
 31 H        1.2900    -4.4720    -1.8810 H     1 <1>   0.0800 
 32 H       -0.1040    -3.9750    -2.7970 H     1 <1>   0.0800 
 33 H       -0.2020    -4.2710     0.1150 H     1 <1>   0.4500 
 34 H       -0.4250    -6.3910    -1.8290 H     1 <1>   0.0800 
 35 H       -2.3440    -4.2020    -1.8960 H     1 <1>   0.0800 
 36 H       -1.8360    -2.8310    -0.9440 H     1 <1>   0.0800 
 37 H        0.5560    -7.6290     0.0880 H     1 <1>   0.0800 
 38 H       -3.8690    -3.9860    -0.0700 H     1 <1>   0.0800 
 39 H       -2.5800    -3.9160     1.1070 H     1 <1>   0.0800 
 40 H       -1.5460    -8.7150    -0.3200 H     1 <1>   0.2700 
 41 H        0.8860    -4.9920     1.5440 H     1 <1>   0.0800 
 42 H        1.4350    -6.5590     2.0600 H     1 <1>   0.0800 
 43 H       -0.2670    -6.2360     1.9660 H     1 <1>   0.0800 
 44 H        2.4070    -5.3280    -0.4740 H     1 <1>   0.0800 
 45 H        2.0880    -6.6240    -1.6170 H     1 <1>   0.0800 
 46 H        2.7910    -6.9650    -0.0670 H     1 <1>   0.0800 
 47 H       -3.7240   -10.0990     0.6970 H     1 <1>   0.1500 
 48 H       -5.4880    -5.5330     1.4370 H     1 <1>   0.1500 
 49 H       -5.9480    -9.7660     1.7190 H     1 <1>   0.1500 
 50 H       -6.8200    -7.5120     2.0860 H     1 <1>   0.1500 
@<TRIPOS>BOND
  1   1   2  1   
  2   1   3  1   
  3   2   4  1   
  4   2   5  2   
  5   3   6  2   
  6   3  26  1   
  7   4   7  2   
  8   4   8  1   
  9   5   6  1   
 10   5  27  1   
 11   6   9  1   
 12   8  28  1   
 13   8  29  1   
 14   8  30  1   
 15   9  10  1   
 16   9  31  1   
 17   9  32  1   
 18  10  11  1   
 19  10  12  1   
 20  10  33  1   
 21  11  13  1   
 22  11  14  1   
 23  11  34  1   
 24  12  15  1   
 25  12  35  1   
 26  12  36  1   
 27  13  16  1   
 28  13  17  2   
 29  14  18  1   
 30  14  19  1   
 31  14  37  1   
 32  15  17  1   
 33  15  38  1   
 34  15  39  1   
 35  16  20  1   
 36  16  40  1   
 37  17  21  1   
 38  18  41  1   
 39  18  42  1   
 40  18  43  1   
 41  19  44  1   
 42  19  45  1   
 43  19  46  1   
 44  20  21  ar  
 45  20  22  ar  
 46  21  23  ar  
 47  22  24  ar  
 48  22  47  1   
 49  23  25  ar  
 50  23  48  1   
 51  24  25  ar  
 52  24  49  1   
 53  25  50  1   
@<TRIPOS>SUBSTRUCTURE
  1 ****  10 GROUP 4 **** **** 0

# MOE 2024.06 (io_trps.svl 2023.06)
