@<TRIPOS>MOLECULE
NONAME
47 48 1 0 0 
SMALL
USER_CHARGES


@<TRIPOS>ATOM
  1 S        1.0710     2.4990     0.6110 S.o2  1 <1>   1.3330 
  2 O        2.3290     2.9840     0.0960 O.2   1 <1>  -0.6500 
  3 O        0.5590     3.1030     1.8180 O.2   1 <1>  -0.6500 
  4 N       -0.1160     2.7910    -0.6190 N.am  1 <1>  -0.6930 
  5 C        1.1170     0.7230     0.7280 C.3   1 <1>  -0.1350 
  6 C       -1.3950     2.2370    -0.5990 C.ar  1 <1>   0.1990 
  7 C        0.2240     3.8180    -1.6630 C.3   1 <1>   0.2570 
  8 C       -1.8860     1.5940    -1.7290 C.ar  1 <1>  -0.1500 
  9 C       -2.2090     2.3050     0.5330 C.ar  1 <1>  -0.1500 
 10 C        0.6220     5.1790    -1.0780 C.2   1 <1>   0.5690 
 11 C       -3.1510     1.0470    -1.7000 C.ar  1 <1>   0.1900 
 12 C       -3.4780     1.7480     0.5450 C.ar  1 <1>  -0.1500 
 13 O        1.4130     5.8590    -1.6850 O.2   1 <1>  -0.5700 
 14 N        0.1070     5.5510     0.1310 N.am  1 <1>  -0.7300 
 15 F       -3.6000     0.4460    -2.7680 F     1 <1>  -0.1900 
 16 C       -3.9620     1.1090    -0.5830 C.ar  1 <1>  -0.1500 
 17 C        0.5560     6.5760     1.1170 C.3   1 <1>   0.2200 
 18 C        1.8070     6.1090     1.8720 C.3   1 <1>   0.3430 
 19 C        0.9960     7.8880     0.4870 C.3   1 <1>  -0.1600 
 20 N        3.0010     6.7040     1.1850 N.4   1 <1>  -0.9590 
 21 C        2.4990     7.7440     0.2280 C.3   1 <1>   0.4230 
 22 C        3.7670     5.6440     0.4570 C.3   1 <1>   0.2630 
 23 C        3.2810     9.0690     0.3620 C.3   1 <1>   0.1200 
 24 O        2.6910    10.0790    -0.3890 O.3   1 <1>  -0.6800 
 25 H        1.3840     0.2940    -0.2180 H     1 <1>   0.0800 
 26 H        0.1570     0.3420     1.0200 H     1 <1>   0.0800 
 27 H        1.8410     0.4190     1.4590 H     1 <1>   0.0800 
 28 H        1.0430     3.4520    -2.2570 H     1 <1>   0.0800 
 29 H       -0.6160     3.9700    -2.3160 H     1 <1>   0.0800 
 30 H       -1.2930     1.5120    -2.6210 H     1 <1>   0.1500 
 31 H       -1.8600     2.8010     1.4200 H     1 <1>   0.1500 
 32 H       -4.0890     1.8120     1.4300 H     1 <1>   0.1500 
 33 H       -0.5250     4.8580     0.5530 H     1 <1>   0.3700 
 34 H       -4.9440     0.6690    -0.6010 H     1 <1>   0.1500 
 35 H       -0.2510     6.7460     1.8090 H     1 <1>   0.0800 
 36 H        1.8590     5.0340     1.9040 H     1 <1>   0.0800 
 37 H        1.7590     6.4830     2.8800 H     1 <1>   0.0800 
 38 H        0.8320     8.6890     1.1860 H     1 <1>   0.0800 
 39 H        0.4560     8.1150    -0.4150 H     1 <1>   0.0800 
 40 H        3.6060     7.1420     1.8890 H     1 <1>   0.4500 
 41 H        2.6400     7.3840    -0.7770 H     1 <1>   0.0800 
 42 H        3.1520     5.1890    -0.3020 H     1 <1>   0.0800 
 43 H        4.0830     4.8710     1.1390 H     1 <1>   0.0800 
 44 H        4.6380     6.0650    -0.0180 H     1 <1>   0.0800 
 45 H        4.2970     8.9530     0.0260 H     1 <1>   0.0800 
 46 H        3.2760     9.4000     1.3860 H     1 <1>   0.0800 
 47 H        2.8580     9.9780    -1.3500 H     1 <1>   0.4000 
@<TRIPOS>BOND
  1   1   2  2   
  2   1   3  2   
  3   1   4  am  
  4   1   5  1   
  5   4   6  1   
  6   4   7  1   
  7   5  25  1   
  8   5  26  1   
  9   5  27  1   
 10   6   8  ar  
 11   6   9  ar  
 12   7  10  1   
 13   7  28  1   
 14   7  29  1   
 15   8  11  ar  
 16   8  30  1   
 17   9  12  ar  
 18   9  31  1   
 19  10  13  2   
 20  10  14  am  
 21  11  15  1   
 22  11  16  ar  
 23  12  16  ar  
 24  12  32  1   
 25  14  17  1   
 26  14  33  1   
 27  16  34  1   
 28  17  18  1   
 29  17  19  1   
 30  17  35  1   
 31  18  20  1   
 32  18  36  1   
 33  18  37  1   
 34  19  21  1   
 35  19  38  1   
 36  19  39  1   
 37  20  21  1   
 38  20  22  1   
 39  20  40  1   
 40  21  23  1   
 41  21  41  1   
 42  22  42  1   
 43  22  43  1   
 44  22  44  1   
 45  23  24  1   
 46  23  45  1   
 47  23  46  1   
 48  24  47  1   
@<TRIPOS>SUBSTRUCTURE
  1 ****  14 GROUP 4 **** **** 0

# MOE 2024.06 (io_trps.svl 2023.06)
