@<TRIPOS>MOLECULE
NONAME
30 31 1 0 0 
SMALL
USER_CHARGES


@<TRIPOS>ATOM
  1 F       -0.9600    -0.0770     1.3180 F     1 <1>  -0.3400 
  2 C       -1.8020     0.3270     0.3780 C.3   1 <1>   1.1640 
  3 F       -1.1490     0.3380    -0.7740 F     1 <1>  -0.3400 
  4 F       -1.9920     1.6160     0.6530 F     1 <1>  -0.3400 
  5 C       -3.1200    -0.4960     0.3500 C.ar  1 <1>  -0.1440 
  6 C       -3.2500    -1.8960     0.1550 C.ar  1 <1>  -0.1080 
  7 C       -4.2810     0.2570     0.5770 C.ar  1 <1>  -0.1500 
  8 C       -4.5410    -2.4250     0.2850 C.ar  1 <1>  -0.1500 
  9 C       -2.1440    -2.9760    -0.1720 C.3   1 <1>   0.1080 
 10 C       -5.5350    -0.3050     0.6580 C.ar  1 <1>  -0.1500 
 11 C       -5.6640    -1.6620     0.5220 C.ar  1 <1>  -0.1500 
 12 C       -2.6260    -4.0450    -1.2230 C.3   1 <1>   0.0000 
 13 C       -2.1410    -4.1070     0.9120 C.3   1 <1>   0.0000 
 14 C       -0.7040    -2.5270    -0.5430 C.3   1 <1>  -0.2660 
 15 C       -2.3620    -5.1740    -0.1930 C.3   1 <1>   0.0000 
 16 C        0.3030    -3.6050    -0.8820 C.2   1 <1>   0.9060 
 17 O        0.5080    -3.8730    -2.0690 O.co2 1 <1>  -0.9000 
 18 O        0.9220    -4.1520     0.0340 O.co2 1 <1>  -0.9000 
 19 H       -4.2480     1.3250     0.7090 H     1 <1>   0.1500 
 20 H       -4.7160    -3.4810     0.2110 H     1 <1>   0.1500 
 21 H       -6.4010     0.3090     0.8340 H     1 <1>   0.1500 
 22 H       -6.6300    -2.1290     0.5990 H     1 <1>   0.1500 
 23 H       -2.0090    -4.1330    -2.0970 H     1 <1>   0.0000 
 24 H       -3.6560    -3.9960    -1.5190 H     1 <1>   0.0000 
 25 H       -2.9680    -4.0680     1.5980 H     1 <1>   0.0000 
 26 H       -1.2110    -4.2230     1.4360 H     1 <1>   0.0000 
 27 H       -0.2560    -2.0060     0.2710 H     1 <1>   0.0800 
 28 H       -0.7460    -1.8980    -1.4080 H     1 <1>   0.0800 
 29 H       -1.4730    -5.7380    -0.4120 H     1 <1>   0.0000 
 30 H       -3.2230    -5.7930    -0.0150 H     1 <1>   0.0000 
@<TRIPOS>BOND
  1   1   2  1   
  2   2   3  1   
  3   2   4  1   
  4   2   5  1   
  5   5   6  ar  
  6   5   7  ar  
  7   6   8  ar  
  8   6   9  1   
  9   7  10  ar  
 10   7  19  1   
 11   8  11  ar  
 12   8  20  1   
 13   9  12  1   
 14   9  13  1   
 15   9  14  1   
 16  10  11  ar  
 17  10  21  1   
 18  11  22  1   
 19  12  15  1   
 20  12  23  1   
 21  12  24  1   
 22  13  15  1   
 23  13  25  1   
 24  13  26  1   
 25  14  16  1   
 26  14  27  1   
 27  14  28  1   
 28  15  29  1   
 29  15  30  1   
 30  16  17  ar  
 31  16  18  ar  
@<TRIPOS>SUBSTRUCTURE
  1 ****   6 GROUP 4 **** **** 0

# MOE 2024.06 (io_trps.svl 2023.06)
