@<TRIPOS>MOLECULE
NONAME
54 56 1 0 0 
SMALL
USER_CHARGES


@<TRIPOS>ATOM
  1 O        0.1890    -0.0980    -1.2280 O.3   1 <1>  -0.5600 
  2 C        1.4260    -0.7440    -1.4200 C.3   1 <1>   0.2000 
  3 C        0.2160     1.2950    -1.3150 C.3   1 <1>   0.1200 
  4 C        2.4990    -0.2060    -0.4330 C.3   1 <1>   0.5660 
  5 C        1.2240    -2.2550    -1.2220 C.3   1 <1>   0.1200 
  6 C        1.1550     1.8730    -0.2420 C.3   1 <1>   0.3430 
  7 N        2.5320     1.2890    -0.3460 N.4   1 <1>  -0.9590 
  8 C        3.8950    -0.6750    -0.8220 C.ar  1 <1>  -0.1440 
  9 O        1.0950    -2.5500     0.1330 O.3   1 <1>  -0.6800 
 10 C        3.4170     1.7480     0.7550 C.3   1 <1>   0.4870 
 11 C        4.5890    -1.5020     0.0490 C.ar  1 <1>  -0.1500 
 12 C        4.4940    -0.2910    -2.0170 C.ar  1 <1>  -0.1500 
 13 C        3.6830     3.2220     0.5380 C.ar  1 <1>  -0.1440 
 14 C        5.8680    -1.9350    -0.2530 C.ar  1 <1>   0.0820 
 15 C        5.7770    -0.7110    -2.3200 C.ar  1 <1>  -0.1500 
 16 C        3.0110     4.1790     1.2850 C.ar  1 <1>  -0.1500 
 17 C        4.6000     3.6260    -0.4210 C.ar  1 <1>  -0.1500 
 18 O        6.4650    -2.7590     0.6410 O.3   1 <1>  -0.3620 
 19 C        6.4800    -1.5150    -1.4390 C.ar  1 <1>   0.0820 
 20 C        3.2420     5.5240     1.0610 C.ar  1 <1>  -0.1500 
 21 C        4.8270     4.9730    -0.6420 C.ar  1 <1>  -0.1500 
 22 C        6.7700    -4.0650     0.2000 C.3   1 <1>   0.0400 
 23 O        7.7440    -1.8570    -1.7850 O.3   1 <1>  -0.3630 
 24 C        4.1470     5.9280     0.0940 C.ar  1 <1>  -0.1440 
 25 C        8.7840    -1.3730    -0.9620 C.3   1 <1>   0.0400 
 26 C        4.4020     7.4050    -0.1480 C.3   1 <1>  -0.0970 
 27 H        1.7260    -0.5660    -2.4370 H     1 <1>   0.0800 
 28 H        0.5290     1.5800    -2.3050 H     1 <1>   0.0800 
 29 H       -0.7880     1.6510    -1.1580 H     1 <1>   0.0800 
 30 H        2.2630    -0.6030     0.5410 H     1 <1>   0.0800 
 31 H        2.0710    -2.8040    -1.5990 H     1 <1>   0.0800 
 32 H        0.3350    -2.5810    -1.7360 H     1 <1>   0.0800 
 33 H        0.7360     1.6550     0.7270 H     1 <1>   0.0800 
 34 H        1.2020     2.9450    -0.3490 H     1 <1>   0.0800 
 35 H        2.9620     1.6310    -1.2080 H     1 <1>   0.4500 
 36 H        0.7340    -3.4540     0.2570 H     1 <1>   0.4000 
 37 H        2.9510     1.5840     1.7120 H     1 <1>   0.0800 
 38 H        4.3560     1.2160     0.7330 H     1 <1>   0.0800 
 39 H        4.1480    -1.8350     0.9740 H     1 <1>   0.1500 
 40 H        3.9820     0.3340    -2.7300 H     1 <1>   0.1500 
 41 H        6.2500    -0.4160    -3.2410 H     1 <1>   0.1500 
 42 H        2.3070     3.8950     2.0490 H     1 <1>   0.1500 
 43 H        5.1510     2.9060    -1.0020 H     1 <1>   0.1500 
 44 H        2.7180     6.2620     1.6450 H     1 <1>   0.1500 
 45 H        5.5420     5.2790    -1.3870 H     1 <1>   0.1500 
 46 H        7.1260    -4.6300     1.0420 H     1 <1>   0.0800 
 47 H        7.5310    -4.0210    -0.5570 H     1 <1>   0.0800 
 48 H        5.8770    -4.5170    -0.1950 H     1 <1>   0.0800 
 49 H        9.7210    -1.6460    -1.4100 H     1 <1>   0.0800 
 50 H        8.7040    -1.8150     0.0150 H     1 <1>   0.0800 
 51 H        8.7060    -0.3020    -0.8960 H     1 <1>   0.0800 
 52 H        3.5220     7.9820     0.0740 H     1 <1>   0.0800 
 53 H        4.6690     7.5800    -1.1750 H     1 <1>   0.0800 
 54 H        5.2050     7.7440     0.4810 H     1 <1>   0.0800 
@<TRIPOS>BOND
  1   1   2  1   
  2   1   3  1   
  3   2   4  1   
  4   2   5  1   
  5   2  27  1   
  6   3   6  1   
  7   3  28  1   
  8   3  29  1   
  9   4   7  1   
 10   4   8  1   
 11   4  30  1   
 12   5   9  1   
 13   5  31  1   
 14   5  32  1   
 15   6   7  1   
 16   6  33  1   
 17   6  34  1   
 18   7  10  1   
 19   7  35  1   
 20   8  11  ar  
 21   8  12  ar  
 22   9  36  1   
 23  10  13  1   
 24  10  37  1   
 25  10  38  1   
 26  11  14  ar  
 27  11  39  1   
 28  12  15  ar  
 29  12  40  1   
 30  13  16  ar  
 31  13  17  ar  
 32  14  18  1   
 33  14  19  ar  
 34  15  19  ar  
 35  15  41  1   
 36  16  20  ar  
 37  16  42  1   
 38  17  21  ar  
 39  17  43  1   
 40  18  22  1   
 41  19  23  1   
 42  20  24  ar  
 43  20  44  1   
 44  21  24  ar  
 45  21  45  1   
 46  22  46  1   
 47  22  47  1   
 48  22  48  1   
 49  23  25  1   
 50  24  26  1   
 51  25  49  1   
 52  25  50  1   
 53  25  51  1   
 54  26  52  1   
 55  26  53  1   
 56  26  54  1   
@<TRIPOS>SUBSTRUCTURE
  1 ****   8 GROUP 4 **** **** 0

# MOE 2024.06 (io_trps.svl 2023.06)
