@<TRIPOS>MOLECULE
NONAME
45 47 1 0 0 
SMALL
USER_CHARGES


@<TRIPOS>ATOM
  1 O        2.6090    -1.1140    -1.9610 O.2   1 <1>  -0.5700 
  2 C        1.8880    -1.9010    -1.3680 C.2   1 <1>   0.5440 
  3 N        1.0280    -1.3710    -0.4190 N.am  1 <1>  -0.6600 
  4 C        1.9550    -3.3240    -1.7160 C.ar  1 <1>   0.3960 
  5 C        0.0050    -2.1130     0.3570 C.3   1 <1>   0.1400 
  6 C        1.0150     0.0660    -0.0660 C.3   1 <1>   0.1400 
  7 N        1.5870    -4.2670    -0.8340 N.ar  1 <1>  -0.6200 
  8 C        2.4030    -3.6740    -2.9960 C.ar  1 <1>   0.1600 
  9 C       -0.8420    -1.0340     1.0200 C.3   1 <1>  -0.1600 
 10 C        0.0950     0.1640     1.1460 C.3   1 <1>  -0.1600 
 11 C        1.6470    -5.4910    -1.3000 C.ar  1 <1>   0.4100 
 12 N        2.4920    -4.9090    -3.4770 N.ar  1 <1>  -0.6200 
 13 N        1.1980    -6.4310    -0.4190 N.pl3 1 <1>  -0.8690 
 14 C        2.1020    -5.8010    -2.5890 C.ar  1 <1>   0.1600 
 15 C       -0.2320    -6.8120    -0.5430 C.3   1 <1>   0.4330 
 16 C       -1.0770    -5.9320     0.3900 C.ar  1 <1>   0.1670 
 17 C       -0.4040    -8.2960    -0.2010 C.3   1 <1>   0.1200 
 18 N       -0.6210    -5.7250     1.6260 N.ar  1 <1>  -0.6200 
 19 C       -2.2570    -5.3820    -0.0910 C.ar  1 <1>  -0.1500 
 20 O       -1.6760    -8.7280    -0.5950 O.3   1 <1>  -0.5600 
 21 C       -1.3670    -4.9490     2.3950 C.ar  1 <1>   0.1600 
 22 C       -3.0210    -4.5720     0.7220 C.ar  1 <1>  -0.1500 
 23 C       -1.9660   -10.0350    -0.2170 C.3   1 <1>   0.0400 
 24 C       -2.5540    -4.3560     2.0000 C.ar  1 <1>  -0.1500 
 25 H        0.4960    -2.7160     1.1030 H     1 <1>   0.0800 
 26 H       -0.5900    -2.7440    -0.2810 H     1 <1>   0.0800 
 27 H        0.6160     0.6250    -0.8940 H     1 <1>   0.0800 
 28 H        2.0090     0.4130     0.1580 H     1 <1>   0.0800 
 29 H        2.7010    -2.8790    -3.6580 H     1 <1>   0.1500 
 30 H       -1.2260    -1.3590     1.9710 H     1 <1>   0.0800 
 31 H       -1.6650    -0.7910     0.3720 H     1 <1>   0.0800 
 32 H       -0.4350     1.1000     1.1700 H     1 <1>   0.0800 
 33 H        0.6870     0.0730     2.0400 H     1 <1>   0.0800 
 34 H        1.2600    -6.0380     0.5320 H     1 <1>   0.4000 
 35 H        2.1320    -6.8380    -2.8690 H     1 <1>   0.1500 
 36 H       -0.5440    -6.6670    -1.5630 H     1 <1>   0.0800 
 37 H       -0.2980    -8.4390     0.8610 H     1 <1>   0.0800 
 38 H        0.3280    -8.8800    -0.7300 H     1 <1>   0.0800 
 39 H       -2.5810    -5.5880    -1.0950 H     1 <1>   0.1500 
 40 H       -1.0140    -4.7760     3.3980 H     1 <1>   0.1500 
 41 H       -3.9410    -4.1340     0.3760 H     1 <1>   0.1500 
 42 H       -2.9520   -10.2760    -0.5730 H     1 <1>   0.0800 
 43 H       -1.9420   -10.1080     0.8570 H     1 <1>   0.0800 
 44 H       -1.2470   -10.7030    -0.6600 H     1 <1>   0.0800 
 45 H       -3.1030    -3.7380     2.6860 H     1 <1>   0.1500 
@<TRIPOS>BOND
  1   1   2  2   
  2   2   3  am  
  3   2   4  1   
  4   3   5  1   
  5   3   6  1   
  6   4   7  ar  
  7   4   8  ar  
  8   5   9  1   
  9   5  25  1   
 10   5  26  1   
 11   6  10  1   
 12   6  27  1   
 13   6  28  1   
 14   7  11  ar  
 15   8  12  ar  
 16   8  29  1   
 17   9  10  1   
 18   9  30  1   
 19   9  31  1   
 20  10  32  1   
 21  10  33  1   
 22  11  13  1   
 23  11  14  ar  
 24  12  14  ar  
 25  13  15  1   
 26  13  34  1   
 27  14  35  1   
 28  15  16  1   
 29  15  17  1   
 30  15  36  1   
 31  16  18  ar  
 32  16  19  ar  
 33  17  20  1   
 34  17  37  1   
 35  17  38  1   
 36  18  21  ar  
 37  19  22  ar  
 38  19  39  1   
 39  20  23  1   
 40  21  24  ar  
 41  21  40  1   
 42  22  24  ar  
 43  22  41  1   
 44  23  42  1   
 45  23  43  1   
 46  23  44  1   
 47  24  45  1   
@<TRIPOS>SUBSTRUCTURE
  1 ****   7 GROUP 4 **** **** 0

# MOE 2024.06 (io_trps.svl 2023.06)
