@<TRIPOS>MOLECULE
NONAME
59 60 1 0 0 
SMALL
USER_CHARGES


@<TRIPOS>ATOM
  1 O        3.5690    -1.1000     0.7770 O.2   1 <1>  -0.5700 
  2 C        2.3910    -1.2270     0.4950 C.2   1 <1>   0.7160 
  3 N        1.8010    -0.1780    -0.1650 N.am  1 <1>  -0.6600 
  4 C        1.6570    -2.4380     0.7870 C.2   1 <1>  -0.0860 
  5 C        1.6190     1.1470     0.5380 C.3   1 <1>   0.2200 
  6 C        2.2610     0.0320    -1.5800 C.3   1 <1>   0.1400 
  7 C        1.9730    -3.4820     1.6050 C.2   1 <1>  -0.0400 
  8 C        0.3930    -2.7920     0.2620 C.2   1 <1>  -0.1500 
  9 C        0.8810     1.0970     1.9040 C.3   1 <1>  -0.0800 
 10 C        2.9610     1.9320     0.6100 C.3   1 <1>   0.3430 
 11 C        3.3910     1.0920    -1.6950 C.3   1 <1>   0.3430 
 12 O        1.0260    -4.3850     1.6020 O.3   1 <1>  -0.2800 
 13 C        3.1800    -3.7520     2.4860 C.3   1 <1>  -0.0600 
 14 C        0.0660    -3.9870     0.8010 C.2   1 <1>  -0.0400 
 15 C        1.6250     0.4030     3.0620 C.3   1 <1>  -0.2400 
 16 C       -0.5300     0.5070     1.7720 C.3   1 <1>  -0.2400 
 17 N        3.9920     1.4090    -0.3560 N.4   1 <1>  -0.9590 
 18 C       -1.1370    -4.9080     0.6780 C.3   1 <1>   0.5230 
 19 C        5.2140     2.2600    -0.4290 C.3   1 <1>   0.2630 
 20 N       -2.0080    -4.5210    -0.4750 N.4   1 <1>  -0.9590 
 21 C       -3.3370    -5.1850    -0.4030 C.3   1 <1>   0.3430 
 22 C       -1.3120    -4.8110    -1.7580 C.3   1 <1>   0.3430 
 23 C       -4.1860    -4.5190     0.6740 C.3   1 <1>  -0.2400 
 24 C       -1.9320    -3.9750    -2.8730 C.3   1 <1>  -0.2400 
 25 H        0.9780     1.7340    -0.0980 H     1 <1>   0.0800 
 26 H        2.6250    -0.9010    -1.9780 H     1 <1>   0.0800 
 27 H        1.4260     0.3320    -2.1910 H     1 <1>   0.0800 
 28 H       -0.1570    -2.1770    -0.4280 H     1 <1>   0.1500 
 29 H        0.7500     2.1230     2.2070 H     1 <1>   0.0800 
 30 H        3.3550     1.8610     1.6100 H     1 <1>   0.0800 
 31 H        2.7630     2.9730     0.4170 H     1 <1>   0.0800 
 32 H        2.9880     1.9910    -2.1310 H     1 <1>   0.0800 
 33 H        4.1510     0.7200    -2.3630 H     1 <1>   0.0800 
 34 H        3.8810    -2.9400     2.4560 H     1 <1>   0.0800 
 35 H        3.6770    -4.6460     2.1560 H     1 <1>   0.0800 
 36 H        2.8620    -3.8910     3.5030 H     1 <1>   0.0800 
 37 H        1.6280    -0.6650     2.9520 H     1 <1>   0.0800 
 38 H        1.1260     0.6220     3.9910 H     1 <1>   0.0800 
 39 H        2.6400     0.7410     3.1520 H     1 <1>   0.0800 
 40 H       -0.4900    -0.5400     1.5430 H     1 <1>   0.0800 
 41 H       -1.0830     1.0110     0.9990 H     1 <1>   0.0800 
 42 H       -1.0680     0.6260     2.6970 H     1 <1>   0.0800 
 43 H        4.2470     0.4780     0.0470 H     1 <1>   0.4500 
 44 H       -1.6900    -4.8620     1.6000 H     1 <1>   0.0800 
 45 H       -0.7910    -5.9200     0.5490 H     1 <1>   0.0800 
 46 H        4.9740     3.2300    -0.8310 H     1 <1>   0.0800 
 47 H        5.9540     1.7960    -1.0610 H     1 <1>   0.0800 
 48 H        5.6380     2.3870     0.5540 H     1 <1>   0.0800 
 49 H       -2.1520    -3.5080    -0.4080 H     1 <1>   0.4500 
 50 H       -3.8470    -5.0870    -1.3480 H     1 <1>   0.0800 
 51 H       -3.2220    -6.2370    -0.1930 H     1 <1>   0.0800 
 52 H       -0.2670    -4.5560    -1.6760 H     1 <1>   0.0800 
 53 H       -1.3830    -5.8610    -1.9950 H     1 <1>   0.0800 
 54 H       -4.3000    -3.4680     0.4760 H     1 <1>   0.0800 
 55 H       -3.7720    -4.6610     1.6550 H     1 <1>   0.0800 
 56 H       -5.1670    -4.9620     0.6690 H     1 <1>   0.0800 
 57 H       -1.8750    -2.9260    -2.6440 H     1 <1>   0.0800 
 58 H       -2.9550    -4.2510    -3.0530 H     1 <1>   0.0800 
 59 H       -1.3850    -4.1450    -3.7830 H     1 <1>   0.0800 
@<TRIPOS>BOND
  1   1   2  2   
  2   2   3  am  
  3   2   4  1   
  4   3   5  1   
  5   3   6  1   
  6   4   7  2   
  7   4   8  1   
  8   5   9  1   
  9   5  10  1   
 10   5  25  1   
 11   6  11  1   
 12   6  26  1   
 13   6  27  1   
 14   7  12  1   
 15   7  13  1   
 16   8  14  2   
 17   8  28  1   
 18   9  15  1   
 19   9  16  1   
 20   9  29  1   
 21  10  17  1   
 22  10  30  1   
 23  10  31  1   
 24  11  17  1   
 25  11  32  1   
 26  11  33  1   
 27  12  14  1   
 28  13  34  1   
 29  13  35  1   
 30  13  36  1   
 31  14  18  1   
 32  15  37  1   
 33  15  38  1   
 34  15  39  1   
 35  16  40  1   
 36  16  41  1   
 37  16  42  1   
 38  17  19  1   
 39  17  43  1   
 40  18  20  1   
 41  18  44  1   
 42  18  45  1   
 43  19  46  1   
 44  19  47  1   
 45  19  48  1   
 46  20  21  1   
 47  20  22  1   
 48  20  49  1   
 49  21  23  1   
 50  21  50  1   
 51  21  51  1   
 52  22  24  1   
 53  22  52  1   
 54  22  53  1   
 55  23  54  1   
 56  23  55  1   
 57  23  56  1   
 58  24  57  1   
 59  24  58  1   
 60  24  59  1   
@<TRIPOS>SUBSTRUCTURE
  1 ****   4 GROUP 4 **** **** 0

# MOE 2024.06 (io_trps.svl 2023.06)
