@<TRIPOS>MOLECULE
NONAME
58 62 1 0 0 
SMALL
USER_CHARGES


@<TRIPOS>ATOM
  1 O       -1.8440     0.2920    -1.8220 O.2   1 <1>  -0.5700 
  2 C       -1.7700     0.3710    -0.6210 C.2   1 <1>   0.5690 
  3 N       -1.7920    -0.7240     0.1720 N.am  1 <1>  -0.7300 
  4 C       -1.6540     1.7300     0.0240 C.3   1 <1>  -0.0990 
  5 C       -1.8660    -2.1240    -0.3090 C.3   1 <1>   0.2200 
  6 C       -0.1900     2.1630     0.1130 C.3   1 <1>   0.0210 
  7 C       -3.2680    -2.6990    -0.1420 C.3   1 <1>  -0.0800 
  8 C       -1.0870    -3.0120     0.6510 C.3   1 <1>   0.1200 
  9 C       -0.0870     3.4960     0.8220 C.2   1 <1>   0.1080 
 10 C       -3.2770    -3.1270     1.3310 C.3   1 <1>   0.1200 
 11 C       -4.4170    -1.7500    -0.5420 C.3   1 <1>  -0.0170 
 12 O       -1.9410    -3.2160     1.7360 O.3   1 <1>  -0.5600 
 13 N       -0.1370     3.5960     2.1160 N.2   1 <1>  -0.7070 
 14 C        0.0550     4.7360     0.2070 C.2   1 <1>  -0.1810 
 15 C       -5.8370    -2.3280    -0.4990 C.ar  1 <1>  -0.1440 
 16 N       -0.0220     4.9170     2.3620 N.pl3 1 <1>   0.3000 
 17 C        0.0880     5.6220     1.2190 C.2   1 <1>  -0.3320 
 18 C        0.1500     5.1230    -1.2570 C.3   1 <1>   0.0210 
 19 C       -6.9480    -1.4650    -0.6710 C.ar  1 <1>   0.0000 
 20 C       -6.1100    -3.6550    -0.3080 C.ar  1 <1>  -0.1500 
 21 C        0.2330     7.1240     1.0700 C.3   1 <1>   0.0200 
 22 C        0.6670     6.5690    -1.3910 C.3   1 <1>  -0.1600 
 23 C       -8.2460    -2.0270    -0.5980 C.ar  1 <1>   0.3100 
 24 C       -6.8460    -0.0740    -0.9170 C.ar  1 <1>  -0.1500 
 25 C       -7.4330    -4.1090    -0.2630 C.ar  1 <1>   0.1600 
 26 C       -0.0230     7.5250    -0.3950 C.3   1 <1>  -0.1600 
 27 N       -8.4710    -3.3480    -0.3930 N.ar  1 <1>  -0.6200 
 28 C       -9.3620    -1.1880    -0.7480 C.ar  1 <1>  -0.1500 
 29 C       -7.9540     0.7150    -1.0630 C.ar  1 <1>  -0.1500 
 30 C       -9.2300     0.1550    -0.9750 C.ar  1 <1>  -0.1500 
 31 H       -1.7490    -0.6330     1.1910 H     1 <1>   0.3700 
 32 H       -2.2060     2.4440    -0.5600 H     1 <1>   0.0800 
 33 H       -2.0830     1.7020     1.0090 H     1 <1>   0.0800 
 34 H       -1.5040    -2.1960    -1.3210 H     1 <1>   0.0800 
 35 H        0.2320     2.2350    -0.8720 H     1 <1>   0.0800 
 36 H        0.3750     1.4350     0.6670 H     1 <1>   0.0800 
 37 H       -3.3210    -3.5820    -0.7520 H     1 <1>   0.0800 
 38 H       -0.1700    -2.5610     0.9880 H     1 <1>   0.0800 
 39 H       -0.8840    -3.9700     0.2060 H     1 <1>   0.0800 
 40 H       -3.7460    -4.0840     1.4750 H     1 <1>   0.0800 
 41 H       -3.7570    -2.3910     1.9540 H     1 <1>   0.0800 
 42 H       -4.2310    -1.3930    -1.5410 H     1 <1>   0.0800 
 43 H       -4.3920    -0.8990     0.1160 H     1 <1>   0.0800 
 44 H       -0.0230     5.3000     3.3140 H     1 <1>   0.2700 
 45 H        0.8110     4.4530    -1.7750 H     1 <1>   0.0800 
 46 H       -0.8290     5.0440    -1.6960 H     1 <1>   0.0800 
 47 H       -5.3440    -4.3960    -0.1890 H     1 <1>   0.1500 
 48 H       -0.4640     7.6340     1.7110 H     1 <1>   0.0800 
 49 H        1.2320     7.4070     1.3540 H     1 <1>   0.0800 
 50 H        1.7260     6.5760    -1.2000 H     1 <1>   0.0800 
 51 H        0.5090     6.9110    -2.3980 H     1 <1>   0.0800 
 52 H       -5.8770     0.3820    -0.9990 H     1 <1>   0.1500 
 53 H       -7.5970    -5.1620    -0.1070 H     1 <1>   0.1500 
 54 H       -1.0830     7.5070    -0.5790 H     1 <1>   0.0800 
 55 H        0.3230     8.5320    -0.5550 H     1 <1>   0.0800 
 56 H      -10.3330    -1.6430    -0.6810 H     1 <1>   0.1500 
 57 H       -7.8580     1.7710    -1.2470 H     1 <1>   0.1500 
 58 H      -10.0950     0.7860    -1.0890 H     1 <1>   0.1500 
@<TRIPOS>BOND
  1   1   2  2   
  2   2   3  am  
  3   2   4  1   
  4   3   5  1   
  5   3  31  1   
  6   4   6  1   
  7   4  32  1   
  8   4  33  1   
  9   5   7  1   
 10   5   8  1   
 11   5  34  1   
 12   6   9  1   
 13   6  35  1   
 14   6  36  1   
 15   7  10  1   
 16   7  11  1   
 17   7  37  1   
 18   8  12  1   
 19   8  38  1   
 20   8  39  1   
 21   9  13  2   
 22   9  14  1   
 23  10  12  1   
 24  10  40  1   
 25  10  41  1   
 26  11  15  1   
 27  11  42  1   
 28  11  43  1   
 29  13  16  1   
 30  14  17  2   
 31  14  18  1   
 32  15  19  ar  
 33  15  20  ar  
 34  16  17  1   
 35  16  44  1   
 36  17  21  1   
 37  18  22  1   
 38  18  45  1   
 39  18  46  1   
 40  19  23  ar  
 41  19  24  ar  
 42  20  25  ar  
 43  20  47  1   
 44  21  26  1   
 45  21  48  1   
 46  21  49  1   
 47  22  26  1   
 48  22  50  1   
 49  22  51  1   
 50  23  27  ar  
 51  23  28  ar  
 52  24  29  ar  
 53  24  52  1   
 54  25  27  ar  
 55  25  53  1   
 56  26  54  1   
 57  26  55  1   
 58  28  30  ar  
 59  28  56  1   
 60  29  30  ar  
 61  29  57  1   
 62  30  58  1   
@<TRIPOS>SUBSTRUCTURE
  1 ****   2 GROUP 4 **** **** 0

# MOE 2024.06 (io_trps.svl 2023.06)
