@<TRIPOS>MOLECULE
NONAME
42 44 1 0 0 
SMALL
USER_CHARGES


@<TRIPOS>ATOM
  1 O       -1.6730    -2.8310    -0.7180 O.co2 1 <1>  -0.9000 
  2 C       -0.5000    -3.2450    -0.6920 C.2   1 <1>   1.0330 
  3 O       -0.2230    -4.1320    -1.5120 O.co2 1 <1>  -0.9000 
  4 C        0.3570    -2.9360     0.3930 C.2   1 <1>  -0.2330 
  5 C        0.2650    -3.5490     1.6400 C.2   1 <1>   0.3720 
  6 C        1.3970    -2.0750     0.5260 C.2   1 <1>   0.0870 
  7 N        1.1620    -3.1040     2.4420 N.2   1 <1>  -0.4100 
  8 N       -0.6600    -4.5320     2.0190 N.pl3 1 <1>  -0.8210 
  9 O        1.8380    -2.2170     1.7550 O.3   1 <1>  -0.0190 
 10 C        2.0180    -1.1330    -0.3750 C.ar  1 <1>   0.0530 
 11 C       -0.4520    -5.8720     1.3720 C.3   1 <1>   0.2090 
 12 C       -2.0770    -4.0490     2.1660 C.3   1 <1>   0.2090 
 13 C        3.2990    -0.6370    -0.1250 C.ar  1 <1>  -0.1500 
 14 C        1.3720    -0.6760    -1.5260 C.ar  1 <1>  -0.1500 
 15 C       -1.3890    -6.2000     0.1800 C.3   1 <1>   0.3430 
 16 C       -3.1230    -4.8730     1.3780 C.3   1 <1>   0.3430 
 17 C        3.9080     0.2650    -0.9770 C.ar  1 <1>  -0.1500 
 18 C        1.9760     0.2250    -2.3840 C.ar  1 <1>  -0.1500 
 19 N       -2.5800    -5.2940     0.0580 N.4   1 <1>  -0.9590 
 20 C        3.2460     0.6990    -2.1120 C.ar  1 <1>  -0.1500 
 21 C       -3.5680    -5.7060    -0.9690 C.3   1 <1>   0.3430 
 22 C       -3.0290    -5.4190    -2.3770 C.3   1 <1>   0.1200 
 23 O       -3.9190    -5.9430    -3.3060 O.3   1 <1>  -0.6800 
 24 H       -0.5800    -6.6280     2.1260 H     1 <1>   0.0800 
 25 H        0.5680    -5.9480     1.0320 H     1 <1>   0.0800 
 26 H       -2.1370    -3.0250     1.8360 H     1 <1>   0.0800 
 27 H       -2.3370    -4.0550     3.2100 H     1 <1>   0.0800 
 28 H        3.8270    -0.9670     0.7520 H     1 <1>   0.1500 
 29 H        0.3820    -1.0230    -1.7570 H     1 <1>   0.1500 
 30 H       -1.7170    -7.2210     0.2770 H     1 <1>   0.0800 
 31 H       -0.8100    -6.1400    -0.7270 H     1 <1>   0.0800 
 32 H       -4.0020    -4.2680     1.2380 H     1 <1>   0.0800 
 33 H       -3.3960    -5.7420     1.9510 H     1 <1>   0.0800 
 34 H        4.8960     0.6290    -0.7590 H     1 <1>   0.1500 
 35 H        1.4540     0.5570    -3.2640 H     1 <1>   0.1500 
 36 H       -2.1810    -4.4000    -0.3340 H     1 <1>   0.4500 
 37 H        3.7170     1.4000    -2.7790 H     1 <1>   0.1500 
 38 H       -4.4770    -5.1450    -0.8400 H     1 <1>   0.0800 
 39 H       -3.7850    -6.7560    -0.8700 H     1 <1>   0.0800 
 40 H       -2.0700    -5.8820    -2.5350 H     1 <1>   0.0800 
 41 H       -2.9460    -4.3570    -2.5410 H     1 <1>   0.0800 
 42 H       -3.6310    -5.7100    -4.2130 H     1 <1>   0.4000 
@<TRIPOS>BOND
  1   1   2  ar  
  2   2   3  ar  
  3   2   4  1   
  4   4   5  1   
  5   4   6  2   
  6   5   7  2   
  7   5   8  1   
  8   6   9  1   
  9   6  10  1   
 10   7   9  1   
 11   8  11  1   
 12   8  12  1   
 13  10  13  ar  
 14  10  14  ar  
 15  11  15  1   
 16  11  24  1   
 17  11  25  1   
 18  12  16  1   
 19  12  26  1   
 20  12  27  1   
 21  13  17  ar  
 22  13  28  1   
 23  14  18  ar  
 24  14  29  1   
 25  15  19  1   
 26  15  30  1   
 27  15  31  1   
 28  16  19  1   
 29  16  32  1   
 30  16  33  1   
 31  17  20  ar  
 32  17  34  1   
 33  18  20  ar  
 34  18  35  1   
 35  19  21  1   
 36  19  36  1   
 37  20  37  1   
 38  21  22  1   
 39  21  38  1   
 40  21  39  1   
 41  22  23  1   
 42  22  40  1   
 43  22  41  1   
 44  23  42  1   
@<TRIPOS>SUBSTRUCTURE
  1 ****   2 GROUP 4 **** **** 0

# MOE 2024.06 (io_trps.svl 2023.06)
