@<TRIPOS>MOLECULE
NONAME
42 43 1 0 0 
SMALL
USER_CHARGES


@<TRIPOS>ATOM
  1 O        0.0620     0.7590     0.3310 O.2   1 <1>  -0.5700 
  2 C        1.1910     1.1720     0.2290 C.2   1 <1>   0.5690 
  3 N        1.4720     2.3940    -0.3210 N.am  1 <1>  -0.6600 
  4 C        2.3020     0.2830     0.7370 C.3   1 <1>  -0.1790 
  5 C        2.8290     3.0130    -0.4310 C.3   1 <1>   0.1400 
  6 C        0.3870     3.2710    -0.8560 C.3   1 <1>   0.1400 
  7 C        2.8200     4.4560     0.1100 C.3   1 <1>   0.2000 
  8 C        0.5110     4.6940    -0.2890 C.3   1 <1>   0.1200 
  9 O        1.7970     5.2050    -0.5060 O.3   1 <1>  -0.5600 
 10 C        4.1710     5.1490    -0.1260 C.3   1 <1>   0.2090 
 11 N        4.0880     6.5840     0.2310 N.pl3 1 <1>  -0.8690 
 12 C        5.1570     7.4410     0.1580 C.ar  1 <1>   0.4100 
 13 N        6.3510     6.8970     0.0530 N.ar  1 <1>  -0.6200 
 14 C        4.9830     8.8200     0.1910 C.ar  1 <1>  -0.1440 
 15 C        7.3630     7.7350    -0.0170 C.ar  1 <1>   0.4770 
 16 C        6.1250     9.5800     0.1050 C.ar  1 <1>   0.1600 
 17 C        3.5780     9.4170     0.3190 C.3   1 <1>  -0.0170 
 18 N        7.3290     9.0530    -0.0010 N.ar  1 <1>  -0.6200 
 19 C        8.7290     7.1040    -0.1370 C.3   1 <1>  -0.0970 
 20 C        3.5220    10.9470     0.4230 C.3   1 <1>  -0.2400 
 21 H        3.0150     0.1030    -0.0460 H     1 <1>   0.0800 
 22 H        1.8940    -0.6600     1.0510 H     1 <1>   0.0800 
 23 H        2.7840     0.7450     1.5760 H     1 <1>   0.0800 
 24 H        3.1220     3.0240    -1.4660 H     1 <1>   0.0800 
 25 H        3.5570     2.4420     0.1140 H     1 <1>   0.0800 
 26 H       -0.5820     2.8750    -0.6030 H     1 <1>   0.0800 
 27 H        0.4570     3.3080    -1.9280 H     1 <1>   0.0800 
 28 H        2.6290     4.4390     1.1690 H     1 <1>   0.0800 
 29 H        0.3100     4.6970     0.7690 H     1 <1>   0.0800 
 30 H       -0.1900     5.3480    -0.7760 H     1 <1>   0.0800 
 31 H        4.4500     5.0620    -1.1620 H     1 <1>   0.0800 
 32 H        4.9330     4.6770     0.4700 H     1 <1>   0.0800 
 33 H        3.1620     6.9630     0.0120 H     1 <1>   0.4000 
 34 H        6.0780    10.6530     0.1220 H     1 <1>   0.1500 
 35 H        3.1120     9.0020     1.1960 H     1 <1>   0.0800 
 36 H        2.9980     9.1110    -0.5340 H     1 <1>   0.0800 
 37 H        8.8260     6.3140     0.5830 H     1 <1>   0.0800 
 38 H        9.4970     7.8340     0.0400 H     1 <1>   0.0800 
 39 H        8.8470     6.7010    -1.1240 H     1 <1>   0.0800 
 40 H        4.0720    11.2860     1.2830 H     1 <1>   0.0800 
 41 H        2.5000    11.2660     0.5270 H     1 <1>   0.0800 
 42 H        3.9280    11.4010    -0.4640 H     1 <1>   0.0800 
@<TRIPOS>BOND
  1   1   2  2   
  2   2   3  am  
  3   2   4  1   
  4   3   5  1   
  5   3   6  1   
  6   4  21  1   
  7   4  22  1   
  8   4  23  1   
  9   5   7  1   
 10   5  24  1   
 11   5  25  1   
 12   6   8  1   
 13   6  26  1   
 14   6  27  1   
 15   7   9  1   
 16   7  10  1   
 17   7  28  1   
 18   8   9  1   
 19   8  29  1   
 20   8  30  1   
 21  10  11  1   
 22  10  31  1   
 23  10  32  1   
 24  11  12  1   
 25  11  33  1   
 26  12  13  ar  
 27  12  14  ar  
 28  13  15  ar  
 29  14  16  ar  
 30  14  17  1   
 31  15  18  ar  
 32  15  19  1   
 33  16  18  ar  
 34  16  34  1   
 35  17  20  1   
 36  17  35  1   
 37  17  36  1   
 38  19  37  1   
 39  19  38  1   
 40  19  39  1   
 41  20  40  1   
 42  20  41  1   
 43  20  42  1   
@<TRIPOS>SUBSTRUCTURE
  1 ****  10 GROUP 4 **** **** 0

# MOE 2024.06 (io_trps.svl 2023.06)
