@<TRIPOS>MOLECULE
NONAME
56 58 1 0 0 
SMALL
USER_CHARGES


@<TRIPOS>ATOM
  1 O        0.5910     0.7760    -3.0430 O.2   1 <1>  -0.5700 
  2 C        0.8460     0.0760    -2.0960 C.2   1 <1>   0.5690 
  3 N        1.4020     0.5970    -0.9500 N.am  1 <1>  -0.6600 
  4 C        0.6150    -1.4180    -2.2440 C.3   1 <1>  -0.0990 
  5 C        1.7930    -0.1910     0.2570 C.3   1 <1>   0.1400 
  6 C        1.7760     2.0340    -0.8860 C.3   1 <1>   0.1400 
  7 C       -0.6430    -1.9270    -1.5100 C.3   1 <1>  -0.1600 
  8 C        3.2580    -0.6640     0.1930 C.3   1 <1>   0.3430 
  9 C        3.1840     2.2420    -1.4580 C.3   1 <1>  -0.1600 
 10 C       -0.5140    -3.3970    -1.0690 C.3   1 <1>   0.0960 
 11 N        4.2440     0.4460    -0.0690 N.4   1 <1>  -0.9590 
 12 C        4.0970     1.0120    -1.4490 C.3   1 <1>   0.3430 
 13 N        0.4150    -3.5440     0.0780 N.pl3 1 <1>   0.3140 
 14 C        5.6360    -0.0250     0.1760 C.3   1 <1>   0.4860 
 15 N        1.7360    -3.6860    -0.0400 N.2   1 <1>  -0.7070 
 16 C        0.1110    -3.5310     1.3790 C.2   1 <1>   0.0360 
 17 C        6.5670     1.1690     0.2240 C.ar  1 <1>  -0.1440 
 18 C        2.1140    -3.8050     1.1910 C.2   1 <1>   0.3660 
 19 N        1.1560    -3.6740     2.1110 N.2   1 <1>  -0.5650 
 20 C        6.6140     1.9690     1.3560 C.ar  1 <1>   0.1600 
 21 C        7.3830     1.4830    -0.8480 C.ar  1 <1>  -0.1500 
 22 N        7.3680     3.0430     1.4930 N.ar  1 <1>  -0.6200 
 23 C        8.1830     2.5960    -0.7160 C.ar  1 <1>  -0.1500 
 24 C        8.1440     3.3390     0.4530 C.ar  1 <1>   0.3930 
 25 O        8.9470     4.4190     0.5170 O.3   1 <1>  -0.3620 
 26 C        9.0040     5.2160     1.6820 C.3   1 <1>   0.1200 
 27 C       10.0010     6.3450     1.4370 C.3   1 <1>  -0.2400 
 28 H        1.4990    -1.9240    -1.9140 H     1 <1>   0.0800 
 29 H        0.5150    -1.6440    -3.2920 H     1 <1>   0.0800 
 30 H        1.1550    -1.0440     0.3630 H     1 <1>   0.0800 
 31 H        1.6470     0.4060     1.1410 H     1 <1>   0.0800 
 32 H        1.7350     2.3740     0.1350 H     1 <1>   0.0800 
 33 H        1.0660     2.6230    -1.4450 H     1 <1>   0.0800 
 34 H       -1.4810    -1.8330    -2.1790 H     1 <1>   0.0800 
 35 H       -0.8630    -1.3150    -0.6520 H     1 <1>   0.0800 
 36 H        3.3410    -1.4160    -0.5760 H     1 <1>   0.0800 
 37 H        3.4900    -1.1410     1.1310 H     1 <1>   0.0800 
 38 H        3.6620     3.0640    -0.9550 H     1 <1>   0.0800 
 39 H        3.0690     2.5440    -2.4850 H     1 <1>   0.0800 
 40 H       -0.1560    -4.0030    -1.8820 H     1 <1>   0.0800 
 41 H       -1.4770    -3.7720    -0.7700 H     1 <1>   0.0800 
 42 H        4.0600     1.2170     0.5820 H     1 <1>   0.4500 
 43 H        5.0580     1.3080    -1.8360 H     1 <1>   0.0800 
 44 H        3.6920     0.2630    -2.1110 H     1 <1>   0.0800 
 45 H        5.9440    -0.7020    -0.6040 H     1 <1>   0.0800 
 46 H        5.6890    -0.5480     1.1180 H     1 <1>   0.0800 
 47 H       -0.8940    -3.4150     1.7470 H     1 <1>   0.1500 
 48 H        3.1340    -3.9920     1.4870 H     1 <1>   0.1500 
 49 H        6.0000     1.7230     2.2060 H     1 <1>   0.1500 
 50 H        7.4110     0.8970    -1.7520 H     1 <1>   0.1500 
 51 H        8.8460     2.9060    -1.5040 H     1 <1>   0.1500 
 52 H        9.3190     4.5960     2.5040 H     1 <1>   0.0800 
 53 H        8.0200     5.6080     1.8760 H     1 <1>   0.0800 
 54 H       10.9760     5.9390     1.2330 H     1 <1>   0.0800 
 55 H       10.0650     6.9680     2.3100 H     1 <1>   0.0800 
 56 H        9.6810     6.9480     0.6070 H     1 <1>   0.0800 
@<TRIPOS>BOND
  1   1   2  2   
  2   2   3  am  
  3   2   4  1   
  4   3   5  1   
  5   3   6  1   
  6   4   7  1   
  7   4  28  1   
  8   4  29  1   
  9   5   8  1   
 10   5  30  1   
 11   5  31  1   
 12   6   9  1   
 13   6  32  1   
 14   6  33  1   
 15   7  10  1   
 16   7  34  1   
 17   7  35  1   
 18   8  11  1   
 19   8  36  1   
 20   8  37  1   
 21   9  12  1   
 22   9  38  1   
 23   9  39  1   
 24  10  13  1   
 25  10  40  1   
 26  10  41  1   
 27  11  12  1   
 28  11  14  1   
 29  11  42  1   
 30  12  43  1   
 31  12  44  1   
 32  13  15  1   
 33  13  16  1   
 34  14  17  1   
 35  14  45  1   
 36  14  46  1   
 37  15  18  2   
 38  16  19  2   
 39  16  47  1   
 40  17  20  ar  
 41  17  21  ar  
 42  18  19  1   
 43  18  48  1   
 44  20  22  ar  
 45  20  49  1   
 46  21  23  ar  
 47  21  50  1   
 48  22  24  ar  
 49  23  24  ar  
 50  23  51  1   
 51  24  25  1   
 52  25  26  1   
 53  26  27  1   
 54  26  52  1   
 55  26  53  1   
 56  27  54  1   
 57  27  55  1   
 58  27  56  1   
@<TRIPOS>SUBSTRUCTURE
  1 ****  11 GROUP 4 **** **** 0

# MOE 2024.06 (io_trps.svl 2023.06)
