@<TRIPOS>MOLECULE
NONAME
53 55 1 0 0 
SMALL
USER_CHARGES


@<TRIPOS>ATOM
  1 O       -1.6460     0.1880     1.2690 O.2   1 <1>  -0.5700 
  2 C       -1.9820     0.9240     0.3570 C.2   1 <1>   0.5440 
  3 N       -2.7700     0.3760    -0.6330 N.am  1 <1>  -0.6600 
  4 C       -1.6040     2.3180     0.3560 C.ar  1 <1>   0.0860 
  5 C       -2.8170    -1.1030    -0.7770 C.3   1 <1>   0.1400 
  6 C       -4.0270     1.0520    -1.0580 C.3   1 <1>   0.1400 
  7 C       -1.3980     3.0130    -0.8340 C.ar  1 <1>   0.1600 
  8 C       -1.4310     3.0370     1.5340 C.ar  1 <1>  -0.1500 
  9 C       -3.9390    -1.6500     0.1340 C.3   1 <1>   0.4230 
 10 C       -5.1710     0.5300    -0.1780 C.3   1 <1>  -0.1600 
 11 N       -1.0940     4.2910    -0.9480 N.ar  1 <1>  -0.6200 
 12 C       -1.1050     4.3670     1.4360 C.ar  1 <1>  -0.1500 
 13 N       -3.9560    -3.1680     0.2520 N.4   1 <1>  -0.9590 
 14 C       -5.3250    -1.0200    -0.2050 C.3   1 <1>   0.0000 
 15 C       -0.9570     4.9700     0.1880 C.ar  1 <1>   0.4100 
 16 C       -5.2460    -3.7260     0.7730 C.3   1 <1>   0.3430 
 17 C       -3.5300    -3.9180    -0.9740 C.3   1 <1>   0.2630 
 18 C       -6.3580    -1.4370     0.8840 C.3   1 <1>  -0.1600 
 19 C       -5.7980    -1.4910    -1.6100 C.3   1 <1>   0.1200 
 20 N       -0.6580     6.3130     0.0890 N.pl3 1 <1>  -0.8380 
 21 C       -5.9660    -2.7110     1.6590 C.3   1 <1>  -0.1600 
 22 O       -6.9120    -0.7890    -2.0380 O.3   1 <1>  -0.6800 
 23 C       -1.3840     7.3270     0.8980 C.3   1 <1>   0.1290 
 24 C        0.0330     6.8450    -1.1190 C.3   1 <1>   0.1290 
 25 H       -2.9830    -1.3460    -1.8100 H     1 <1>   0.0800 
 26 H       -1.8690    -1.5170    -0.4770 H     1 <1>   0.0800 
 27 H       -3.9460     2.1200    -0.9420 H     1 <1>   0.0800 
 28 H       -4.2210     0.8470    -2.0980 H     1 <1>   0.0800 
 29 H       -1.4950     2.4670    -1.7560 H     1 <1>   0.1500 
 30 H       -1.5470     2.5550     2.4890 H     1 <1>   0.1500 
 31 H       -3.6960    -1.2790     1.1170 H     1 <1>   0.0800 
 32 H       -4.9730     0.8590     0.8290 H     1 <1>   0.0800 
 33 H       -6.0860     1.0110    -0.4790 H     1 <1>   0.0800 
 34 H       -0.9510     4.9580     2.3180 H     1 <1>   0.1500 
 35 H       -3.2520    -3.3650     0.9790 H     1 <1>   0.4500 
 36 H       -5.8940    -3.9790    -0.0510 H     1 <1>   0.0800 
 37 H       -5.0550    -4.6280     1.3330 H     1 <1>   0.0800 
 38 H       -4.2000    -3.7160    -1.7940 H     1 <1>   0.0800 
 39 H       -3.5340    -4.9790    -0.7820 H     1 <1>   0.0800 
 40 H       -2.5310    -3.6330    -1.2640 H     1 <1>   0.0800 
 41 H       -6.4860    -0.6500     1.6080 H     1 <1>   0.0800 
 42 H       -7.3260    -1.5860     0.4370 H     1 <1>   0.0800 
 43 H       -6.0570    -2.5340    -1.6110 H     1 <1>   0.0800 
 44 H       -5.0400    -1.3300    -2.3550 H     1 <1>   0.0800 
 45 H       -6.8550    -3.1620     2.0660 H     1 <1>   0.0800 
 46 H       -5.3320    -2.4580     2.4910 H     1 <1>   0.0800 
 47 H       -7.6830    -0.9220    -1.4510 H     1 <1>   0.4000 
 48 H       -0.6870     7.8510     1.5290 H     1 <1>   0.0800 
 49 H       -2.1320     6.8580     1.5120 H     1 <1>   0.0800 
 50 H       -1.8720     8.0320     0.2480 H     1 <1>   0.0800 
 51 H        0.6080     7.7170    -0.8610 H     1 <1>   0.0800 
 52 H       -0.6950     7.1020    -1.8690 H     1 <1>   0.0800 
 53 H        0.6980     6.1010    -1.5220 H     1 <1>   0.0800 
@<TRIPOS>BOND
  1   1   2  2   
  2   2   3  am  
  3   2   4  1   
  4   3   5  1   
  5   3   6  1   
  6   4   7  ar  
  7   4   8  ar  
  8   5   9  1   
  9   5  25  1   
 10   5  26  1   
 11   6  10  1   
 12   6  27  1   
 13   6  28  1   
 14   7  11  ar  
 15   7  29  1   
 16   8  12  ar  
 17   8  30  1   
 18   9  13  1   
 19   9  14  1   
 20   9  31  1   
 21  10  14  1   
 22  10  32  1   
 23  10  33  1   
 24  11  15  ar  
 25  12  15  ar  
 26  12  34  1   
 27  13  16  1   
 28  13  17  1   
 29  13  35  1   
 30  14  18  1   
 31  14  19  1   
 32  15  20  1   
 33  16  21  1   
 34  16  36  1   
 35  16  37  1   
 36  17  38  1   
 37  17  39  1   
 38  17  40  1   
 39  18  21  1   
 40  18  41  1   
 41  18  42  1   
 42  19  22  1   
 43  19  43  1   
 44  19  44  1   
 45  20  23  1   
 46  20  24  1   
 47  21  45  1   
 48  21  46  1   
 49  22  47  1   
 50  23  48  1   
 51  23  49  1   
 52  23  50  1   
 53  24  51  1   
 54  24  52  1   
 55  24  53  1   
@<TRIPOS>SUBSTRUCTURE
  1 ****   3 GROUP 4 **** **** 0

# MOE 2024.06 (io_trps.svl 2023.06)
