@<TRIPOS>MOLECULE
NONAME
48 51 1 0 0 
SMALL
USER_CHARGES


@<TRIPOS>ATOM
  1 O       -0.6250     0.6400    -0.4680 O.2   1 <1>  -0.5700 
  2 C       -1.6420     1.1710    -0.0470 C.2   1 <1>   0.7160 
  3 N       -2.7440     0.3540     0.1350 N.am  1 <1>  -0.6600 
  4 C       -1.6340     2.6100     0.2280 C.2   1 <1>   0.2030 
  5 C       -4.0830     0.7870     0.6080 C.3   1 <1>   0.1400 
  6 C       -2.7130    -1.1130    -0.0800 C.3   1 <1>   0.1400 
  7 N       -2.6420     3.3800     0.6110 N.2   1 <1>  -0.7070 
  8 C       -0.4770     3.3880     0.1070 C.2   1 <1>  -0.1500 
  9 C       -4.9530    -0.4680     0.5400 C.3   1 <1>   0.2000 
 10 C       -3.9790    -1.6430     0.5930 C.3   1 <1>  -0.0800 
 11 N       -2.1210     4.6110     0.7240 N.pl3 1 <1>   0.3000 
 12 C       -0.8060     4.6640     0.4210 C.2   1 <1>  -0.1520 
 13 O       -5.8410    -0.5360     1.6020 O.3   1 <1>  -0.6800 
 14 C       -4.5360    -2.9180    -0.0570 C.3   1 <1>   0.0210 
 15 C       -0.0330     5.8790     0.4670 C.2   1 <1>  -0.1520 
 16 C       -3.4930    -4.0180    -0.0850 C.2   1 <1>   0.1080 
 17 N        1.0310     6.1680    -0.3520 N.pl3 1 <1>   0.0480 
 18 C       -0.2120     6.9470     1.3050 C.2   1 <1>  -0.1500 
 19 N       -2.9990    -4.5480     0.9900 N.2   1 <1>  -0.7070 
 20 C       -2.9470    -4.5680    -1.2400 C.2   1 <1>  -0.1500 
 21 C        1.4960     7.4000    -0.0180 C.2   1 <1>  -0.3020 
 22 C        1.5650     5.3380    -1.4460 C.3   1 <1>   0.0160 
 23 C        0.7530     7.9050     0.9990 C.2   1 <1>  -0.1500 
 24 N       -2.1170    -5.4620     0.5450 N.pl3 1 <1>   0.3000 
 25 C       -2.0660    -5.4920    -0.8030 C.2   1 <1>  -0.3320 
 26 C       -1.1650    -6.4160    -1.6020 C.3   1 <1>  -0.0600 
 27 H       -4.0010     1.1510     1.6170 H     1 <1>   0.0800 
 28 H       -4.4760     1.5570    -0.0320 H     1 <1>   0.0800 
 29 H       -2.7240    -1.3110    -1.1380 H     1 <1>   0.0800 
 30 H       -1.8280    -1.5510     0.3540 H     1 <1>   0.0800 
 31 H        0.4840     3.0010    -0.1780 H     1 <1>   0.1500 
 32 H       -5.5180    -0.4650    -0.3760 H     1 <1>   0.0800 
 33 H       -3.7240    -1.8560     1.6170 H     1 <1>   0.0800 
 34 H       -2.6740     5.4300     1.0020 H     1 <1>   0.2700 
 35 H       -5.3530    -0.6320     2.4420 H     1 <1>   0.4000 
 36 H       -4.8610    -2.7110    -1.0610 H     1 <1>   0.0800 
 37 H       -5.3860    -3.2640     0.5040 H     1 <1>   0.0800 
 38 H       -0.9500     7.0560     2.0790 H     1 <1>   0.1500 
 39 H       -3.1920    -4.2960    -2.2510 H     1 <1>   0.1500 
 40 H        2.3310     7.8570    -0.5190 H     1 <1>   0.1500 
 41 H        2.1740     5.9430    -2.0920 H     1 <1>   0.0800 
 42 H        0.7490     4.9250    -2.0110 H     1 <1>   0.0800 
 43 H        2.1590     4.5450    -1.0310 H     1 <1>   0.0800 
 44 H        0.8670     8.8570     1.4900 H     1 <1>   0.1500 
 45 H       -1.5680    -6.0480     1.1860 H     1 <1>   0.2700 
 46 H       -1.3070    -6.2500    -2.6550 H     1 <1>   0.0800 
 47 H       -1.3970    -7.4430    -1.3830 H     1 <1>   0.0800 
 48 H       -0.1340    -6.2280    -1.3620 H     1 <1>   0.0800 
@<TRIPOS>BOND
  1   1   2  2   
  2   2   3  am  
  3   2   4  1   
  4   3   5  1   
  5   3   6  1   
  6   4   7  2   
  7   4   8  1   
  8   5   9  1   
  9   5  27  1   
 10   5  28  1   
 11   6  10  1   
 12   6  29  1   
 13   6  30  1   
 14   7  11  1   
 15   8  12  2   
 16   8  31  1   
 17   9  10  1   
 18   9  13  1   
 19   9  32  1   
 20  10  14  1   
 21  10  33  1   
 22  11  12  1   
 23  11  34  1   
 24  12  15  1   
 25  13  35  1   
 26  14  16  1   
 27  14  36  1   
 28  14  37  1   
 29  15  17  1   
 30  15  18  2   
 31  16  19  2   
 32  16  20  1   
 33  17  21  1   
 34  17  22  1   
 35  18  23  1   
 36  18  38  1   
 37  19  24  1   
 38  20  25  2   
 39  20  39  1   
 40  21  23  2   
 41  21  40  1   
 42  22  41  1   
 43  22  42  1   
 44  22  43  1   
 45  23  44  1   
 46  24  25  1   
 47  24  45  1   
 48  25  26  1   
 49  26  46  1   
 50  26  47  1   
 51  26  48  1   
@<TRIPOS>SUBSTRUCTURE
  1 ****   2 GROUP 4 **** **** 0

# MOE 2024.06 (io_trps.svl 2023.06)
