@<TRIPOS>MOLECULE
NONAME
52 54 1 0 0 
SMALL
USER_CHARGES


@<TRIPOS>ATOM
  1 O        1.2290    -0.3200    -0.0190 O.2   1 <1>  -0.5700 
  2 C        2.3220    -0.8440     0.0210 C.2   1 <1>   0.5690 
  3 N        3.4380    -0.1670    -0.4300 N.am  1 <1>  -0.6600 
  4 C        2.4400    -2.2750     0.6130 C.3   1 <1>   0.2610 
  5 C        4.7870    -0.7970    -0.5680 C.3   1 <1>   0.1400 
  6 C        3.3180     1.2380    -0.9140 C.3   1 <1>   0.1400 
  7 O        2.7050    -3.2240    -0.3840 O.3   1 <1>  -0.5600 
  8 C        1.1760    -2.8220     1.2800 C.3   1 <1>  -0.1600 
  9 C        5.6610    -0.5300     0.6680 C.3   1 <1>   0.1100 
 10 C        4.5340     2.1120    -0.5810 C.3   1 <1>  -0.1600 
 11 C        1.5080    -3.6490    -0.9540 C.3   1 <1>   0.1200 
 12 C        0.4550    -3.5370     0.1460 C.3   1 <1>  -0.1600 
 13 N        6.1890     0.8510     0.7460 N.3   1 <1>  -0.8100 
 14 C        5.1200     1.8680     0.8130 C.3   1 <1>   0.1100 
 15 C        7.1080     0.9780     1.9220 C.3   1 <1>   0.1710 
 16 C        8.0710     2.1630     1.8330 C.2   1 <1>   0.5690 
 17 O        8.6110     2.5610     2.8400 O.2   1 <1>  -0.5700 
 18 N        8.2580     2.6990     0.5960 N.am  1 <1>  -0.4930 
 19 C        9.0520     3.7930     0.1750 C.2   1 <1>   0.0630 
 20 C        9.1480     4.3170    -1.1160 C.2   1 <1>   0.1080 
 21 C        9.8770     4.5640     0.9100 C.2   1 <1>  -0.3020 
 22 N        9.9590     5.3270    -1.1800 N.2   1 <1>  -0.7070 
 23 C        8.4060     3.7970    -2.3260 C.3   1 <1>  -0.0590 
 24 N       10.4120     5.4790     0.0770 N.pl3 1 <1>   0.3140 
 25 C       11.3710     6.5270     0.4370 C.3   1 <1>   0.0160 
 26 H        3.2550    -2.2900     1.3110 H     1 <1>   0.0800 
 27 H        4.6830    -1.8580    -0.6950 H     1 <1>   0.0800 
 28 H        5.2800    -0.4270    -1.4490 H     1 <1>   0.0800 
 29 H        3.1590     1.2280    -1.9790 H     1 <1>   0.0800 
 30 H        2.4500     1.6910    -0.4640 H     1 <1>   0.0800 
 31 H        1.4610    -3.5300     2.0370 H     1 <1>   0.0800 
 32 H        0.5770    -2.0510     1.7330 H     1 <1>   0.0800 
 33 H        6.4970    -1.2070     0.6180 H     1 <1>   0.0800 
 34 H        5.1040    -0.7630     1.5580 H     1 <1>   0.0800 
 35 H        5.2970     1.9880    -1.3280 H     1 <1>   0.0800 
 36 H        4.2110     3.1360    -0.6380 H     1 <1>   0.0800 
 37 H        1.2780    -2.9950    -1.7780 H     1 <1>   0.0800 
 38 H        1.6300    -4.6590    -1.3050 H     1 <1>   0.0800 
 39 H       -0.3780    -2.9560    -0.2100 H     1 <1>   0.0800 
 40 H        0.1050    -4.5070     0.4490 H     1 <1>   0.0800 
 41 H        4.3510     1.5740     1.5100 H     1 <1>   0.0800 
 42 H        5.5340     2.8000     1.1600 H     1 <1>   0.0800 
 43 H        6.5350     1.0620     2.8290 H     1 <1>   0.0800 
 44 H        7.7170     0.0950     2.0000 H     1 <1>   0.0800 
 45 H        7.6760     2.2470    -0.1140 H     1 <1>   0.3700 
 46 H       10.1020     4.5050     1.9590 H     1 <1>   0.1500 
 47 H        8.5950     2.7470    -2.4480 H     1 <1>   0.0800 
 48 H        8.7390     4.3150    -3.2070 H     1 <1>   0.0800 
 49 H        7.3520     3.9610    -2.2030 H     1 <1>   0.0800 
 50 H       11.0410     7.0170     1.3330 H     1 <1>   0.0800 
 51 H       11.4300     7.2390    -0.3650 H     1 <1>   0.0800 
 52 H       12.3340     6.0800     0.5950 H     1 <1>   0.0800 
@<TRIPOS>BOND
  1   1   2  2   
  2   2   3  am  
  3   2   4  1   
  4   3   5  1   
  5   3   6  1   
  6   4   7  1   
  7   4   8  1   
  8   4  26  1   
  9   5   9  1   
 10   5  27  1   
 11   5  28  1   
 12   6  10  1   
 13   6  29  1   
 14   6  30  1   
 15   7  11  1   
 16   8  12  1   
 17   8  31  1   
 18   8  32  1   
 19   9  13  1   
 20   9  33  1   
 21   9  34  1   
 22  10  14  1   
 23  10  35  1   
 24  10  36  1   
 25  11  12  1   
 26  11  37  1   
 27  11  38  1   
 28  12  39  1   
 29  12  40  1   
 30  13  14  1   
 31  13  15  1   
 32  14  41  1   
 33  14  42  1   
 34  15  16  1   
 35  15  43  1   
 36  15  44  1   
 37  16  17  2   
 38  16  18  am  
 39  18  19  1   
 40  18  45  1   
 41  19  20  1   
 42  19  21  2   
 43  20  22  2   
 44  20  23  1   
 45  21  24  1   
 46  21  46  1   
 47  22  24  1   
 48  23  47  1   
 49  23  48  1   
 50  23  49  1   
 51  24  25  1   
 52  25  50  1   
 53  25  51  1   
 54  25  52  1   
@<TRIPOS>SUBSTRUCTURE
  1 ****  13 GROUP 4 **** **** 0

# MOE 2024.06 (io_trps.svl 2023.06)
