@<TRIPOS>MOLECULE
NONAME
47 50 1 0 0 
SMALL
USER_CHARGES


@<TRIPOS>ATOM
  1 S        1.4180     0.2750    -2.1360 S.3   1 <1>  -0.0800 
  2 C        1.2140     1.6080    -1.0430 C.2   1 <1>  -0.1400 
  3 C        0.6930    -0.7650    -0.9260 C.2   1 <1>   0.1980 
  4 C        0.6540     1.1720     0.0890 C.2   1 <1>   0.0460 
  5 C        1.6360     3.0180    -1.3950 C.3   1 <1>   0.0200 
  6 N        0.3510    -0.1790     0.1570 N.2   1 <1>  -0.5650 
  7 C        0.5440    -2.2390    -1.2740 C.3   1 <1>   0.5230 
  8 C        0.3580     2.1000     1.2520 C.3   1 <1>   0.0210 
  9 C        1.0210     3.9880    -0.3660 C.3   1 <1>  -0.1600 
 10 N       -0.3030    -2.9100    -0.2370 N.4   1 <1>  -0.9590 
 11 C        1.1000     3.4440     1.0790 C.3   1 <1>  -0.1600 
 12 C       -1.7480    -2.5420    -0.3150 C.3   1 <1>   0.3430 
 13 C       -0.2470    -4.3900    -0.2120 C.3   1 <1>   0.3430 
 14 C       -2.5100    -3.7020     0.3440 C.3   1 <1>   0.2000 
 15 C       -1.4720    -4.8010     0.6050 C.3   1 <1>  -0.0800 
 16 O       -3.0760    -3.3070     1.5460 O.3   1 <1>  -0.6800 
 17 C       -1.9790    -6.2180     0.2800 C.3   1 <1>   0.0200 
 18 C       -0.8230    -7.1980     0.2170 C.2   1 <1>  -0.0400 
 19 O        0.0950    -7.1820     1.1460 O.3   1 <1>  -0.0190 
 20 C       -0.4940    -8.1490    -0.6710 C.2   1 <1>  -0.1500 
 21 N        1.0300    -8.0530     0.9170 N.2   1 <1>  -0.4100 
 22 C        0.6970    -8.6610    -0.1650 C.2   1 <1>   0.1080 
 23 C        1.4990    -9.7820    -0.7910 C.3   1 <1>  -0.0590 
 24 H        2.7090     3.0800    -1.3670 H     1 <1>   0.0800 
 25 H        1.3020     3.2740    -2.3850 H     1 <1>   0.0800 
 26 H        1.5240    -2.6840    -1.2950 H     1 <1>   0.0800 
 27 H        0.0970    -2.3390    -2.2480 H     1 <1>   0.0800 
 28 H       -0.7030     2.2680     1.2940 H     1 <1>   0.0800 
 29 H        0.6630     1.6370     2.1730 H     1 <1>   0.0800 
 30 H        1.5220     4.9380    -0.4270 H     1 <1>   0.0800 
 31 H       -0.0140     4.1480    -0.6160 H     1 <1>   0.0800 
 32 H        0.0380    -2.5270     0.6600 H     1 <1>   0.4500 
 33 H        0.6900     4.1660     1.7630 H     1 <1>   0.0800 
 34 H        2.1350     3.3020     1.3360 H     1 <1>   0.0800 
 35 H       -1.9460    -1.6060     0.1850 H     1 <1>   0.0800 
 36 H       -2.0510    -2.4660    -1.3460 H     1 <1>   0.0800 
 37 H       -0.3320    -4.7810    -1.2130 H     1 <1>   0.0800 
 38 H        0.6650    -4.7530     0.2370 H     1 <1>   0.0800 
 39 H       -3.3090    -4.0280    -0.3000 H     1 <1>   0.0800 
 40 H       -1.1710    -4.7840     1.6390 H     1 <1>   0.0800 
 41 H       -2.4120    -3.1200     2.2400 H     1 <1>   0.4000 
 42 H       -2.4970    -6.2330    -0.6630 H     1 <1>   0.0800 
 43 H       -2.6690    -6.5330     1.0440 H     1 <1>   0.0800 
 44 H       -0.9950    -8.4710    -1.5660 H     1 <1>   0.1500 
 45 H        1.7310    -9.5430    -1.8130 H     1 <1>   0.0800 
 46 H        0.9330   -10.6950    -0.7600 H     1 <1>   0.0800 
 47 H        2.4170    -9.9250    -0.2500 H     1 <1>   0.0800 
@<TRIPOS>BOND
  1   1   2  1   
  2   1   3  1   
  3   2   4  2   
  4   2   5  1   
  5   3   6  2   
  6   3   7  1   
  7   4   6  1   
  8   4   8  1   
  9   5   9  1   
 10   5  24  1   
 11   5  25  1   
 12   7  10  1   
 13   7  26  1   
 14   7  27  1   
 15   8  11  1   
 16   8  28  1   
 17   8  29  1   
 18   9  11  1   
 19   9  30  1   
 20   9  31  1   
 21  10  12  1   
 22  10  13  1   
 23  10  32  1   
 24  11  33  1   
 25  11  34  1   
 26  12  14  1   
 27  12  35  1   
 28  12  36  1   
 29  13  15  1   
 30  13  37  1   
 31  13  38  1   
 32  14  15  1   
 33  14  16  1   
 34  14  39  1   
 35  15  17  1   
 36  15  40  1   
 37  16  41  1   
 38  17  18  1   
 39  17  42  1   
 40  17  43  1   
 41  18  19  1   
 42  18  20  2   
 43  19  21  1   
 44  20  22  1   
 45  20  44  1   
 46  21  22  2   
 47  22  23  1   
 48  23  45  1   
 49  23  46  1   
 50  23  47  1   
@<TRIPOS>SUBSTRUCTURE
  1 ****  10 GROUP 4 **** **** 0

# MOE 2024.06 (io_trps.svl 2023.06)
