@<TRIPOS>MOLECULE
NONAME
47 48 1 0 0 
SMALL
USER_CHARGES


@<TRIPOS>ATOM
  1 O       -3.3570     1.9880    -1.1550 O.2   1 <1>  -0.5700 
  2 C       -2.5880     1.6060    -0.3030 C.2   1 <1>   0.5690 
  3 N       -2.2470     0.2940    -0.2270 N.am  1 <1>  -0.7300 
  4 C       -1.9950     2.6230     0.7060 C.3   1 <1>   0.0610 
  5 C       -2.7370    -0.7670    -1.1310 C.3   1 <1>   0.2200 
  6 C       -1.1050     3.6530    -0.0350 C.3   1 <1>  -0.1600 
  7 C       -3.1450     3.3910     1.3880 C.3   1 <1>  -0.2400 
  8 C       -1.1830     1.9410     1.8340 C.3   1 <1>  -0.2400 
  9 C       -3.7840    -1.5920    -0.4050 C.3   1 <1>  -0.0800 
 10 C       -1.6340    -1.7940    -1.3590 C.3   1 <1>   0.1200 
 11 C        0.0840     3.0520    -0.8070 C.3   1 <1>  -0.1600 
 12 C       -2.9240    -2.5920     0.3770 C.3   1 <1>   0.1200 
 13 C       -4.7400    -2.2880    -1.3920 C.3   1 <1>  -0.0170 
 14 O       -1.6850    -2.6650    -0.2690 O.3   1 <1>  -0.5600 
 15 C        0.8540     4.1420    -1.5560 C.3   1 <1>  -0.2400 
 16 C       -5.8110    -3.0810    -0.6600 C.ar  1 <1>  -0.1440 
 17 C       -5.7840    -4.4600    -0.5850 C.ar  1 <1>  -0.1500 
 18 C       -6.8700    -2.4580    -0.0310 C.ar  1 <1>  -0.1500 
 19 C       -6.7850    -5.1280     0.1010 C.ar  1 <1>   0.1600 
 20 C       -7.8190    -3.2200     0.6290 C.ar  1 <1>   0.1600 
 21 N       -7.8010    -4.5410     0.7120 N.ar  1 <1>  -0.6200 
 22 H       -1.6150    -0.0280     0.5080 H     1 <1>   0.3700 
 23 H       -3.0940    -0.3380    -2.0530 H     1 <1>   0.0800 
 24 H       -1.7230     4.1880    -0.7370 H     1 <1>   0.0800 
 25 H       -0.7310     4.3740     0.6720 H     1 <1>   0.0800 
 26 H       -2.7650     4.1040     2.0980 H     1 <1>   0.0800 
 27 H       -3.7990     2.7080     1.9010 H     1 <1>   0.0800 
 28 H       -3.7280     3.9210     0.6550 H     1 <1>   0.0800 
 29 H       -0.7770     2.6800     2.5020 H     1 <1>   0.0800 
 30 H       -0.3670     1.3650     1.4390 H     1 <1>   0.0800 
 31 H       -1.8150     1.2850     2.4060 H     1 <1>   0.0800 
 32 H       -4.3650    -0.9790     0.2620 H     1 <1>   0.0800 
 33 H       -0.6570    -1.3470    -1.4220 H     1 <1>   0.0800 
 34 H       -1.8280    -2.3700    -2.2460 H     1 <1>   0.0800 
 35 H        0.7600     2.5590    -0.1310 H     1 <1>   0.0800 
 36 H       -0.2680     2.3260    -1.5200 H     1 <1>   0.0800 
 37 H       -3.3540    -3.5770     0.4200 H     1 <1>   0.0800 
 38 H       -2.7470    -2.2370     1.3770 H     1 <1>   0.0800 
 39 H       -4.1910    -2.9410    -2.0480 H     1 <1>   0.0800 
 40 H       -5.2220    -1.5440    -2.0030 H     1 <1>   0.0800 
 41 H        1.2370     4.8750    -0.8680 H     1 <1>   0.0800 
 42 H        0.2120     4.6350    -2.2650 H     1 <1>   0.0800 
 43 H        1.6810     3.7090    -2.0900 H     1 <1>   0.0800 
 44 H       -4.9950    -5.0210    -1.0510 H     1 <1>   0.1500 
 45 H       -6.9650    -1.3880    -0.0480 H     1 <1>   0.1500 
 46 H       -6.7470    -6.2030     0.1500 H     1 <1>   0.1500 
 47 H       -8.6370    -2.7160     1.1140 H     1 <1>   0.1500 
@<TRIPOS>BOND
  1   1   2  2   
  2   2   3  am  
  3   2   4  1   
  4   3   5  1   
  5   3  22  1   
  6   4   6  1   
  7   4   7  1   
  8   4   8  1   
  9   5   9  1   
 10   5  10  1   
 11   5  23  1   
 12   6  11  1   
 13   6  24  1   
 14   6  25  1   
 15   7  26  1   
 16   7  27  1   
 17   7  28  1   
 18   8  29  1   
 19   8  30  1   
 20   8  31  1   
 21   9  12  1   
 22   9  13  1   
 23   9  32  1   
 24  10  14  1   
 25  10  33  1   
 26  10  34  1   
 27  11  15  1   
 28  11  35  1   
 29  11  36  1   
 30  12  14  1   
 31  12  37  1   
 32  12  38  1   
 33  13  16  1   
 34  13  39  1   
 35  13  40  1   
 36  15  41  1   
 37  15  42  1   
 38  15  43  1   
 39  16  17  ar  
 40  16  18  ar  
 41  17  19  ar  
 42  17  44  1   
 43  18  20  ar  
 44  18  45  1   
 45  19  21  ar  
 46  19  46  1   
 47  20  21  ar  
 48  20  47  1   
@<TRIPOS>SUBSTRUCTURE
  1 ****   9 GROUP 4 **** **** 0

# MOE 2024.06 (io_trps.svl 2023.06)
