@<TRIPOS>MOLECULE
NONAME
46 48 1 0 0 
SMALL
USER_CHARGES


@<TRIPOS>ATOM
  1 F        0.3930     0.8180     2.1870 F     1 <1>  -0.1900 
  2 C        1.2990     1.0360     1.2660 C.ar  1 <1>   0.1900 
  3 C        1.8860    -0.0420     0.6120 C.ar  1 <1>   0.0830 
  4 C        1.6280     2.3430     0.9640 C.ar  1 <1>  -0.1500 
  5 O        1.5510    -1.3170     0.9240 O.3   1 <1>  -0.3630 
  6 C        2.8410     0.2110    -0.3630 C.ar  1 <1>  -0.1500 
  7 C        2.5750     2.5820    -0.0190 C.ar  1 <1>  -0.1500 
  8 C        0.7590    -2.0270     0.0060 C.3   1 <1>   0.2000 
  9 C        3.1780     1.5190    -0.6770 C.ar  1 <1>  -0.1500 
 10 C       -0.6890    -1.5390     0.1230 C.3   1 <1>  -0.1600 
 11 C        0.8770    -3.5070     0.3660 C.3   1 <1>  -0.1600 
 12 C       -1.6400    -2.4300    -0.6670 C.3   1 <1>   0.3430 
 13 C       -0.1100    -4.3530    -0.4320 C.3   1 <1>   0.3430 
 14 N       -1.5000    -3.8450    -0.2130 N.4   1 <1>  -0.9590 
 15 C       -2.5340    -4.7050    -0.8570 C.3   1 <1>   0.3430 
 16 C       -2.6470    -6.0400    -0.1220 C.3   1 <1>  -0.1600 
 17 C       -3.7950    -6.8870    -0.6850 C.3   1 <1>   0.0960 
 18 N       -3.8510    -8.1680     0.0380 N.pl3 1 <1>   0.0480 
 19 C       -4.5270    -8.4140     1.1910 C.2   1 <1>  -0.3020 
 20 C       -3.1850    -9.3070    -0.2880 C.2   1 <1>  -0.3020 
 21 C       -4.2950    -9.6910     1.5890 C.2   1 <1>  -0.1500 
 22 C       -3.4370   -10.2620     0.6440 C.2   1 <1>  -0.1500 
 23 H        1.1540     3.1540     1.4880 H     1 <1>   0.1500 
 24 H        3.3240    -0.6060    -0.8670 H     1 <1>   0.1500 
 25 H        2.8460     3.5940    -0.2700 H     1 <1>   0.1500 
 26 H        1.1410    -1.8540    -0.9870 H     1 <1>   0.0800 
 27 H        3.9190     1.7140    -1.4350 H     1 <1>   0.1500 
 28 H       -0.7620    -0.5360    -0.2580 H     1 <1>   0.0800 
 29 H       -0.9890    -1.5250     1.1570 H     1 <1>   0.0800 
 30 H        0.6940    -3.6450     1.4170 H     1 <1>   0.0800 
 31 H        1.8770    -3.8430     0.1550 H     1 <1>   0.0800 
 32 H       -1.4140    -2.3580    -1.7190 H     1 <1>   0.0800 
 33 H       -2.6530    -2.0900    -0.5140 H     1 <1>   0.0800 
 34 H       -0.0320    -5.3790    -0.1100 H     1 <1>   0.0800 
 35 H        0.1360    -4.3070    -1.4810 H     1 <1>   0.0800 
 36 H       -1.6700    -3.8520     0.8040 H     1 <1>   0.4500 
 37 H       -2.2850    -4.8720    -1.8930 H     1 <1>   0.0800 
 38 H       -3.4890    -4.2060    -0.8160 H     1 <1>   0.0800 
 39 H       -2.8360    -5.8620     0.9230 H     1 <1>   0.0800 
 40 H       -1.7350    -6.6000    -0.2270 H     1 <1>   0.0800 
 41 H       -3.6450    -7.0950    -1.7300 H     1 <1>   0.0800 
 42 H       -4.7400    -6.3870    -0.5630 H     1 <1>   0.0800 
 43 H       -5.1420    -7.6760     1.6750 H     1 <1>   0.1500 
 44 H       -2.5670    -9.3900    -1.1640 H     1 <1>   0.1500 
 45 H       -4.6820   -10.1970     2.4580 H     1 <1>   0.1500 
 46 H       -3.0660   -11.2720     0.6770 H     1 <1>   0.1500 
@<TRIPOS>BOND
  1   1   2  1   
  2   2   3  ar  
  3   2   4  ar  
  4   3   5  1   
  5   3   6  ar  
  6   4   7  ar  
  7   4  23  1   
  8   5   8  1   
  9   6   9  ar  
 10   6  24  1   
 11   7   9  ar  
 12   7  25  1   
 13   8  10  1   
 14   8  11  1   
 15   8  26  1   
 16   9  27  1   
 17  10  12  1   
 18  10  28  1   
 19  10  29  1   
 20  11  13  1   
 21  11  30  1   
 22  11  31  1   
 23  12  14  1   
 24  12  32  1   
 25  12  33  1   
 26  13  14  1   
 27  13  34  1   
 28  13  35  1   
 29  14  15  1   
 30  14  36  1   
 31  15  16  1   
 32  15  37  1   
 33  15  38  1   
 34  16  17  1   
 35  16  39  1   
 36  16  40  1   
 37  17  18  1   
 38  17  41  1   
 39  17  42  1   
 40  18  19  1   
 41  18  20  1   
 42  19  21  2   
 43  19  43  1   
 44  20  22  2   
 45  20  44  1   
 46  21  22  1   
 47  21  45  1   
 48  22  46  1   
@<TRIPOS>SUBSTRUCTURE
  1 ****  14 GROUP 4 **** **** 0

# MOE 2024.06 (io_trps.svl 2023.06)
