@<TRIPOS>MOLECULE
NONAME
53 54 1 0 0 
SMALL
USER_CHARGES


@<TRIPOS>ATOM
  1 S        1.6810     0.2660    -1.8630 S.o2  1 <1>   1.3330 
  2 O        2.2200    -1.0760    -1.8510 O.2   1 <1>  -0.6500 
  3 O        1.4430     0.9320    -3.1240 O.2   1 <1>  -0.6500 
  4 N        0.2050     0.2400    -1.0210 N.am  1 <1>  -0.8490 
  5 C        2.7420     1.3000    -0.8490 C.3   1 <1>  -0.0550 
  6 C       -0.5700    -0.9720    -1.3050 C.3   1 <1>   0.1160 
  7 C       -0.6240     1.4250    -1.2670 C.3   1 <1>   0.1160 
  8 C        3.1050     0.6870     0.5200 C.3   1 <1>  -0.0800 
  9 C        4.1720     1.4460     1.2960 C.3   1 <1>   0.2200 
 10 C        1.9480     0.5990     1.5250 C.3   1 <1>   0.1200 
 11 N        3.9400     2.9100     1.2240 N.am  1 <1>  -0.7300 
 12 C        3.8660     0.9800     2.7110 C.3   1 <1>   0.1200 
 13 O        2.4740     0.9460     2.7750 O.3   1 <1>  -0.5600 
 14 C        4.6890     3.7990     0.5110 C.2   1 <1>   0.5440 
 15 O        5.5230     3.3580    -0.2540 O.2   1 <1>  -0.5700 
 16 C        4.5000     5.2360     0.6440 C.ar  1 <1>   0.0860 
 17 C        5.0120     6.1050    -0.3220 C.ar  1 <1>  -0.1500 
 18 C        3.8270     5.8110     1.7230 C.ar  1 <1>  -0.1500 
 19 C        4.8780     7.4810    -0.2210 C.ar  1 <1>  -0.1440 
 20 C        3.6730     7.1810     1.8280 C.ar  1 <1>  -0.1500 
 21 C        4.1960     8.0180     0.8590 C.ar  1 <1>  -0.1500 
 22 C        5.4830     8.3850    -1.2800 C.3   1 <1>   0.4860 
 23 N        6.9690     8.3390    -1.1530 N.4   1 <1>  -0.9590 
 24 C        7.4310     8.9120     0.1510 C.3   1 <1>   0.2630 
 25 C        7.6400     9.0070    -2.3080 C.3   1 <1>   0.2630 
 26 H        3.6560     1.4670    -1.3870 H     1 <1>   0.0800 
 27 H        2.2780     2.2550    -0.7080 H     1 <1>   0.0800 
 28 H       -1.4930    -0.9650    -0.7510 H     1 <1>   0.0800 
 29 H       -0.0100    -1.8450    -1.0140 H     1 <1>   0.0800 
 30 H       -0.7880    -1.0380    -2.3590 H     1 <1>   0.0800 
 31 H       -1.5020     1.3980    -0.6450 H     1 <1>   0.0800 
 32 H       -0.9280     1.4650    -2.3010 H     1 <1>   0.0800 
 33 H       -0.0730     2.3200    -1.0370 H     1 <1>   0.0800 
 34 H        3.4700    -0.3130     0.3570 H     1 <1>   0.0800 
 35 H        5.1730     1.1970     0.9870 H     1 <1>   0.0800 
 36 H        1.5430    -0.3970     1.5790 H     1 <1>   0.0800 
 37 H        1.1620     1.2990     1.2990 H     1 <1>   0.0800 
 38 H        3.1740     3.2230     1.8250 H     1 <1>   0.3700 
 39 H        4.2520     1.6440     3.4640 H     1 <1>   0.0800 
 40 H        4.2320    -0.0190     2.8750 H     1 <1>   0.0800 
 41 H        5.5240     5.6710    -1.1650 H     1 <1>   0.1500 
 42 H        3.4220     5.1860     2.4990 H     1 <1>   0.1500 
 43 H        3.1440     7.5980     2.6700 H     1 <1>   0.1500 
 44 H        4.0630     9.0820     0.9630 H     1 <1>   0.1500 
 45 H        5.1280     9.3940    -1.1530 H     1 <1>   0.0800 
 46 H        5.1840     8.0370    -2.2550 H     1 <1>   0.0800 
 47 H        7.2230     7.3380    -1.1530 H     1 <1>   0.4500 
 48 H        7.1590     9.9530     0.2230 H     1 <1>   0.0800 
 49 H        8.5020     8.8270     0.2390 H     1 <1>   0.0800 
 50 H        6.9800     8.3800     0.9740 H     1 <1>   0.0800 
 51 H        7.3870    10.0540    -2.3360 H     1 <1>   0.0800 
 52 H        7.3330     8.5510    -3.2360 H     1 <1>   0.0800 
 53 H        8.7110     8.9140    -2.2210 H     1 <1>   0.0800 
@<TRIPOS>BOND
  1   1   2  2   
  2   1   3  2   
  3   1   4  am  
  4   1   5  1   
  5   4   6  1   
  6   4   7  1   
  7   5   8  1   
  8   5  26  1   
  9   5  27  1   
 10   6  28  1   
 11   6  29  1   
 12   6  30  1   
 13   7  31  1   
 14   7  32  1   
 15   7  33  1   
 16   8   9  1   
 17   8  10  1   
 18   8  34  1   
 19   9  11  1   
 20   9  12  1   
 21   9  35  1   
 22  10  13  1   
 23  10  36  1   
 24  10  37  1   
 25  11  14  am  
 26  11  38  1   
 27  12  13  1   
 28  12  39  1   
 29  12  40  1   
 30  14  15  2   
 31  14  16  1   
 32  16  17  ar  
 33  16  18  ar  
 34  17  19  ar  
 35  17  41  1   
 36  18  20  ar  
 37  18  42  1   
 38  19  21  ar  
 39  19  22  1   
 40  20  21  ar  
 41  20  43  1   
 42  21  44  1   
 43  22  23  1   
 44  22  45  1   
 45  22  46  1   
 46  23  24  1   
 47  23  25  1   
 48  23  47  1   
 49  24  48  1   
 50  24  49  1   
 51  24  50  1   
 52  25  51  1   
 53  25  52  1   
 54  25  53  1   
@<TRIPOS>SUBSTRUCTURE
  1 ****  14 GROUP 4 **** **** 0

# MOE 2024.06 (io_trps.svl 2023.06)
