@<TRIPOS>MOLECULE
NONAME
46 47 1 0 0 
SMALL
USER_CHARGES


@<TRIPOS>ATOM
  1 CL      -1.2450    -1.3200     2.1330 Cl    1 <1>  -0.1770 
  2 C       -2.0100    -1.5870     0.5780 C.ar  1 <1>   0.1770 
  3 C       -2.3840    -0.5600    -0.3000 C.ar  1 <1>   0.0830 
  4 C       -2.2490    -2.9100     0.2610 C.ar  1 <1>  -0.1500 
  5 O       -2.2190     0.7770    -0.1340 O.3   1 <1>  -0.3630 
  6 C       -2.9990    -0.9190    -1.4900 C.ar  1 <1>  -0.1500 
  7 C       -2.8770    -3.2690    -0.9290 C.ar  1 <1>   0.0860 
  8 C       -1.4100     1.3680     0.8550 C.3   1 <1>   0.1200 
  9 C       -3.2380    -2.2440    -1.8020 C.ar  1 <1>  -0.1500 
 10 C       -3.1430    -4.6590    -1.2330 C.2   1 <1>   0.5440 
 11 C       -1.3030     2.8620     0.5520 C.3   1 <1>  -0.1600 
 12 O       -2.2060    -5.4080    -1.4310 O.2   1 <1>  -0.5700 
 13 N       -4.4250    -5.1630    -1.2660 N.am  1 <1>  -0.6600 
 14 C       -0.4360     3.5810     1.5920 C.3   1 <1>  -0.2400 
 15 C       -4.7000    -6.5540    -1.7190 C.3   1 <1>   0.3200 
 16 C       -5.6220    -4.3830    -0.8230 C.3   1 <1>   0.1400 
 17 C       -5.1920    -7.3860    -0.5510 C.2   1 <1>  -0.3320 
 18 C       -5.7490    -4.3840     0.7060 C.3   1 <1>   0.1200 
 19 N       -4.4220    -7.8030     0.4740 N.pl3 1 <1>   0.0480 
 20 C       -6.4370    -7.8570    -0.3120 C.2   1 <1>   0.0770 
 21 O       -6.6120    -3.3680     1.0930 O.3   1 <1>  -0.6800 
 22 C       -5.2630    -8.4970     1.2720 C.2   1 <1>   0.0360 
 23 C       -2.9810    -7.5770     0.6880 C.3   1 <1>   0.0160 
 24 N       -6.4790    -8.5530     0.8380 N.2   1 <1>  -0.5650 
 25 H       -1.9440    -3.6800     0.9460 H     1 <1>   0.1500 
 26 H       -3.2860    -0.1420    -2.1780 H     1 <1>   0.1500 
 27 H       -0.4380     0.9060     0.8250 H     1 <1>   0.0800 
 28 H       -1.8750     1.2130     1.8130 H     1 <1>   0.0800 
 29 H       -3.7080    -2.4960    -2.7370 H     1 <1>   0.1500 
 30 H       -2.2880     3.2950     0.5520 H     1 <1>   0.0800 
 31 H       -0.8680     2.9950    -0.4240 H     1 <1>   0.0800 
 32 H       -0.8600     3.4740     2.5750 H     1 <1>   0.0800 
 33 H       -0.3760     4.6290     1.3580 H     1 <1>   0.0800 
 34 H        0.5610     3.1750     1.5970 H     1 <1>   0.0800 
 35 H       -3.8200    -7.0060    -2.1440 H     1 <1>   0.0800 
 36 H       -5.4530    -6.5280    -2.4880 H     1 <1>   0.0800 
 37 H       -6.5140    -4.8120    -1.2470 H     1 <1>   0.0800 
 38 H       -5.5420    -3.3720    -1.1770 H     1 <1>   0.0800 
 39 H       -4.7990    -4.2110     1.1800 H     1 <1>   0.0800 
 40 H       -6.1600    -5.3180     1.0500 H     1 <1>   0.0800 
 41 H       -7.3220    -7.7310    -0.9120 H     1 <1>   0.1500 
 42 H       -6.1920    -2.4900     0.9950 H     1 <1>   0.4000 
 43 H       -4.9300    -8.9580     2.1850 H     1 <1>   0.1500 
 44 H       -2.4470    -7.7800    -0.2220 H     1 <1>   0.0800 
 45 H       -2.6220    -8.2270     1.4640 H     1 <1>   0.0800 
 46 H       -2.8210    -6.5540     0.9730 H     1 <1>   0.0800 
@<TRIPOS>BOND
  1   1   2  1   
  2   2   3  ar  
  3   2   4  ar  
  4   3   5  1   
  5   3   6  ar  
  6   4   7  ar  
  7   4  25  1   
  8   5   8  1   
  9   6   9  ar  
 10   6  26  1   
 11   7   9  ar  
 12   7  10  1   
 13   8  11  1   
 14   8  27  1   
 15   8  28  1   
 16   9  29  1   
 17  10  12  2   
 18  10  13  am  
 19  11  14  1   
 20  11  30  1   
 21  11  31  1   
 22  13  15  1   
 23  13  16  1   
 24  14  32  1   
 25  14  33  1   
 26  14  34  1   
 27  15  17  1   
 28  15  35  1   
 29  15  36  1   
 30  16  18  1   
 31  16  37  1   
 32  16  38  1   
 33  17  19  1   
 34  17  20  2   
 35  18  21  1   
 36  18  39  1   
 37  18  40  1   
 38  19  22  1   
 39  19  23  1   
 40  20  24  1   
 41  20  41  1   
 42  21  42  1   
 43  22  24  2   
 44  22  43  1   
 45  23  44  1   
 46  23  45  1   
 47  23  46  1   
@<TRIPOS>SUBSTRUCTURE
  1 ****   7 GROUP 4 **** **** 0

# MOE 2024.06 (io_trps.svl 2023.06)
