@<TRIPOS>MOLECULE
NONAME
51 54 1 0 0 
SMALL
USER_CHARGES


@<TRIPOS>ATOM
  1 O        0.3660    -0.0220     0.3670 O.2   1 <1>  -0.5700 
  2 C        1.2490    -0.6810    -0.1470 C.2   1 <1>   0.5440 
  3 N        2.5350    -0.1840    -0.1500 N.am  1 <1>  -0.6600 
  4 C        0.9210    -1.9690    -0.7280 C.ar  1 <1>   0.0860 
  5 C        2.8320     1.2420     0.1880 C.3   1 <1>   0.1400 
  6 C        3.7580    -1.0410    -0.1910 C.3   1 <1>   0.1400 
  7 C        0.0920    -2.8730    -0.0920 C.ar  1 <1>  -0.1500 
  8 C        1.4000    -2.3830    -1.9640 C.ar  1 <1>  -0.1500 
  9 C        3.7440     1.3280     1.4230 C.3   1 <1>   0.1200 
 10 C        4.6220    -0.8150     1.0620 C.3   1 <1>   0.1200 
 11 C       -0.1990    -4.1040    -0.6620 C.ar  1 <1>   0.4100 
 12 C        1.0590    -3.6260    -2.4570 C.ar  1 <1>   0.1600 
 13 O        4.8910     0.5460     1.2420 O.3   1 <1>  -0.5600 
 14 N        0.2840    -4.4950    -1.8330 N.ar  1 <1>  -0.6200 
 15 N       -1.0230    -4.9740     0.0120 N.pl3 1 <1>  -0.8690 
 16 C       -1.2490    -6.3790    -0.4150 C.3   1 <1>   0.2890 
 17 C       -2.6340    -6.8110     0.0310 C.3   1 <1>  -0.0800 
 18 C       -0.3470    -7.3190     0.3830 C.3   1 <1>   0.1200 
 19 C       -2.3760    -7.2400     1.4770 C.3   1 <1>   0.1200 
 20 C       -3.1700    -7.9690    -0.8320 C.3   1 <1>  -0.0170 
 21 O       -1.0550    -7.6900     1.5340 O.3   1 <1>  -0.5600 
 22 C       -4.5680    -8.3820    -0.4000 C.ar  1 <1>  -0.1430 
 23 C       -4.8040    -9.5380     0.3170 C.ar  1 <1>  -0.1500 
 24 C       -5.6770    -7.6180    -0.7050 C.ar  1 <1>  -0.1500 
 25 C       -6.0980    -9.8620     0.6870 C.ar  1 <1>   0.1600 
 26 C       -6.9300    -8.0330    -0.2870 C.ar  1 <1>   0.1600 
 27 N       -7.1670    -9.1360     0.4040 N.ar  1 <1>  -0.6200 
 28 H        3.3260     1.7070    -0.6470 H     1 <1>   0.0800 
 29 H        1.9250     1.7880     0.3770 H     1 <1>   0.0800 
 30 H        3.4940    -2.0820    -0.2440 H     1 <1>   0.0800 
 31 H        4.3350    -0.7950    -1.0650 H     1 <1>   0.0800 
 32 H       -0.3400    -2.6150     0.8560 H     1 <1>   0.1500 
 33 H        2.0310    -1.7290    -2.5370 H     1 <1>   0.1500 
 34 H        3.2230     0.9860     2.3000 H     1 <1>   0.0800 
 35 H        4.0590     2.3440     1.5810 H     1 <1>   0.0800 
 36 H        5.5640    -1.3250     0.9620 H     1 <1>   0.0800 
 37 H        4.1210    -1.1860     1.9400 H     1 <1>   0.0800 
 38 H        1.4420    -3.9250    -3.4180 H     1 <1>   0.1500 
 39 H       -1.0430    -4.8680     1.0280 H     1 <1>   0.4000 
 40 H       -1.1090    -6.4880    -1.4770 H     1 <1>   0.0800 
 41 H       -3.3280    -5.9910    -0.0130 H     1 <1>   0.0800 
 42 H        0.5810    -6.8520     0.6630 H     1 <1>   0.0800 
 43 H       -0.1480    -8.2150    -0.1770 H     1 <1>   0.0800 
 44 H       -3.0310    -8.0230     1.8150 H     1 <1>   0.0800 
 45 H       -2.4590    -6.3960     2.1410 H     1 <1>   0.0800 
 46 H       -2.5090    -8.8160    -0.7720 H     1 <1>   0.0800 
 47 H       -3.2070    -7.6590    -1.8620 H     1 <1>   0.0800 
 48 H       -3.9940   -10.1890     0.5930 H     1 <1>   0.1500 
 49 H       -5.5770    -6.7050    -1.2630 H     1 <1>   0.1500 
 50 H       -6.2630   -10.7670     1.2470 H     1 <1>   0.1500 
 51 H       -7.7830    -7.4240    -0.5340 H     1 <1>   0.1500 
@<TRIPOS>BOND
  1   1   2  2   
  2   2   3  am  
  3   2   4  1   
  4   3   5  1   
  5   3   6  1   
  6   4   7  ar  
  7   4   8  ar  
  8   5   9  1   
  9   5  28  1   
 10   5  29  1   
 11   6  10  1   
 12   6  30  1   
 13   6  31  1   
 14   7  11  ar  
 15   7  32  1   
 16   8  12  ar  
 17   8  33  1   
 18   9  13  1   
 19   9  34  1   
 20   9  35  1   
 21  10  13  1   
 22  10  36  1   
 23  10  37  1   
 24  11  14  ar  
 25  11  15  1   
 26  12  14  ar  
 27  12  38  1   
 28  15  16  1   
 29  15  39  1   
 30  16  17  1   
 31  16  18  1   
 32  16  40  1   
 33  17  19  1   
 34  17  20  1   
 35  17  41  1   
 36  18  21  1   
 37  18  42  1   
 38  18  43  1   
 39  19  21  1   
 40  19  44  1   
 41  19  45  1   
 42  20  22  1   
 43  20  46  1   
 44  20  47  1   
 45  22  23  ar  
 46  22  24  ar  
 47  23  25  ar  
 48  23  48  1   
 49  24  26  ar  
 50  24  49  1   
 51  25  27  ar  
 52  25  50  1   
 53  26  27  ar  
 54  26  51  1   
@<TRIPOS>SUBSTRUCTURE
  1 ****  15 GROUP 4 **** **** 0

# MOE 2024.06 (io_trps.svl 2023.06)
