@<TRIPOS>MOLECULE
NONAME
37 39 1 0 0 
SMALL
USER_CHARGES


@<TRIPOS>ATOM
  1 O        3.9550    -1.7930    -1.8100 O.2   1 <1>  -0.5700 
  2 C        3.0620    -1.4410    -1.0570 C.2   1 <1>   0.7150 
  3 N        3.1250    -0.1390    -0.6220 N.am  1 <1>  -0.6600 
  4 C        2.0700    -2.3710    -0.5690 C.2   1 <1>   0.0550 
  5 C        3.5870     0.0820     0.7900 C.3   1 <1>   0.2200 
  6 C        3.3080     0.9520    -1.6300 C.3   1 <1>   0.1400 
  7 O        1.1910    -2.0180     0.3660 O.3   1 <1>  -0.2800 
  8 C        1.8370    -3.6710    -0.9070 C.2   1 <1>  -0.1500 
  9 C        3.1690     1.4490     1.3560 C.3   1 <1>   0.1200 
 10 C        5.1230    -0.1160     0.8970 C.3   1 <1>   0.3430 
 11 C        4.4370     1.9490    -1.3090 C.3   1 <1>  -0.0800 
 12 C        0.4120    -3.0430     0.6260 C.2   1 <1>  -0.0100 
 13 C        0.7620    -4.1040    -0.1310 C.2   1 <1>  -0.1500 
 14 O        4.1190     2.4230     1.0380 O.3   1 <1>  -0.5600 
 15 N        5.8230    -0.0360    -0.4370 N.4   1 <1>  -0.9590 
 16 C        4.0220     2.9660    -0.2350 C.3   1 <1>   0.1200 
 17 C        5.8300     1.3390    -1.0330 C.3   1 <1>   0.3430 
 18 C        7.1950    -0.6110    -0.3720 C.3   1 <1>   0.2630 
 19 H        3.1160    -0.6560     1.4150 H     1 <1>   0.0800 
 20 H        3.5000     0.5130    -2.5960 H     1 <1>   0.0800 
 21 H        2.3770     1.4870    -1.7170 H     1 <1>   0.0800 
 22 H        2.3670    -4.2650    -1.6310 H     1 <1>   0.1500 
 23 H        3.1410     1.3910     2.4300 H     1 <1>   0.0800 
 24 H        2.1930     1.7460     1.0100 H     1 <1>   0.0800 
 25 H        5.2970    -1.0890     1.3240 H     1 <1>   0.0800 
 26 H        5.5340     0.6120     1.5770 H     1 <1>   0.0800 
 27 H        4.5530     2.5420    -2.1990 H     1 <1>   0.0800 
 28 H       -0.3680    -2.9400     1.3610 H     1 <1>   0.1500 
 29 H        0.3220    -5.0870    -0.1560 H     1 <1>   0.1500 
 30 H        5.2500    -0.6290    -1.0780 H     1 <1>   0.4500 
 31 H        3.0180     3.3270    -0.3890 H     1 <1>   0.0800 
 32 H        4.6860     3.8150    -0.2600 H     1 <1>   0.0800 
 33 H        6.3780     2.0060    -0.3880 H     1 <1>   0.0800 
 34 H        6.3570     1.2920    -1.9720 H     1 <1>   0.0800 
 35 H        7.8140    -0.0310     0.2940 H     1 <1>   0.0800 
 36 H        7.6450    -0.6130    -1.3510 H     1 <1>   0.0800 
 37 H        7.1560    -1.6270    -0.0130 H     1 <1>   0.0800 
@<TRIPOS>BOND
  1   1   2  2   
  2   2   3  am  
  3   2   4  1   
  4   3   5  1   
  5   3   6  1   
  6   4   7  1   
  7   4   8  2   
  8   5   9  1   
  9   5  10  1   
 10   5  19  1   
 11   6  11  1   
 12   6  20  1   
 13   6  21  1   
 14   7  12  1   
 15   8  13  1   
 16   8  22  1   
 17   9  14  1   
 18   9  23  1   
 19   9  24  1   
 20  10  15  1   
 21  10  25  1   
 22  10  26  1   
 23  11  16  1   
 24  11  17  1   
 25  11  27  1   
 26  12  13  2   
 27  12  28  1   
 28  13  29  1   
 29  14  16  1   
 30  15  17  1   
 31  15  18  1   
 32  15  30  1   
 33  16  31  1   
 34  16  32  1   
 35  17  33  1   
 36  17  34  1   
 37  18  35  1   
 38  18  36  1   
 39  18  37  1   
@<TRIPOS>SUBSTRUCTURE
  1 ****   3 GROUP 4 **** **** 0

# MOE 2024.06 (io_trps.svl 2023.06)
