@<TRIPOS>MOLECULE
NONAME
41 44 1 0 0 
SMALL
USER_CHARGES


@<TRIPOS>ATOM
  1 O       -0.5960    -0.1350    -1.0630 O.2   1 <1>  -0.5700 
  2 C       -1.3760     0.5090    -0.3830 C.2   1 <1>   0.5440 
  3 N       -2.2670    -0.1600     0.4170 N.am  1 <1>  -0.6600 
  4 C       -1.3290     1.9560    -0.4340 C.ar  1 <1>   0.0860 
  5 C       -3.1640     0.4410     1.4460 C.3   1 <1>   0.2350 
  6 C       -2.7310    -1.5450     0.1270 C.3   1 <1>   0.2350 
  7 C       -0.1530     2.6420    -0.1780 C.ar  1 <1>  -0.1500 
  8 C       -2.4780     2.7060    -0.7640 C.ar  1 <1>  -0.1500 
  9 C       -4.4850    -0.2850     1.2820 C.3   1 <1>  -0.2420 
 10 C       -4.2110    -1.5390     0.4850 C.3   1 <1>  -0.2420 
 11 C       -0.1120     4.0370    -0.2240 C.ar  1 <1>   0.0000 
 12 C       -2.4610     4.0790    -0.8130 C.ar  1 <1>  -0.1500 
 13 C       -5.3980     0.0150     2.4720 C.2   1 <1>   0.9470 
 14 C       -5.1220    -0.4750    -0.0740 C.3   1 <1>  -0.2000 
 15 C       -4.7410    -2.9660     0.6430 C.2   1 <1>   0.9470 
 16 C       -1.2660     4.7460    -0.5360 C.ar  1 <1>  -0.1520 
 17 C        0.9030     4.9980    -0.0100 C.2   1 <1>  -0.1810 
 18 O       -6.4810     0.5840     2.2770 O.co2 1 <1>  -0.9000 
 19 O       -4.9600    -0.1470     3.6190 O.co2 1 <1>  -0.9000 
 20 O       -5.6950    -3.3430    -0.0520 O.co2 1 <1>  -0.9000 
 21 O       -4.1110    -3.7640     1.3500 O.co2 1 <1>  -0.9000 
 22 N       -0.9690     6.0800    -0.5090 N.pl3 1 <1>   0.0330 
 23 C        0.3530     6.2250    -0.1890 C.2   1 <1>  -0.3320 
 24 C        2.3260     4.6180     0.3500 C.3   1 <1>  -0.0590 
 25 C        0.9790     7.6050    -0.0850 C.3   1 <1>  -0.0600 
 26 H       -2.7610     0.2390     2.4240 H     1 <1>   0.0800 
 27 H       -3.2940     1.5000     1.3310 H     1 <1>   0.0800 
 28 H       -2.5860    -1.8010    -0.9080 H     1 <1>   0.0800 
 29 H       -2.1970    -2.2390     0.7520 H     1 <1>   0.0800 
 30 H        0.7400     2.0950     0.0590 H     1 <1>   0.1500 
 31 H       -3.3870     2.1690    -0.9740 H     1 <1>   0.1500 
 32 H       -3.3480     4.6350    -1.0560 H     1 <1>   0.1500 
 33 H       -4.7950     0.1110    -0.9100 H     1 <1>   0.1000 
 34 H       -6.1770    -0.6880    -0.1070 H     1 <1>   0.1000 
 35 H       -1.6340     6.8350    -0.6980 H     1 <1>   0.2700 
 36 H        2.7420     3.9990    -0.4240 H     1 <1>   0.0800 
 37 H        2.3310     4.0700     1.2750 H     1 <1>   0.0800 
 38 H        2.9440     5.4880     0.4630 H     1 <1>   0.0800 
 39 H        2.0190     7.5380     0.1750 H     1 <1>   0.0800 
 40 H        0.4770     8.1810     0.6710 H     1 <1>   0.0800 
 41 H        0.8980     8.1180    -1.0270 H     1 <1>   0.0800 
@<TRIPOS>BOND
  1   1   2  2   
  2   2   3  am  
  3   2   4  1   
  4   3   5  1   
  5   3   6  1   
  6   4   7  ar  
  7   4   8  ar  
  8   5   9  1   
  9   5  26  1   
 10   5  27  1   
 11   6  10  1   
 12   6  28  1   
 13   6  29  1   
 14   7  11  ar  
 15   7  30  1   
 16   8  12  ar  
 17   8  31  1   
 18   9  10  1   
 19   9  13  1   
 20   9  14  1   
 21  10  14  1   
 22  10  15  1   
 23  11  16  ar  
 24  11  17  1   
 25  12  16  ar  
 26  12  32  1   
 27  13  18  ar  
 28  13  19  ar  
 29  14  33  1   
 30  14  34  1   
 31  15  20  ar  
 32  15  21  ar  
 33  16  22  1   
 34  17  23  2   
 35  17  24  1   
 36  22  23  1   
 37  22  35  1   
 38  23  25  1   
 39  24  36  1   
 40  24  37  1   
 41  24  38  1   
 42  25  39  1   
 43  25  40  1   
 44  25  41  1   
@<TRIPOS>SUBSTRUCTURE
  1 ****   4 GROUP 4 **** **** 0

# MOE 2024.06 (io_trps.svl 2023.06)
