@<TRIPOS>MOLECULE
NONAME
49 52 1 0 0 
SMALL
USER_CHARGES


@<TRIPOS>ATOM
  1 O       -0.7060    -0.4530    -0.5780 O.2   1 <1>  -0.5700 
  2 C       -1.8180    -0.1850    -0.1940 C.2   1 <1>   0.5690 
  3 N       -2.7980    -1.0650     0.1790 N.am  1 <1>  -0.4770 
  4 C       -2.2820     1.2410    -0.0690 C.3   1 <1>  -0.0990 
  5 C       -2.7640    -2.4710     0.1490 C.ar  1 <1>   0.1170 
  6 C       -4.0090    -0.3370     0.6120 C.3   1 <1>   0.1400 
  7 C       -3.7930     1.1090     0.1540 C.3   1 <1>  -0.1600 
  8 C       -3.4470    -3.2280     1.0980 C.ar  1 <1>  -0.1500 
  9 C       -2.0530    -3.1590    -0.8300 C.ar  1 <1>  -0.1500 
 10 C       -3.4310    -4.6090     1.0590 C.ar  1 <1>  -0.1500 
 11 C       -2.0370    -4.5410    -0.8660 C.ar  1 <1>  -0.1500 
 12 C       -2.7360    -5.3030     0.0680 C.ar  1 <1>   0.0860 
 13 C       -2.7290    -6.7510     0.0070 C.2   1 <1>   0.5440 
 14 O       -1.6750    -7.3480    -0.1100 O.2   1 <1>  -0.5700 
 15 N       -3.8940    -7.4840     0.0620 N.am  1 <1>  -0.6600 
 16 C       -5.2450    -6.9450    -0.2370 C.3   1 <1>   0.1400 
 17 C       -3.8970    -8.9670    -0.0090 C.3   1 <1>   0.1400 
 18 C       -6.0780    -8.1660    -0.6290 C.3   1 <1>   0.2000 
 19 C       -5.3740    -9.3640     0.0030 C.3   1 <1>  -0.0800 
 20 O       -7.3770    -8.0730    -0.1520 O.3   1 <1>  -0.6800 
 21 C       -5.6800   -10.6830    -0.7270 C.3   1 <1>  -0.0160 
 22 C       -5.0200   -11.8700    -0.0440 C.ar  1 <1>   0.1670 
 23 N       -3.7560   -12.1040    -0.3570 N.ar  1 <1>  -0.6200 
 24 C       -5.7440   -12.6440     0.8610 C.ar  1 <1>   0.1600 
 25 C       -3.2680   -13.1490     0.2910 C.ar  1 <1>   0.1600 
 26 N       -5.2590   -13.6880     1.5120 N.ar  1 <1>  -0.6200 
 27 C       -3.9950   -13.9140     1.1950 C.ar  1 <1>   0.1600 
 28 H       -1.8000     1.6900     0.7800 H     1 <1>   0.0800 
 29 H       -2.0530     1.7970    -0.9590 H     1 <1>   0.0800 
 30 H       -4.8900    -0.7640     0.1630 H     1 <1>   0.0800 
 31 H       -4.0840    -0.3830     1.6850 H     1 <1>   0.0800 
 32 H       -4.3100     1.2600    -0.7780 H     1 <1>   0.0800 
 33 H       -4.1630     1.8170     0.8740 H     1 <1>   0.0800 
 34 H       -3.9880    -2.7350     1.8840 H     1 <1>   0.1500 
 35 H       -1.5030    -2.6070    -1.5710 H     1 <1>   0.1500 
 36 H       -3.9560    -5.1700     1.8120 H     1 <1>   0.1500 
 37 H       -1.4720    -5.0490    -1.6290 H     1 <1>   0.1500 
 38 H       -5.6440    -6.4790     0.6470 H     1 <1>   0.0800 
 39 H       -5.2000    -6.2370    -1.0460 H     1 <1>   0.0800 
 40 H       -3.4200    -9.2760    -0.9250 H     1 <1>   0.0800 
 41 H       -3.3620    -9.3910     0.8240 H     1 <1>   0.0800 
 42 H       -6.1140    -8.2520    -1.7020 H     1 <1>   0.0800 
 43 H       -5.6690    -9.4490     1.0340 H     1 <1>   0.0800 
 44 H       -7.3790    -8.0080     0.8230 H     1 <1>   0.4000 
 45 H       -5.3370   -10.6290    -1.7460 H     1 <1>   0.0800 
 46 H       -6.7450   -10.8330    -0.7540 H     1 <1>   0.0800 
 47 H       -6.7700   -12.3870     1.0580 H     1 <1>   0.1500 
 48 H       -2.2430   -13.4120     0.0980 H     1 <1>   0.1500 
 49 H       -3.5100   -14.7460     1.6740 H     1 <1>   0.1500 
@<TRIPOS>BOND
  1   1   2  2   
  2   2   3  am  
  3   2   4  1   
  4   3   5  1   
  5   3   6  1   
  6   4   7  1   
  7   4  28  1   
  8   4  29  1   
  9   5   8  ar  
 10   5   9  ar  
 11   6   7  1   
 12   6  30  1   
 13   6  31  1   
 14   7  32  1   
 15   7  33  1   
 16   8  10  ar  
 17   8  34  1   
 18   9  11  ar  
 19   9  35  1   
 20  10  12  ar  
 21  10  36  1   
 22  11  12  ar  
 23  11  37  1   
 24  12  13  1   
 25  13  14  2   
 26  13  15  am  
 27  15  16  1   
 28  15  17  1   
 29  16  18  1   
 30  16  38  1   
 31  16  39  1   
 32  17  19  1   
 33  17  40  1   
 34  17  41  1   
 35  18  19  1   
 36  18  20  1   
 37  18  42  1   
 38  19  21  1   
 39  19  43  1   
 40  20  44  1   
 41  21  22  1   
 42  21  45  1   
 43  21  46  1   
 44  22  23  ar  
 45  22  24  ar  
 46  23  25  ar  
 47  24  26  ar  
 48  24  47  1   
 49  25  27  ar  
 50  25  48  1   
 51  26  27  ar  
 52  27  49  1   
@<TRIPOS>SUBSTRUCTURE
  1 ****  15 GROUP 4 **** **** 0

# MOE 2024.06 (io_trps.svl 2023.06)
