@<TRIPOS>MOLECULE
NONAME
54 57 1 0 0 
SMALL
USER_CHARGES


@<TRIPOS>ATOM
  1 O       -2.1720    -0.3940    -0.7460 O.2   1 <1>  -0.5700 
  2 C       -1.4130     0.5200    -0.5200 C.2   1 <1>   0.5690 
  3 N       -1.8490     1.5430     0.2820 N.am  1 <1>  -0.6600 
  4 C       -0.0480     0.5030    -1.2010 C.3   1 <1>   0.1570 
  5 C       -2.7910     1.2560     1.4140 C.3   1 <1>   0.1400 
  6 C       -1.6720     2.9740    -0.0840 C.3   1 <1>   0.1400 
  7 N        0.9540     1.3250    -0.4910 N.pl3 1 <1>   0.0480 
  8 C       -4.2850     1.4140     1.0300 C.3   1 <1>   0.4230 
  9 C       -3.0240     3.6800    -0.3090 C.3   1 <1>  -0.0800 
 10 C        1.3740     1.1680     0.7930 C.2   1 <1>  -0.3020 
 11 C        1.5990     2.4140    -0.9920 C.2   1 <1>  -0.3020 
 12 N       -4.4410     1.5180    -0.4730 N.4   1 <1>  -0.9590 
 13 C       -4.9840     2.5490     1.8200 C.3   1 <1>   0.1200 
 14 C       -3.6070     4.2920     0.9820 C.3   1 <1>   0.1200 
 15 C       -4.0630     2.8410    -1.0910 C.3   1 <1>   0.3430 
 16 C        2.2650     2.1460     1.1030 C.2   1 <1>  -0.1500 
 17 C        2.4080     2.9420    -0.0370 C.2   1 <1>  -0.1500 
 18 C       -5.7800     1.0840    -0.9380 C.3   1 <1>   0.5240 
 19 O       -4.8930     3.8060     1.2100 O.3   1 <1>  -0.5600 
 20 C       -6.0460    -0.3090    -0.4180 C.2   1 <1>  -0.1810 
 21 C       -7.1160    -0.6820     0.3860 C.2   1 <1>   0.1390 
 22 C       -5.3290    -1.4440    -0.5820 C.2   1 <1>  -0.3020 
 23 N       -7.0610    -1.9330     0.7120 N.2   1 <1>  -0.7070 
 24 N       -5.9630    -2.4150     0.1040 N.pl3 1 <1>   0.3140 
 25 C       -5.5600    -3.8330     0.2150 C.3   1 <1>   0.0960 
 26 C       -5.9090    -4.6110    -1.0590 C.3   1 <1>  -0.2400 
 27 H       -0.1490     0.8630    -2.2070 H     1 <1>   0.0800 
 28 H        0.3110    -0.5080    -1.2370 H     1 <1>   0.0800 
 29 H       -2.6400     0.2400     1.7360 H     1 <1>   0.0800 
 30 H       -2.5410     1.8790     2.2550 H     1 <1>   0.0800 
 31 H       -1.0980     3.4730     0.6800 H     1 <1>   0.0800 
 32 H       -1.1050     3.0370    -0.9960 H     1 <1>   0.0800 
 33 H       -4.7470     0.4990     1.3630 H     1 <1>   0.0800 
 34 H       -2.7960     4.5270    -0.9320 H     1 <1>   0.0800 
 35 H        1.0230     0.3720     1.4250 H     1 <1>   0.1500 
 36 H        1.4600     2.7610    -2.0000 H     1 <1>   0.1500 
 37 H       -3.7640     0.8080    -0.8110 H     1 <1>   0.4500 
 38 H       -4.5920     2.6240     2.8200 H     1 <1>   0.0800 
 39 H       -6.0310     2.3210     1.9040 H     1 <1>   0.0800 
 40 H       -3.6970     5.3600     0.8660 H     1 <1>   0.0800 
 41 H       -2.9940     4.1060     1.8480 H     1 <1>   0.0800 
 42 H       -3.6910     2.6650    -2.0870 H     1 <1>   0.0800 
 43 H       -4.9520     3.4450    -1.1820 H     1 <1>   0.0800 
 44 H        2.7820     2.3010     2.0350 H     1 <1>   0.1500 
 45 H        3.0530     3.8010    -0.1140 H     1 <1>   0.1500 
 46 H       -6.5340     1.7630    -0.5740 H     1 <1>   0.0800 
 47 H       -5.8150     1.0740    -2.0150 H     1 <1>   0.0800 
 48 H       -7.9080    -0.0300     0.7180 H     1 <1>   0.1500 
 49 H       -4.4210    -1.6280    -1.1300 H     1 <1>   0.1500 
 50 H       -4.5020    -3.8750     0.4000 H     1 <1>   0.0800 
 51 H       -6.0720    -4.2630     1.0580 H     1 <1>   0.0800 
 52 H       -5.3880    -4.2030    -1.9070 H     1 <1>   0.0800 
 53 H       -6.9700    -4.5690    -1.2380 H     1 <1>   0.0800 
 54 H       -5.6250    -5.6420    -0.9460 H     1 <1>   0.0800 
@<TRIPOS>BOND
  1   1   2  2   
  2   2   3  am  
  3   2   4  1   
  4   3   5  1   
  5   3   6  1   
  6   4   7  1   
  7   4  27  1   
  8   4  28  1   
  9   5   8  1   
 10   5  29  1   
 11   5  30  1   
 12   6   9  1   
 13   6  31  1   
 14   6  32  1   
 15   7  10  1   
 16   7  11  1   
 17   8  12  1   
 18   8  13  1   
 19   8  33  1   
 20   9  14  1   
 21   9  15  1   
 22   9  34  1   
 23  10  16  2   
 24  10  35  1   
 25  11  17  2   
 26  11  36  1   
 27  12  15  1   
 28  12  18  1   
 29  12  37  1   
 30  13  19  1   
 31  13  38  1   
 32  13  39  1   
 33  14  19  1   
 34  14  40  1   
 35  14  41  1   
 36  15  42  1   
 37  15  43  1   
 38  16  17  1   
 39  16  44  1   
 40  17  45  1   
 41  18  20  1   
 42  18  46  1   
 43  18  47  1   
 44  20  21  1   
 45  20  22  2   
 46  21  23  2   
 47  21  48  1   
 48  22  24  1   
 49  22  49  1   
 50  23  24  1   
 51  24  25  1   
 52  25  26  1   
 53  25  50  1   
 54  25  51  1   
 55  26  52  1   
 56  26  53  1   
 57  26  54  1   
@<TRIPOS>SUBSTRUCTURE
  1 ****   3 GROUP 4 **** **** 0

# MOE 2024.06 (io_trps.svl 2023.06)
