@<TRIPOS>MOLECULE
NONAME
39 41 1 0 0 
SMALL
USER_CHARGES


@<TRIPOS>ATOM
  1 O        0.6370    -0.3030     1.7400 O.3   1 <1>  -0.0190 
  2 N        1.0280     0.8330     1.2480 N.2   1 <1>  -0.4100 
  3 C        0.9960    -1.1790     0.8350 C.2   1 <1>   0.2980 
  4 C        1.5730     0.5860     0.1260 C.2   1 <1>   0.3350 
  5 N        1.5820    -0.6990    -0.1920 N.2   1 <1>  -0.5650 
  6 C        0.6960    -2.6540     1.0810 C.3   1 <1>   0.2900 
  7 C        2.1700     1.6200    -0.7970 C.3   1 <1>  -0.0590 
  8 N       -0.7520    -2.9660     1.0770 N.3   1 <1>  -0.8100 
  9 C       -1.4230    -2.5630    -0.1700 C.3   1 <1>   0.1100 
 10 C       -1.0320    -4.4000     1.2810 C.3   1 <1>   0.1100 
 11 C       -2.6400    -3.4740    -0.2660 C.3   1 <1>   0.2000 
 12 C       -2.1060    -4.8040     0.2550 C.3   1 <1>  -0.0800 
 13 O       -3.5820    -3.0070     0.6310 O.3   1 <1>  -0.6800 
 14 C       -1.5210    -5.6520    -0.8920 C.3   1 <1>   0.0210 
 15 C       -0.8750    -6.9320    -0.3930 C.2   1 <1>   0.1080 
 16 N       -1.4910    -7.7900     0.3590 N.2   1 <1>  -0.7070 
 17 C        0.4290    -7.3240    -0.6760 C.2   1 <1>  -0.1500 
 18 N       -0.5890    -8.7650     0.5750 N.pl3 1 <1>   0.3000 
 19 C        0.5840    -8.5040    -0.0390 C.2   1 <1>  -0.3320 
 20 C        1.7960    -9.4150     0.0170 C.3   1 <1>  -0.0600 
 21 H        1.1120    -2.9300     2.0340 H     1 <1>   0.0800 
 22 H        1.1900    -3.2340     0.3210 H     1 <1>   0.0800 
 23 H        1.6590     1.5970    -1.7420 H     1 <1>   0.0800 
 24 H        3.2110     1.4060    -0.9510 H     1 <1>   0.0800 
 25 H        2.0700     2.5990    -0.3660 H     1 <1>   0.0800 
 26 H       -1.7020    -1.5220    -0.1500 H     1 <1>   0.0800 
 27 H       -0.7760    -2.7370    -1.0140 H     1 <1>   0.0800 
 28 H       -0.1420    -4.9980     1.1750 H     1 <1>   0.0800 
 29 H       -1.4140    -4.5410     2.2780 H     1 <1>   0.0800 
 30 H       -3.0840    -3.5210    -1.2450 H     1 <1>   0.0800 
 31 H       -2.8860    -5.3770     0.7280 H     1 <1>   0.0800 
 32 H       -3.0970    -2.7840     1.4540 H     1 <1>   0.4000 
 33 H       -0.7900    -5.0850    -1.4400 H     1 <1>   0.0800 
 34 H       -2.3100    -5.9200    -1.5710 H     1 <1>   0.0800 
 35 H        1.1390    -6.7860    -1.2770 H     1 <1>   0.1500 
 36 H       -0.8060    -9.5930     1.1420 H     1 <1>   0.2700 
 37 H        2.6050    -8.9910    -0.5510 H     1 <1>   0.0800 
 38 H        1.5570   -10.3790    -0.3970 H     1 <1>   0.0800 
 39 H        2.1210    -9.5410     1.0350 H     1 <1>   0.0800 
@<TRIPOS>BOND
  1   1   2  1   
  2   1   3  1   
  3   2   4  2   
  4   3   5  2   
  5   3   6  1   
  6   4   5  1   
  7   4   7  1   
  8   6   8  1   
  9   6  21  1   
 10   6  22  1   
 11   7  23  1   
 12   7  24  1   
 13   7  25  1   
 14   8   9  1   
 15   8  10  1   
 16   9  11  1   
 17   9  26  1   
 18   9  27  1   
 19  10  12  1   
 20  10  28  1   
 21  10  29  1   
 22  11  12  1   
 23  11  13  1   
 24  11  30  1   
 25  12  14  1   
 26  12  31  1   
 27  13  32  1   
 28  14  15  1   
 29  14  33  1   
 30  14  34  1   
 31  15  16  2   
 32  15  17  1   
 33  16  18  1   
 34  17  19  2   
 35  17  35  1   
 36  18  19  1   
 37  18  36  1   
 38  19  20  1   
 39  20  37  1   
 40  20  38  1   
 41  20  39  1   
@<TRIPOS>SUBSTRUCTURE
  1 ****   8 GROUP 4 **** **** 0

# MOE 2024.06 (io_trps.svl 2023.06)
