@<TRIPOS>MOLECULE
NONAME
53 55 1 0 0 
SMALL
USER_CHARGES


@<TRIPOS>ATOM
  1 O       -2.9700     0.6030    -2.0130 O.2   1 <1>  -0.5700 
  2 C       -2.6650     1.0740    -0.9330 C.2   1 <1>   0.5440 
  3 N       -2.7810     0.2400     0.1560 N.am  1 <1>  -0.6600 
  4 C       -2.2730     2.4590    -0.8030 C.ar  1 <1>   0.0860 
  5 C       -3.7520     0.5680     1.2430 C.3   1 <1>   0.1400 
  6 C       -2.5710    -1.2250    -0.0330 C.3   1 <1>   0.1400 
  7 C       -1.5120     2.9020     0.2770 C.ar  1 <1>   0.1600 
  8 C       -2.6340     3.4210    -1.7410 C.ar  1 <1>  -0.1500 
  9 C       -5.1030    -0.1670     1.0420 C.3   1 <1>   0.4230 
 10 C       -3.9170    -1.9210    -0.2990 C.3   1 <1>   0.3430 
 11 N       -1.1390     4.1440     0.5120 N.ar  1 <1>  -0.6200 
 12 C       -2.2420     4.7190    -1.5210 C.ar  1 <1>  -0.1500 
 13 N       -4.9210    -1.6600     0.8060 N.4   1 <1>  -0.9590 
 14 C       -5.9220     0.4760    -0.1020 C.3   1 <1>   0.1200 
 15 C       -1.5060     5.0560    -0.3850 C.ar  1 <1>   0.4100 
 16 C       -6.2650    -2.2910     0.5510 C.3   1 <1>   0.4230 
 17 O       -7.1460    -0.1840    -0.2470 O.3   1 <1>  -0.5600 
 18 N       -1.1250     6.3620    -0.1520 N.pl3 1 <1>  -0.8380 
 19 C       -7.0440    -1.5440    -0.5600 C.3   1 <1>   0.1200 
 20 C       -6.1140    -3.7950     0.2670 C.3   1 <1>  -0.1600 
 21 C       -2.0600     7.4990    -0.3650 C.3   1 <1>   0.1290 
 22 C        0.0680     6.6700     0.6850 C.3   1 <1>   0.1290 
 23 C       -7.4470    -4.5500     0.3840 C.3   1 <1>  -0.1600 
 24 C       -7.2420    -6.0530     0.1770 C.3   1 <1>  -0.2400 
 25 H       -3.3270     0.2850     2.1900 H     1 <1>   0.0800 
 26 H       -3.9260     1.6310     1.2760 H     1 <1>   0.0800 
 27 H       -1.9140    -1.3920    -0.8710 H     1 <1>   0.0800 
 28 H       -2.1000    -1.6410     0.8400 H     1 <1>   0.0800 
 29 H       -1.1890     2.1730     0.9990 H     1 <1>   0.1500 
 30 H       -3.1990     3.1480    -2.6160 H     1 <1>   0.1500 
 31 H       -5.6790    -0.0270     1.9420 H     1 <1>   0.0800 
 32 H       -3.7450    -2.9790    -0.4010 H     1 <1>   0.0800 
 33 H       -4.3010    -1.5560    -1.2380 H     1 <1>   0.0800 
 34 H       -2.4880     5.4890    -2.2270 H     1 <1>   0.1500 
 35 H       -4.5480    -2.0690     1.6690 H     1 <1>   0.4500 
 36 H       -5.3970     0.4390    -1.0410 H     1 <1>   0.0800 
 37 H       -6.1360     1.5060     0.1250 H     1 <1>   0.0800 
 38 H       -6.8510    -2.1980     1.4510 H     1 <1>   0.0800 
 39 H       -8.0460    -1.9270    -0.6380 H     1 <1>   0.0800 
 40 H       -6.5650    -1.6470    -1.5180 H     1 <1>   0.0800 
 41 H       -5.7200    -3.9510    -0.7220 H     1 <1>   0.0800 
 42 H       -5.4300    -4.2210     0.9810 H     1 <1>   0.0800 
 43 H       -2.1390     8.0810     0.5370 H     1 <1>   0.0800 
 44 H       -3.0410     7.1400    -0.6230 H     1 <1>   0.0800 
 45 H       -1.6920     8.1260    -1.1580 H     1 <1>   0.0800 
 46 H        0.5220     7.5880     0.3560 H     1 <1>   0.0800 
 47 H        0.7940     5.8790     0.6000 H     1 <1>   0.0800 
 48 H       -0.2270     6.7640     1.7150 H     1 <1>   0.0800 
 49 H       -7.8790    -4.3900     1.3590 H     1 <1>   0.0800 
 50 H       -8.1490    -4.1980    -0.3530 H     1 <1>   0.0800 
 51 H       -6.5740    -6.4550     0.9190 H     1 <1>   0.0800 
 52 H       -6.8370    -6.2530    -0.7990 H     1 <1>   0.0800 
 53 H       -8.1850    -6.5670     0.2620 H     1 <1>   0.0800 
@<TRIPOS>BOND
  1   1   2  2   
  2   2   3  am  
  3   2   4  1   
  4   3   5  1   
  5   3   6  1   
  6   4   7  ar  
  7   4   8  ar  
  8   5   9  1   
  9   5  25  1   
 10   5  26  1   
 11   6  10  1   
 12   6  27  1   
 13   6  28  1   
 14   7  11  ar  
 15   7  29  1   
 16   8  12  ar  
 17   8  30  1   
 18   9  13  1   
 19   9  14  1   
 20   9  31  1   
 21  10  13  1   
 22  10  32  1   
 23  10  33  1   
 24  11  15  ar  
 25  12  15  ar  
 26  12  34  1   
 27  13  16  1   
 28  13  35  1   
 29  14  17  1   
 30  14  36  1   
 31  14  37  1   
 32  15  18  1   
 33  16  19  1   
 34  16  20  1   
 35  16  38  1   
 36  17  19  1   
 37  18  21  1   
 38  18  22  1   
 39  19  39  1   
 40  19  40  1   
 41  20  23  1   
 42  20  41  1   
 43  20  42  1   
 44  21  43  1   
 45  21  44  1   
 46  21  45  1   
 47  22  46  1   
 48  22  47  1   
 49  22  48  1   
 50  23  24  1   
 51  23  49  1   
 52  23  50  1   
 53  24  51  1   
 54  24  52  1   
 55  24  53  1   
@<TRIPOS>SUBSTRUCTURE
  1 ****   3 GROUP 4 **** **** 0

# MOE 2024.06 (io_trps.svl 2023.06)
