@<TRIPOS>MOLECULE
NONAME
52 55 1 0 0 
SMALL
USER_CHARGES


@<TRIPOS>ATOM
  1 O        0.9750     0.0510    -0.2490 O.2   1 <1>  -0.5700 
  2 C        1.4710    -0.8510     0.3970 C.2   1 <1>   0.5440 
  3 N        2.8400    -0.8910     0.5580 N.am  1 <1>  -0.6600 
  4 C        0.6150    -1.8650     0.9720 C.ar  1 <1>   0.0860 
  5 C        3.7290     0.2170     0.0910 C.3   1 <1>   0.1400 
  6 C        3.5980    -2.1140     0.9610 C.3   1 <1>   0.1400 
  7 C       -0.2200    -2.6500     0.2010 C.ar  1 <1>  -0.1500 
  8 C        0.5780    -2.1280     2.3350 C.ar  1 <1>  -0.1500 
  9 C        4.7410    -0.3020    -0.9430 C.3   1 <1>   0.1200 
 10 C        4.6190    -2.4980    -0.1240 C.3   1 <1>   0.1200 
 11 C       -0.9990    -3.6380     0.7800 C.ar  1 <1>   0.4100 
 12 C       -0.2360    -3.1290     2.8260 C.ar  1 <1>   0.1600 
 13 O        5.4380    -1.4080    -0.4390 O.3   1 <1>  -0.5600 
 14 N       -1.0140    -3.8960     2.0830 N.ar  1 <1>  -0.6200 
 15 N       -1.7860    -4.4300    -0.0240 N.pl3 1 <1>  -0.8380 
 16 C       -3.2370    -4.5220     0.3150 C.3   1 <1>   0.2090 
 17 C       -1.2830    -5.8160    -0.2540 C.3   1 <1>   0.2090 
 18 C       -3.4270    -5.9360     0.8640 C.3   1 <1>   0.2000 
 19 C       -2.4580    -6.7600     0.0180 C.3   1 <1>  -0.0800 
 20 O       -3.0120    -5.9340     2.1870 O.3   1 <1>  -0.6800 
 21 C       -2.0290    -8.1120     0.6190 C.3   1 <1>   0.0210 
 22 C       -0.9890    -8.8060    -0.2430 C.2   1 <1>   0.1080 
 23 N       -1.0670    -8.8840    -1.5370 N.2   1 <1>  -0.7070 
 24 C        0.1560    -9.4240     0.2490 C.2   1 <1>  -0.1500 
 25 N        0.0320    -9.5680    -1.9050 N.pl3 1 <1>   0.3000 
 26 C        0.7910    -9.9020    -0.8400 C.2   1 <1>  -0.3320 
 27 C        2.0940   -10.6750    -0.9310 C.3   1 <1>  -0.0600 
 28 H        3.1520     1.0140    -0.3460 H     1 <1>   0.0800 
 29 H        4.2610     0.6220     0.9340 H     1 <1>   0.0800 
 30 H        4.1180    -1.9210     1.8830 H     1 <1>   0.0800 
 31 H        2.9340    -2.9450     1.1190 H     1 <1>   0.0800 
 32 H       -0.2720    -2.5040    -0.8610 H     1 <1>   0.1500 
 33 H        1.1860    -1.5450     3.0030 H     1 <1>   0.1500 
 34 H        5.4590     0.4630    -1.1750 H     1 <1>   0.0800 
 35 H        4.2380    -0.5920    -1.8490 H     1 <1>   0.0800 
 36 H        4.1160    -2.8220    -1.0190 H     1 <1>   0.0800 
 37 H        5.2520    -3.2940     0.2260 H     1 <1>   0.0800 
 38 H       -0.2480    -3.3130     3.8870 H     1 <1>   0.1500 
 39 H       -3.5360    -3.7750     1.0310 H     1 <1>   0.0800 
 40 H       -3.8110    -4.3980    -0.5860 H     1 <1>   0.0800 
 41 H       -0.9340    -5.9280    -1.2670 H     1 <1>   0.0800 
 42 H       -0.4690    -6.0280     0.4190 H     1 <1>   0.0800 
 43 H       -4.4440    -6.2830     0.8180 H     1 <1>   0.0800 
 44 H       -2.9310    -6.9520    -0.9290 H     1 <1>   0.0800 
 45 H       -2.2440    -5.3050     2.2460 H     1 <1>   0.4000 
 46 H       -2.8880    -8.7520     0.7090 H     1 <1>   0.0800 
 47 H       -1.6170    -7.9700     1.6020 H     1 <1>   0.0800 
 48 H        0.4430    -9.4920     1.2830 H     1 <1>   0.1500 
 49 H        0.2330    -9.7920    -2.8870 H     1 <1>   0.2700 
 50 H        2.5060   -10.8220     0.0520 H     1 <1>   0.0800 
 51 H        2.8090   -10.1340    -1.5250 H     1 <1>   0.0800 
 52 H        1.9240   -11.6390    -1.3780 H     1 <1>   0.0800 
@<TRIPOS>BOND
  1   1   2  2   
  2   2   3  am  
  3   2   4  1   
  4   3   5  1   
  5   3   6  1   
  6   4   7  ar  
  7   4   8  ar  
  8   5   9  1   
  9   5  28  1   
 10   5  29  1   
 11   6  10  1   
 12   6  30  1   
 13   6  31  1   
 14   7  11  ar  
 15   7  32  1   
 16   8  12  ar  
 17   8  33  1   
 18   9  13  1   
 19   9  34  1   
 20   9  35  1   
 21  10  13  1   
 22  10  36  1   
 23  10  37  1   
 24  11  14  ar  
 25  11  15  1   
 26  12  14  ar  
 27  12  38  1   
 28  15  16  1   
 29  15  17  1   
 30  16  18  1   
 31  16  39  1   
 32  16  40  1   
 33  17  19  1   
 34  17  41  1   
 35  17  42  1   
 36  18  19  1   
 37  18  20  1   
 38  18  43  1   
 39  19  21  1   
 40  19  44  1   
 41  20  45  1   
 42  21  22  1   
 43  21  46  1   
 44  21  47  1   
 45  22  23  2   
 46  22  24  1   
 47  23  25  1   
 48  24  26  2   
 49  24  48  1   
 50  25  26  1   
 51  25  49  1   
 52  26  27  1   
 53  27  50  1   
 54  27  51  1   
 55  27  52  1   
@<TRIPOS>SUBSTRUCTURE
  1 ****  11 GROUP 4 **** **** 0

# MOE 2024.06 (io_trps.svl 2023.06)
