@<TRIPOS>MOLECULE
NONAME
37 39 1 0 0 
SMALL
USER_CHARGES


@<TRIPOS>ATOM
  1 CL      -0.7920    -0.3810    -0.1410 Cl    1 <1>  -0.1770 
  2 C       -0.7540    -2.1250    -0.1100 C.ar  1 <1>   0.1770 
  3 C        0.3040    -2.7900    -0.7010 C.ar  1 <1>  -0.1500 
  4 C       -1.7810    -2.8160     0.5050 C.ar  1 <1>  -0.1500 
  5 C        0.3330    -4.1740    -0.6760 C.ar  1 <1>  -0.1500 
  6 C       -1.7470    -4.2000     0.5270 C.ar  1 <1>  -0.1500 
  7 C       -0.6910    -4.8820    -0.0630 C.ar  1 <1>  -0.1430 
  8 C       -0.6710    -6.4010    -0.0370 C.3   1 <1>  -0.0160 
  9 C       -1.3210    -6.9670    -1.3060 C.3   1 <1>  -0.0990 
 10 C       -1.5740    -8.4550    -1.1590 C.2   1 <1>   0.5690 
 11 O       -0.7300    -9.2090    -1.5840 O.2   1 <1>  -0.5700 
 12 N       -2.7080    -8.8910    -0.5450 N.am  1 <1>  -0.6600 
 13 C       -3.7810    -8.0260     0.0250 C.3   1 <1>   0.2350 
 14 C       -2.9020   -10.3040    -0.1170 C.3   1 <1>   0.2350 
 15 C       -4.8610    -8.9660     0.5190 C.3   1 <1>  -0.2420 
 16 C       -4.3130   -10.3720     0.4430 C.3   1 <1>  -0.2420 
 17 C       -5.7630    -8.2510     1.5320 C.2   1 <1>   0.9470 
 18 C       -5.4840    -9.9720    -0.4160 C.3   1 <1>  -0.2000 
 19 C       -4.4580   -11.5520     1.4040 C.2   1 <1>   0.9470 
 20 O       -6.9920    -8.2670     1.3850 O.co2 1 <1>  -0.9000 
 21 O       -5.2360    -7.5110     2.3770 O.co2 1 <1>  -0.9000 
 22 O       -5.2130   -12.4880     1.1050 O.co2 1 <1>  -0.9000 
 23 O       -3.7020   -11.6260     2.3820 O.co2 1 <1>  -0.9000 
 24 H        1.0910    -2.2300    -1.1720 H     1 <1>   0.1500 
 25 H       -2.5950    -2.2800     0.9590 H     1 <1>   0.1500 
 26 H        1.1530    -4.6990    -1.1350 H     1 <1>   0.1500 
 27 H       -2.5470    -4.7440     1.0050 H     1 <1>   0.1500 
 28 H        0.3390    -6.7610     0.0410 H     1 <1>   0.0800 
 29 H       -1.2010    -6.7490     0.8340 H     1 <1>   0.0800 
 30 H       -0.6700    -6.8040    -2.1440 H     1 <1>   0.0800 
 31 H       -2.2430    -6.4590    -1.5110 H     1 <1>   0.0800 
 32 H       -3.3800    -7.4590     0.8470 H     1 <1>   0.0800 
 33 H       -4.1850    -7.3620    -0.7170 H     1 <1>   0.0800 
 34 H       -2.7840   -10.9770    -0.9480 H     1 <1>   0.0800 
 35 H       -2.1840   -10.5450     0.6490 H     1 <1>   0.0800 
 36 H       -5.3520    -9.8670    -1.4760 H     1 <1>   0.1000 
 37 H       -6.4490   -10.3750    -0.1570 H     1 <1>   0.1000 
@<TRIPOS>BOND
  1   1   2  1   
  2   2   3  ar  
  3   2   4  ar  
  4   3   5  ar  
  5   3  24  1   
  6   4   6  ar  
  7   4  25  1   
  8   5   7  ar  
  9   5  26  1   
 10   6   7  ar  
 11   6  27  1   
 12   7   8  1   
 13   8   9  1   
 14   8  28  1   
 15   8  29  1   
 16   9  10  1   
 17   9  30  1   
 18   9  31  1   
 19  10  11  2   
 20  10  12  am  
 21  12  13  1   
 22  12  14  1   
 23  13  15  1   
 24  13  32  1   
 25  13  33  1   
 26  14  16  1   
 27  14  34  1   
 28  14  35  1   
 29  15  16  1   
 30  15  17  1   
 31  15  18  1   
 32  16  18  1   
 33  16  19  1   
 34  17  20  ar  
 35  17  21  ar  
 36  18  36  1   
 37  18  37  1   
 38  19  22  ar  
 39  19  23  ar  
@<TRIPOS>SUBSTRUCTURE
  1 ****  13 GROUP 4 **** **** 0

# MOE 2024.06 (io_trps.svl 2023.06)
