@<TRIPOS>MOLECULE
NONAME
59 63 1 0 0 
SMALL
USER_CHARGES


@<TRIPOS>ATOM
  1 O       -0.5720    -0.3940    -0.2570 O.3   1 <1>  -0.2800 
  2 C       -0.6530    -1.6830     0.0200 C.2   1 <1>  -0.0400 
  3 C        0.4980    -0.2120    -1.0060 C.2   1 <1>  -0.0100 
  4 C        0.3680    -2.3540    -0.5580 C.2   1 <1>  -0.1500 
  5 C       -1.8000    -2.1870     0.8760 C.3   1 <1>   0.5230 
  6 C        1.1240    -1.3860    -1.2310 C.2   1 <1>  -0.1500 
  7 N       -3.0880    -1.7820     0.2270 N.4   1 <1>  -0.9590 
  8 C       -3.4580    -0.3940     0.6150 C.3   1 <1>   0.3430 
  9 C       -4.1720    -2.7620     0.4910 C.3   1 <1>   0.3430 
 10 C       -4.7040     0.0470    -0.1540 C.3   1 <1>  -0.1600 
 11 C       -5.4290    -2.3580    -0.2820 C.3   1 <1>  -0.1600 
 12 C       -5.8810    -0.9230     0.0420 C.3   1 <1>   0.4230 
 13 N       -7.0410    -0.5340    -0.8330 N.4   1 <1>  -0.9590 
 14 C       -7.5530     0.8910    -0.6560 C.3   1 <1>   0.3430 
 15 C       -8.2230    -1.4600    -0.7450 C.3   1 <1>   0.3430 
 16 C       -8.6400     1.0950     0.4320 C.3   1 <1>   0.1430 
 17 C       -8.8440    -1.4560     0.6610 C.3   1 <1>  -0.1600 
 18 C       -9.9770     1.3490    -0.2420 C.ar  1 <1>   0.1670 
 19 C       -8.7430    -0.1060     1.3990 C.3   1 <1>  -0.1600 
 20 C       -8.4340     2.4110     1.2280 C.3   1 <1>  -0.1600 
 21 N      -10.4620     0.6600    -1.2520 N.ar  1 <1>  -0.6200 
 22 C      -10.6280     2.4070     0.3170 C.ar  1 <1>  -0.1430 
 23 C       -9.8310     3.0260     1.4360 C.3   1 <1>  -0.0170 
 24 C      -11.6540     1.0730    -1.6700 C.ar  1 <1>   0.4770 
 25 C      -11.8540     2.7500    -0.1950 C.ar  1 <1>   0.1600 
 26 N      -12.3780     2.0780    -1.1990 N.ar  1 <1>  -0.6200 
 27 C      -12.2550     0.3020    -2.8210 C.3   1 <1>  -0.0970 
 28 H        0.7480     0.7820    -1.3370 H     1 <1>   0.1500 
 29 H        0.6050    -3.4040    -0.5380 H     1 <1>   0.1500 
 30 H       -1.7260    -1.7760     1.8700 H     1 <1>   0.0800 
 31 H       -1.7320    -3.2600     0.9410 H     1 <1>   0.0800 
 32 H        2.0200    -1.5720    -1.8010 H     1 <1>   0.1500 
 33 H       -2.8540    -1.7760    -0.7780 H     1 <1>   0.4500 
 34 H       -2.6470     0.2840     0.3950 H     1 <1>   0.0800 
 35 H       -3.6470    -0.3490     1.6770 H     1 <1>   0.0800 
 36 H       -4.3870    -2.7950     1.5480 H     1 <1>   0.0800 
 37 H       -3.8610    -3.7480     0.1800 H     1 <1>   0.0800 
 38 H       -4.4530     0.1310    -1.1970 H     1 <1>   0.0800 
 39 H       -4.9600     1.0240     0.2110 H     1 <1>   0.0800 
 40 H       -6.1980    -3.0580    -0.0130 H     1 <1>   0.0800 
 41 H       -5.2350    -2.4610    -1.3360 H     1 <1>   0.0800 
 42 H       -6.1880    -0.8860     1.0740 H     1 <1>   0.0800 
 43 H       -6.7220    -0.5880    -1.8100 H     1 <1>   0.4500 
 44 H       -7.9840     1.2170    -1.5890 H     1 <1>   0.0800 
 45 H       -6.7330     1.5560    -0.4540 H     1 <1>   0.0800 
 46 H       -7.9500    -2.4650    -1.0210 H     1 <1>   0.0800 
 47 H       -8.9720    -1.1340    -1.4500 H     1 <1>   0.0800 
 48 H       -8.4050    -2.2320     1.2610 H     1 <1>   0.0800 
 49 H       -9.8850    -1.7100     0.5460 H     1 <1>   0.0800 
 50 H       -9.6010     0.0120     2.0410 H     1 <1>   0.0800 
 51 H       -7.8780    -0.1190     2.0360 H     1 <1>   0.0800 
 52 H       -7.8600     3.1060     0.6400 H     1 <1>   0.0800 
 53 H       -7.9290     2.2640     2.1670 H     1 <1>   0.0800 
 54 H       -9.8100     4.1000     1.3680 H     1 <1>   0.0800 
 55 H      -10.2460     2.7290     2.3840 H     1 <1>   0.0800 
 56 H      -12.4110     3.5760     0.2130 H     1 <1>   0.1500 
 57 H      -11.5770     0.3060    -3.6530 H     1 <1>   0.0800 
 58 H      -13.1840     0.7470    -3.1280 H     1 <1>   0.0800 
 59 H      -12.4400    -0.7110    -2.5170 H     1 <1>   0.0800 
@<TRIPOS>BOND
  1   1   2  1   
  2   1   3  1   
  3   2   4  2   
  4   2   5  1   
  5   3   6  2   
  6   3  28  1   
  7   4   6  1   
  8   4  29  1   
  9   5   7  1   
 10   5  30  1   
 11   5  31  1   
 12   6  32  1   
 13   7   8  1   
 14   7   9  1   
 15   7  33  1   
 16   8  10  1   
 17   8  34  1   
 18   8  35  1   
 19   9  11  1   
 20   9  36  1   
 21   9  37  1   
 22  10  12  1   
 23  10  38  1   
 24  10  39  1   
 25  11  12  1   
 26  11  40  1   
 27  11  41  1   
 28  12  13  1   
 29  12  42  1   
 30  13  14  1   
 31  13  15  1   
 32  13  43  1   
 33  14  16  1   
 34  14  44  1   
 35  14  45  1   
 36  15  17  1   
 37  15  46  1   
 38  15  47  1   
 39  16  18  1   
 40  16  19  1   
 41  16  20  1   
 42  17  19  1   
 43  17  48  1   
 44  17  49  1   
 45  18  21  ar  
 46  18  22  ar  
 47  19  50  1   
 48  19  51  1   
 49  20  23  1   
 50  20  52  1   
 51  20  53  1   
 52  21  24  ar  
 53  22  23  1   
 54  22  25  ar  
 55  23  54  1   
 56  23  55  1   
 57  24  26  ar  
 58  24  27  1   
 59  25  26  ar  
 60  25  56  1   
 61  27  57  1   
 62  27  58  1   
 63  27  59  1   
@<TRIPOS>SUBSTRUCTURE
  1 ****  13 GROUP 4 **** **** 0

# MOE 2024.06 (io_trps.svl 2023.06)
