@<TRIPOS>MOLECULE
NONAME
50 53 1 0 0 
SMALL
USER_CHARGES


@<TRIPOS>ATOM
  1 S        0.7840    -0.2310    -2.2840 S.3   1 <1>  -0.0800 
  2 C        0.2010    -1.1490    -0.8880 C.2   1 <1>   0.2930 
  3 C        1.7200     0.7720    -1.2320 C.2   1 <1>  -0.1400 
  4 N        0.6900    -0.6990     0.2290 N.2   1 <1>  -0.5650 
  5 C       -0.7140    -2.2560    -1.1550 C.2   1 <1>   0.7150 
  6 C        1.5300     0.3720     0.0270 C.2   1 <1>   0.0460 
  7 C        2.5900     1.9000    -1.7380 C.3   1 <1>   0.0200 
  8 O       -0.8310    -2.6860    -2.2930 O.2   1 <1>  -0.5700 
  9 N       -1.4800    -2.8740    -0.1730 N.am  1 <1>  -0.6600 
 10 C        2.2090     1.0570     1.1970 C.3   1 <1>   0.0210 
 11 C        3.5230     2.3520    -0.5970 C.3   1 <1>  -0.1600 
 12 C       -2.0700    -4.2240    -0.4290 C.3   1 <1>   0.1400 
 13 C       -1.7620    -2.2360     1.1470 C.3   1 <1>   0.1400 
 14 C        2.7970     2.4200     0.7660 C.3   1 <1>  -0.1600 
 15 C       -3.4750    -4.1080    -1.0370 C.3   1 <1>   0.1400 
 16 C       -3.1790    -2.4870     1.6800 C.3   1 <1>  -0.1600 
 17 N       -4.4940    -3.7250    -0.0100 N.am  1 <1>  -0.6600 
 18 C       -4.2760    -2.3890     0.6140 C.3   1 <1>   0.1400 
 19 C       -5.5420    -4.5170     0.4040 C.2   1 <1>   0.5690 
 20 O       -6.2730    -4.1660     1.3020 O.2   1 <1>  -0.5700 
 21 C       -5.8100    -5.8780    -0.2420 C.3   1 <1>  -0.0190 
 22 C       -7.1830    -6.4600     0.0630 C.3   1 <1>   0.1200 
 23 C       -4.8840    -6.9930     0.2400 C.3   1 <1>  -0.1600 
 24 O       -7.0330    -7.8240    -0.1560 O.3   1 <1>  -0.5600 
 25 C       -5.7750    -8.2350     0.2710 C.3   1 <1>   0.1200 
 26 H        1.9590     2.7140    -2.0490 H     1 <1>   0.0800 
 27 H        3.1710     1.5720    -2.5820 H     1 <1>   0.0800 
 28 H        2.9910     0.4140     1.5580 H     1 <1>   0.0800 
 29 H        1.4990     1.2030     1.9900 H     1 <1>   0.0800 
 30 H        3.9420     3.3130    -0.8380 H     1 <1>   0.0800 
 31 H        4.3350     1.6500    -0.5180 H     1 <1>   0.0800 
 32 H       -2.1020    -4.7990     0.4790 H     1 <1>   0.0800 
 33 H       -1.4390    -4.7540    -1.1220 H     1 <1>   0.0800 
 34 H       -1.6460    -1.1700     1.0490 H     1 <1>   0.0800 
 35 H       -1.0370    -2.5770     1.8660 H     1 <1>   0.0800 
 36 H        3.4760     2.7680     1.5250 H     1 <1>   0.0800 
 37 H        1.9940     3.1330     0.6930 H     1 <1>   0.0800 
 38 H       -3.7210    -5.0500    -1.4860 H     1 <1>   0.0800 
 39 H       -3.4630    -3.3760    -1.8260 H     1 <1>   0.0800 
 40 H       -3.3740    -1.7420     2.4300 H     1 <1>   0.0800 
 41 H       -3.2330    -3.4400     2.1750 H     1 <1>   0.0800 
 42 H       -4.0130    -1.6660    -0.1400 H     1 <1>   0.0800 
 43 H       -5.1880    -2.0520     1.0770 H     1 <1>   0.0800 
 44 H       -5.7510    -5.7820    -1.3100 H     1 <1>   0.0800 
 45 H       -7.9520    -6.0740    -0.5830 H     1 <1>   0.0800 
 46 H       -7.4600    -6.3200     1.0950 H     1 <1>   0.0800 
 47 H       -4.5260    -6.7910     1.2350 H     1 <1>   0.0800 
 48 H       -4.0440    -7.1340    -0.4140 H     1 <1>   0.0800 
 49 H       -5.8700    -8.6260     1.2700 H     1 <1>   0.0800 
 50 H       -5.4260    -9.0040    -0.3960 H     1 <1>   0.0800 
@<TRIPOS>BOND
  1   1   2  1   
  2   1   3  1   
  3   2   4  2   
  4   2   5  1   
  5   3   6  2   
  6   3   7  1   
  7   4   6  1   
  8   5   8  2   
  9   5   9  am  
 10   6  10  1   
 11   7  11  1   
 12   7  26  1   
 13   7  27  1   
 14   9  12  1   
 15   9  13  1   
 16  10  14  1   
 17  10  28  1   
 18  10  29  1   
 19  11  14  1   
 20  11  30  1   
 21  11  31  1   
 22  12  15  1   
 23  12  32  1   
 24  12  33  1   
 25  13  16  1   
 26  13  34  1   
 27  13  35  1   
 28  14  36  1   
 29  14  37  1   
 30  15  17  1   
 31  15  38  1   
 32  15  39  1   
 33  16  18  1   
 34  16  40  1   
 35  16  41  1   
 36  17  18  1   
 37  17  19  am  
 38  18  42  1   
 39  18  43  1   
 40  19  20  2   
 41  19  21  1   
 42  21  22  1   
 43  21  23  1   
 44  21  44  1   
 45  22  24  1   
 46  22  45  1   
 47  22  46  1   
 48  23  25  1   
 49  23  47  1   
 50  23  48  1   
 51  24  25  1   
 52  25  49  1   
 53  25  50  1   
@<TRIPOS>SUBSTRUCTURE
  1 ****   9 GROUP 4 **** **** 0

# MOE 2024.06 (io_trps.svl 2023.06)
