@<TRIPOS>MOLECULE
NONAME
54 57 1 0 0 
SMALL
USER_CHARGES


@<TRIPOS>ATOM
  1 O       -2.2310     0.4370    -1.7690 O.2   1 <1>  -0.5700 
  2 C       -1.8660     0.6170    -0.6180 C.2   1 <1>   0.7160 
  3 N       -1.7790    -0.4650     0.2080 N.am  1 <1>  -0.7300 
  4 C       -1.5480     1.9370    -0.0980 C.2   1 <1>   0.2030 
  5 C       -2.1910    -1.8430    -0.1280 C.3   1 <1>   0.2200 
  6 N       -1.2080     2.2050     1.1520 N.2   1 <1>  -0.7070 
  7 C       -1.5660     3.1150    -0.8570 C.2   1 <1>  -0.1500 
  8 C       -3.6600    -2.0180     0.2120 C.3   1 <1>  -0.0800 
  9 C       -1.5140    -2.8480     0.8040 C.3   1 <1>   0.1200 
 10 N       -1.0120     3.5320     1.1860 N.pl3 1 <1>   0.3000 
 11 C       -1.2240     4.1080    -0.0140 C.2   1 <1>  -0.3320 
 12 C       -3.5910    -2.3860     1.6930 C.3   1 <1>   0.1200 
 13 C       -4.3070    -3.1280    -0.6390 C.3   1 <1>  -0.0160 
 14 O       -2.3900    -3.0760     1.8710 O.3   1 <1>  -0.5600 
 15 C       -1.0760     5.5960    -0.2900 C.3   1 <1>   0.0200 
 16 C       -5.8040    -3.2340    -0.3720 C.ar  1 <1>  -0.1430 
 17 C       -2.3370     6.4000     0.0790 C.3   1 <1>  -0.0800 
 18 C       -6.7330    -2.2990    -0.8900 C.ar  1 <1>   0.0000 
 19 C       -6.2940    -4.2530     0.3910 C.ar  1 <1>  -0.1500 
 20 C       -2.1720     7.8640    -0.3510 C.3   1 <1>  -0.2400 
 21 C       -2.6620     6.3430     1.5790 C.3   1 <1>  -0.2400 
 22 C       -8.0990    -2.4830    -0.5670 C.ar  1 <1>   0.3100 
 23 C       -6.3890    -1.1970    -1.7090 C.ar  1 <1>  -0.1500 
 24 C       -7.6670    -4.3460     0.6470 C.ar  1 <1>   0.1600 
 25 N       -8.5480    -3.5080     0.2020 N.ar  1 <1>  -0.6200 
 26 C       -9.0440    -1.5690    -1.0610 C.ar  1 <1>  -0.1500 
 27 C       -7.3350    -0.3250    -2.1750 C.ar  1 <1>  -0.1500 
 28 C       -8.6800    -0.5110    -1.8480 C.ar  1 <1>  -0.1500 
 29 H       -1.5580    -0.2640     1.1880 H     1 <1>   0.3700 
 30 H       -1.9700    -2.0440    -1.1640 H     1 <1>   0.0800 
 31 H       -1.8110     3.1660    -1.9030 H     1 <1>   0.1500 
 32 H       -4.2050    -1.1010     0.0750 H     1 <1>   0.0800 
 33 H       -0.5730    -2.4890     1.1830 H     1 <1>   0.0800 
 34 H       -1.3690    -3.7880     0.3030 H     1 <1>   0.0800 
 35 H       -0.7370     4.0280     2.0430 H     1 <1>   0.2700 
 36 H       -4.4090    -3.0040     2.0180 H     1 <1>   0.0800 
 37 H       -3.5490    -1.4990     2.3010 H     1 <1>   0.0800 
 38 H       -3.8340    -4.0710    -0.4230 H     1 <1>   0.0800 
 39 H       -4.1490    -2.9320    -1.6850 H     1 <1>   0.0800 
 40 H       -0.2220     5.9820     0.2390 H     1 <1>   0.0800 
 41 H       -0.8850     5.7220    -1.3420 H     1 <1>   0.0800 
 42 H       -3.1700     5.9840    -0.4640 H     1 <1>   0.0800 
 43 H       -5.6480    -5.0000     0.8140 H     1 <1>   0.1500 
 44 H       -1.3520     8.3240     0.1710 H     1 <1>   0.0800 
 45 H       -3.0690     8.4190    -0.1380 H     1 <1>   0.0800 
 46 H       -1.9850     7.9260    -1.4090 H     1 <1>   0.0800 
 47 H       -1.8240     6.6760     2.1650 H     1 <1>   0.0800 
 48 H       -2.9240     5.3420     1.8730 H     1 <1>   0.0800 
 49 H       -3.5050     6.9750     1.7990 H     1 <1>   0.0800 
 50 H       -5.3610    -1.0340    -1.9780 H     1 <1>   0.1500 
 51 H       -8.0110    -5.1650     1.2550 H     1 <1>   0.1500 
 52 H      -10.0730    -1.7330    -0.7970 H     1 <1>   0.1500 
 53 H       -7.0570     0.5090    -2.7950 H     1 <1>   0.1500 
 54 H       -9.4160     0.1820    -2.2200 H     1 <1>   0.1500 
@<TRIPOS>BOND
  1   1   2  2   
  2   2   3  am  
  3   2   4  1   
  4   3   5  1   
  5   3  29  1   
  6   4   6  2   
  7   4   7  1   
  8   5   8  1   
  9   5   9  1   
 10   5  30  1   
 11   6  10  1   
 12   7  11  2   
 13   7  31  1   
 14   8  12  1   
 15   8  13  1   
 16   8  32  1   
 17   9  14  1   
 18   9  33  1   
 19   9  34  1   
 20  10  11  1   
 21  10  35  1   
 22  11  15  1   
 23  12  14  1   
 24  12  36  1   
 25  12  37  1   
 26  13  16  1   
 27  13  38  1   
 28  13  39  1   
 29  15  17  1   
 30  15  40  1   
 31  15  41  1   
 32  16  18  ar  
 33  16  19  ar  
 34  17  20  1   
 35  17  21  1   
 36  17  42  1   
 37  18  22  ar  
 38  18  23  ar  
 39  19  24  ar  
 40  19  43  1   
 41  20  44  1   
 42  20  45  1   
 43  20  46  1   
 44  21  47  1   
 45  21  48  1   
 46  21  49  1   
 47  22  25  ar  
 48  22  26  ar  
 49  23  27  ar  
 50  23  50  1   
 51  24  25  ar  
 52  24  51  1   
 53  26  28  ar  
 54  26  52  1   
 55  27  28  ar  
 56  27  53  1   
 57  28  54  1   
@<TRIPOS>SUBSTRUCTURE
  1 ****   8 GROUP 4 **** **** 0

# MOE 2024.06 (io_trps.svl 2023.06)
