@<TRIPOS>MOLECULE
NONAME
56 59 1 0 0 
SMALL
USER_CHARGES


@<TRIPOS>ATOM
  1 N        0.8440     0.6980     0.0140 N.ar  1 <1>  -0.6200 
  2 C        1.7190    -0.1320    -0.4760 C.ar  1 <1>   0.4100 
  3 C        0.2050     0.3170     1.1220 C.ar  1 <1>   0.4760 
  4 N        2.3620     0.2410    -1.6400 N.pl3 1 <1>  -0.8380 
  5 C        2.0260    -1.3610     0.1650 C.ar  1 <1>   0.0000 
  6 N        0.3750    -0.7760     1.7910 N.ar  1 <1>  -0.6200 
  7 C       -0.8280     1.2930     1.6290 C.3   1 <1>  -0.0970 
  8 C        2.7410     1.6630    -1.8800 C.3   1 <1>   0.2090 
  9 C        2.1020    -0.5490    -2.8760 C.3   1 <1>   0.1290 
 10 C        1.2960    -1.6420     1.3240 C.ar  1 <1>   0.3100 
 11 C        3.0100    -2.2830    -0.2480 C.ar  1 <1>  -0.1500 
 12 C        4.1470     1.9560    -1.3180 C.3   1 <1>  -0.0800 
 13 C        1.5400    -2.8340     2.0190 C.ar  1 <1>  -0.1500 
 14 C        3.2360    -3.4430     0.4470 C.ar  1 <1>  -0.1500 
 15 C        4.2500     1.6710     0.1950 C.3   1 <1>  -0.1600 
 16 C        4.5300     3.4190    -1.5990 C.3   1 <1>  -0.1600 
 17 C        2.4910    -3.7250     1.5930 C.ar  1 <1>  -0.1500 
 18 C        5.5920     2.0900     0.7840 C.3   1 <1>   0.3430 
 19 C        5.8750     3.7960    -0.9760 C.3   1 <1>   0.3430 
 20 N        5.8370     3.5260     0.4900 N.4   1 <1>  -0.9590 
 21 C        7.0570     4.0240     1.1790 C.3   1 <1>   0.4860 
 22 C        7.1070     5.5320     1.0410 C.ar  1 <1>  -0.1430 
 23 C        6.2450     6.3320     1.7790 C.ar  1 <1>  -0.1500 
 24 C        8.0110     6.1240     0.1700 C.ar  1 <1>  -0.1500 
 25 C        6.2800     7.7080     1.6380 C.ar  1 <1>  -0.1500 
 26 C        8.0440     7.5010     0.0300 C.ar  1 <1>  -0.1500 
 27 C        7.1770     8.2920     0.7620 C.ar  1 <1>  -0.1500 
 28 H       -1.5760     1.4450     0.8740 H     1 <1>   0.0800 
 29 H       -0.3570     2.2310     1.8540 H     1 <1>   0.0800 
 30 H       -1.3010     0.9150     2.5170 H     1 <1>   0.0800 
 31 H        2.0210     2.3200    -1.4230 H     1 <1>   0.0800 
 32 H        2.7290     1.8650    -2.9370 H     1 <1>   0.0800 
 33 H        1.6510    -1.4960    -2.6300 H     1 <1>   0.0800 
 34 H        3.0240    -0.7260    -3.4000 H     1 <1>   0.0800 
 35 H        1.4250    -0.0110    -3.5190 H     1 <1>   0.0800 
 36 H        3.5910    -2.0620    -1.1240 H     1 <1>   0.1500 
 37 H        4.8420     1.3170    -1.8360 H     1 <1>   0.0800 
 38 H        0.9570    -3.0270     2.9000 H     1 <1>   0.1500 
 39 H        3.9850    -4.1460     0.1210 H     1 <1>   0.1500 
 40 H        4.1380     0.6170     0.3700 H     1 <1>   0.0800 
 41 H        3.4520     2.1670     0.7210 H     1 <1>   0.0800 
 42 H        3.7720     4.0810    -1.2170 H     1 <1>   0.0800 
 43 H        4.5870     3.5770    -2.6620 H     1 <1>   0.0800 
 44 H        2.6730    -4.6390     2.1320 H     1 <1>   0.1500 
 45 H        6.3750     1.4880     0.3520 H     1 <1>   0.0800 
 46 H        5.5810     1.9220     1.8490 H     1 <1>   0.0800 
 47 H        6.0680     4.8420    -1.1560 H     1 <1>   0.0800 
 48 H        6.6610     3.2190    -1.4350 H     1 <1>   0.0800 
 49 H        5.0490     4.0680     0.8660 H     1 <1>   0.4500 
 50 H        7.9390     3.5830     0.7440 H     1 <1>   0.0800 
 51 H        7.0250     3.7660     2.2250 H     1 <1>   0.0800 
 52 H        5.5430     5.9020     2.4740 H     1 <1>   0.1500 
 53 H        8.7000     5.5300    -0.4060 H     1 <1>   0.1500 
 54 H        5.6130     8.3300     2.2100 H     1 <1>   0.1500 
 55 H        8.7460     7.9620    -0.6450 H     1 <1>   0.1500 
 56 H        7.2040     9.3630     0.6530 H     1 <1>   0.1500 
@<TRIPOS>BOND
  1   1   2  ar  
  2   1   3  ar  
  3   2   4  1   
  4   2   5  ar  
  5   3   6  ar  
  6   3   7  1   
  7   4   8  1   
  8   4   9  1   
  9   5  10  ar  
 10   5  11  ar  
 11   6  10  ar  
 12   7  28  1   
 13   7  29  1   
 14   7  30  1   
 15   8  12  1   
 16   8  31  1   
 17   8  32  1   
 18   9  33  1   
 19   9  34  1   
 20   9  35  1   
 21  10  13  ar  
 22  11  14  ar  
 23  11  36  1   
 24  12  15  1   
 25  12  16  1   
 26  12  37  1   
 27  13  17  ar  
 28  13  38  1   
 29  14  17  ar  
 30  14  39  1   
 31  15  18  1   
 32  15  40  1   
 33  15  41  1   
 34  16  19  1   
 35  16  42  1   
 36  16  43  1   
 37  17  44  1   
 38  18  20  1   
 39  18  45  1   
 40  18  46  1   
 41  19  20  1   
 42  19  47  1   
 43  19  48  1   
 44  20  21  1   
 45  20  49  1   
 46  21  22  1   
 47  21  50  1   
 48  21  51  1   
 49  22  23  ar  
 50  22  24  ar  
 51  23  25  ar  
 52  23  52  1   
 53  24  26  ar  
 54  24  53  1   
 55  25  27  ar  
 56  25  54  1   
 57  26  27  ar  
 58  26  55  1   
 59  27  56  1   
@<TRIPOS>SUBSTRUCTURE
  1 ****  15 GROUP 4 **** **** 0

# MOE 2024.06 (io_trps.svl 2023.06)
