@<TRIPOS>MOLECULE
NONAME
44 46 1 0 0 
SMALL
USER_CHARGES


@<TRIPOS>ATOM
  1 S        1.6740     0.6500     1.6010 S.3   1 <1>  -0.0800 
  2 C        1.2050     1.3760     0.0700 C.2   1 <1>  -0.1400 
  3 C        1.3670    -0.9630     0.9840 C.2   1 <1>  -0.1100 
  4 C        0.8520     0.4200    -0.8110 C.2   1 <1>  -0.1500 
  5 C        1.2690     2.8950    -0.0260 C.3   1 <1>   0.3800 
  6 C        0.9430    -0.9110    -0.2920 C.2   1 <1>  -0.1500 
  7 O        0.5330     3.3240    -1.1420 O.3   1 <1>  -0.5600 
  8 C        2.7220     3.3790    -0.1650 C.3   1 <1>   0.2090 
  9 C       -0.8430     3.4020    -0.9400 C.3   1 <1>   0.0400 
 10 N        2.8010     4.8540    -0.3750 N.pl3 1 <1>  -0.8690 
 11 C        3.9770     5.5650    -0.3670 C.ar  1 <1>   0.4100 
 12 N        5.0430     4.9210     0.1080 N.ar  1 <1>  -0.6200 
 13 C        4.0120     6.8910    -0.8320 C.ar  1 <1>   0.0860 
 14 C        6.1820     5.5820     0.1040 C.ar  1 <1>   0.1600 
 15 C        2.8130     7.5450    -1.2890 C.2   1 <1>   0.5440 
 16 C        5.2310     7.5540    -0.8250 C.ar  1 <1>  -0.1500 
 17 C        6.3330     6.8810    -0.3470 C.ar  1 <1>  -0.1500 
 18 O        2.2190     7.1250    -2.2660 O.2   1 <1>  -0.5700 
 19 N        2.3170     8.6550    -0.6400 N.am  1 <1>  -0.6600 
 20 C        2.7090     9.0540     0.7300 C.3   1 <1>   0.1400 
 21 C        1.0660     9.3300    -1.0510 C.3   1 <1>   0.1400 
 22 C        1.7580    10.1880     1.0960 C.3   1 <1>  -0.1600 
 23 C        0.5240     9.9550     0.2290 C.3   1 <1>  -0.1600 
 24 H        1.5400    -1.7900     1.6500 H     1 <1>   0.1500 
 25 H        0.5280     0.6030    -1.8210 H     1 <1>   0.1500 
 26 H        0.8440     3.3370     0.8580 H     1 <1>   0.0800 
 27 H        0.6870    -1.7590    -0.9020 H     1 <1>   0.1500 
 28 H        3.1830     2.8760    -0.9960 H     1 <1>   0.0800 
 29 H        3.2650     3.1160     0.7260 H     1 <1>   0.0800 
 30 H       -1.2990     3.7090    -1.8650 H     1 <1>   0.0800 
 31 H       -1.0480     4.1330    -0.1770 H     1 <1>   0.0800 
 32 H       -1.2210     2.4360    -0.6520 H     1 <1>   0.0800 
 33 H        2.0970     5.1810    -1.0580 H     1 <1>   0.4000 
 34 H        7.0470     5.0620     0.4800 H     1 <1>   0.1500 
 35 H        5.3020     8.5650    -1.1860 H     1 <1>   0.1500 
 36 H        7.2990     7.3530    -0.3230 H     1 <1>   0.1500 
 37 H        3.7350     9.3800     0.7600 H     1 <1>   0.0800 
 38 H        2.5720     8.2170     1.3940 H     1 <1>   0.0800 
 39 H        0.3650     8.6300    -1.4760 H     1 <1>   0.0800 
 40 H        1.3010    10.0890    -1.7760 H     1 <1>   0.0800 
 41 H        2.2160    11.1260     0.8350 H     1 <1>   0.0800 
 42 H        1.5270    10.1920     2.1470 H     1 <1>   0.0800 
 43 H       -0.1330     9.2510     0.7080 H     1 <1>   0.0800 
 44 H       -0.0180    10.8630     0.0310 H     1 <1>   0.0800 
@<TRIPOS>BOND
  1   1   2  1   
  2   1   3  1   
  3   2   4  2   
  4   2   5  1   
  5   3   6  2   
  6   3  24  1   
  7   4   6  1   
  8   4  25  1   
  9   5   7  1   
 10   5   8  1   
 11   5  26  1   
 12   6  27  1   
 13   7   9  1   
 14   8  10  1   
 15   8  28  1   
 16   8  29  1   
 17   9  30  1   
 18   9  31  1   
 19   9  32  1   
 20  10  11  1   
 21  10  33  1   
 22  11  12  ar  
 23  11  13  ar  
 24  12  14  ar  
 25  13  15  1   
 26  13  16  ar  
 27  14  17  ar  
 28  14  34  1   
 29  15  18  2   
 30  15  19  am  
 31  16  17  ar  
 32  16  35  1   
 33  17  36  1   
 34  19  20  1   
 35  19  21  1   
 36  20  22  1   
 37  20  37  1   
 38  20  38  1   
 39  21  23  1   
 40  21  39  1   
 41  21  40  1   
 42  22  23  1   
 43  22  41  1   
 44  22  42  1   
 45  23  43  1   
 46  23  44  1   
@<TRIPOS>SUBSTRUCTURE
  1 ****  10 GROUP 4 **** **** 0

# MOE 2024.06 (io_trps.svl 2023.06)
