@<TRIPOS>MOLECULE
NONAME
29 29 1 0 0 
SMALL
USER_CHARGES


@<TRIPOS>ATOM
  1 O       -0.3750     0.6660     0.0870 O.2   1 <1>  -0.5700 
  2 C       -0.1790     1.8450     0.0900 C.2   1 <1>   0.4480 
  3 C        1.1570     2.4360     0.5020 C.3   1 <1>  -0.0990 
  4 C       -1.2670     2.8340    -0.2950 C.3   1 <1>  -0.0990 
  5 C        0.9520     3.8360     1.0980 C.3   1 <1>  -0.1600 
  6 C       -0.6540     4.1140    -0.8840 C.3   1 <1>  -0.1600 
  7 C        0.3500     4.8460     0.0670 C.3   1 <1>  -0.1060 
  8 C        1.4600     5.5180    -0.7950 C.2   1 <1>   0.9060 
  9 C       -0.3970     5.9290     0.8980 C.3   1 <1>  -0.1600 
 10 O        2.6350     5.5130    -0.4120 O.co2 1 <1>  -0.9000 
 11 O        1.1390     6.0640    -1.8600 O.co2 1 <1>  -0.9000 
 12 C       -0.7940     7.1790     0.1030 C.3   1 <1>   0.1200 
 13 O       -1.6340     7.9550     0.9000 O.3   1 <1>  -0.5600 
 14 C       -1.9790     9.1630     0.3080 C.3   1 <1>   0.0400 
 15 H        1.7990     2.5010    -0.3580 H     1 <1>   0.0800 
 16 H        1.6220     1.7910     1.2240 H     1 <1>   0.0800 
 17 H       -1.8460     3.0730     0.5780 H     1 <1>   0.0800 
 18 H       -1.9170     2.3740    -1.0160 H     1 <1>   0.0800 
 19 H        1.8860     4.2050     1.4850 H     1 <1>   0.0800 
 20 H        0.2910     3.7370     1.9420 H     1 <1>   0.0800 
 21 H       -1.4360     4.7790    -1.1990 H     1 <1>   0.0800 
 22 H       -0.1280     3.8270    -1.7800 H     1 <1>   0.0800 
 23 H        0.2470     6.2580     1.6940 H     1 <1>   0.0800 
 24 H       -1.2810     5.4990     1.3340 H     1 <1>   0.0800 
 25 H       -1.3180     6.9210    -0.8000 H     1 <1>   0.0800 
 26 H        0.0830     7.7540    -0.1490 H     1 <1>   0.0800 
 27 H       -2.6280     9.6940     0.9810 H     1 <1>   0.0800 
 28 H       -2.4900     8.9690    -0.6190 H     1 <1>   0.0800 
 29 H       -1.0860     9.7380     0.1330 H     1 <1>   0.0800 
@<TRIPOS>BOND
  1   1   2  2   
  2   2   3  1   
  3   2   4  1   
  4   3   5  1   
  5   3  15  1   
  6   3  16  1   
  7   4   6  1   
  8   4  17  1   
  9   4  18  1   
 10   5   7  1   
 11   5  19  1   
 12   5  20  1   
 13   6   7  1   
 14   6  21  1   
 15   6  22  1   
 16   7   8  1   
 17   7   9  1   
 18   8  10  ar  
 19   8  11  ar  
 20   9  12  1   
 21   9  23  1   
 22   9  24  1   
 23  12  13  1   
 24  12  25  1   
 25  12  26  1   
 26  13  14  1   
 27  14  27  1   
 28  14  28  1   
 29  14  29  1   
@<TRIPOS>SUBSTRUCTURE
  1 ****   7 GROUP 4 **** **** 0

# MOE 2024.06 (io_trps.svl 2023.06)
