@<TRIPOS>MOLECULE
NONAME
49 51 1 0 0 
SMALL
USER_CHARGES


@<TRIPOS>ATOM
  1 F       -1.3710     0.4860    -1.4770 F     1 <1>  -0.3400 
  2 C       -2.1870     0.8530    -0.5010 C.3   1 <1>   1.3000 
  3 F       -1.4740     1.5180     0.3990 F     1 <1>  -0.3400 
  4 F       -2.6600    -0.2490     0.0700 F     1 <1>  -0.3400 
  5 O       -3.2370     1.6470    -1.0190 O.3   1 <1>  -0.3630 
  6 C       -4.1800     2.0730    -0.1540 C.ar  1 <1>   0.0830 
  7 C       -5.3410     1.3350     0.0090 C.ar  1 <1>  -0.1500 
  8 C       -3.9950     3.2530     0.5490 C.ar  1 <1>  -0.1500 
  9 C       -6.3240     1.7700     0.8870 C.ar  1 <1>  -0.1440 
 10 C       -4.9680     3.6830     1.4310 C.ar  1 <1>  -0.1500 
 11 C       -6.1270     2.9440     1.6030 C.ar  1 <1>  -0.1500 
 12 C       -7.6030     0.9730     1.0570 C.3   1 <1>   0.4870 
 13 N       -8.7030     1.6840     0.3530 N.4   1 <1>  -0.9590 
 14 C      -10.0510     1.1170     0.7040 C.3   1 <1>   0.3430 
 15 C       -8.4870     1.7510    -1.1190 C.3   1 <1>   0.3430 
 16 C      -11.1920     1.5850    -0.2330 C.3   1 <1>   0.0000 
 17 C       -9.4700     2.7520    -1.7340 C.3   1 <1>  -0.1600 
 18 C      -12.4850     1.7060     0.6000 C.3   1 <1>   0.2000 
 19 C      -10.7950     2.8950    -0.9580 C.3   1 <1>  -0.1600 
 20 C      -11.5390     0.4600    -1.2260 C.3   1 <1>  -0.1600 
 21 O      -13.4250     2.4310    -0.1310 O.3   1 <1>  -0.5600 
 22 C      -12.9830     0.2640     0.7510 C.3   1 <1>  -0.1600 
 23 C      -12.4610    -0.5040    -0.4700 C.3   1 <1>  -0.1600 
 24 C      -14.4530     3.0110     0.6120 C.3   1 <1>   0.0400 
 25 H       -5.4590     0.4260    -0.5550 H     1 <1>   0.1500 
 26 H       -3.0960     3.8290     0.4100 H     1 <1>   0.1500 
 27 H       -4.8200     4.5950     1.9860 H     1 <1>   0.1500 
 28 H       -6.8650     3.2990     2.3030 H     1 <1>   0.1500 
 29 H       -7.8280     0.8890     2.1080 H     1 <1>   0.0800 
 30 H       -7.4790    -0.0180     0.6530 H     1 <1>   0.0800 
 31 H       -8.6770     2.6600     0.6710 H     1 <1>   0.4500 
 32 H      -10.0120     0.0400     0.6760 H     1 <1>   0.0800 
 33 H      -10.2920     1.4040     1.7140 H     1 <1>   0.0800 
 34 H       -7.4780     2.0610    -1.3450 H     1 <1>   0.0800 
 35 H       -8.6460     0.7760    -1.5510 H     1 <1>   0.0800 
 36 H       -8.9990     3.7170    -1.8090 H     1 <1>   0.0800 
 37 H       -9.6800     2.4320    -2.7400 H     1 <1>   0.0800 
 38 H      -12.3220     2.1990     1.5440 H     1 <1>   0.0800 
 39 H      -11.5700     3.2030    -1.6410 H     1 <1>   0.0800 
 40 H      -10.6970     3.6780    -0.2270 H     1 <1>   0.0800 
 41 H      -12.0980     0.8770    -2.0480 H     1 <1>   0.0800 
 42 H      -10.6800    -0.0470    -1.6270 H     1 <1>   0.0800 
 43 H      -12.5680    -0.1670     1.6450 H     1 <1>   0.0800 
 44 H      -14.0560     0.2100     0.8190 H     1 <1>   0.0800 
 45 H      -11.9280    -1.3860    -0.1580 H     1 <1>   0.0800 
 46 H      -13.2790    -0.8050    -1.1050 H     1 <1>   0.0800 
 47 H      -15.1140     3.5150    -0.0710 H     1 <1>   0.0800 
 48 H      -14.0350     3.7250     1.3010 H     1 <1>   0.0800 
 49 H      -14.9970     2.2480     1.1400 H     1 <1>   0.0800 
@<TRIPOS>BOND
  1   1   2  1   
  2   2   3  1   
  3   2   4  1   
  4   2   5  1   
  5   5   6  1   
  6   6   7  ar  
  7   6   8  ar  
  8   7   9  ar  
  9   7  25  1   
 10   8  10  ar  
 11   8  26  1   
 12   9  11  ar  
 13   9  12  1   
 14  10  11  ar  
 15  10  27  1   
 16  11  28  1   
 17  12  13  1   
 18  12  29  1   
 19  12  30  1   
 20  13  14  1   
 21  13  15  1   
 22  13  31  1   
 23  14  16  1   
 24  14  32  1   
 25  14  33  1   
 26  15  17  1   
 27  15  34  1   
 28  15  35  1   
 29  16  18  1   
 30  16  19  1   
 31  16  20  1   
 32  17  19  1   
 33  17  36  1   
 34  17  37  1   
 35  18  21  1   
 36  18  22  1   
 37  18  38  1   
 38  19  39  1   
 39  19  40  1   
 40  20  23  1   
 41  20  41  1   
 42  20  42  1   
 43  21  24  1   
 44  22  23  1   
 45  22  43  1   
 46  22  44  1   
 47  23  45  1   
 48  23  46  1   
 49  24  47  1   
 50  24  48  1   
 51  24  49  1   
@<TRIPOS>SUBSTRUCTURE
  1 ****  13 GROUP 4 **** **** 0

# MOE 2024.06 (io_trps.svl 2023.06)
