@<TRIPOS>MOLECULE
NONAME
48 50 1 0 0 
SMALL
USER_CHARGES


@<TRIPOS>ATOM
  1 S       -0.5800    -0.7570    -1.8230 S.o2  1 <1>   1.4550 
  2 O       -1.2240    -2.0120    -2.1530 O.2   1 <1>  -0.6500 
  3 O       -0.2500     0.1240    -2.9220 O.2   1 <1>  -0.6500 
  4 N       -1.6070     0.0590    -0.7380 N.am  1 <1>  -0.8490 
  5 C        0.8590    -1.1640    -0.8500 C.2   1 <1>  -0.0030 
  6 C       -2.9010    -0.6010    -0.5350 C.3   1 <1>   0.1960 
  7 C       -1.7600     1.4820    -1.0620 C.3   1 <1>   0.1960 
  8 C        1.6680    -0.0910    -0.3900 C.2   1 <1>   0.6160 
  9 C        1.1920    -2.4370    -0.5300 C.2   1 <1>  -0.0410 
 10 C       -3.6680     0.0740     0.6020 C.3   1 <1>  -0.1600 
 11 C       -2.4720     2.2110     0.0750 C.3   1 <1>  -0.1600 
 12 O        1.4090     1.0740    -0.6300 O.2   1 <1>  -0.5700 
 13 N        2.7960    -0.3750     0.3700 N.am  1 <1>  -0.4200 
 14 N        2.3080    -2.7080     0.2410 N.am  1 <1>  -0.4690 
 15 C       -3.8310     1.5770     0.3820 C.3   1 <1>   0.4180 
 16 C        3.1080    -1.6780     0.7150 C.2   1 <1>   0.6900 
 17 C        3.6610     0.7420     0.8570 C.3   1 <1>   0.0600 
 18 C        2.6530    -4.1140     0.5810 C.3   1 <1>   0.0600 
 19 O       -4.3010     2.0840     1.6040 O.3   1 <1>  -0.5600 
 20 C       -4.8490     1.8570    -0.7270 C.2   1 <1>  -0.2880 
 21 O        4.0660    -1.9240     1.4250 O.2   1 <1>  -0.5700 
 22 C       -4.8880     3.3540     1.5900 C.3   1 <1>   0.1200 
 23 C       -5.9190     2.6420    -0.5780 C.2   1 <1>  -0.2760 
 24 C       -6.1680     3.3440     0.7440 C.3   1 <1>  -0.0220 
 25 C       -6.9550     2.8990    -1.6580 C.3   1 <1>  -0.1020 
 26 H       -2.7460    -1.6330    -0.2670 H     1 <1>   0.0800 
 27 H       -3.4720    -0.5770    -1.4480 H     1 <1>   0.0800 
 28 H       -2.3090     1.5920    -1.9830 H     1 <1>   0.0800 
 29 H       -0.7940     1.9370    -1.2040 H     1 <1>   0.0800 
 30 H        0.6010    -3.2770    -0.8620 H     1 <1>   0.1500 
 31 H       -3.1290    -0.0930     1.5170 H     1 <1>   0.0800 
 32 H       -4.6390    -0.3780     0.6960 H     1 <1>   0.0800 
 33 H       -2.6020     3.2390    -0.2060 H     1 <1>   0.0800 
 34 H       -1.8490     2.1700     0.9500 H     1 <1>   0.0800 
 35 H        3.7060     1.5280     0.1220 H     1 <1>   0.0800 
 36 H        4.6640     0.3960     1.0390 H     1 <1>   0.0800 
 37 H        3.2540     1.1380     1.7700 H     1 <1>   0.0800 
 38 H        1.9680    -4.8000     0.1130 H     1 <1>   0.0800 
 39 H        2.6110    -4.2470     1.6480 H     1 <1>   0.0800 
 40 H        3.6520    -4.3310     0.2440 H     1 <1>   0.0800 
 41 H       -4.6280     1.3550    -1.6500 H     1 <1>   0.1500 
 42 H       -4.1780     4.0580     1.1950 H     1 <1>   0.0800 
 43 H       -5.1130     3.6240     2.6060 H     1 <1>   0.0800 
 44 H       -6.4750     4.3600     0.5760 H     1 <1>   0.0800 
 45 H       -6.9520     2.8400     1.2810 H     1 <1>   0.0800 
 46 H       -7.9250     2.5820    -1.3210 H     1 <1>   0.0800 
 47 H       -6.7100     2.3540    -2.5520 H     1 <1>   0.0800 
 48 H       -6.9920     3.9460    -1.8960 H     1 <1>   0.0800 
@<TRIPOS>BOND
  1   1   2  2   
  2   1   3  2   
  3   1   4  am  
  4   1   5  1   
  5   4   6  1   
  6   4   7  1   
  7   5   8  1   
  8   5   9  2   
  9   6  10  1   
 10   6  26  1   
 11   6  27  1   
 12   7  11  1   
 13   7  28  1   
 14   7  29  1   
 15   8  12  2   
 16   8  13  am  
 17   9  14  1   
 18   9  30  1   
 19  10  15  1   
 20  10  31  1   
 21  10  32  1   
 22  11  15  1   
 23  11  33  1   
 24  11  34  1   
 25  13  16  am  
 26  13  17  1   
 27  14  16  am  
 28  14  18  1   
 29  15  19  1   
 30  15  20  1   
 31  16  21  2   
 32  17  35  1   
 33  17  36  1   
 34  17  37  1   
 35  18  38  1   
 36  18  39  1   
 37  18  40  1   
 38  19  22  1   
 39  20  23  2   
 40  20  41  1   
 41  22  24  1   
 42  22  42  1   
 43  22  43  1   
 44  23  24  1   
 45  23  25  1   
 46  24  44  1   
 47  24  45  1   
 48  25  46  1   
 49  25  47  1   
 50  25  48  1   
@<TRIPOS>SUBSTRUCTURE
  1 ****   4 GROUP 4 **** **** 0

# MOE 2024.06 (io_trps.svl 2023.06)
