@<TRIPOS>MOLECULE
NONAME
60 62 1 0 0 
SMALL
USER_CHARGES


@<TRIPOS>ATOM
  1 O       -2.1680     5.0850    -1.9050 O.2   1 <1>  -0.5700 
  2 C       -1.7940     4.4450    -0.9480 C.2   1 <1>   0.5690 
  3 N       -2.6460     3.5840    -0.2880 N.am  1 <1>  -0.6600 
  4 C       -0.3430     4.6650    -0.5170 C.3   1 <1>   0.0440 
  5 C       -4.0100     3.3280    -0.8410 C.3   1 <1>   0.2200 
  6 C       -2.2280     2.8240     0.9300 C.3   1 <1>   0.0600 
  7 C        0.5060     3.3980    -0.2970 C.ar  1 <1>  -0.1440 
  8 C       -5.1260     3.8490     0.0610 C.3   1 <1>  -0.1600 
  9 C       -4.3330     1.8490    -1.0530 C.3   1 <1>  -0.1600 
 10 C        1.2110     3.2090     0.8960 C.ar  1 <1>  -0.1430 
 11 C        0.5850     2.4210    -1.2920 C.ar  1 <1>  -0.1430 
 12 C       -6.3680     3.0640    -0.3830 C.3   1 <1>  -0.0800 
 13 C       -5.8670     1.8050    -1.1020 C.3   1 <1>  -0.0800 
 14 C        1.9340     2.0430     1.0920 C.ar  1 <1>  -0.1500 
 15 C        1.2470     4.2440     2.0160 C.3   1 <1>  -0.0970 
 16 C        1.3130     1.2640    -1.0680 C.ar  1 <1>  -0.1500 
 17 C       -0.0950     2.5570    -2.6500 C.3   1 <1>  -0.0970 
 18 C       -7.2720     2.5630     0.7520 C.3   1 <1>  -0.1600 
 19 C       -6.5170     0.6190    -0.3750 C.3   1 <1>  -0.1600 
 20 C        1.9840     1.0630     0.1210 C.ar  1 <1>  -0.1430 
 21 C       -7.7730     1.1890     0.2930 C.3   1 <1>   0.4230 
 22 C        2.7780    -0.2110     0.3500 C.3   1 <1>  -0.0970 
 23 N       -8.8840     1.3330    -0.7030 N.4   1 <1>  -0.9590 
 24 C      -10.0860     2.0270    -0.1360 C.3   1 <1>   0.2630 
 25 C       -9.3210     0.0190    -1.2750 C.3   1 <1>   0.2630 
 26 H        0.1440     5.2540    -1.2720 H     1 <1>   0.0800 
 27 H       -0.3840     5.2790     0.3580 H     1 <1>   0.0800 
 28 H       -4.1170     3.8130    -1.7970 H     1 <1>   0.0800 
 29 H       -3.0800     2.4930     1.4940 H     1 <1>   0.0800 
 30 H       -1.6300     3.4470     1.5680 H     1 <1>   0.0800 
 31 H       -1.6480     1.9650     0.6380 H     1 <1>   0.0800 
 32 H       -4.8960     3.6530     1.0910 H     1 <1>   0.0800 
 33 H       -5.2580     4.9080    -0.0750 H     1 <1>   0.0800 
 34 H       -3.8970     1.4910    -1.9690 H     1 <1>   0.0800 
 35 H       -3.9680     1.2580    -0.2350 H     1 <1>   0.0800 
 36 H       -6.9360     3.6600    -1.0790 H     1 <1>   0.0800 
 37 H       -6.1910     1.8400    -2.1300 H     1 <1>   0.0800 
 38 H        2.4720     1.8920     2.0110 H     1 <1>   0.1500 
 39 H        1.9200     3.9440     2.7990 H     1 <1>   0.0800 
 40 H        0.2710     4.3690     2.4470 H     1 <1>   0.0800 
 41 H        1.5910     5.1870     1.6330 H     1 <1>   0.0800 
 42 H        1.3640     0.5070    -1.8310 H     1 <1>   0.1500 
 43 H        0.3520     1.8960    -3.3700 H     1 <1>   0.0800 
 44 H       -0.0010     3.5580    -3.0280 H     1 <1>   0.0800 
 45 H       -1.1380     2.3080    -2.5670 H     1 <1>   0.0800 
 46 H       -8.0400     3.2680     1.0060 H     1 <1>   0.0800 
 47 H       -6.6790     2.4060     1.6370 H     1 <1>   0.0800 
 48 H       -5.8650     0.2810     0.4130 H     1 <1>   0.0800 
 49 H       -6.6870    -0.2170    -1.0260 H     1 <1>   0.0800 
 50 H       -8.0880     0.5830     1.1280 H     1 <1>   0.0800 
 51 H        2.8190    -0.4460     1.3980 H     1 <1>   0.0800 
 52 H        3.7800    -0.0840    -0.0180 H     1 <1>   0.0800 
 53 H        2.3190    -1.0360    -0.1640 H     1 <1>   0.0800 
 54 H       -8.5050     1.9110    -1.4670 H     1 <1>   0.4500 
 55 H      -10.4500     1.4980     0.7300 H     1 <1>   0.0800 
 56 H      -10.8730     2.0680    -0.8710 H     1 <1>   0.0800 
 57 H       -9.8440     3.0360     0.1510 H     1 <1>   0.0800 
 58 H       -9.6370    -0.6460    -0.4880 H     1 <1>   0.0800 
 59 H       -8.5180    -0.4480    -1.8200 H     1 <1>   0.0800 
 60 H      -10.1460     0.1640    -1.9540 H     1 <1>   0.0800 
@<TRIPOS>BOND
  1   1   2  2   
  2   2   3  am  
  3   2   4  1   
  4   3   5  1   
  5   3   6  1   
  6   4   7  1   
  7   4  26  1   
  8   4  27  1   
  9   5   8  1   
 10   5   9  1   
 11   5  28  1   
 12   6  29  1   
 13   6  30  1   
 14   6  31  1   
 15   7  10  ar  
 16   7  11  ar  
 17   8  12  1   
 18   8  32  1   
 19   8  33  1   
 20   9  13  1   
 21   9  34  1   
 22   9  35  1   
 23  10  14  ar  
 24  10  15  1   
 25  11  16  ar  
 26  11  17  1   
 27  12  13  1   
 28  12  18  1   
 29  12  36  1   
 30  13  19  1   
 31  13  37  1   
 32  14  20  ar  
 33  14  38  1   
 34  15  39  1   
 35  15  40  1   
 36  15  41  1   
 37  16  20  ar  
 38  16  42  1   
 39  17  43  1   
 40  17  44  1   
 41  17  45  1   
 42  18  21  1   
 43  18  46  1   
 44  18  47  1   
 45  19  21  1   
 46  19  48  1   
 47  19  49  1   
 48  20  22  1   
 49  21  23  1   
 50  21  50  1   
 51  22  51  1   
 52  22  52  1   
 53  22  53  1   
 54  23  24  1   
 55  23  25  1   
 56  23  54  1   
 57  24  55  1   
 58  24  56  1   
 59  24  57  1   
 60  25  58  1   
 61  25  59  1   
 62  25  60  1   
@<TRIPOS>SUBSTRUCTURE
  1 ****   3 GROUP 4 **** **** 0

# MOE 2024.06 (io_trps.svl 2023.06)
