@<TRIPOS>MOLECULE
NONAME
57 59 1 0 0 
SMALL
USER_CHARGES


@<TRIPOS>ATOM
  1 S       -0.5100     0.5500     1.3370 S.o2  1 <1>   1.4470 
  2 O       -0.3080    -0.7760     1.8910 O.2   1 <1>  -0.6500 
  3 O       -1.0420     1.5870     2.1910 O.2   1 <1>  -0.6500 
  4 N       -1.6050     0.3210     0.0510 N.am  1 <1>  -0.8490 
  5 C        1.0120     1.1050     0.5060 C.ar  1 <1>  -0.0090 
  6 C       -1.4380    -0.9450    -0.6780 C.3   1 <1>   0.1960 
  7 C       -3.0100     0.6210     0.3630 C.3   1 <1>   0.1960 
  8 C        1.0790     2.2480    -0.2970 C.ar  1 <1>  -0.1440 
  9 C        2.1690     0.3490     0.6580 C.ar  1 <1>  -0.1500 
 10 C       -2.1030    -2.1570     0.0420 C.3   1 <1>   0.4230 
 11 C       -3.6540    -0.5310     1.1450 C.3   1 <1>  -0.1600 
 12 C        2.2630     2.5820    -0.9370 C.ar  1 <1>  -0.1500 
 13 C       -0.1220     3.1650    -0.4990 C.3   1 <1>  -0.0960 
 14 C        3.3580     0.6870     0.0230 C.ar  1 <1>   0.0830 
 15 N       -1.8610    -3.5020    -0.6340 N.4   1 <1>  -0.9590 
 16 C       -3.5940    -1.8860     0.3870 C.3   1 <1>   0.0000 
 17 C        3.4010     1.8110    -0.7900 C.ar  1 <1>  -0.1430 
 18 O        4.4950    -0.0420     0.1620 O.3   1 <1>  -0.3630 
 19 C       -2.8020    -4.5830    -0.1910 C.3   1 <1>   0.3430 
 20 C       -1.7800    -3.4760    -2.1320 C.3   1 <1>   0.2630 
 21 C       -4.1140    -3.0120     1.3270 C.3   1 <1>  -0.1600 
 22 C       -4.4470    -1.8260    -0.9130 C.3   1 <1>   0.1200 
 23 C        4.6850     2.2030    -1.5070 C.3   1 <1>  -0.0970 
 24 C        4.6670    -0.9500     1.2270 C.3   1 <1>   0.0400 
 25 C       -3.3110    -4.3230     1.2270 C.3   1 <1>  -0.1600 
 26 O       -5.7210    -1.3440    -0.6680 O.3   1 <1>  -0.6800 
 27 H       -1.8690    -0.8170    -1.6540 H     1 <1>   0.0800 
 28 H       -0.3860    -1.1370    -0.8060 H     1 <1>   0.0800 
 29 H       -3.0840     1.5370     0.9280 H     1 <1>   0.0800 
 30 H       -3.5510     0.7830    -0.5550 H     1 <1>   0.0800 
 31 H        2.1320    -0.5210     1.2850 H     1 <1>   0.1500 
 32 H       -1.6180    -2.2300     0.9990 H     1 <1>   0.0800 
 33 H       -3.1530    -0.6100     2.0950 H     1 <1>   0.0800 
 34 H       -4.6740    -0.2660     1.3650 H     1 <1>   0.0800 
 35 H        2.3030     3.4590    -1.5590 H     1 <1>   0.1500 
 36 H        0.1630     4.0650    -1.0150 H     1 <1>   0.0800 
 37 H       -0.5420     3.4550     0.4470 H     1 <1>   0.0800 
 38 H       -0.8770     2.6730    -1.0840 H     1 <1>   0.0800 
 39 H       -0.9320    -3.7900    -0.2900 H     1 <1>   0.4500 
 40 H       -3.6500    -4.6240    -0.8550 H     1 <1>   0.0800 
 41 H       -2.3050    -5.5400    -0.2300 H     1 <1>   0.0800 
 42 H       -2.7140    -3.1440    -2.5560 H     1 <1>   0.0800 
 43 H       -1.5650    -4.4620    -2.5110 H     1 <1>   0.0800 
 44 H       -0.9960    -2.8120    -2.4590 H     1 <1>   0.0800 
 45 H       -4.0770    -2.6920     2.3560 H     1 <1>   0.0800 
 46 H       -5.1500    -3.2170     1.1180 H     1 <1>   0.0800 
 47 H       -4.5530    -2.7970    -1.3620 H     1 <1>   0.0800 
 48 H       -4.0100    -1.1640    -1.6400 H     1 <1>   0.0800 
 49 H        4.5450     3.0820    -2.1090 H     1 <1>   0.0800 
 50 H        5.0070     1.3980    -2.1440 H     1 <1>   0.0800 
 51 H        5.4580     2.3990    -0.7860 H     1 <1>   0.0800 
 52 H        5.6890    -1.2830     1.2200 H     1 <1>   0.0800 
 53 H        4.0110    -1.7890     1.0830 H     1 <1>   0.0800 
 54 H        4.4540    -0.4460     2.1540 H     1 <1>   0.0800 
 55 H       -3.9360    -5.1430     1.5360 H     1 <1>   0.0800 
 56 H       -2.4720    -4.2950     1.9020 H     1 <1>   0.0800 
 57 H       -6.2250    -1.9180    -0.0580 H     1 <1>   0.4000 
@<TRIPOS>BOND
  1   1   2  2   
  2   1   3  2   
  3   1   4  am  
  4   1   5  1   
  5   4   6  1   
  6   4   7  1   
  7   5   8  ar  
  8   5   9  ar  
  9   6  10  1   
 10   6  27  1   
 11   6  28  1   
 12   7  11  1   
 13   7  29  1   
 14   7  30  1   
 15   8  12  ar  
 16   8  13  1   
 17   9  14  ar  
 18   9  31  1   
 19  10  15  1   
 20  10  16  1   
 21  10  32  1   
 22  11  16  1   
 23  11  33  1   
 24  11  34  1   
 25  12  17  ar  
 26  12  35  1   
 27  13  36  1   
 28  13  37  1   
 29  13  38  1   
 30  14  17  ar  
 31  14  18  1   
 32  15  19  1   
 33  15  20  1   
 34  15  39  1   
 35  16  21  1   
 36  16  22  1   
 37  17  23  1   
 38  18  24  1   
 39  19  25  1   
 40  19  40  1   
 41  19  41  1   
 42  20  42  1   
 43  20  43  1   
 44  20  44  1   
 45  21  25  1   
 46  21  45  1   
 47  21  46  1   
 48  22  26  1   
 49  22  47  1   
 50  22  48  1   
 51  23  49  1   
 52  23  50  1   
 53  23  51  1   
 54  24  52  1   
 55  24  53  1   
 56  24  54  1   
 57  25  55  1   
 58  25  56  1   
 59  26  57  1   
@<TRIPOS>SUBSTRUCTURE
  1 ****   6 GROUP 4 **** **** 0

# MOE 2024.06 (io_trps.svl 2023.06)
