@<TRIPOS>MOLECULE
NONAME
51 53 1 0 0 
SMALL
USER_CHARGES


@<TRIPOS>ATOM
  1 S       -0.3420    -0.6620    -0.6870 S.o2  1 <1>   1.4470 
  2 O       -0.2480    -0.0550    -1.9990 O.2   1 <1>  -0.6500 
  3 O       -1.1620    -1.8510    -0.5610 O.2   1 <1>  -0.6500 
  4 N       -0.9610     0.4910     0.4000 N.am  1 <1>  -0.8490 
  5 C        1.2840    -1.0610     0.0200 C.ar  1 <1>  -0.0090 
  6 C       -2.3310     0.3010     0.9190 C.3   1 <1>   0.1960 
  7 C       -0.6160     1.8890     0.1430 C.3   1 <1>   0.1960 
  8 C        2.4350    -0.3270    -0.2670 C.ar  1 <1>   0.0830 
  9 C        1.4030    -2.1270     0.9060 C.ar  1 <1>  -0.1500 
 10 C       -3.4430     0.9840     0.0700 C.3   1 <1>   0.0000 
 11 C       -1.6500     2.5750    -0.7590 C.3   1 <1>  -0.1600 
 12 O        2.3330     0.7270    -1.1130 O.3   1 <1>  -0.3630 
 13 C        3.6560    -0.6710     0.3100 C.ar  1 <1>  -0.1500 
 14 C        2.6150    -2.4690     1.4780 C.ar  1 <1>  -0.1500 
 15 C       -4.8120     0.8700     0.7680 C.3   1 <1>   0.2000 
 16 C       -3.0670     2.4580    -0.1810 C.3   1 <1>  -0.1600 
 17 C       -3.7290     0.2300    -1.2410 C.3   1 <1>  -0.1600 
 18 C        3.4470     1.2300    -1.8170 C.3   1 <1>   0.0400 
 19 C        3.7520    -1.7420     1.1790 C.ar  1 <1>  -0.1430 
 20 O       -4.7140     1.0660     2.1480 O.3   1 <1>  -0.5600 
 21 C       -5.3310    -0.5350     0.4410 C.3   1 <1>  -0.1600 
 22 C       -4.6120    -0.9570    -0.8470 C.3   1 <1>  -0.1600 
 23 C        5.0820    -2.1160     1.8090 C.3   1 <1>  -0.0970 
 24 C       -5.9260     1.2880     2.7980 C.3   1 <1>   0.0400 
 25 H       -2.5460    -0.7440     1.0510 H     1 <1>   0.0800 
 26 H       -2.3480     0.7370     1.9030 H     1 <1>   0.0800 
 27 H       -0.5790     2.4070     1.0850 H     1 <1>   0.0800 
 28 H        0.3600     1.9570    -0.3030 H     1 <1>   0.0800 
 29 H        0.5280    -2.7040     1.1540 H     1 <1>   0.1500 
 30 H       -1.3890     3.6140    -0.8580 H     1 <1>   0.0800 
 31 H       -1.6120     2.1410    -1.7430 H     1 <1>   0.0800 
 32 H        4.5420    -0.1040     0.0970 H     1 <1>   0.1500 
 33 H        2.6660    -3.3030     2.1570 H     1 <1>   0.1500 
 34 H       -5.4780     1.6100     0.3560 H     1 <1>   0.0800 
 35 H       -3.7720     2.9200    -0.8480 H     1 <1>   0.0800 
 36 H       -3.1040     2.9890     0.7550 H     1 <1>   0.0800 
 37 H       -4.2900     0.8650    -1.9050 H     1 <1>   0.0800 
 38 H       -2.8480    -0.0860    -1.7630 H     1 <1>   0.0800 
 39 H        3.0870     1.9180    -2.5600 H     1 <1>   0.0800 
 40 H        3.9580     0.4120    -2.2940 H     1 <1>   0.0800 
 41 H        4.0950     1.7430    -1.1280 H     1 <1>   0.0800 
 42 H       -5.0800    -1.2200     1.2320 H     1 <1>   0.0800 
 43 H       -6.3960    -0.5190     0.2970 H     1 <1>   0.0800 
 44 H       -3.9940    -1.8180    -0.6520 H     1 <1>   0.0800 
 45 H       -5.3060    -1.2000    -1.6320 H     1 <1>   0.0800 
 46 H        5.1670    -3.1850     1.8950 H     1 <1>   0.0800 
 47 H        5.1550    -1.6820     2.7890 H     1 <1>   0.0800 
 48 H        5.9010    -1.7590     1.2090 H     1 <1>   0.0800 
 49 H       -5.7200     1.4450     3.8420 H     1 <1>   0.0800 
 50 H       -6.5600     0.4270     2.6810 H     1 <1>   0.0800 
 51 H       -6.3950     2.1650     2.3860 H     1 <1>   0.0800 
@<TRIPOS>BOND
  1   1   2  2   
  2   1   3  2   
  3   1   4  am  
  4   1   5  1   
  5   4   6  1   
  6   4   7  1   
  7   5   8  ar  
  8   5   9  ar  
  9   6  10  1   
 10   6  25  1   
 11   6  26  1   
 12   7  11  1   
 13   7  27  1   
 14   7  28  1   
 15   8  12  1   
 16   8  13  ar  
 17   9  14  ar  
 18   9  29  1   
 19  10  15  1   
 20  10  16  1   
 21  10  17  1   
 22  11  16  1   
 23  11  30  1   
 24  11  31  1   
 25  12  18  1   
 26  13  19  ar  
 27  13  32  1   
 28  14  19  ar  
 29  14  33  1   
 30  15  20  1   
 31  15  21  1   
 32  15  34  1   
 33  16  35  1   
 34  16  36  1   
 35  17  22  1   
 36  17  37  1   
 37  17  38  1   
 38  18  39  1   
 39  18  40  1   
 40  18  41  1   
 41  19  23  1   
 42  20  24  1   
 43  21  22  1   
 44  21  42  1   
 45  21  43  1   
 46  22  44  1   
 47  22  45  1   
 48  23  46  1   
 49  23  47  1   
 50  23  48  1   
 51  24  49  1   
 52  24  50  1   
 53  24  51  1   
@<TRIPOS>SUBSTRUCTURE
  1 ****   4 GROUP 4 **** **** 0

# MOE 2024.06 (io_trps.svl 2023.06)
