@<TRIPOS>MOLECULE
NONAME
39 41 1 0 0 
SMALL
USER_CHARGES


@<TRIPOS>ATOM
  1 O       -0.4010     0.0920     0.2230 O.2   1 <1>  -0.5700 
  2 C       -1.4590     0.6500     0.0440 C.2   1 <1>   0.5690 
  3 N       -2.5880    -0.0440    -0.3020 N.am  1 <1>  -0.6600 
  4 C       -1.5030     2.1700     0.2240 C.3   1 <1>   0.1810 
  5 C       -3.9570     0.5250    -0.3830 C.3   1 <1>   0.1400 
  6 C       -2.6270    -1.5200    -0.4270 C.3   1 <1>   0.1400 
  7 O       -2.1180     2.5420     1.4250 O.3   1 <1>  -0.6800 
  8 C       -4.8830    -0.6820    -0.5470 C.3   1 <1>   0.2000 
  9 C       -4.0720    -1.8980    -0.1010 C.3   1 <1>  -0.0800 
 10 O       -6.0200    -0.5610     0.2370 O.3   1 <1>  -0.6800 
 11 C       -4.5400    -3.2020    -0.7680 C.3   1 <1>  -0.0170 
 12 C       -3.6950    -4.3830    -0.3250 C.ar  1 <1>   0.1670 
 13 N       -2.6290    -4.6480    -1.0170 N.ar  1 <1>  -0.6200 
 14 C       -4.0930    -5.1190     0.8020 C.ar  1 <1>  -0.1500 
 15 C       -1.8590    -5.6920    -0.6180 C.ar  1 <1>   0.3100 
 16 C       -3.3420    -6.1740     1.2230 C.ar  1 <1>  -0.1500 
 17 C       -2.1770    -6.4890     0.5040 C.ar  1 <1>   0.0000 
 18 C       -0.6960    -5.9940    -1.3440 C.ar  1 <1>  -0.1500 
 19 C       -1.3220    -7.5540     0.8520 C.ar  1 <1>  -0.1500 
 20 C        0.1220    -7.0340    -0.9890 C.ar  1 <1>  -0.1500 
 21 C       -0.1960    -7.8220     0.1220 C.ar  1 <1>  -0.1500 
 22 H       -2.0460     2.6230    -0.5850 H     1 <1>   0.0800 
 23 H       -0.5000     2.5600     0.2290 H     1 <1>   0.0800 
 24 H       -4.1790     1.0640     0.5220 H     1 <1>   0.0800 
 25 H       -4.0370     1.1800    -1.2330 H     1 <1>   0.0800 
 26 H       -2.3750    -1.7930    -1.4380 H     1 <1>   0.0800 
 27 H       -1.9310    -1.9910     0.2480 H     1 <1>   0.0800 
 28 H       -1.6510     2.1170     2.1740 H     1 <1>   0.4000 
 29 H       -5.1890    -0.7700    -1.5760 H     1 <1>   0.0800 
 30 H       -4.1360    -2.0010     0.9680 H     1 <1>   0.0800 
 31 H       -5.7730    -0.4550     1.1760 H     1 <1>   0.4000 
 32 H       -4.4770    -3.1100    -1.8380 H     1 <1>   0.0800 
 33 H       -5.5710    -3.3830    -0.5190 H     1 <1>   0.0800 
 34 H       -4.9910    -4.8400     1.3230 H     1 <1>   0.1500 
 35 H       -3.6140    -6.7620     2.0810 H     1 <1>   0.1500 
 36 H       -0.4690    -5.3760    -2.1920 H     1 <1>   0.1500 
 37 H       -1.5720    -8.1560     1.7070 H     1 <1>   0.1500 
 38 H        1.0110    -7.2540    -1.5550 H     1 <1>   0.1500 
 39 H        0.4560    -8.6360     0.3900 H     1 <1>   0.1500 
@<TRIPOS>BOND
  1   1   2  2   
  2   2   3  am  
  3   2   4  1   
  4   3   5  1   
  5   3   6  1   
  6   4   7  1   
  7   4  22  1   
  8   4  23  1   
  9   5   8  1   
 10   5  24  1   
 11   5  25  1   
 12   6   9  1   
 13   6  26  1   
 14   6  27  1   
 15   7  28  1   
 16   8   9  1   
 17   8  10  1   
 18   8  29  1   
 19   9  11  1   
 20   9  30  1   
 21  10  31  1   
 22  11  12  1   
 23  11  32  1   
 24  11  33  1   
 25  12  13  ar  
 26  12  14  ar  
 27  13  15  ar  
 28  14  16  ar  
 29  14  34  1   
 30  15  17  ar  
 31  15  18  ar  
 32  16  17  ar  
 33  16  35  1   
 34  17  19  ar  
 35  18  20  ar  
 36  18  36  1   
 37  19  21  ar  
 38  19  37  1   
 39  20  21  ar  
 40  20  38  1   
 41  21  39  1   
@<TRIPOS>SUBSTRUCTURE
  1 ****   6 GROUP 4 **** **** 0

# MOE 2024.06 (io_trps.svl 2023.06)
