@<TRIPOS>MOLECULE
NONAME
48 51 1 0 0 
SMALL
USER_CHARGES


@<TRIPOS>ATOM
  1 S       -0.9020     1.1710    -1.8230 S.3   1 <1>  -0.0800 
  2 C       -0.2930     2.2750    -0.6090 C.2   1 <1>  -0.1400 
  3 C        0.5820     1.3410    -2.7490 C.2   1 <1>  -0.1100 
  4 C        0.9390     2.7110    -0.9010 C.2   1 <1>  -0.1810 
  5 C       -1.0920     2.6680     0.6040 C.3   1 <1>   0.0200 
  6 C        1.4410     2.1790    -2.1360 C.2   1 <1>  -0.1500 
  7 C        1.6750     3.6750     0.0330 C.3   1 <1>   0.4610 
  8 C       -0.4520     3.9420     1.1780 C.3   1 <1>   0.1200 
  9 O        0.9500     3.8240     1.2410 O.3   1 <1>  -0.5600 
 10 C        3.0400     3.1010     0.4270 C.3   1 <1>  -0.1600 
 11 C        1.8480     5.0540    -0.6220 C.3   1 <1>  -0.1600 
 12 C        3.8320     4.0740     1.3020 C.3   1 <1>   0.1400 
 13 C        2.6490     6.0060     0.2680 C.3   1 <1>   0.1400 
 14 N        3.9590     5.3800     0.5960 N.am  1 <1>  -0.6600 
 15 C        5.1900     5.9560     0.3670 C.2   1 <1>   0.5690 
 16 O        6.2150     5.3750     0.6450 O.2   1 <1>  -0.5700 
 17 C        5.3340     7.3320    -0.2940 C.3   1 <1>   0.1810 
 18 O        4.6830     8.3540     0.4280 O.3   1 <1>  -0.5600 
 19 C        4.7800     9.6280    -0.1340 C.3   1 <1>   0.2630 
 20 C        6.2220    10.1210    -0.1330 C.ar  1 <1>  -0.1430 
 21 C        6.9890    10.0400     1.0200 C.ar  1 <1>  -0.1500 
 22 C        6.7830    10.6560    -1.2830 C.ar  1 <1>  -0.1500 
 23 C        8.2990    10.4850     1.0240 C.ar  1 <1>  -0.1500 
 24 C        8.0940    11.1020    -1.2810 C.ar  1 <1>  -0.1500 
 25 C        8.8530    11.0160    -0.1270 C.ar  1 <1>  -0.1500 
 26 H        0.6550     0.7880    -3.6680 H     1 <1>   0.1500 
 27 H       -1.0670     1.8770     1.3320 H     1 <1>   0.0800 
 28 H       -2.1140     2.8620     0.3350 H     1 <1>   0.0800 
 29 H        2.4160     2.4450    -2.5050 H     1 <1>   0.1500 
 30 H       -0.8120     4.1210     2.1760 H     1 <1>   0.0800 
 31 H       -0.6960     4.7920     0.5670 H     1 <1>   0.0800 
 32 H        3.6190     2.8910    -0.4530 H     1 <1>   0.0800 
 33 H        2.8950     2.1740     0.9500 H     1 <1>   0.0800 
 34 H        0.8890     5.4780    -0.8500 H     1 <1>   0.0800 
 35 H        2.3710     4.9370    -1.5530 H     1 <1>   0.0800 
 36 H        4.8020     3.6580     1.5170 H     1 <1>   0.0800 
 37 H        3.3220     4.2290     2.2370 H     1 <1>   0.0800 
 38 H        2.1140     6.1950     1.1840 H     1 <1>   0.0800 
 39 H        2.7770     6.9430    -0.2410 H     1 <1>   0.0800 
 40 H        4.9220     7.2920    -1.2850 H     1 <1>   0.0800 
 41 H        6.3810     7.5680    -0.3580 H     1 <1>   0.0800 
 42 H        4.1750    10.2890     0.4610 H     1 <1>   0.0800 
 43 H        4.3770     9.5950    -1.1310 H     1 <1>   0.0800 
 44 H        6.5640     9.6210     1.9170 H     1 <1>   0.1500 
 45 H        6.2050    10.7310    -2.1880 H     1 <1>   0.1500 
 46 H        8.8870    10.4140     1.9230 H     1 <1>   0.1500 
 47 H        8.5240    11.5160    -2.1760 H     1 <1>   0.1500 
 48 H        9.8720    11.3610    -0.1240 H     1 <1>   0.1500 
@<TRIPOS>BOND
  1   1   2  1   
  2   1   3  1   
  3   2   4  2   
  4   2   5  1   
  5   3   6  2   
  6   3  26  1   
  7   4   6  1   
  8   4   7  1   
  9   5   8  1   
 10   5  27  1   
 11   5  28  1   
 12   6  29  1   
 13   7   9  1   
 14   7  10  1   
 15   7  11  1   
 16   8   9  1   
 17   8  30  1   
 18   8  31  1   
 19  10  12  1   
 20  10  32  1   
 21  10  33  1   
 22  11  13  1   
 23  11  34  1   
 24  11  35  1   
 25  12  14  1   
 26  12  36  1   
 27  12  37  1   
 28  13  14  1   
 29  13  38  1   
 30  13  39  1   
 31  14  15  am  
 32  15  16  2   
 33  15  17  1   
 34  17  18  1   
 35  17  40  1   
 36  17  41  1   
 37  18  19  1   
 38  19  20  1   
 39  19  42  1   
 40  19  43  1   
 41  20  21  ar  
 42  20  22  ar  
 43  21  23  ar  
 44  21  44  1   
 45  22  24  ar  
 46  22  45  1   
 47  23  25  ar  
 48  23  46  1   
 49  24  25  ar  
 50  24  47  1   
 51  25  48  1   
@<TRIPOS>SUBSTRUCTURE
  1 ****  14 GROUP 4 **** **** 0

# MOE 2024.06 (io_trps.svl 2023.06)
