@<TRIPOS>MOLECULE
NONAME
54 57 1 0 0 
SMALL
USER_CHARGES


@<TRIPOS>ATOM
  1 O        0.6690    -0.1460    -1.8740 O.2   1 <1>  -0.5700 
  2 C        1.5060    -0.9260    -1.4630 C.2   1 <1>   0.5440 
  3 N        2.6890    -0.4400    -0.9410 N.am  1 <1>  -0.6600 
  4 C        1.2250    -2.3450    -1.5300 C.ar  1 <1>   0.0860 
  5 C        3.0390     1.0070    -1.0120 C.3   1 <1>   0.1400 
  6 C        3.6100    -1.2460    -0.0900 C.3   1 <1>   0.1400 
  7 C        0.1140    -2.9010    -0.9290 C.ar  1 <1>  -0.1500 
  8 C        2.0400    -3.2420    -2.2070 C.ar  1 <1>  -0.1500 
  9 C        3.0540     1.6030     0.3990 C.3   1 <1>  -0.1600 
 10 C        3.6340    -0.6690     1.3300 C.3   1 <1>  -0.1600 
 11 C       -0.1360    -4.2650    -1.0030 C.ar  1 <1>   0.4100 
 12 C        1.7210    -4.5840    -2.2260 C.ar  1 <1>   0.1600 
 13 C        3.9920     0.8230     1.3320 C.3   1 <1>  -0.1600 
 14 N        0.6640    -5.1140    -1.6370 N.ar  1 <1>  -0.6200 
 15 N       -1.2660    -4.7850    -0.4010 N.pl3 1 <1>  -0.8380 
 16 C       -2.5900    -4.3480    -0.9440 C.3   1 <1>   0.2090 
 17 C       -1.2610    -6.2240     0.0090 C.3   1 <1>   0.2090 
 18 C       -3.7290    -4.6500     0.0450 C.3   1 <1>   0.1400 
 19 C       -2.3990    -6.5280     0.9990 C.3   1 <1>   0.1400 
 20 N       -3.7250    -6.0910     0.4520 N.am  1 <1>  -0.6600 
 21 C       -4.8160    -6.8990     0.2440 C.2   1 <1>   0.5770 
 22 O       -5.8480    -6.4490    -0.2000 O.2   1 <1>  -0.5700 
 23 C       -4.7520    -8.3910     0.5740 C.3   1 <1>   0.0530 
 24 C       -3.9420    -9.2360    -0.4480 C.3   1 <1>   0.0000 
 25 C       -5.9830    -9.2580     0.1800 C.3   1 <1>   0.0000 
 26 C       -4.9750   -10.3680    -0.2110 C.3   1 <1>   0.0000 
 27 H        2.3320     1.5420    -1.6240 H     1 <1>   0.0800 
 28 H        4.0100     1.1090    -1.4630 H     1 <1>   0.0800 
 29 H        4.5980    -1.2110    -0.5150 H     1 <1>   0.0800 
 30 H        3.2990    -2.2740    -0.0440 H     1 <1>   0.0800 
 31 H       -0.5670    -2.2720    -0.3910 H     1 <1>   0.1500 
 32 H        2.9160    -2.8830    -2.7150 H     1 <1>   0.1500 
 33 H        2.0520     1.5840     0.7900 H     1 <1>   0.0800 
 34 H        3.3660     2.6310     0.3470 H     1 <1>   0.0800 
 35 H        4.3480    -1.2130     1.9230 H     1 <1>   0.0800 
 36 H        2.6640    -0.8090     1.7760 H     1 <1>   0.0800 
 37 H        2.3690    -5.2620    -2.7540 H     1 <1>   0.1500 
 38 H        3.9180     1.2150     2.3320 H     1 <1>   0.0800 
 39 H        5.0090     0.9470     1.0000 H     1 <1>   0.0800 
 40 H       -2.7800    -4.8650    -1.8690 H     1 <1>   0.0800 
 41 H       -2.5740    -3.2930    -1.1530 H     1 <1>   0.0800 
 42 H       -0.3170    -6.4600     0.4680 H     1 <1>   0.0800 
 43 H       -1.3700    -6.8430    -0.8650 H     1 <1>   0.0800 
 44 H       -4.6670    -4.3850    -0.4120 H     1 <1>   0.0800 
 45 H       -3.6060    -4.0370     0.9200 H     1 <1>   0.0800 
 46 H       -2.2090    -5.9950     1.9130 H     1 <1>   0.0800 
 47 H       -2.3940    -7.5760     1.2270 H     1 <1>   0.0800 
 48 H       -4.4490    -8.5850     1.5900 H     1 <1>   0.0000 
 49 H       -2.9470    -9.4840    -0.1240 H     1 <1>   0.0000 
 50 H       -3.9830    -8.8400    -1.4490 H     1 <1>   0.0000 
 51 H       -6.5260    -8.8910    -0.6750 H     1 <1>   0.0000 
 52 H       -6.6150    -9.5200     1.0100 H     1 <1>   0.0000 
 53 H       -4.7130   -11.0040     0.6170 H     1 <1>   0.0000 
 54 H       -5.2430   -10.9070    -1.1030 H     1 <1>   0.0000 
@<TRIPOS>BOND
  1   1   2  2   
  2   2   3  am  
  3   2   4  1   
  4   3   5  1   
  5   3   6  1   
  6   4   7  ar  
  7   4   8  ar  
  8   5   9  1   
  9   5  27  1   
 10   5  28  1   
 11   6  10  1   
 12   6  29  1   
 13   6  30  1   
 14   7  11  ar  
 15   7  31  1   
 16   8  12  ar  
 17   8  32  1   
 18   9  13  1   
 19   9  33  1   
 20   9  34  1   
 21  10  13  1   
 22  10  35  1   
 23  10  36  1   
 24  11  14  ar  
 25  11  15  1   
 26  12  14  ar  
 27  12  37  1   
 28  13  38  1   
 29  13  39  1   
 30  15  16  1   
 31  15  17  1   
 32  16  18  1   
 33  16  40  1   
 34  16  41  1   
 35  17  19  1   
 36  17  42  1   
 37  17  43  1   
 38  18  20  1   
 39  18  44  1   
 40  18  45  1   
 41  19  20  1   
 42  19  46  1   
 43  19  47  1   
 44  20  21  am  
 45  21  22  2   
 46  21  23  1   
 47  23  24  1   
 48  23  25  1   
 49  23  48  1   
 50  24  26  1   
 51  24  49  1   
 52  24  50  1   
 53  25  26  1   
 54  25  51  1   
 55  25  52  1   
 56  26  53  1   
 57  26  54  1   
@<TRIPOS>SUBSTRUCTURE
  1 ****  11 GROUP 4 **** **** 0

# MOE 2024.06 (io_trps.svl 2023.06)
