@<TRIPOS>MOLECULE
NONAME
52 55 1 0 0 
SMALL
USER_CHARGES


@<TRIPOS>ATOM
  1 O       -1.6270    -0.2610     2.4010 O.2   1 <1>  -0.5700 
  2 C       -2.0460     0.7640     1.9110 C.2   1 <1>   0.9370 
  3 N       -2.9510     0.7010     0.8450 N.pl3 1 <1>  -0.5760 
  4 C       -1.6270     2.0240     2.4000 C.2   1 <1>  -0.1360 
  5 C       -3.4060     1.8530     0.2890 C.cat 1 <1>   0.7390 
  6 C       -3.3800    -0.5070     0.3440 C.2   1 <1>   0.1910 
  7 C       -2.0950     3.1560     1.8440 C.2   1 <1>   0.2030 
  8 N       -2.9880     3.0350     0.7970 N.pl3 1 <1>  -0.6450 
  9 C       -4.2960     1.7940    -0.7930 C.2   1 <1>  -0.1800 
 10 C       -4.2500    -0.5750    -0.7060 C.2   1 <1>  -0.1500 
 11 C       -1.6830     4.5560     2.3030 C.3   1 <1>   0.2480 
 12 C       -4.7270     0.5980    -1.3020 C.2   1 <1>  -0.1380 
 13 N       -0.9670     5.2590     1.2100 N.3   1 <1>  -0.8100 
 14 C       -5.6890     0.5130    -2.4740 C.3   1 <1>  -0.1020 
 15 C       -1.5650     6.5820     0.9150 C.3   1 <1>   0.2540 
 16 C        0.4990     5.3530     1.4410 C.3   1 <1>   0.1100 
 17 C       -2.9500     6.3470     0.3480 C.ar  1 <1>  -0.1430 
 18 C        1.3380     5.0730     0.1730 C.3   1 <1>   0.2200 
 19 C       -3.0820     5.6300    -0.8300 C.ar  1 <1>   0.1600 
 20 C       -4.0870     6.7840     0.9980 C.ar  1 <1>  -0.1500 
 21 N        0.9840     5.9700    -0.9290 N.am  1 <1>  -0.7300 
 22 C        2.8350     5.3760     0.3850 C.3   1 <1>  -0.1600 
 23 N       -4.2360     5.2510    -1.3520 N.ar  1 <1>  -0.6200 
 24 C       -5.2980     6.4490     0.4320 C.ar  1 <1>  -0.1500 
 25 C        1.9140     6.8830    -1.2250 C.2   1 <1>   0.5690 
 26 C        3.1270     6.6960    -0.3600 C.3   1 <1>  -0.0990 
 27 C       -5.3180     5.6900    -0.7250 C.ar  1 <1>   0.1600 
 28 O        1.7850     7.7460    -2.0510 O.2   1 <1>  -0.5700 
 29 H       -0.9300     2.0100     3.2150 H     1 <1>   0.1500 
 30 H       -3.0130    -1.4180     0.7980 H     1 <1>   0.1500 
 31 H       -3.3220     3.8940     0.3300 H     1 <1>   0.4500 
 32 H       -4.6390     2.7140    -1.2250 H     1 <1>   0.1500 
 33 H       -4.5750    -1.5290    -1.0870 H     1 <1>   0.1500 
 34 H       -1.0630     4.4930     3.1820 H     1 <1>   0.0800 
 35 H       -2.5710     5.0920     2.5910 H     1 <1>   0.0800 
 36 H       -5.2390    -0.0350    -3.2830 H     1 <1>   0.0800 
 37 H       -5.9480     1.4930    -2.8330 H     1 <1>   0.0800 
 38 H       -6.5920     0.0100    -2.1760 H     1 <1>   0.0800 
 39 H       -1.6110     7.1800     1.8100 H     1 <1>   0.0800 
 40 H       -0.9760     7.1180     0.1900 H     1 <1>   0.0800 
 41 H        0.7520     6.3250     1.8330 H     1 <1>   0.0800 
 42 H        0.8030     4.6280     2.1760 H     1 <1>   0.0800 
 43 H        1.2060     4.0480    -0.1320 H     1 <1>   0.0800 
 44 H       -2.1890     5.3240    -1.3500 H     1 <1>   0.1500 
 45 H       -4.0410     7.3630     1.9060 H     1 <1>   0.1500 
 46 H        0.0860     5.9270    -1.4080 H     1 <1>   0.3700 
 47 H        3.1020     5.4370     1.4250 H     1 <1>   0.0800 
 48 H        3.4100     4.5850    -0.0630 H     1 <1>   0.0800 
 49 H       -6.2200     6.7720     0.8810 H     1 <1>   0.1500 
 50 H        4.0140     6.6320    -0.9630 H     1 <1>   0.0800 
 51 H        3.2020     7.5250     0.3200 H     1 <1>   0.0800 
 52 H       -6.2720     5.4340    -1.1560 H     1 <1>   0.1500 
@<TRIPOS>BOND
  1   1   2  2   
  2   2   3  1   
  3   2   4  1   
  4   3   5  ar  
  5   3   6  1   
  6   4   7  2   
  7   4  29  1   
  8   5   8  ar  
  9   5   9  1   
 10   6  10  2   
 11   6  30  1   
 12   7   8  1   
 13   7  11  1   
 14   8  31  1   
 15   9  12  2   
 16   9  32  1   
 17  10  12  1   
 18  10  33  1   
 19  11  13  1   
 20  11  34  1   
 21  11  35  1   
 22  12  14  1   
 23  13  15  1   
 24  13  16  1   
 25  14  36  1   
 26  14  37  1   
 27  14  38  1   
 28  15  17  1   
 29  15  39  1   
 30  15  40  1   
 31  16  18  1   
 32  16  41  1   
 33  16  42  1   
 34  17  19  ar  
 35  17  20  ar  
 36  18  21  1   
 37  18  22  1   
 38  18  43  1   
 39  19  23  ar  
 40  19  44  1   
 41  20  24  ar  
 42  20  45  1   
 43  21  25  am  
 44  21  46  1   
 45  22  26  1   
 46  22  47  1   
 47  22  48  1   
 48  23  27  ar  
 49  24  27  ar  
 50  24  49  1   
 51  25  26  1   
 52  25  28  2   
 53  26  50  1   
 54  26  51  1   
 55  27  52  1   
@<TRIPOS>SUBSTRUCTURE
  1 ****   8 GROUP 4 **** **** 0

# MOE 2024.06 (io_trps.svl 2023.06)
