@<TRIPOS>MOLECULE
NONAME
57 59 1 0 0 
SMALL
USER_CHARGES


@<TRIPOS>ATOM
  1 O        2.2730     2.7490     0.0380 O.co2 1 <1>  -0.9000 
  2 C        2.1420     1.5260    -0.0430 C.2   1 <1>   0.9060 
  3 O        1.4600     0.9090     0.7810 O.co2 1 <1>  -0.9000 
  4 C        3.1350     0.7260    -0.9120 C.3   1 <1>  -0.1060 
  5 C        3.9470    -0.1070     0.0990 C.3   1 <1>   0.4230 
  6 C        4.1390     1.6590    -1.6690 C.3   1 <1>  -0.1600 
  7 C        2.4230    -0.1750    -1.9560 C.3   1 <1>  -0.1600 
  8 N        3.0740    -1.1790     0.7050 N.4   1 <1>  -0.9590 
  9 C        4.6040     0.8600     1.1500 C.3   1 <1>   0.3430 
 10 C        5.2330     2.3140    -0.8020 C.3   1 <1>   0.3430 
 11 C        1.6640    -1.3450    -1.3130 C.3   1 <1>  -0.1600 
 12 C        2.5260    -2.1160    -0.3140 C.3   1 <1>   0.3430 
 13 C        3.6190    -1.9120     1.8840 C.3   1 <1>   0.2630 
 14 N        4.8390     2.2580     0.6330 N.4   1 <1>  -0.9590 
 15 C        5.6200     3.1410     1.5360 C.3   1 <1>   0.4860 
 16 C        5.6860     4.5290     0.9330 C.ar  1 <1>  -0.1430 
 17 C        6.9040     5.0340     0.5100 C.ar  1 <1>  -0.1500 
 18 C        4.5380     5.2880     0.7660 C.ar  1 <1>  -0.1500 
 19 C        6.9900     6.2800    -0.0920 C.ar  1 <1>  -0.1430 
 20 C        4.6130     6.5380     0.1810 C.ar  1 <1>  -0.1500 
 21 C        5.8370     7.0430    -0.2500 C.ar  1 <1>   0.0830 
 22 C        8.3310     6.8240    -0.5790 C.3   1 <1>   0.2630 
 23 O        5.9650     8.2660    -0.8290 O.3   1 <1>  -0.3630 
 24 O        9.2120     5.7700    -0.8430 O.3   1 <1>  -0.5600 
 25 C        4.8480     9.0980    -1.0580 C.3   1 <1>   0.0400 
 26 C       10.4510     6.1830    -1.3220 C.3   1 <1>   0.0400 
 27 H        4.7440    -0.5920    -0.4390 H     1 <1>   0.0800 
 28 H        3.5830     2.4440    -2.1560 H     1 <1>   0.0800 
 29 H        4.6400     1.1210    -2.4550 H     1 <1>   0.0800 
 30 H        1.7340     0.4210    -2.5330 H     1 <1>   0.0800 
 31 H        3.1450    -0.5850    -2.6410 H     1 <1>   0.0800 
 32 H        2.2290    -0.6190     1.0120 H     1 <1>   0.4500 
 33 H        5.5370     0.4340     1.4760 H     1 <1>   0.0800 
 34 H        3.9410     0.9290     1.9970 H     1 <1>   0.0800 
 35 H        5.3570     3.3380    -1.1190 H     1 <1>   0.0800 
 36 H        6.1720     1.8050    -0.9410 H     1 <1>   0.0800 
 37 H        1.3300    -2.0180    -2.0830 H     1 <1>   0.0800 
 38 H        0.7820    -0.9810    -0.8130 H     1 <1>   0.0800 
 39 H        3.3320    -2.6110    -0.8310 H     1 <1>   0.0800 
 40 H        1.9160    -2.8650     0.1660 H     1 <1>   0.0800 
 41 H        4.5010    -2.4670     1.6100 H     1 <1>   0.0800 
 42 H        2.8800    -2.6020     2.2590 H     1 <1>   0.0800 
 43 H        3.8640    -1.2240     2.6760 H     1 <1>   0.0800 
 44 H        3.8860     2.7140     0.5990 H     1 <1>   0.4500 
 45 H        5.1430     3.1960     2.5000 H     1 <1>   0.0800 
 46 H        6.6180     2.7550     1.6630 H     1 <1>   0.0800 
 47 H        7.8020     4.4540     0.6400 H     1 <1>   0.1500 
 48 H        3.5730     4.9140     1.0770 H     1 <1>   0.1500 
 49 H        3.7040     7.0980     0.0680 H     1 <1>   0.1500 
 50 H        8.7640     7.4580     0.1750 H     1 <1>   0.0800 
 51 H        8.1980     7.3860    -1.4880 H     1 <1>   0.0800 
 52 H        5.1930     9.9980    -1.5340 H     1 <1>   0.0800 
 53 H        4.3900     9.3360    -0.1140 H     1 <1>   0.0800 
 54 H        4.1570     8.5850    -1.7040 H     1 <1>   0.0800 
 55 H       11.0550     5.3080    -1.4900 H     1 <1>   0.0800 
 56 H       10.9240     6.8140    -0.5890 H     1 <1>   0.0800 
 57 H       10.3170     6.7130    -2.2490 H     1 <1>   0.0800 
@<TRIPOS>BOND
  1   1   2  ar  
  2   2   3  ar  
  3   2   4  1   
  4   4   5  1   
  5   4   6  1   
  6   4   7  1   
  7   5   8  1   
  8   5   9  1   
  9   5  27  1   
 10   6  10  1   
 11   6  28  1   
 12   6  29  1   
 13   7  11  1   
 14   7  30  1   
 15   7  31  1   
 16   8  12  1   
 17   8  13  1   
 18   8  32  1   
 19   9  14  1   
 20   9  33  1   
 21   9  34  1   
 22  10  14  1   
 23  10  35  1   
 24  10  36  1   
 25  11  12  1   
 26  11  37  1   
 27  11  38  1   
 28  12  39  1   
 29  12  40  1   
 30  13  41  1   
 31  13  42  1   
 32  13  43  1   
 33  14  15  1   
 34  14  44  1   
 35  15  16  1   
 36  15  45  1   
 37  15  46  1   
 38  16  17  ar  
 39  16  18  ar  
 40  17  19  ar  
 41  17  47  1   
 42  18  20  ar  
 43  18  48  1   
 44  19  21  ar  
 45  19  22  1   
 46  20  21  ar  
 47  20  49  1   
 48  21  23  1   
 49  22  24  1   
 50  22  50  1   
 51  22  51  1   
 52  23  25  1   
 53  24  26  1   
 54  25  52  1   
 55  25  53  1   
 56  25  54  1   
 57  26  55  1   
 58  26  56  1   
 59  26  57  1   
@<TRIPOS>SUBSTRUCTURE
  1 ****  14 GROUP 4 **** **** 0

# MOE 2024.06 (io_trps.svl 2023.06)
