@<TRIPOS>MOLECULE
NONAME
57 59 1 0 0 
SMALL
USER_CHARGES


@<TRIPOS>ATOM
  1 O        0.5360    -0.0480    -0.8190 O.3   1 <1>  -0.5600 
  2 C        1.7700    -0.7190    -0.7090 C.3   1 <1>   0.2000 
  3 C        0.6160     1.3100    -1.1360 C.3   1 <1>   0.1200 
  4 C        2.6990    -0.0230     0.3220 C.3   1 <1>   0.5660 
  5 C        1.4970    -2.1730    -0.2890 C.3   1 <1>   0.1200 
  6 C        1.4020     2.0620    -0.0480 C.3   1 <1>   0.3430 
  7 N        2.7620     1.4640     0.1540 N.4   1 <1>  -0.9590 
  8 C        4.1210    -0.5620     0.2340 C.ar  1 <1>  -0.1430 
  9 O        1.1580    -2.2280     1.0620 O.3   1 <1>  -0.6800 
 10 C        3.5010     2.1050     1.2720 C.3   1 <1>   0.4870 
 11 C        4.9210    -0.3370    -0.8810 C.ar  1 <1>  -0.1500 
 12 C        4.6330    -1.2860     1.3010 C.ar  1 <1>  -0.1500 
 13 C        3.8310     3.5190     0.8410 C.ar  1 <1>  -0.1430 
 14 C        6.2170    -0.8200    -0.9180 C.ar  1 <1>  -0.1500 
 15 C        5.9290    -1.7690     1.2620 C.ar  1 <1>  -0.1500 
 16 C        4.8060     3.7290    -0.1220 C.ar  1 <1>  -0.1500 
 17 C        3.1620     4.6060     1.3810 C.ar  1 <1>  -0.1500 
 18 C        6.7220    -1.5340     0.1540 C.ar  1 <1>  -0.1500 
 19 C        5.1100     5.0020    -0.5710 C.ar  1 <1>   0.0830 
 20 C        3.4670     5.8870     0.9550 C.ar  1 <1>  -0.1500 
 21 O        6.0580     5.0420    -1.5500 O.3   1 <1>  -0.3630 
 22 C        4.4450     6.1020    -0.0070 C.ar  1 <1>   0.0830 
 23 C        6.1860     6.1420    -2.4250 C.3   1 <1>   0.0400 
 24 O        4.7270     7.3780    -0.3770 O.3   1 <1>  -0.3630 
 25 C        5.1790     8.2960     0.5990 C.3   1 <1>   0.2000 
 26 C        5.1660     9.6790    -0.0460 C.3   1 <1>  -0.2400 
 27 C        6.5900     7.9050     1.0470 C.3   1 <1>  -0.2400 
 28 H        2.2230    -0.7210    -1.6840 H     1 <1>   0.0800 
 29 H        1.0790     1.4200    -2.1020 H     1 <1>   0.0800 
 30 H       -0.3900     1.6900    -1.1930 H     1 <1>   0.0800 
 31 H        2.3090    -0.2440     1.3020 H     1 <1>   0.0800 
 32 H        2.3760    -2.7800    -0.4320 H     1 <1>   0.0800 
 33 H        0.6870    -2.5820    -0.8690 H     1 <1>   0.0800 
 34 H        0.8400     2.0140     0.8710 H     1 <1>   0.0800 
 35 H        1.4950     3.0990    -0.3270 H     1 <1>   0.0800 
 36 H        3.3190     1.6430    -0.6850 H     1 <1>   0.4500 
 37 H        0.7510    -3.0930     1.2790 H     1 <1>   0.4000 
 38 H        2.9040     2.1100     2.1690 H     1 <1>   0.0800 
 39 H        4.4200     1.5760     1.4700 H     1 <1>   0.0800 
 40 H        4.5590     0.2070    -1.7370 H     1 <1>   0.1500 
 41 H        4.0300    -1.4890     2.1720 H     1 <1>   0.1500 
 42 H        6.8390    -0.6450    -1.7800 H     1 <1>   0.1500 
 43 H        6.3230    -2.3310     2.0920 H     1 <1>   0.1500 
 44 H        5.3540     2.9060    -0.5470 H     1 <1>   0.1500 
 45 H        2.4030     4.4760     2.1340 H     1 <1>   0.1500 
 46 H        7.7310    -1.9100     0.1240 H     1 <1>   0.1500 
 47 H        2.9370     6.7250     1.3710 H     1 <1>   0.1500 
 48 H        6.8070     5.8440    -3.2500 H     1 <1>   0.0800 
 49 H        6.6510     6.9550    -1.8990 H     1 <1>   0.0800 
 50 H        5.2120     6.4260    -2.7810 H     1 <1>   0.0800 
 51 H        4.5030     8.2820     1.4350 H     1 <1>   0.0800 
 52 H        5.8230     9.7030    -0.8970 H     1 <1>   0.0800 
 53 H        5.4930    10.4190     0.6620 H     1 <1>   0.0800 
 54 H        4.1680     9.9270    -0.3600 H     1 <1>   0.0800 
 55 H        7.2620     7.8920     0.2090 H     1 <1>   0.0800 
 56 H        6.5830     6.9360     1.5120 H     1 <1>   0.0800 
 57 H        6.9540     8.6160     1.7650 H     1 <1>   0.0800 
@<TRIPOS>BOND
  1   1   2  1   
  2   1   3  1   
  3   2   4  1   
  4   2   5  1   
  5   2  28  1   
  6   3   6  1   
  7   3  29  1   
  8   3  30  1   
  9   4   7  1   
 10   4   8  1   
 11   4  31  1   
 12   5   9  1   
 13   5  32  1   
 14   5  33  1   
 15   6   7  1   
 16   6  34  1   
 17   6  35  1   
 18   7  10  1   
 19   7  36  1   
 20   8  11  ar  
 21   8  12  ar  
 22   9  37  1   
 23  10  13  1   
 24  10  38  1   
 25  10  39  1   
 26  11  14  ar  
 27  11  40  1   
 28  12  15  ar  
 29  12  41  1   
 30  13  16  ar  
 31  13  17  ar  
 32  14  18  ar  
 33  14  42  1   
 34  15  18  ar  
 35  15  43  1   
 36  16  19  ar  
 37  16  44  1   
 38  17  20  ar  
 39  17  45  1   
 40  18  46  1   
 41  19  21  1   
 42  19  22  ar  
 43  20  22  ar  
 44  20  47  1   
 45  21  23  1   
 46  22  24  1   
 47  23  48  1   
 48  23  49  1   
 49  23  50  1   
 50  24  25  1   
 51  25  26  1   
 52  25  27  1   
 53  25  51  1   
 54  26  52  1   
 55  26  53  1   
 56  26  54  1   
 57  27  55  1   
 58  27  56  1   
 59  27  57  1   
@<TRIPOS>SUBSTRUCTURE
  1 ****  13 GROUP 4 **** **** 0

# MOE 2024.06 (io_trps.svl 2023.06)
