@<TRIPOS>MOLECULE
NONAME
48 51 1 0 0 
SMALL
USER_CHARGES


@<TRIPOS>ATOM
  1 F        2.4630    -2.9710    -0.8170 F     1 <1>  -0.3400 
  2 C        3.2070    -2.3750     0.1070 C.3   1 <1>   0.6800 
  3 F        2.1240    -2.1400     0.8400 F     1 <1>  -0.3400 
  4 C        3.4640    -1.1670    -0.8820 C.3   1 <1>  -0.1600 
  5 C        4.1470    -1.7940     1.2120 C.3   1 <1>  -0.1600 
  6 C        2.9980     0.2100    -0.4000 C.3   1 <1>   0.1400 
  7 C        3.8390    -0.4210     1.8370 C.3   1 <1>   0.1400 
  8 N        3.8050     0.6050     0.7750 N.am  1 <1>  -0.6600 
  9 C        4.3210     1.8740     0.9580 C.2   1 <1>   0.7160 
 10 O        4.9050     2.1260     1.9960 O.2   1 <1>  -0.5700 
 11 C        4.2150     2.8890    -0.0400 C.2   1 <1>  -0.0860 
 12 C        3.0290     3.5150    -0.4330 C.2   1 <1>   0.3720 
 13 C        5.1650     3.4770    -0.8160 C.2   1 <1>   0.0870 
 14 N        3.2500     4.3780    -1.3610 N.2   1 <1>  -0.4100 
 15 N        1.7610     3.2430     0.1010 N.pl3 1 <1>  -0.8210 
 16 O        4.5380     4.3430    -1.5730 O.3   1 <1>  -0.0190 
 17 C        6.5950     3.3090    -0.9390 C.ar  1 <1>   0.0530 
 18 C        1.5820     3.6230     1.5400 C.3   1 <1>   0.2090 
 19 C        0.5770     3.6610    -0.7180 C.3   1 <1>   0.2090 
 20 C        7.2700     2.2080    -0.4060 C.ar  1 <1>  -0.1500 
 21 C        7.3680     4.2570    -1.6150 C.ar  1 <1>  -0.1500 
 22 C        1.1330     5.0880     1.6890 C.3   1 <1>   0.1200 
 23 C        0.1710     5.1210    -0.4410 C.3   1 <1>   0.1200 
 24 C        8.6380     2.0610    -0.5380 C.ar  1 <1>  -0.1500 
 25 C        8.7360     4.1150    -1.7540 C.ar  1 <1>  -0.1500 
 26 O       -0.0170     5.3360     0.9300 O.3   1 <1>  -0.5600 
 27 C        9.3760     3.0150    -1.2140 C.ar  1 <1>  -0.1500 
 28 H        3.0120    -1.2820    -1.8570 H     1 <1>   0.0800 
 29 H        4.5130    -1.1040    -1.1120 H     1 <1>   0.0800 
 30 H        5.1650    -1.7780     0.8650 H     1 <1>   0.0800 
 31 H        4.1550    -2.5010     2.0210 H     1 <1>   0.0800 
 32 H        1.9540     0.1890    -0.1310 H     1 <1>   0.0800 
 33 H        3.1190     0.9190    -1.2000 H     1 <1>   0.0800 
 34 H        4.5990    -0.1850     2.5630 H     1 <1>   0.0800 
 35 H        2.8900    -0.4310     2.3470 H     1 <1>   0.0800 
 36 H        2.5000     3.4850     2.0830 H     1 <1>   0.0800 
 37 H        0.8420     2.9800     1.9840 H     1 <1>   0.0800 
 38 H       -0.2530     3.0180    -0.4870 H     1 <1>   0.0800 
 39 H        0.7970     3.5430    -1.7650 H     1 <1>   0.0800 
 40 H        6.7290     1.4470     0.1240 H     1 <1>   0.1500 
 41 H        6.8920     5.1230    -2.0410 H     1 <1>   0.1500 
 42 H        1.9130     5.7550     1.3630 H     1 <1>   0.0800 
 43 H        0.9000     5.3020     2.7160 H     1 <1>   0.0800 
 44 H       -0.7540     5.3490    -0.9400 H     1 <1>   0.0800 
 45 H        0.9300     5.7970    -0.7960 H     1 <1>   0.0800 
 46 H        9.1320     1.2040    -0.1140 H     1 <1>   0.1500 
 47 H        9.3050     4.8620    -2.2800 H     1 <1>   0.1500 
 48 H       10.4410     2.9030    -1.3180 H     1 <1>   0.1500 
@<TRIPOS>BOND
  1   1   2  1   
  2   2   3  1   
  3   2   4  1   
  4   2   5  1   
  5   4   6  1   
  6   4  28  1   
  7   4  29  1   
  8   5   7  1   
  9   5  30  1   
 10   5  31  1   
 11   6   8  1   
 12   6  32  1   
 13   6  33  1   
 14   7   8  1   
 15   7  34  1   
 16   7  35  1   
 17   8   9  am  
 18   9  10  2   
 19   9  11  1   
 20  11  12  1   
 21  11  13  2   
 22  12  14  2   
 23  12  15  1   
 24  13  16  1   
 25  13  17  1   
 26  14  16  1   
 27  15  18  1   
 28  15  19  1   
 29  17  20  ar  
 30  17  21  ar  
 31  18  22  1   
 32  18  36  1   
 33  18  37  1   
 34  19  23  1   
 35  19  38  1   
 36  19  39  1   
 37  20  24  ar  
 38  20  40  1   
 39  21  25  ar  
 40  21  41  1   
 41  22  26  1   
 42  22  42  1   
 43  22  43  1   
 44  23  26  1   
 45  23  44  1   
 46  23  45  1   
 47  24  27  ar  
 48  24  46  1   
 49  25  27  ar  
 50  25  47  1   
 51  27  48  1   
@<TRIPOS>SUBSTRUCTURE
  1 ****  11 GROUP 4 **** **** 0

# MOE 2024.06 (io_trps.svl 2023.06)
