@<TRIPOS>MOLECULE
NONAME
51 54 1 0 0 
SMALL
USER_CHARGES


@<TRIPOS>ATOM
  1 O       -0.0690    -5.3830     1.3380 O.2   1 <1>  -0.5700 
  2 C        0.4070    -4.2890     1.1020 C.2   1 <1>   0.6900 
  3 N        1.3540    -4.1370     0.1140 N.am  1 <1>  -0.4200 
  4 N       -0.0700    -3.1810     1.7410 N.am  1 <1>  -0.5390 
  5 C        1.6150    -2.8800    -0.3930 C.2   1 <1>   0.6160 
  6 C        2.0830    -5.3220    -0.4310 C.3   1 <1>   0.1400 
  7 C        0.2690    -1.8990     1.3540 C.2   1 <1>  -0.0290 
  8 O        2.2300    -2.7830    -1.4370 O.2   1 <1>  -0.5700 
  9 C        1.0960    -1.7450     0.2960 C.2   1 <1>  -0.1360 
 10 C        1.3820    -5.9110    -1.6690 C.3   1 <1>   0.3430 
 11 C       -0.3280    -0.7570     2.1520 C.3   1 <1>  -0.1020 
 12 N       -0.0780    -6.1260    -1.4130 N.4   1 <1>  -0.9590 
 13 C       -0.5520    -7.4840    -1.7920 C.3   1 <1>   0.3430 
 14 C       -0.9040    -5.0540    -2.0370 C.3   1 <1>   0.3430 
 15 C       -1.9680    -7.6720    -1.2570 C.3   1 <1>  -0.1600 
 16 C       -2.3270    -5.1600    -1.5040 C.3   1 <1>  -0.1600 
 17 C       -2.8940    -6.5590    -1.7580 C.3   1 <1>   0.2200 
 18 N       -4.2300    -6.6840    -1.1470 N.am  1 <1>  -0.4770 
 19 C       -5.3660    -6.8900    -1.8780 C.2   1 <1>   0.6900 
 20 C       -4.6170    -6.5990     0.1970 C.ar  1 <1>   0.1170 
 21 O       -5.4170    -7.0090    -3.0910 O.2   1 <1>  -0.5700 
 22 N       -6.4360    -6.9390    -1.0570 N.am  1 <1>  -0.5470 
 23 C       -5.9940    -6.7600     0.2410 C.ar  1 <1>   0.1170 
 24 C       -3.9050    -6.3970     1.3740 C.ar  1 <1>  -0.1500 
 25 C       -6.6880    -6.7250     1.4400 C.ar  1 <1>  -0.1500 
 26 C       -4.5930    -6.3620     2.5760 C.ar  1 <1>  -0.1500 
 27 C       -5.9750    -6.5250     2.6100 C.ar  1 <1>  -0.1500 
 28 H       -0.7100    -3.3520     2.5200 H     1 <1>   0.3700 
 29 H        2.1600    -6.0790     0.3310 H     1 <1>   0.0800 
 30 H        3.0870    -5.0350    -0.6960 H     1 <1>   0.0800 
 31 H        1.3960    -0.7830    -0.0770 H     1 <1>   0.1500 
 32 H        1.8560    -6.8450    -1.9200 H     1 <1>   0.0800 
 33 H        1.5180    -5.2400    -2.5030 H     1 <1>   0.0800 
 34 H       -0.0230    -0.8260     3.1810 H     1 <1>   0.0800 
 35 H       -1.4020    -0.7900     2.1030 H     1 <1>   0.0800 
 36 H        0.0010     0.1900     1.7630 H     1 <1>   0.0800 
 37 H       -0.2110    -6.0420    -0.3830 H     1 <1>   0.4500 
 38 H        0.0940    -8.2360    -1.3680 H     1 <1>   0.0800 
 39 H       -0.5470    -7.5910    -2.8660 H     1 <1>   0.0800 
 40 H       -0.9040    -5.1640    -3.1090 H     1 <1>   0.0800 
 41 H       -0.5010    -4.0830    -1.7940 H     1 <1>   0.0800 
 42 H       -1.9330    -7.6910    -0.1840 H     1 <1>   0.0800 
 43 H       -2.3460    -8.6220    -1.5930 H     1 <1>   0.0800 
 44 H       -2.9430    -4.4330    -2.0040 H     1 <1>   0.0800 
 45 H       -2.3260    -4.9270    -0.4550 H     1 <1>   0.0800 
 46 H       -3.0000    -6.6790    -2.8250 H     1 <1>   0.0800 
 47 H       -7.3840    -7.0880    -1.3940 H     1 <1>   0.3700 
 48 H       -2.8400    -6.2710     1.3650 H     1 <1>   0.1500 
 49 H       -7.7550    -6.8520     1.4530 H     1 <1>   0.1500 
 50 H       -4.0570    -6.2100     3.4980 H     1 <1>   0.1500 
 51 H       -6.4910    -6.4950     3.5540 H     1 <1>   0.1500 
@<TRIPOS>BOND
  1   1   2  2   
  2   2   3  am  
  3   2   4  am  
  4   3   5  am  
  5   3   6  1   
  6   4   7  1   
  7   4  28  1   
  8   5   8  2   
  9   5   9  1   
 10   6  10  1   
 11   6  29  1   
 12   6  30  1   
 13   7   9  2   
 14   7  11  1   
 15   9  31  1   
 16  10  12  1   
 17  10  32  1   
 18  10  33  1   
 19  11  34  1   
 20  11  35  1   
 21  11  36  1   
 22  12  13  1   
 23  12  14  1   
 24  12  37  1   
 25  13  15  1   
 26  13  38  1   
 27  13  39  1   
 28  14  16  1   
 29  14  40  1   
 30  14  41  1   
 31  15  17  1   
 32  15  42  1   
 33  15  43  1   
 34  16  17  1   
 35  16  44  1   
 36  16  45  1   
 37  17  18  1   
 38  17  46  1   
 39  18  19  am  
 40  18  20  1   
 41  19  21  2   
 42  19  22  am  
 43  20  23  ar  
 44  20  24  ar  
 45  22  23  1   
 46  22  47  1   
 47  23  25  ar  
 48  24  26  ar  
 49  24  48  1   
 50  25  27  ar  
 51  25  49  1   
 52  26  27  ar  
 53  26  50  1   
 54  27  51  1   
@<TRIPOS>SUBSTRUCTURE
  1 ****  16 GROUP 4 **** **** 0

# MOE 2024.06 (io_trps.svl 2023.06)
