@<TRIPOS>MOLECULE
NONAME
48 50 1 0 0 
SMALL
USER_CHARGES


@<TRIPOS>ATOM
  1 CL       2.4070     0.8020    -2.0860 Cl    1 <1>  -0.1770 
  2 C        1.2470     1.8050    -1.2420 C.ar  1 <1>   0.1770 
  3 C        1.4870     2.2760     0.0460 C.ar  1 <1>  -0.1440 
  4 C        0.0830     2.1170    -1.9210 C.ar  1 <1>  -0.1500 
  5 C        0.5230     3.0850     0.6330 C.ar  1 <1>  -0.1500 
  6 C        2.7530     1.9580     0.8410 C.3   1 <1>   0.3640 
  7 C       -0.8680     2.9200    -1.3170 C.ar  1 <1>  -0.1500 
  8 C       -0.6440     3.4040    -0.0410 C.ar  1 <1>  -0.1500 
  9 N        2.8890     0.4900     0.9860 N.am  1 <1>  -0.7300 
 10 C        4.0160     2.6120     0.2160 C.3   1 <1>   0.2610 
 11 C        4.0650    -0.1610     0.8580 C.2   1 <1>   0.5690 
 12 O        5.2030     2.0140     0.7150 O.3   1 <1>  -0.5600 
 13 C        4.0330     4.1350     0.4380 C.2   1 <1>   0.5690 
 14 O        4.1330    -1.3510     1.0340 O.2   1 <1>  -0.5700 
 15 C        5.3160     0.6290     0.4590 C.3   1 <1>   0.1810 
 16 O        3.3610     4.5980     1.3350 O.2   1 <1>  -0.5700 
 17 N        4.7880     4.9530    -0.3740 N.am  1 <1>  -0.6600 
 18 C        4.8030     6.4290    -0.1760 C.3   1 <1>   0.1400 
 19 C        5.7620     4.4500    -1.3910 C.3   1 <1>   0.1400 
 20 C        6.1790     6.8840     0.3360 C.3   1 <1>  -0.1600 
 21 C        6.9690     5.3920    -1.5340 C.3   1 <1>  -0.1600 
 22 C        7.3750     6.0470    -0.1930 C.3   1 <1>   0.0000 
 23 C        7.7560     4.9850     0.8740 C.3   1 <1>   0.1200 
 24 C        8.5750     6.9840    -0.4310 C.3   1 <1>  -0.2400 
 25 O        8.7860     4.1660     0.4290 O.3   1 <1>  -0.6800 
 26 H       -0.0750     1.7350    -2.9130 H     1 <1>   0.1500 
 27 H        0.6760     3.4830     1.6230 H     1 <1>   0.1500 
 28 H        2.6390     2.3510     1.8370 H     1 <1>   0.0800 
 29 H       -1.7770     3.1680    -1.8380 H     1 <1>   0.1500 
 30 H       -1.3800     4.0340     0.4310 H     1 <1>   0.1500 
 31 H        2.0560    -0.0440     1.2370 H     1 <1>   0.3700 
 32 H        4.0020     2.4470    -0.8430 H     1 <1>   0.0800 
 33 H        5.5030     0.4910    -0.5900 H     1 <1>   0.0800 
 34 H        6.1590     0.2610     1.0140 H     1 <1>   0.0800 
 35 H        4.5960     6.8990    -1.1220 H     1 <1>   0.0800 
 36 H        4.0350     6.7390     0.5130 H     1 <1>   0.0800 
 37 H        6.1260     3.4830    -1.0940 H     1 <1>   0.0800 
 38 H        5.2670     4.3460    -2.3410 H     1 <1>   0.0800 
 39 H        6.2910     7.9160     0.0540 H     1 <1>   0.0800 
 40 H        6.1670     6.8670     1.4120 H     1 <1>   0.0800 
 41 H        7.7950     4.8490    -1.9570 H     1 <1>   0.0800 
 42 H        6.7170     6.1630    -2.2410 H     1 <1>   0.0800 
 43 H        6.9180     4.3570     1.1250 H     1 <1>   0.0800 
 44 H        8.0960     5.4680     1.7740 H     1 <1>   0.0800 
 45 H        8.3350     7.7410    -1.1560 H     1 <1>   0.0800 
 46 H        9.4230     6.4300    -0.7940 H     1 <1>   0.0800 
 47 H        8.8610     7.4670     0.4870 H     1 <1>   0.0800 
 48 H        8.4860     3.6350    -0.3310 H     1 <1>   0.4000 
@<TRIPOS>BOND
  1   1   2  1   
  2   2   3  ar  
  3   2   4  ar  
  4   3   5  ar  
  5   3   6  1   
  6   4   7  ar  
  7   4  26  1   
  8   5   8  ar  
  9   5  27  1   
 10   6   9  1   
 11   6  10  1   
 12   6  28  1   
 13   7   8  ar  
 14   7  29  1   
 15   8  30  1   
 16   9  11  am  
 17   9  31  1   
 18  10  12  1   
 19  10  13  1   
 20  10  32  1   
 21  11  14  2   
 22  11  15  1   
 23  12  15  1   
 24  13  16  2   
 25  13  17  am  
 26  15  33  1   
 27  15  34  1   
 28  17  18  1   
 29  17  19  1   
 30  18  20  1   
 31  18  35  1   
 32  18  36  1   
 33  19  21  1   
 34  19  37  1   
 35  19  38  1   
 36  20  22  1   
 37  20  39  1   
 38  20  40  1   
 39  21  22  1   
 40  21  41  1   
 41  21  42  1   
 42  22  23  1   
 43  22  24  1   
 44  23  25  1   
 45  23  43  1   
 46  23  44  1   
 47  24  45  1   
 48  24  46  1   
 49  24  47  1   
 50  25  48  1   
@<TRIPOS>SUBSTRUCTURE
  1 ****  10 GROUP 4 **** **** 0

# MOE 2024.06 (io_trps.svl 2023.06)
