@<TRIPOS>MOLECULE
NONAME
47 49 1 0 0 
SMALL
USER_CHARGES


@<TRIPOS>ATOM
  1 O        2.3290    -0.8850    -1.6740 O.2   1 <1>  -0.5700 
  2 C        1.6320    -1.4960    -0.9000 C.2   1 <1>   0.5690 
  3 N        2.0500    -1.9840     0.2860 N.am  1 <1>  -0.6600 
  4 C        0.1690    -1.7550    -1.1180 C.3   1 <1>  -0.0990 
  5 C        0.9530    -2.5760     1.0710 C.3   1 <1>   0.1400 
  6 C        3.4340    -1.8610     0.8440 C.3   1 <1>   0.2010 
  7 C       -0.2370    -2.6200     0.0910 C.3   1 <1>   0.0640 
  8 C        3.7870    -0.4410     1.2860 C.2   1 <1>   0.5690 
  9 C       -0.5490    -4.0550    -0.3300 C.ar  1 <1>  -0.1440 
 10 O        4.1570    -0.2630     2.4230 O.2   1 <1>  -0.5700 
 11 N        3.6740     0.5610     0.3700 N.am  1 <1>  -0.4930 
 12 C        0.4140    -4.8470    -0.9410 C.ar  1 <1>  -0.1500 
 13 C       -1.8110    -4.5850    -0.1040 C.ar  1 <1>  -0.1500 
 14 C        3.9230     1.9460     0.5150 C.2   1 <1>   0.0630 
 15 C        0.1210    -6.1470    -1.3160 C.ar  1 <1>  -0.1500 
 16 C       -2.1060    -5.8840    -0.4790 C.ar  1 <1>  -0.1500 
 17 C        4.3640     2.6560     1.6320 C.2   1 <1>   0.1390 
 18 C        3.7750     2.8800    -0.4450 C.2   1 <1>  -0.3020 
 19 C       -1.1390    -6.6660    -1.0860 C.ar  1 <1>  -0.1500 
 20 N        4.4840     3.9300     1.3920 N.2   1 <1>  -0.7070 
 21 N        4.1160     4.0680     0.1010 N.pl3 1 <1>   0.3140 
 22 C        4.1240     5.3750    -0.5720 C.3   1 <1>   0.1570 
 23 C        5.5340     5.7460    -0.9730 C.2   1 <1>   0.5690 
 24 O        5.7080     6.2360    -2.0630 O.2   1 <1>  -0.5700 
 25 N        6.5580     5.5400    -0.1000 N.am  1 <1>  -0.7300 
 26 C        7.9890     5.8430    -0.3410 C.3   1 <1>   0.0600 
 27 H        0.0110    -2.2580    -2.0550 H     1 <1>   0.0800 
 28 H       -0.3570    -0.8200    -1.1160 H     1 <1>   0.0800 
 29 H        0.7310    -1.9440     1.9130 H     1 <1>   0.0800 
 30 H        1.2170    -3.5620     1.4160 H     1 <1>   0.0800 
 31 H        4.1400    -2.1640     0.0920 H     1 <1>   0.0800 
 32 H        3.5410    -2.5230     1.6850 H     1 <1>   0.0800 
 33 H       -1.1000    -2.1930     0.5700 H     1 <1>   0.0800 
 34 H        3.3010     0.2710    -0.5470 H     1 <1>   0.3700 
 35 H        1.4000    -4.4600    -1.1300 H     1 <1>   0.1500 
 36 H       -2.5770    -3.9920     0.3650 H     1 <1>   0.1500 
 37 H        0.8740    -6.7530    -1.7890 H     1 <1>   0.1500 
 38 H       -3.0870    -6.2870    -0.3000 H     1 <1>   0.1500 
 39 H        4.5800     2.2040     2.5860 H     1 <1>   0.1500 
 40 H        3.4560     2.7650    -1.4640 H     1 <1>   0.1500 
 41 H       -1.3680    -7.6770    -1.3780 H     1 <1>   0.1500 
 42 H        3.7380     6.1140     0.1020 H     1 <1>   0.0800 
 43 H        3.5000     5.3280    -1.4430 H     1 <1>   0.0800 
 44 H        6.3320     5.0410     0.7760 H     1 <1>   0.3700 
 45 H        8.1120     6.3330    -1.2920 H     1 <1>   0.0800 
 46 H        8.5570     4.9290    -0.3440 H     1 <1>   0.0800 
 47 H        8.3590     6.4890     0.4350 H     1 <1>   0.0800 
@<TRIPOS>BOND
  1   1   2  2   
  2   2   3  am  
  3   2   4  1   
  4   3   5  1   
  5   3   6  1   
  6   4   7  1   
  7   4  27  1   
  8   4  28  1   
  9   5   7  1   
 10   5  29  1   
 11   5  30  1   
 12   6   8  1   
 13   6  31  1   
 14   6  32  1   
 15   7   9  1   
 16   7  33  1   
 17   8  10  2   
 18   8  11  am  
 19   9  12  ar  
 20   9  13  ar  
 21  11  14  1   
 22  11  34  1   
 23  12  15  ar  
 24  12  35  1   
 25  13  16  ar  
 26  13  36  1   
 27  14  17  1   
 28  14  18  2   
 29  15  19  ar  
 30  15  37  1   
 31  16  19  ar  
 32  16  38  1   
 33  17  20  2   
 34  17  39  1   
 35  18  21  1   
 36  18  40  1   
 37  19  41  1   
 38  20  21  1   
 39  21  22  1   
 40  22  23  1   
 41  22  42  1   
 42  22  43  1   
 43  23  24  2   
 44  23  25  am  
 45  25  26  1   
 46  25  44  1   
 47  26  45  1   
 48  26  46  1   
 49  26  47  1   
@<TRIPOS>SUBSTRUCTURE
  1 ****  11 GROUP 4 **** **** 0

# MOE 2024.06 (io_trps.svl 2023.06)
