@<TRIPOS>MOLECULE
NONAME
38 39 1 0 0 
SMALL
USER_CHARGES


@<TRIPOS>ATOM
  1 S        2.1400    -0.1540     1.1710 S.3   1 <1>  -0.0800 
  2 C        1.4440     0.9260    -0.0280 C.2   1 <1>  -0.1400 
  3 C        1.8670    -1.5480     0.1420 C.2   1 <1>  -0.1100 
  4 C        1.0510     0.2290    -1.1130 C.2   1 <1>  -0.1500 
  5 C        1.3980     2.4080     0.3210 C.3   1 <1>   0.3800 
  6 C        1.2910    -1.1780    -1.0160 C.2   1 <1>  -0.1500 
  7 O        0.4910     3.0710    -0.5280 O.3   1 <1>  -0.5600 
  8 C        2.7910     3.0460     0.1700 C.3   1 <1>   0.2090 
  9 C       -0.8510     2.8940    -0.1940 C.3   1 <1>   0.0400 
 10 N        2.7280     4.5340     0.2410 N.pl3 1 <1>  -0.8690 
 11 C        3.8420     5.3340     0.2530 C.ar  1 <1>   0.4100 
 12 N        4.9920     4.7500     0.5170 N.ar  1 <1>  -0.6200 
 13 C        3.7580     6.6980    -0.0050 C.ar  1 <1>  -0.1430 
 14 C        6.0490     5.5320     0.5200 C.ar  1 <1>   0.4770 
 15 C        4.9400     7.3970     0.0270 C.ar  1 <1>   0.1600 
 16 C        2.4010     7.3430    -0.3040 C.3   1 <1>  -0.0170 
 17 N        6.1010     6.8290     0.2880 N.ar  1 <1>  -0.6200 
 18 C        7.3650     4.8580     0.8210 C.3   1 <1>  -0.0970 
 19 C        2.4260     8.8640    -0.4960 C.3   1 <1>  -0.2400 
 20 H        2.1720    -2.5090     0.5180 H     1 <1>   0.1500 
 21 H        0.5990     0.6570    -1.9910 H     1 <1>   0.1500 
 22 H        1.0710     2.5380     1.3380 H     1 <1>   0.0800 
 23 H        1.0200    -1.8400    -1.8200 H     1 <1>   0.1500 
 24 H        3.2100     2.7560    -0.7770 H     1 <1>   0.0800 
 25 H        3.4370     2.6730     0.9460 H     1 <1>   0.0800 
 26 H       -1.4480     3.4200    -0.9170 H     1 <1>   0.0800 
 27 H       -1.0300     3.3000     0.7870 H     1 <1>   0.0800 
 28 H       -1.0960     1.8460    -0.2180 H     1 <1>   0.0800 
 29 H        1.8930     4.8910    -0.2320 H     1 <1>   0.4000 
 30 H        4.9620     8.4550    -0.1630 H     1 <1>   0.1500 
 31 H        1.7310     7.1150     0.5090 H     1 <1>   0.0800 
 32 H        1.9970     6.8930    -1.1940 H     1 <1>   0.0800 
 33 H        7.2240     4.0990     1.5680 H     1 <1>   0.0800 
 34 H        8.0780     5.5750     1.1840 H     1 <1>   0.0800 
 35 H        7.7430     4.4050    -0.0750 H     1 <1>   0.0800 
 36 H        2.8010     9.3490     0.3880 H     1 <1>   0.0800 
 37 H        1.4290     9.2240    -0.6800 H     1 <1>   0.0800 
 38 H        3.0410     9.1290    -1.3370 H     1 <1>   0.0800 
@<TRIPOS>BOND
  1   1   2  1   
  2   1   3  1   
  3   2   4  2   
  4   2   5  1   
  5   3   6  2   
  6   3  20  1   
  7   4   6  1   
  8   4  21  1   
  9   5   7  1   
 10   5   8  1   
 11   5  22  1   
 12   6  23  1   
 13   7   9  1   
 14   8  10  1   
 15   8  24  1   
 16   8  25  1   
 17   9  26  1   
 18   9  27  1   
 19   9  28  1   
 20  10  11  1   
 21  10  29  1   
 22  11  12  ar  
 23  11  13  ar  
 24  12  14  ar  
 25  13  15  ar  
 26  13  16  1   
 27  14  17  ar  
 28  14  18  1   
 29  15  17  ar  
 30  15  30  1   
 31  16  19  1   
 32  16  31  1   
 33  16  32  1   
 34  18  33  1   
 35  18  34  1   
 36  18  35  1   
 37  19  36  1   
 38  19  37  1   
 39  19  38  1   
@<TRIPOS>SUBSTRUCTURE
  1 ****   8 GROUP 4 **** **** 0

# MOE 2024.06 (io_trps.svl 2023.06)
