@<TRIPOS>MOLECULE
NONAME
43 44 1 0 0 
SMALL
USER_CHARGES


@<TRIPOS>ATOM
  1 S        0.1290    -0.1850     0.8920 S.o2  1 <1>   1.3330 
  2 O       -0.7950    -1.2600     1.1710 O.2   1 <1>  -0.6500 
  3 O        1.1540     0.1440     1.8560 O.2   1 <1>  -0.6500 
  4 N        0.8890    -0.5280    -0.5890 N.am  1 <1>  -0.8490 
  5 C       -0.8010     1.3070     0.5370 C.3   1 <1>  -0.0550 
  6 C        0.0370    -1.2780    -1.5180 C.3   1 <1>   0.1160 
  7 C        2.1640    -1.2290    -0.4080 C.3   1 <1>   0.1160 
  8 C        0.0420     2.4650    -0.0430 C.3   1 <1>  -0.0800 
  9 C       -0.7810     3.6810    -0.4750 C.3   1 <1>   0.2000 
 10 C        1.0900     3.0390     0.9210 C.3   1 <1>   0.1400 
 11 O       -1.7130     3.9730     0.5090 O.3   1 <1>  -0.6800 
 12 C        0.2380     4.8160    -0.5150 C.3   1 <1>   0.1400 
 13 N        1.2080     4.4790     0.5610 N.am  1 <1>  -0.6600 
 14 C        2.3020     5.2380     0.9080 C.2   1 <1>   0.5440 
 15 O        3.1990     4.7190     1.5420 O.2   1 <1>  -0.5700 
 16 C        2.4150     6.6270     0.5270 C.ar  1 <1>   0.0860 
 17 C        1.4190     7.5430     0.8440 C.ar  1 <1>   0.1600 
 18 C        3.5160     7.1130    -0.1600 C.ar  1 <1>  -0.1500 
 19 N        1.4160     8.8260     0.5200 N.ar  1 <1>  -0.6200 
 20 C        3.5390     8.4490    -0.4990 C.ar  1 <1>  -0.1500 
 21 C        2.4790     9.2860    -0.1530 C.ar  1 <1>   0.1670 
 22 C        2.5220    10.7920    -0.5520 C.3   1 <1>   1.1630 
 23 F        1.4960    11.1530    -1.3170 F     1 <1>  -0.3400 
 24 F        3.6130    11.1180    -1.2430 F     1 <1>  -0.3400 
 25 F        2.5090    11.6070     0.4990 F     1 <1>  -0.3400 
 26 H       -1.5750     1.0690    -0.1660 H     1 <1>   0.0800 
 27 H       -1.2830     1.6320     1.4390 H     1 <1>   0.0800 
 28 H        0.5310    -1.3880    -2.4680 H     1 <1>   0.0800 
 29 H       -0.8910    -0.7560    -1.6750 H     1 <1>   0.0800 
 30 H       -0.1820    -2.2570    -1.1220 H     1 <1>   0.0800 
 31 H        2.6240    -1.4230    -1.3610 H     1 <1>   0.0800 
 32 H        2.0090    -2.1620     0.1080 H     1 <1>   0.0800 
 33 H        2.8400    -0.6230     0.1730 H     1 <1>   0.0800 
 34 H        0.5680     2.1080    -0.9110 H     1 <1>   0.0800 
 35 H       -1.2990     3.5420    -1.4090 H     1 <1>   0.0800 
 36 H        2.0370     2.5350     0.8150 H     1 <1>   0.0800 
 37 H        0.7650     2.9590     1.9450 H     1 <1>   0.0800 
 38 H       -1.2400     4.2400     1.3230 H     1 <1>   0.4000 
 39 H       -0.2340     5.7700    -0.3620 H     1 <1>   0.0800 
 40 H        0.7510     4.8140    -1.4610 H     1 <1>   0.0800 
 41 H        0.5710     7.1840     1.4030 H     1 <1>   0.1500 
 42 H        4.3290     6.4530    -0.4120 H     1 <1>   0.1500 
 43 H        4.3940     8.8290    -1.0330 H     1 <1>   0.1500 
@<TRIPOS>BOND
  1   1   2  2   
  2   1   3  2   
  3   1   4  am  
  4   1   5  1   
  5   4   6  1   
  6   4   7  1   
  7   5   8  1   
  8   5  26  1   
  9   5  27  1   
 10   6  28  1   
 11   6  29  1   
 12   6  30  1   
 13   7  31  1   
 14   7  32  1   
 15   7  33  1   
 16   8   9  1   
 17   8  10  1   
 18   8  34  1   
 19   9  11  1   
 20   9  12  1   
 21   9  35  1   
 22  10  13  1   
 23  10  36  1   
 24  10  37  1   
 25  11  38  1   
 26  12  13  1   
 27  12  39  1   
 28  12  40  1   
 29  13  14  am  
 30  14  15  2   
 31  14  16  1   
 32  16  17  ar  
 33  16  18  ar  
 34  17  19  ar  
 35  17  41  1   
 36  18  20  ar  
 37  18  42  1   
 38  19  21  ar  
 39  20  21  ar  
 40  20  43  1   
 41  21  22  1   
 42  22  23  1   
 43  22  24  1   
 44  22  25  1   
@<TRIPOS>SUBSTRUCTURE
  1 ****  13 GROUP 4 **** **** 0

# MOE 2024.06 (io_trps.svl 2023.06)
