@<TRIPOS>MOLECULE
STOCK7S-73612
25 25 1 0 0 
SMALL
USER_CHARGES


@<TRIPOS>ATOM
  1 O       -0.3430     4.3980    -1.7270 O.3   1 <1>  -0.3370 
  2 N       -0.6090     3.2540    -1.1270 N.2   1 <1>  -0.5130 
  3 C       -1.5200     3.2000    -0.2540 C.2   1 <1>   0.3280 
  4 C       -1.8890     1.9000     0.4590 C.3   1 <1>  -0.0190 
  5 C       -2.3970     4.3820     0.1590 C.3   1 <1>  -0.0990 
  6 C       -3.3360     1.5330     0.0880 C.3   1 <1>   0.3430 
  7 C       -0.9450     0.7200     0.1580 C.3   1 <1>  -0.2400 
  8 C       -3.7890     3.9250     0.6130 C.3   1 <1>   0.4230 
  9 N       -4.1940     2.7390    -0.1650 N.4   1 <1>  -0.9060 
 10 C       -4.8420     5.0090     0.4190 C.3   1 <1>  -0.2400 
 11 H        0.4290     4.3730    -2.3340 H     1 <1>   0.4000 
 12 H       -1.8390     2.0800     1.5190 H     1 <1>   0.0800 
 13 H       -1.9190     4.9130     0.9620 H     1 <1>   0.0800 
 14 H       -2.4950     5.0680    -0.6630 H     1 <1>   0.0800 
 15 H       -3.7550     0.9420     0.8870 H     1 <1>   0.0800 
 16 H       -3.3230     0.9210    -0.8000 H     1 <1>   0.0800 
 17 H       -0.9470     0.4820    -0.8930 H     1 <1>   0.0800 
 18 H       -1.2340    -0.1560     0.7120 H     1 <1>   0.0800 
 19 H        0.0640     0.9740     0.4380 H     1 <1>   0.0800 
 20 H       -3.7460     3.6620     1.6590 H     1 <1>   0.0800 
 21 H       -5.1810     2.5210     0.0160 H     1 <1>   0.4500 
 22 H       -4.1260     2.9870    -1.1620 H     1 <1>   0.4500 
 23 H       -4.9340     5.2870    -0.6170 H     1 <1>   0.0800 
 24 H       -4.5610     5.8870     0.9750 H     1 <1>   0.0800 
 25 H       -5.7980     4.6820     0.7880 H     1 <1>   0.0800 
@<TRIPOS>BOND
  1   1   2  1   
  2   1  11  1   
  3   2   3  2   
  4   3   4  1   
  5   3   5  1   
  6   4   6  1   
  7   4   7  1   
  8   4  12  1   
  9   5   8  1   
 10   5  13  1   
 11   5  14  1   
 12   6   9  1   
 13   6  15  1   
 14   6  16  1   
 15   7  17  1   
 16   7  18  1   
 17   7  19  1   
 18   8   9  1   
 19   8  10  1   
 20   8  20  1   
 21   9  21  1   
 22   9  22  1   
 23  10  23  1   
 24  10  24  1   
 25  10  25  1   
@<TRIPOS>SUBSTRUCTURE
  1 ****   3 GROUP 4 **** **** 0

# MOE 2024.06 (io_trps.svl 2023.06)
