@<TRIPOS>MOLECULE
NONAME
53 54 1 0 0 
SMALL
USER_CHARGES


@<TRIPOS>ATOM
  1 O        0.7010     2.2370    -1.5840 O.2   1 <1>  -0.5700 
  2 C        0.0380     3.1680    -1.1890 C.2   1 <1>   0.5690 
  3 N       -0.8300     3.0510    -0.1370 N.am  1 <1>  -0.6600 
  4 C        0.1990     4.5160    -1.8930 C.3   1 <1>   0.1810 
  5 C       -1.6660     4.2080     0.3170 C.3   1 <1>   0.3640 
  6 C       -1.0220     1.7740     0.6060 C.3   1 <1>   0.0600 
  7 O       -0.9270     5.3580    -1.7580 O.3   1 <1>  -0.5600 
  8 C       -3.1670     3.8650     0.3330 C.ar  1 <1>  -0.1430 
  9 C       -1.3970     5.5480    -0.4280 C.3   1 <1>   0.2610 
 10 C       -3.9020     3.3870    -0.7560 C.ar  1 <1>  -0.1430 
 11 C       -3.8240     4.0650     1.5430 C.ar  1 <1>  -0.1500 
 12 C       -0.4890     6.4900     0.3800 C.2   1 <1>   0.5690 
 13 C       -5.2550     3.1200    -0.6040 C.ar  1 <1>  -0.1500 
 14 C       -3.2990     3.1360    -2.1340 C.3   1 <1>  -0.0960 
 15 C       -5.1720     3.7960     1.6840 C.ar  1 <1>  -0.1500 
 16 O       -0.6260     6.5620     1.5790 O.2   1 <1>  -0.5700 
 17 N        0.4270     7.2430    -0.2880 N.am  1 <1>  -0.7300 
 18 C       -5.8910     3.3210     0.6060 C.ar  1 <1>  -0.1500 
 19 C        1.5180     8.1430     0.1750 C.3   1 <1>   0.3610 
 20 C        2.3780     8.5540    -1.0780 C.2   1 <1>   0.5690 
 21 C        2.3680     7.3440     1.1780 C.3   1 <1>  -0.2400 
 22 C        0.8220     9.3410     0.8460 C.3   1 <1>  -0.2400 
 23 O        2.1850     7.9060    -2.0900 O.2   1 <1>  -0.5700 
 24 N        3.3110     9.5810    -1.1030 N.am  1 <1>  -0.6600 
 25 C        3.9710     9.9710    -2.3850 C.3   1 <1>   0.0600 
 26 C        3.7930    10.3950     0.0490 C.3   1 <1>   0.0600 
 27 H        0.3500     4.3460    -2.9430 H     1 <1>   0.0800 
 28 H        1.0650     5.0180    -1.5040 H     1 <1>   0.0800 
 29 H       -1.3940     4.3600     1.3450 H     1 <1>   0.0800 
 30 H       -0.8950     1.9420     1.6610 H     1 <1>   0.0800 
 31 H       -0.3060     1.0360     0.2870 H     1 <1>   0.0800 
 32 H       -2.0120     1.3920     0.4260 H     1 <1>   0.0800 
 33 H       -2.3360     6.0620    -0.5160 H     1 <1>   0.0800 
 34 H       -3.2900     4.4390     2.4000 H     1 <1>   0.1500 
 35 H       -5.8320     2.7510    -1.4330 H     1 <1>   0.1500 
 36 H       -4.0400     2.7660    -2.8180 H     1 <1>   0.0800 
 37 H       -2.5180     2.4020    -2.0770 H     1 <1>   0.0800 
 38 H       -2.9080     4.0470    -2.5430 H     1 <1>   0.0800 
 39 H       -5.6600     3.9580     2.6290 H     1 <1>   0.1500 
 40 H        0.4720     7.1310    -1.3110 H     1 <1>   0.3700 
 41 H       -6.9410     3.1100     0.7070 H     1 <1>   0.1500 
 42 H        3.2290     7.8980     1.4900 H     1 <1>   0.0800 
 43 H        2.7110     6.4340     0.7200 H     1 <1>   0.0800 
 44 H        1.8000     7.1030     2.0570 H     1 <1>   0.0800 
 45 H        1.5220     9.9930     1.3240 H     1 <1>   0.0800 
 46 H        0.1360     9.0080     1.6030 H     1 <1>   0.0800 
 47 H        0.2780     9.9050     0.1100 H     1 <1>   0.0800 
 48 H        3.9670    11.0410    -2.4900 H     1 <1>   0.0800 
 49 H        3.4580     9.5500    -3.2330 H     1 <1>   0.0800 
 50 H        4.9880     9.6180    -2.3900 H     1 <1>   0.0800 
 51 H        4.8420    10.6050    -0.0670 H     1 <1>   0.0800 
 52 H        3.6650     9.8820     0.9800 H     1 <1>   0.0800 
 53 H        3.2560    11.3270     0.0810 H     1 <1>   0.0800 
@<TRIPOS>BOND
  1   1   2  2   
  2   2   3  am  
  3   2   4  1   
  4   3   5  1   
  5   3   6  1   
  6   4   7  1   
  7   4  27  1   
  8   4  28  1   
  9   5   8  1   
 10   5   9  1   
 11   5  29  1   
 12   6  30  1   
 13   6  31  1   
 14   6  32  1   
 15   7   9  1   
 16   8  10  ar  
 17   8  11  ar  
 18   9  12  1   
 19   9  33  1   
 20  10  13  ar  
 21  10  14  1   
 22  11  15  ar  
 23  11  34  1   
 24  12  16  2   
 25  12  17  am  
 26  13  18  ar  
 27  13  35  1   
 28  14  36  1   
 29  14  37  1   
 30  14  38  1   
 31  15  18  ar  
 32  15  39  1   
 33  17  19  1   
 34  17  40  1   
 35  18  41  1   
 36  19  20  1   
 37  19  21  1   
 38  19  22  1   
 39  20  23  2   
 40  20  24  am  
 41  21  42  1   
 42  21  43  1   
 43  21  44  1   
 44  22  45  1   
 45  22  46  1   
 46  22  47  1   
 47  24  25  1   
 48  24  26  1   
 49  25  48  1   
 50  25  49  1   
 51  25  50  1   
 52  26  51  1   
 53  26  52  1   
 54  26  53  1   
@<TRIPOS>SUBSTRUCTURE
  1 ****   9 GROUP 4 **** **** 0

# MOE 2024.06 (io_trps.svl 2023.06)
