@<TRIPOS>MOLECULE
NONAME
47 48 1 0 0 
SMALL
USER_CHARGES


@<TRIPOS>ATOM
  1 O       -0.9120     0.2700    -1.7180 O.2   1 <1>  -0.5700 
  2 C       -1.3980     0.8360    -0.7560 C.2   1 <1>   0.6160 
  3 N       -2.0620     0.0760     0.1840 N.am  1 <1>  -0.6600 
  4 C       -1.2750     2.2630    -0.6310 C.2   1 <1>  -0.1360 
  5 C       -1.8400    -1.3990     0.2760 C.3   1 <1>   0.1400 
  6 C       -3.1790     0.5710     1.0340 C.3   1 <1>   0.1400 
  7 C       -0.8930     3.1330    -1.5960 C.2   1 <1>  -0.1780 
  8 C       -3.0860    -2.1720    -0.2070 C.3   1 <1>   0.0000 
  9 C       -4.4730    -0.1670     0.6710 C.3   1 <1>  -0.1600 
 10 C       -0.7500     4.5660    -1.5180 C.ar  1 <1>   0.0280 
 11 C       -4.2750    -1.6900     0.6710 C.3   1 <1>   0.2000 
 12 C       -3.3570    -1.8640    -1.7070 C.3   1 <1>   0.1200 
 13 C       -2.8530    -3.7050    -0.0690 C.3   1 <1>  -0.1600 
 14 C       -0.5280     5.3030    -2.6790 C.ar  1 <1>  -0.1500 
 15 C       -0.8210     5.2700    -0.3150 C.ar  1 <1>  -0.1500 
 16 O       -5.4670    -2.2690     0.2700 O.3   1 <1>  -0.6800 
 17 O       -2.2230    -2.0580    -2.4810 O.3   1 <1>  -0.6800 
 18 C       -2.6060    -4.2440     1.3530 C.3   1 <1>  -0.1600 
 19 C       -0.3900     6.6790    -2.6480 C.ar  1 <1>  -0.1500 
 20 C       -0.6840     6.6460    -0.2770 C.ar  1 <1>  -0.1500 
 21 C       -2.3550    -5.7540     1.3210 C.3   1 <1>  -0.2400 
 22 C       -0.4690     7.3540    -1.4440 C.ar  1 <1>  -0.1500 
 23 H       -1.5120     2.6280     0.3450 H     1 <1>   0.1500 
 24 H       -0.9740    -1.6900    -0.2950 H     1 <1>   0.0800 
 25 H       -1.6330    -1.6380     1.3030 H     1 <1>   0.0800 
 26 H       -2.9340     0.3940     2.0680 H     1 <1>   0.0800 
 27 H       -3.3320     1.6270     0.8990 H     1 <1>   0.0800 
 28 H       -0.6590     2.7280    -2.5670 H     1 <1>   0.1500 
 29 H       -4.8070     0.1770    -0.2900 H     1 <1>   0.0800 
 30 H       -5.2270     0.0890     1.3930 H     1 <1>   0.0800 
 31 H       -4.1110    -1.9960     1.6890 H     1 <1>   0.0800 
 32 H       -3.6620    -0.8440    -1.8550 H     1 <1>   0.0800 
 33 H       -4.1250    -2.5120    -2.0920 H     1 <1>   0.0800 
 34 H       -3.7080    -4.2190    -0.4750 H     1 <1>   0.0800 
 35 H       -2.0100    -3.9790    -0.6830 H     1 <1>   0.0800 
 36 H       -0.4640     4.7930    -3.6240 H     1 <1>   0.1500 
 37 H       -0.9800     4.7460     0.6070 H     1 <1>   0.1500 
 38 H       -5.6690    -2.0340    -0.6540 H     1 <1>   0.4000 
 39 H       -1.5990    -1.3000    -2.3330 H     1 <1>   0.4000 
 40 H       -1.7520    -3.7680     1.7980 H     1 <1>   0.0800 
 41 H       -3.4650    -4.0590     1.9750 H     1 <1>   0.0800 
 42 H       -0.2200     7.2250    -3.5600 H     1 <1>   0.1500 
 43 H       -0.7440     7.1680     0.6630 H     1 <1>   0.1500 
 44 H       -1.4890    -5.9800     0.7250 H     1 <1>   0.0800 
 45 H       -3.2050    -6.2680     0.9050 H     1 <1>   0.0800 
 46 H       -2.1890    -6.1220     2.3180 H     1 <1>   0.0800 
 47 H       -0.3620     8.4250    -1.4170 H     1 <1>   0.1500 
@<TRIPOS>BOND
  1   1   2  2   
  2   2   3  am  
  3   2   4  1   
  4   3   5  1   
  5   3   6  1   
  6   4   7  2   
  7   4  23  1   
  8   5   8  1   
  9   5  24  1   
 10   5  25  1   
 11   6   9  1   
 12   6  26  1   
 13   6  27  1   
 14   7  10  1   
 15   7  28  1   
 16   8  11  1   
 17   8  12  1   
 18   8  13  1   
 19   9  11  1   
 20   9  29  1   
 21   9  30  1   
 22  10  14  ar  
 23  10  15  ar  
 24  11  16  1   
 25  11  31  1   
 26  12  17  1   
 27  12  32  1   
 28  12  33  1   
 29  13  18  1   
 30  13  34  1   
 31  13  35  1   
 32  14  19  ar  
 33  14  36  1   
 34  15  20  ar  
 35  15  37  1   
 36  16  38  1   
 37  17  39  1   
 38  18  21  1   
 39  18  40  1   
 40  18  41  1   
 41  19  22  ar  
 42  19  42  1   
 43  20  22  ar  
 44  20  43  1   
 45  21  44  1   
 46  21  45  1   
 47  21  46  1   
 48  22  47  1   
@<TRIPOS>SUBSTRUCTURE
  1 ****   2 GROUP 4 **** **** 0

# MOE 2024.06 (io_trps.svl 2023.06)
