@<TRIPOS>MOLECULE
NONAME
49 51 1 0 0 
SMALL
USER_CHARGES


@<TRIPOS>ATOM
  1 CL      -2.7470    -1.2740    -2.5690 Cl    1 <1>  -0.1230 
  2 C       -3.3500    -0.0750    -1.4390 C.2   1 <1>   0.3500 
  3 N       -3.5590     1.1840    -1.8370 N.2   1 <1>  -0.5650 
  4 C       -3.6580    -0.2730    -0.1420 C.2   1 <1>  -0.3320 
  5 C       -3.9840     1.7640    -0.7620 C.2   1 <1>   0.0060 
  6 N       -4.0670     0.9350     0.3070 N.pl3 1 <1>   0.0330 
  7 C       -3.5870    -1.5220     0.6990 C.3   1 <1>   0.5230 
  8 C       -4.3590     3.2350    -0.6920 C.3   1 <1>   0.0200 
  9 N       -4.1080    -2.6580    -0.0960 N.4   1 <1>  -0.9590 
 10 C       -3.3680     4.0230     0.1750 C.3   1 <1>  -0.1600 
 11 C       -5.5590    -2.4720    -0.4120 C.3   1 <1>   0.3430 
 12 C       -3.9900    -3.9410     0.6670 C.3   1 <1>   0.3430 
 13 C       -3.7320     5.5120     0.2310 C.3   1 <1>  -0.1600 
 14 C       -6.3110    -3.3140     0.6210 C.3   1 <1>   0.2000 
 15 C       -5.4050    -4.5300     0.7990 C.3   1 <1>  -0.0800 
 16 C       -2.7390     6.2880     1.1000 C.3   1 <1>  -0.2400 
 17 O       -6.3400    -2.6150     1.8250 O.3   1 <1>  -0.6800 
 18 C       -5.6960    -5.6140    -0.2630 C.3   1 <1>  -0.0170 
 19 C       -4.8820    -6.8790    -0.0340 C.ar  1 <1>   0.1670 
 20 N       -3.5910    -6.8030    -0.3150 N.ar  1 <1>  -0.6200 
 21 C       -5.4990    -8.0370     0.4410 C.ar  1 <1>   0.1600 
 22 C       -2.9670    -7.9530    -0.1020 C.ar  1 <1>   0.1600 
 23 N       -4.8740    -9.1780     0.6650 N.ar  1 <1>  -0.6200 
 24 C       -3.5880    -9.1010     0.3740 C.ar  1 <1>   0.1600 
 25 H       -4.3770     1.2090     1.2470 H     1 <1>   0.2700 
 26 H       -4.1830    -1.4030     1.5910 H     1 <1>   0.0800 
 27 H       -2.5650    -1.7060     0.9900 H     1 <1>   0.0800 
 28 H       -4.3570     3.6390    -1.6910 H     1 <1>   0.0800 
 29 H       -5.3550     3.3330    -0.3000 H     1 <1>   0.0800 
 30 H       -3.5650    -2.7020    -0.9700 H     1 <1>   0.4500 
 31 H       -3.3590     3.6220     1.1730 H     1 <1>   0.0800 
 32 H       -2.3800     3.9120    -0.2390 H     1 <1>   0.0800 
 33 H       -5.8630    -1.4390    -0.3710 H     1 <1>   0.0800 
 34 H       -5.7620    -2.8570    -1.3970 H     1 <1>   0.0800 
 35 H       -3.3180    -4.6170     0.1670 H     1 <1>   0.0800 
 36 H       -3.6010    -3.7460     1.6530 H     1 <1>   0.0800 
 37 H       -3.7260     5.9240    -0.7650 H     1 <1>   0.0800 
 38 H       -4.7230     5.6310     0.6350 H     1 <1>   0.0800 
 39 H       -7.3220    -3.5420     0.3230 H     1 <1>   0.0800 
 40 H       -5.5360    -4.9720     1.7720 H     1 <1>   0.0800 
 41 H       -1.7430     6.2040     0.7000 H     1 <1>   0.0800 
 42 H       -2.7420     5.9110     2.1070 H     1 <1>   0.0800 
 43 H       -3.0080     7.3300     1.1240 H     1 <1>   0.0800 
 44 H       -6.9590    -3.0320     2.4630 H     1 <1>   0.4000 
 45 H       -5.4810    -5.2470    -1.2520 H     1 <1>   0.0800 
 46 H       -6.7420    -5.8660    -0.2370 H     1 <1>   0.0800 
 47 H       -6.5550    -8.0240     0.6460 H     1 <1>   0.1500 
 48 H       -1.9120    -7.9920    -0.3130 H     1 <1>   0.1500 
 49 H       -2.9970    -9.9900     0.5170 H     1 <1>   0.1500 
@<TRIPOS>BOND
  1   1   2  1   
  2   2   3  1   
  3   2   4  2   
  4   3   5  2   
  5   4   6  1   
  6   4   7  1   
  7   5   6  1   
  8   5   8  1   
  9   6  25  1   
 10   7   9  1   
 11   7  26  1   
 12   7  27  1   
 13   8  10  1   
 14   8  28  1   
 15   8  29  1   
 16   9  11  1   
 17   9  12  1   
 18   9  30  1   
 19  10  13  1   
 20  10  31  1   
 21  10  32  1   
 22  11  14  1   
 23  11  33  1   
 24  11  34  1   
 25  12  15  1   
 26  12  35  1   
 27  12  36  1   
 28  13  16  1   
 29  13  37  1   
 30  13  38  1   
 31  14  15  1   
 32  14  17  1   
 33  14  39  1   
 34  15  18  1   
 35  15  40  1   
 36  16  41  1   
 37  16  42  1   
 38  16  43  1   
 39  17  44  1   
 40  18  19  1   
 41  18  45  1   
 42  18  46  1   
 43  19  20  ar  
 44  19  21  ar  
 45  20  22  ar  
 46  21  23  ar  
 47  21  47  1   
 48  22  24  ar  
 49  22  48  1   
 50  23  24  ar  
 51  24  49  1   
@<TRIPOS>SUBSTRUCTURE
  1 ****   9 GROUP 4 **** **** 0

# MOE 2024.06 (io_trps.svl 2023.06)
