@<TRIPOS>MOLECULE
NONAME
51 53 1 0 0 
SMALL
USER_CHARGES


@<TRIPOS>ATOM
  1 O       -0.1180    -0.1930    -0.7260 O.3   1 <1>  -0.2800 
  2 C        1.0850     0.2610    -0.6680 C.2   1 <1>   0.5620 
  3 C       -0.8050     0.6050     0.0530 C.2   1 <1>   0.4250 
  4 N        1.1880     1.2810     0.1060 N.2   1 <1>  -0.3380 
  5 N        2.0840    -0.3330    -1.3950 N.pl3 1 <1>  -0.8530 
  6 N       -0.0330     1.5030     0.5740 N.2   1 <1>  -0.3380 
  7 C       -2.2190     0.3840     0.2330 C.ar  1 <1>   0.0530 
  8 C        3.3560     0.3820    -1.6890 C.3   1 <1>   0.2090 
  9 C       -3.1460     1.4360     0.2970 C.ar  1 <1>   0.0830 
 10 C       -2.7070    -0.9200     0.3490 C.ar  1 <1>  -0.1500 
 11 C        4.1890     0.6110    -0.3930 C.3   1 <1>   0.4230 
 12 O       -2.6770     2.7010     0.1490 O.3   1 <1>  -0.3630 
 13 C       -4.4990     1.1700     0.4890 C.ar  1 <1>  -0.1500 
 14 C       -4.0500    -1.1790     0.5360 C.ar  1 <1>  -0.1500 
 15 N        4.7310     2.0150    -0.2400 N.4   1 <1>  -0.9590 
 16 C        5.3410    -0.4060    -0.3290 C.3   1 <1>  -0.1600 
 17 C       -3.4870     3.8390     0.3360 C.3   1 <1>   0.1200 
 18 C       -4.9490    -0.1310     0.6090 C.ar  1 <1>  -0.1500 
 19 C        5.4970     2.1690     1.0330 C.3   1 <1>   0.3430 
 20 C        3.6440     3.0500    -0.2460 C.3   1 <1>   0.2630 
 21 C        6.1910    -0.2540     0.9360 C.3   1 <1>  -0.1600 
 22 C       -2.6060     5.0790     0.1870 C.3   1 <1>  -0.1600 
 23 C        6.6710     1.1930     1.0740 C.3   1 <1>  -0.1600 
 24 C       -3.4140     6.3660     0.3830 C.3   1 <1>  -0.2400 
 25 H        1.7540    -0.9940    -2.1080 H     1 <1>   0.4000 
 26 H        3.1170     1.3150    -2.1670 H     1 <1>   0.0800 
 27 H        3.9230    -0.2040    -2.3920 H     1 <1>   0.0800 
 28 H       -2.0190    -1.7460     0.2980 H     1 <1>   0.1500 
 29 H        3.5350     0.4210     0.4420 H     1 <1>   0.0800 
 30 H       -5.2230     1.9610     0.5440 H     1 <1>   0.1500 
 31 H       -4.4000    -2.1930     0.6260 H     1 <1>   0.1500 
 32 H        5.3800     2.1920    -1.0160 H     1 <1>   0.4500 
 33 H        5.9690    -0.3000    -1.1970 H     1 <1>   0.0800 
 34 H        4.9280    -1.4010    -0.3500 H     1 <1>   0.0800 
 35 H       -3.9140     3.7930     1.3230 H     1 <1>   0.0800 
 36 H       -4.2620     3.8310    -0.4100 H     1 <1>   0.0800 
 37 H       -5.9970    -0.3310     0.7570 H     1 <1>   0.1500 
 38 H        4.8450     1.9770     1.8710 H     1 <1>   0.0800 
 39 H        5.8680     3.1780     1.1200 H     1 <1>   0.0800 
 40 H        2.9740     2.8930     0.5860 H     1 <1>   0.0800 
 41 H        3.0670     3.0040    -1.1540 H     1 <1>   0.0800 
 42 H        4.0660     4.0390    -0.1610 H     1 <1>   0.0800 
 43 H        7.0370    -0.9200     0.8930 H     1 <1>   0.0800 
 44 H        5.6040    -0.5240     1.8000 H     1 <1>   0.0800 
 45 H       -2.1650     5.0820    -0.7950 H     1 <1>   0.0800 
 46 H       -1.8170     5.0390     0.9180 H     1 <1>   0.0800 
 47 H        7.1870     1.3060     2.0120 H     1 <1>   0.0800 
 48 H        7.3690     1.4310     0.2910 H     1 <1>   0.0800 
 49 H       -4.2000     6.4340    -0.3490 H     1 <1>   0.0800 
 50 H       -2.7710     7.2220     0.2740 H     1 <1>   0.0800 
 51 H       -3.8510     6.3910     1.3660 H     1 <1>   0.0800 
@<TRIPOS>BOND
  1   1   2  1   
  2   1   3  1   
  3   2   4  2   
  4   2   5  1   
  5   3   6  2   
  6   3   7  1   
  7   4   6  1   
  8   5   8  1   
  9   5  25  1   
 10   7   9  ar  
 11   7  10  ar  
 12   8  11  1   
 13   8  26  1   
 14   8  27  1   
 15   9  12  1   
 16   9  13  ar  
 17  10  14  ar  
 18  10  28  1   
 19  11  15  1   
 20  11  16  1   
 21  11  29  1   
 22  12  17  1   
 23  13  18  ar  
 24  13  30  1   
 25  14  18  ar  
 26  14  31  1   
 27  15  19  1   
 28  15  20  1   
 29  15  32  1   
 30  16  21  1   
 31  16  33  1   
 32  16  34  1   
 33  17  22  1   
 34  17  35  1   
 35  17  36  1   
 36  18  37  1   
 37  19  23  1   
 38  19  38  1   
 39  19  39  1   
 40  20  40  1   
 41  20  41  1   
 42  20  42  1   
 43  21  23  1   
 44  21  43  1   
 45  21  44  1   
 46  22  24  1   
 47  22  45  1   
 48  22  46  1   
 49  23  47  1   
 50  23  48  1   
 51  24  49  1   
 52  24  50  1   
 53  24  51  1   
@<TRIPOS>SUBSTRUCTURE
  1 ****   6 GROUP 4 **** **** 0

# MOE 2024.06 (io_trps.svl 2023.06)
