@<TRIPOS>MOLECULE
NONAME
55 58 1 0 0 
SMALL
USER_CHARGES


@<TRIPOS>ATOM
  1 O       -0.4030     0.6630    -1.5660 O.2   1 <1>  -0.5700 
  2 C       -0.1530     1.7180    -1.0270 C.2   1 <1>   0.5690 
  3 N       -1.1080     2.4810    -0.4050 N.am  1 <1>  -0.5090 
  4 C        1.2950     2.2130    -1.0950 C.3   1 <1>   0.1810 
  5 C       -0.7820     3.8400     0.1350 C.3   1 <1>   0.3640 
  6 C       -2.4970     2.0090    -0.1860 C.3   1 <1>   0.0490 
  7 O        1.5700     3.2850    -0.2260 O.3   1 <1>  -0.5600 
  8 C       -1.8100     4.8800    -0.3210 C.ar  1 <1>  -0.1440 
  9 C        0.6200     4.3280    -0.2900 C.3   1 <1>   0.2610 
 10 C       -3.0190     1.9350     1.2160 C.3   1 <1>  -0.2000 
 11 C       -2.7350     0.6790     0.4580 C.3   1 <1>  -0.2000 
 12 C       -2.2250     4.9600    -1.6450 C.ar  1 <1>  -0.1500 
 13 C       -2.3160     5.7890     0.5970 C.ar  1 <1>  -0.1500 
 14 C        1.0350     5.5410     0.5570 C.2   1 <1>   0.5690 
 15 C       -3.1220     5.9360    -2.0390 C.ar  1 <1>  -0.1500 
 16 C       -3.2130     6.7670     0.2050 C.ar  1 <1>  -0.1500 
 17 O        0.7690     5.5430     1.7400 O.2   1 <1>  -0.5700 
 18 N        1.6390     6.6310    -0.0300 N.am  1 <1>  -0.6600 
 19 C       -3.6180     6.8480    -1.1230 C.ar  1 <1>   0.0830 
 20 C        1.6530     7.9440     0.6760 C.3   1 <1>   0.1400 
 21 C        2.2620     6.6200    -1.3830 C.3   1 <1>   0.0600 
 22 O       -4.4810     7.7810    -1.5950 O.3   1 <1>  -0.3630 
 23 C        0.2670     8.5990     0.6040 C.3   1 <1>   0.0000 
 24 C       -5.0040     8.7850    -0.7540 C.3   1 <1>   0.0400 
 25 C       -0.2160     9.0150    -0.8120 C.3   1 <1>   0.0000 
 26 C        0.2370    10.1050     0.9710 C.3   1 <1>   0.0000 
 27 C       -0.8340    10.2680    -0.1400 C.3   1 <1>   0.0000 
 28 H        1.5160     2.5260    -2.0990 H     1 <1>   0.0800 
 29 H        1.9550     1.4070    -0.8330 H     1 <1>   0.0800 
 30 H       -0.8080     3.7690     1.2080 H     1 <1>   0.0800 
 31 H       -3.1700     2.3210    -0.9680 H     1 <1>   0.1000 
 32 H        0.5590     4.6410    -1.3150 H     1 <1>   0.0800 
 33 H       -2.3770     2.1770     2.0440 H     1 <1>   0.1000 
 34 H       -4.0460     2.2000     1.3960 H     1 <1>   0.1000 
 35 H       -3.5620     0.0850     0.1130 H     1 <1>   0.1000 
 36 H       -1.8820     0.0810     0.7280 H     1 <1>   0.1000 
 37 H       -1.8540     4.2620    -2.3760 H     1 <1>   0.1500 
 38 H       -2.0040     5.7470     1.6280 H     1 <1>   0.1500 
 39 H       -3.4440     5.9980    -3.0630 H     1 <1>   0.1500 
 40 H       -3.5780     7.4540     0.9430 H     1 <1>   0.1500 
 41 H        1.9200     7.7920     1.7080 H     1 <1>   0.0800 
 42 H        2.3920     8.5900     0.2350 H     1 <1>   0.0800 
 43 H        3.1440     7.2350    -1.3870 H     1 <1>   0.0800 
 44 H        1.5640     7.0000    -2.1090 H     1 <1>   0.0800 
 45 H        2.5540     5.6210    -1.6570 H     1 <1>   0.0800 
 46 H       -0.4860     8.0540     1.1480 H     1 <1>   0.0000 
 47 H       -5.6440     9.4150    -1.3450 H     1 <1>   0.0800 
 48 H       -4.1910     9.3630    -0.3530 H     1 <1>   0.0800 
 49 H       -5.5730     8.3210     0.0320 H     1 <1>   0.0800 
 50 H        0.5910     9.2640    -1.4810 H     1 <1>   0.0000 
 51 H       -0.9410     8.3460    -1.2400 H     1 <1>   0.0000 
 52 H       -0.1300    10.3050     1.9620 H     1 <1>   0.0000 
 53 H        1.1540    10.6200     0.7380 H     1 <1>   0.0000 
 54 H       -1.8350    10.0970     0.2180 H     1 <1>   0.0000 
 55 H       -0.7290    11.1690    -0.7190 H     1 <1>   0.0000 
@<TRIPOS>BOND
  1   1   2  2   
  2   2   3  am  
  3   2   4  1   
  4   3   5  1   
  5   3   6  1   
  6   4   7  1   
  7   4  28  1   
  8   4  29  1   
  9   5   8  1   
 10   5   9  1   
 11   5  30  1   
 12   6  10  1   
 13   6  11  1   
 14   6  31  1   
 15   7   9  1   
 16   8  12  ar  
 17   8  13  ar  
 18   9  14  1   
 19   9  32  1   
 20  10  11  1   
 21  10  33  1   
 22  10  34  1   
 23  11  35  1   
 24  11  36  1   
 25  12  15  ar  
 26  12  37  1   
 27  13  16  ar  
 28  13  38  1   
 29  14  17  2   
 30  14  18  am  
 31  15  19  ar  
 32  15  39  1   
 33  16  19  ar  
 34  16  40  1   
 35  18  20  1   
 36  18  21  1   
 37  19  22  1   
 38  20  23  1   
 39  20  41  1   
 40  20  42  1   
 41  21  43  1   
 42  21  44  1   
 43  21  45  1   
 44  22  24  1   
 45  23  25  1   
 46  23  26  1   
 47  23  46  1   
 48  24  47  1   
 49  24  48  1   
 50  24  49  1   
 51  25  27  1   
 52  25  50  1   
 53  25  51  1   
 54  26  27  1   
 55  26  52  1   
 56  26  53  1   
 57  27  54  1   
 58  27  55  1   
@<TRIPOS>SUBSTRUCTURE
  1 ****   8 GROUP 4 **** **** 0

# MOE 2024.06 (io_trps.svl 2023.06)
