@<TRIPOS>MOLECULE
NONAME
51 52 1 0 0 
SMALL
USER_CHARGES


@<TRIPOS>ATOM
  1 S       -0.8440    -0.0760    -1.1230 S.3   1 <1>  -0.0800 
  2 C       -1.0830    -0.8940     0.3870 C.2   1 <1>   0.4420 
  3 C       -0.4770     1.3450    -0.2100 C.2   1 <1>   0.1980 
  4 N       -0.8840    -0.1170     1.3910 N.2   1 <1>  -0.3380 
  5 N       -1.4330    -2.2230     0.3220 N.am  1 <1>  -0.4940 
  6 N       -0.5400     1.1580     1.0440 N.2   1 <1>  -0.3380 
  7 C       -0.1320     2.6170    -0.9510 C.3   1 <1>   0.0200 
  8 C       -1.8230    -3.0750     1.3100 C.2   1 <1>   0.5690 
  9 C        0.1110     3.7320     0.0730 C.3   1 <1>   0.3430 
 10 O       -2.0210    -2.7270     2.4440 O.2   1 <1>  -0.5700 
 11 C       -2.0230    -4.5390     0.9700 C.3   1 <1>  -0.0990 
 12 N        0.3980     5.0630    -0.5630 N.4   1 <1>  -0.9590 
 13 C       -3.3710    -4.7900     0.2700 C.3   1 <1>   0.2510 
 14 C        1.7250     5.0930    -1.2590 C.3   1 <1>   0.2630 
 15 C        0.3460     6.1350     0.4800 C.3   1 <1>   0.2630 
 16 N       -3.8640    -6.1910     0.4750 N.3   1 <1>  -0.8100 
 17 C       -3.4170    -4.3640    -1.2180 C.2   1 <1>   0.5690 
 18 C       -2.9130    -7.3090     0.2690 C.3   1 <1>   0.1900 
 19 C       -5.2290    -6.3230    -0.1010 C.3   1 <1>   0.1100 
 20 O       -2.5650    -3.6560    -1.7060 O.2   1 <1>  -0.5700 
 21 N       -4.4400    -4.8080    -1.9880 N.am  1 <1>  -0.7300 
 22 C       -2.6210    -7.6250    -1.1980 C.3   1 <1>  -0.2400 
 23 C       -3.4180    -8.5510     1.0010 C.3   1 <1>  -0.2400 
 24 C       -5.3640    -5.9060    -1.5880 C.3   1 <1>   0.1400 
 25 H       -1.5100    -2.6080    -0.6270 H     1 <1>   0.3700 
 26 H       -0.9540     2.8740    -1.5940 H     1 <1>   0.0800 
 27 H        0.7490     2.4390    -1.5390 H     1 <1>   0.0800 
 28 H        0.9290     3.4480     0.7160 H     1 <1>   0.0800 
 29 H       -0.7690     3.8140     0.6910 H     1 <1>   0.0800 
 30 H       -2.0060    -5.0830     1.8970 H     1 <1>   0.0800 
 31 H       -1.2110    -4.8790     0.3560 H     1 <1>   0.0800 
 32 H       -0.3440     5.2630    -1.2520 H     1 <1>   0.4500 
 33 H       -4.0810    -4.1540     0.7690 H     1 <1>   0.0800 
 34 H        2.5190     4.8730    -0.5630 H     1 <1>   0.0800 
 35 H        1.9010     6.0680    -1.6850 H     1 <1>   0.0800 
 36 H        1.7520     4.3660    -2.0540 H     1 <1>   0.0800 
 37 H        1.1020     5.9670     1.2300 H     1 <1>   0.0800 
 38 H       -0.6190     6.1440     0.9620 H     1 <1>   0.0800 
 39 H        0.5140     7.1020     0.0330 H     1 <1>   0.0800 
 40 H       -1.9770    -7.0550     0.7360 H     1 <1>   0.0800 
 41 H       -5.8840    -5.6890     0.4720 H     1 <1>   0.0800 
 42 H       -5.6000    -7.3230     0.0240 H     1 <1>   0.0800 
 43 H       -4.4380    -4.5260    -2.9700 H     1 <1>   0.3700 
 44 H       -3.4840    -8.0330    -1.6870 H     1 <1>   0.0800 
 45 H       -1.8410    -8.3640    -1.2500 H     1 <1>   0.0800 
 46 H       -2.2770    -6.7540    -1.7210 H     1 <1>   0.0800 
 47 H       -4.2760    -8.9750     0.5150 H     1 <1>   0.0800 
 48 H       -3.6670    -8.3010     2.0170 H     1 <1>   0.0800 
 49 H       -2.6460    -9.2980     1.0180 H     1 <1>   0.0800 
 50 H       -6.3790    -5.5980    -1.7710 H     1 <1>   0.0800 
 51 H       -5.1760    -6.7590    -2.2140 H     1 <1>   0.0800 
@<TRIPOS>BOND
  1   1   2  1   
  2   1   3  1   
  3   2   4  2   
  4   2   5  1   
  5   3   6  2   
  6   3   7  1   
  7   4   6  1   
  8   5   8  am  
  9   5  25  1   
 10   7   9  1   
 11   7  26  1   
 12   7  27  1   
 13   8  10  2   
 14   8  11  1   
 15   9  12  1   
 16   9  28  1   
 17   9  29  1   
 18  11  13  1   
 19  11  30  1   
 20  11  31  1   
 21  12  14  1   
 22  12  15  1   
 23  12  32  1   
 24  13  16  1   
 25  13  17  1   
 26  13  33  1   
 27  14  34  1   
 28  14  35  1   
 29  14  36  1   
 30  15  37  1   
 31  15  38  1   
 32  15  39  1   
 33  16  18  1   
 34  16  19  1   
 35  17  20  2   
 36  17  21  am  
 37  18  22  1   
 38  18  23  1   
 39  18  40  1   
 40  19  24  1   
 41  19  41  1   
 42  19  42  1   
 43  21  24  1   
 44  21  43  1   
 45  22  44  1   
 46  22  45  1   
 47  22  46  1   
 48  23  47  1   
 49  23  48  1   
 50  23  49  1   
 51  24  50  1   
 52  24  51  1   
@<TRIPOS>SUBSTRUCTURE
  1 ****   5 GROUP 4 **** **** 0

# MOE 2024.06 (io_trps.svl 2023.06)
