@<TRIPOS>MOLECULE
NONAME
51 53 1 0 0 
SMALL
USER_CHARGES


@<TRIPOS>ATOM
  1 O        3.6570     0.2830     1.6130 O.co2 1 <1>  -0.9000 
  2 C        3.3080     0.0790     0.4450 C.2   1 <1>   0.9060 
  3 O        3.2180    -1.0710    -0.0130 O.co2 1 <1>  -0.9000 
  4 C        3.0510     1.2470    -0.5120 C.3   1 <1>  -0.1060 
  5 C        4.1840     1.0990    -1.5590 C.3   1 <1>   0.2000 
  6 C        3.1530     2.6480     0.1720 C.3   1 <1>  -0.1600 
  7 C        1.6350     1.1060    -1.1490 C.3   1 <1>  -0.0160 
  8 O        3.8700     0.1000    -2.4660 O.3   1 <1>  -0.6800 
  9 C        4.5150     2.4110    -2.2800 C.3   1 <1>   0.1400 
 10 C        4.5650     3.2340     0.1280 C.3   1 <1>   0.1400 
 11 C        0.4770     1.5080    -0.2360 C.ar  1 <1>  -0.1440 
 12 N        4.9650     3.4600    -1.3000 N.am  1 <1>  -0.6600 
 13 C       -0.2760     2.6390    -0.5120 C.ar  1 <1>  -0.1500 
 14 C        0.1620     0.7430     0.8770 C.ar  1 <1>  -0.1500 
 15 C        5.7440     4.5050    -1.7290 C.2   1 <1>   0.5690 
 16 C       -1.3270     3.0030     0.3120 C.ar  1 <1>  -0.1500 
 17 C       -0.8870     1.1060     1.7040 C.ar  1 <1>  -0.1500 
 18 O        5.9770     4.6720    -2.9050 O.2   1 <1>  -0.5700 
 19 C        6.3410     5.5220    -0.7600 C.3   1 <1>   0.0440 
 20 C       -1.6330     2.2370     1.4230 C.ar  1 <1>  -0.1500 
 21 C        7.2640     4.9310     0.3110 C.ar  1 <1>  -0.1430 
 22 C        8.4010     4.1890    -0.0060 C.ar  1 <1>  -0.1430 
 23 C        6.9500     5.1500     1.6460 C.ar  1 <1>  -0.1500 
 24 C        9.1850     3.6700     1.0130 C.ar  1 <1>  -0.1500 
 25 C        8.8200     3.9110    -1.4440 C.3   1 <1>  -0.0970 
 26 C        7.7390     4.6300     2.6560 C.ar  1 <1>  -0.1500 
 27 C        8.8580     3.8870     2.3390 C.ar  1 <1>  -0.1500 
 28 H        5.0850     0.7760    -1.0620 H     1 <1>   0.0800 
 29 H        2.8220     2.5810     1.1940 H     1 <1>   0.0800 
 30 H        2.5060     3.3520    -0.3170 H     1 <1>   0.0800 
 31 H        1.5970     1.7070    -2.0390 H     1 <1>   0.0800 
 32 H        1.4720     0.0890    -1.4620 H     1 <1>   0.0800 
 33 H        3.6210    -0.6860    -1.9090 H     1 <1>   0.4000 
 34 H        3.6450     2.7690    -2.8000 H     1 <1>   0.0800 
 35 H        5.2990     2.2300    -2.9950 H     1 <1>   0.0800 
 36 H        5.2600     2.5580     0.6010 H     1 <1>   0.0800 
 37 H        4.5690     4.1590     0.6730 H     1 <1>   0.0800 
 38 H       -0.0450     3.2410    -1.3720 H     1 <1>   0.1500 
 39 H        0.7380    -0.1390     1.1060 H     1 <1>   0.1500 
 40 H       -1.9040     3.8830     0.0890 H     1 <1>   0.1500 
 41 H       -1.1130     0.5040     2.5660 H     1 <1>   0.1500 
 42 H        6.9000     6.2430    -1.3250 H     1 <1>   0.0800 
 43 H        5.5280     6.0530    -0.3040 H     1 <1>   0.0800 
 44 H       -2.4470     2.5180     2.0670 H     1 <1>   0.1500 
 45 H        6.0830     5.7260     1.9150 H     1 <1>   0.1500 
 46 H       10.0580     3.0870     0.7800 H     1 <1>   0.1500 
 47 H        9.8430     3.5860    -1.4900 H     1 <1>   0.0800 
 48 H        8.7280     4.7960    -2.0470 H     1 <1>   0.0800 
 49 H        8.2000     3.1380    -1.8620 H     1 <1>   0.0800 
 50 H        7.4790     4.8010     3.6860 H     1 <1>   0.1500 
 51 H        9.4720     3.4750     3.1200 H     1 <1>   0.1500 
@<TRIPOS>BOND
  1   1   2  ar  
  2   2   3  ar  
  3   2   4  1   
  4   4   5  1   
  5   4   6  1   
  6   4   7  1   
  7   5   8  1   
  8   5   9  1   
  9   5  28  1   
 10   6  10  1   
 11   6  29  1   
 12   6  30  1   
 13   7  11  1   
 14   7  31  1   
 15   7  32  1   
 16   8  33  1   
 17   9  12  1   
 18   9  34  1   
 19   9  35  1   
 20  10  12  1   
 21  10  36  1   
 22  10  37  1   
 23  11  13  ar  
 24  11  14  ar  
 25  12  15  am  
 26  13  16  ar  
 27  13  38  1   
 28  14  17  ar  
 29  14  39  1   
 30  15  18  2   
 31  15  19  1   
 32  16  20  ar  
 33  16  40  1   
 34  17  20  ar  
 35  17  41  1   
 36  19  21  1   
 37  19  42  1   
 38  19  43  1   
 39  20  44  1   
 40  21  22  ar  
 41  21  23  ar  
 42  22  24  ar  
 43  22  25  1   
 44  23  26  ar  
 45  23  45  1   
 46  24  27  ar  
 47  24  46  1   
 48  25  47  1   
 49  25  48  1   
 50  25  49  1   
 51  26  27  ar  
 52  26  50  1   
 53  27  51  1   
@<TRIPOS>SUBSTRUCTURE
  1 ****  10 GROUP 4 **** **** 0

# MOE 2024.06 (io_trps.svl 2023.06)
