@<TRIPOS>MOLECULE
NONAME
48 49 1 0 0 
SMALL
USER_CHARGES


@<TRIPOS>ATOM
  1 O        0.8220    -0.4580     1.0540 O.co2 1 <1>  -0.9000 
  2 C        1.1160    -1.5350     1.6010 C.2   1 <1>   0.9790 
  3 O        1.4380    -1.5370     2.8010 O.co2 1 <1>  -0.9000 
  4 C        1.0630    -2.7830     0.8480 C.ar  1 <1>  -0.1790 
  5 C        0.7160    -2.8030    -0.5020 C.ar  1 <1>  -0.1500 
  6 C        1.3560    -4.0070     1.4490 C.ar  1 <1>  -0.1500 
  7 C        0.6360    -3.9850    -1.2130 C.ar  1 <1>  -0.1500 
  8 C        1.2790    -5.1950     0.7500 C.ar  1 <1>  -0.1500 
  9 C        0.8990    -5.1910    -0.5840 C.ar  1 <1>  -0.1430 
 10 C        0.7380    -6.4940    -1.3270 C.3   1 <1>   0.4870 
 11 N       -0.5460    -7.0910    -0.8540 N.4   1 <1>  -0.9590 
 12 C       -0.6190    -8.5540    -1.1420 C.3   1 <1>   0.3430 
 13 C       -1.7010    -6.3050    -1.4070 C.3   1 <1>   0.2630 
 14 C       -1.3310    -9.3300    -0.0120 C.3   1 <1>  -0.0800 
 15 C       -1.3430   -10.8710    -0.1820 C.3   1 <1>   0.5030 
 16 C       -2.8000    -8.9660     0.2160 C.3   1 <1>  -0.1600 
 17 N       -2.6290   -11.3270     0.4200 N.4   1 <1>  -0.9590 
 18 C       -0.1100   -11.5000     0.4800 C.3   1 <1>  -0.2400 
 19 C       -1.4100   -11.3190    -1.6450 C.3   1 <1>  -0.2400 
 20 C       -3.3370   -10.1540     0.9960 C.3   1 <1>   0.3430 
 21 C       -2.5930   -12.4720     1.3920 C.3   1 <1>   0.2630 
 22 H        0.5060    -1.8620    -0.9860 H     1 <1>   0.1500 
 23 H        1.6470    -4.0040     2.4890 H     1 <1>   0.1500 
 24 H        0.3620    -3.9390    -2.2530 H     1 <1>   0.1500 
 25 H        1.5210    -6.1060     1.2670 H     1 <1>   0.1500 
 26 H        1.5700    -7.1380    -1.0910 H     1 <1>   0.0800 
 27 H        0.7170    -6.3230    -2.3910 H     1 <1>   0.0800 
 28 H       -0.5250    -6.9180     0.1630 H     1 <1>   0.4500 
 29 H        0.3820    -8.9450    -1.2360 H     1 <1>   0.0800 
 30 H       -1.1230    -8.7150    -2.0820 H     1 <1>   0.0800 
 31 H       -1.7140    -6.3580    -2.4830 H     1 <1>   0.0800 
 32 H       -1.6170    -5.2680    -1.1170 H     1 <1>   0.0800 
 33 H       -2.6360    -6.6810    -1.0300 H     1 <1>   0.0800 
 34 H       -0.8000    -9.1150     0.9000 H     1 <1>   0.0800 
 35 H       -3.3360    -8.8860    -0.7140 H     1 <1>   0.0800 
 36 H       -2.9220    -8.0550     0.7770 H     1 <1>   0.0800 
 37 H       -3.1960   -11.6470    -0.3780 H     1 <1>   0.4500 
 38 H       -0.0740   -11.2830     1.5330 H     1 <1>   0.0800 
 39 H        0.7880   -11.1080     0.0360 H     1 <1>   0.0800 
 40 H       -0.0900   -12.5670     0.3370 H     1 <1>   0.0800 
 41 H       -2.2260   -10.8490    -2.1660 H     1 <1>   0.0800 
 42 H       -1.5320   -12.3870    -1.7060 H     1 <1>   0.0800 
 43 H       -0.4970   -11.0810    -2.1630 H     1 <1>   0.0800 
 44 H       -4.4090   -10.2470     0.9050 H     1 <1>   0.0800 
 45 H       -3.0780   -10.0470     2.0380 H     1 <1>   0.0800 
 46 H       -2.0260   -12.2060     2.2690 H     1 <1>   0.0800 
 47 H       -2.1370   -13.3370     0.9360 H     1 <1>   0.0800 
 48 H       -3.5920   -12.7370     1.6980 H     1 <1>   0.0800 
@<TRIPOS>BOND
  1   1   2  ar  
  2   2   3  ar  
  3   2   4  1   
  4   4   5  ar  
  5   4   6  ar  
  6   5   7  ar  
  7   5  22  1   
  8   6   8  ar  
  9   6  23  1   
 10   7   9  ar  
 11   7  24  1   
 12   8   9  ar  
 13   8  25  1   
 14   9  10  1   
 15  10  11  1   
 16  10  26  1   
 17  10  27  1   
 18  11  12  1   
 19  11  13  1   
 20  11  28  1   
 21  12  14  1   
 22  12  29  1   
 23  12  30  1   
 24  13  31  1   
 25  13  32  1   
 26  13  33  1   
 27  14  15  1   
 28  14  16  1   
 29  14  34  1   
 30  15  17  1   
 31  15  18  1   
 32  15  19  1   
 33  16  20  1   
 34  16  35  1   
 35  16  36  1   
 36  17  20  1   
 37  17  21  1   
 38  17  37  1   
 39  18  38  1   
 40  18  39  1   
 41  18  40  1   
 42  19  41  1   
 43  19  42  1   
 44  19  43  1   
 45  20  44  1   
 46  20  45  1   
 47  21  46  1   
 48  21  47  1   
 49  21  48  1   
@<TRIPOS>SUBSTRUCTURE
  1 ****  11 GROUP 4 **** **** 0

# MOE 2024.06 (io_trps.svl 2023.06)
