@<TRIPOS>MOLECULE
NONAME
45 47 1 0 0 
SMALL
USER_CHARGES


@<TRIPOS>ATOM
  1 S       -0.2310    -1.1660    -1.3040 S.o2  1 <1>   1.4470 
  2 O        0.2460    -0.6790    -2.5810 O.2   1 <1>  -0.6500 
  3 O       -0.9770    -2.4030    -1.2460 O.2   1 <1>  -0.6500 
  4 N       -1.2210     0.0490    -0.6540 N.am  1 <1>  -0.8490 
  5 C        1.1260    -1.2350    -0.1010 C.ar  1 <1>  -0.0090 
  6 C       -2.6000    -0.0350    -1.1730 C.3   1 <1>   0.1960 
  7 C       -0.6640     1.3900    -0.8710 C.3   1 <1>   0.1960 
  8 C        2.4270    -0.9090    -0.4610 C.ar  1 <1>  -0.1500 
  9 C        0.8850    -1.5980     1.2200 C.ar  1 <1>  -0.1500 
 10 C       -3.5480     0.9630    -0.4550 C.3   1 <1>   0.0000 
 11 C       -1.5040     2.4440    -0.1410 C.3   1 <1>  -0.1600 
 12 C        3.4510    -0.9340     0.4730 C.ar  1 <1>   0.0820 
 13 C        1.9060    -1.6380     2.1550 C.ar  1 <1>  -0.1500 
 14 C       -3.8430     0.5510     1.0050 C.3   1 <1>   0.2000 
 15 C       -2.9760     2.3910    -0.5740 C.3   1 <1>  -0.1600 
 16 C       -4.9460     0.8800    -1.0850 C.3   1 <1>  -0.1600 
 17 O        4.7020    -0.6020     0.0960 O.3   1 <1>  -0.3630 
 18 C        3.1950    -1.3080     1.7810 C.ar  1 <1>  -0.1500 
 19 O       -2.7300     0.0370     1.6370 O.3   1 <1>  -0.6800 
 20 C       -4.9420    -0.5080     0.9360 C.3   1 <1>  -0.1600 
 21 C       -5.6250    -0.3250    -0.4260 C.3   1 <1>  -0.1600 
 22 C        5.1000     0.7410     0.2800 C.3   1 <1>   1.3000 
 23 F        4.2720     1.5820    -0.3300 F     1 <1>  -0.3400 
 24 F        5.1430     1.0600     1.5680 F     1 <1>  -0.3400 
 25 F        6.3110     0.9290    -0.2240 F     1 <1>  -0.3400 
 26 H       -2.5920     0.1650    -2.2320 H     1 <1>   0.0800 
 27 H       -2.9790    -1.0340    -1.0320 H     1 <1>   0.0800 
 28 H        0.3470     1.4310    -0.5000 H     1 <1>   0.0800 
 29 H       -0.6430     1.6140    -1.9270 H     1 <1>   0.0800 
 30 H        2.6460    -0.6300    -1.4780 H     1 <1>   0.1500 
 31 H       -0.1190    -1.8530     1.5210 H     1 <1>   0.1500 
 32 H       -1.4230     2.2850     0.9200 H     1 <1>   0.0800 
 33 H       -1.1040     3.4200    -0.3510 H     1 <1>   0.0800 
 34 H        1.6940    -1.9270     3.1710 H     1 <1>   0.1500 
 35 H       -4.1910     1.3970     1.5740 H     1 <1>   0.0800 
 36 H       -3.0430     2.7110    -1.6000 H     1 <1>   0.0800 
 37 H       -3.5540     3.0780     0.0200 H     1 <1>   0.0800 
 38 H       -5.5060     1.7660    -0.8350 H     1 <1>   0.0800 
 39 H       -4.9160     0.7880    -2.1570 H     1 <1>   0.0800 
 40 H        3.9940    -1.3420     2.5020 H     1 <1>   0.1500 
 41 H       -2.0190    -0.0270     0.9480 H     1 <1>   0.4000 
 42 H       -4.5240    -1.4980     1.0040 H     1 <1>   0.0800 
 43 H       -5.6420    -0.3630     1.7400 H     1 <1>   0.0800 
 44 H       -5.4720    -1.2070    -1.0250 H     1 <1>   0.0800 
 45 H       -6.6840    -0.1620    -0.3180 H     1 <1>   0.0800 
@<TRIPOS>BOND
  1   1   2  2   
  2   1   3  2   
  3   1   4  am  
  4   1   5  1   
  5   4   6  1   
  6   4   7  1   
  7   5   8  ar  
  8   5   9  ar  
  9   6  10  1   
 10   6  26  1   
 11   6  27  1   
 12   7  11  1   
 13   7  28  1   
 14   7  29  1   
 15   8  12  ar  
 16   8  30  1   
 17   9  13  ar  
 18   9  31  1   
 19  10  14  1   
 20  10  15  1   
 21  10  16  1   
 22  11  15  1   
 23  11  32  1   
 24  11  33  1   
 25  12  17  1   
 26  12  18  ar  
 27  13  18  ar  
 28  13  34  1   
 29  14  19  1   
 30  14  20  1   
 31  14  35  1   
 32  15  36  1   
 33  15  37  1   
 34  16  21  1   
 35  16  38  1   
 36  16  39  1   
 37  17  22  1   
 38  18  40  1   
 39  19  41  1   
 40  20  21  1   
 41  20  42  1   
 42  20  43  1   
 43  21  44  1   
 44  21  45  1   
 45  22  23  1   
 46  22  24  1   
 47  22  25  1   
@<TRIPOS>SUBSTRUCTURE
  1 ****   4 GROUP 4 **** **** 0

# MOE 2024.06 (io_trps.svl 2023.06)
