@<TRIPOS>MOLECULE
NONAME
42 43 1 0 0 
SMALL
USER_CHARGES


@<TRIPOS>ATOM
  1 O       -1.3710    -0.3500    -0.1630 O.2   1 <1>  -0.5700 
  2 C       -2.0830     0.4970     0.3310 C.2   1 <1>   0.5690 
  3 N       -3.2080     0.1290     1.0300 N.am  1 <1>  -0.6600 
  4 C       -1.7070     1.9750     0.1270 C.3   1 <1>  -0.0190 
  5 C       -3.4120    -1.3080     1.3900 C.3   1 <1>   0.3200 
  6 C       -4.3410     1.0360     1.3990 C.3   1 <1>   0.1400 
  7 C       -2.4020     2.5220    -1.1400 C.3   1 <1>  -0.1600 
  8 C       -0.1730     2.1570     0.0360 C.3   1 <1>  -0.1600 
  9 C       -4.0520    -2.0680     0.2400 C.2   1 <1>   0.0060 
 10 C       -5.5430     0.8420     0.4660 C.3   1 <1>   0.1200 
 11 C       -2.7720     4.0130    -1.0880 C.3   1 <1>  -0.1600 
 12 C        0.3320     3.6000     0.1910 C.3   1 <1>  -0.1600 
 13 N       -5.2010    -2.6670     0.2860 N.2   1 <1>  -0.5650 
 14 N       -3.4370    -2.1680    -0.9560 N.pl3 1 <1>   0.0330 
 15 O       -6.5010     1.8020     0.7580 O.3   1 <1>  -0.6800 
 16 C       -1.7340     4.9550    -0.4600 C.3   1 <1>  -0.1600 
 17 C       -0.2730     4.6150    -0.7900 C.3   1 <1>  -0.1600 
 18 C       -5.3390    -3.1850    -0.9510 C.2   1 <1>   0.0770 
 19 C       -4.2710    -2.8900    -1.7240 C.2   1 <1>  -0.3020 
 20 H       -2.0370     2.5160     0.9920 H     1 <1>   0.0800 
 21 H       -4.0380    -1.3860     2.2610 H     1 <1>   0.0800 
 22 H       -2.4640    -1.7610     1.6260 H     1 <1>   0.0800 
 23 H       -4.0400     2.0650     1.3420 H     1 <1>   0.0800 
 24 H       -4.6380     0.8340     2.4130 H     1 <1>   0.0800 
 25 H       -3.3100     1.9740    -1.3180 H     1 <1>   0.0800 
 26 H       -1.7730     2.3410    -1.9940 H     1 <1>   0.0800 
 27 H        0.1800     1.7570    -0.8990 H     1 <1>   0.0800 
 28 H        0.2850     1.5700     0.8140 H     1 <1>   0.0800 
 29 H       -5.9910    -0.1290     0.5880 H     1 <1>   0.0800 
 30 H       -5.2490     0.9750    -0.5600 H     1 <1>   0.0800 
 31 H       -3.6950     4.1240    -0.5430 H     1 <1>   0.0800 
 32 H       -2.9660     4.3380    -2.0960 H     1 <1>   0.0800 
 33 H        1.3990     3.5900     0.0490 H     1 <1>   0.0800 
 34 H        0.1550     3.9310     1.2000 H     1 <1>   0.0800 
 35 H       -2.5260    -1.7410    -1.1800 H     1 <1>   0.2700 
 36 H       -7.0470     1.5260     1.5200 H     1 <1>   0.4000 
 37 H       -1.8640     4.9740     0.6080 H     1 <1>   0.0800 
 38 H       -1.9420     5.9510    -0.8120 H     1 <1>   0.0800 
 39 H       -0.1800     4.2680    -1.8060 H     1 <1>   0.0800 
 40 H        0.3010     5.5220    -0.7110 H     1 <1>   0.0800 
 41 H       -6.2130    -3.7530    -1.2240 H     1 <1>   0.1500 
 42 H       -4.0640    -3.1440    -2.7470 H     1 <1>   0.1500 
@<TRIPOS>BOND
  1   1   2  2   
  2   2   3  am  
  3   2   4  1   
  4   3   5  1   
  5   3   6  1   
  6   4   7  1   
  7   4   8  1   
  8   4  20  1   
  9   5   9  1   
 10   5  21  1   
 11   5  22  1   
 12   6  10  1   
 13   6  23  1   
 14   6  24  1   
 15   7  11  1   
 16   7  25  1   
 17   7  26  1   
 18   8  12  1   
 19   8  27  1   
 20   8  28  1   
 21   9  13  2   
 22   9  14  1   
 23  10  15  1   
 24  10  29  1   
 25  10  30  1   
 26  11  16  1   
 27  11  31  1   
 28  11  32  1   
 29  12  17  1   
 30  12  33  1   
 31  12  34  1   
 32  13  18  1   
 33  14  19  1   
 34  14  35  1   
 35  15  36  1   
 36  16  17  1   
 37  16  37  1   
 38  16  38  1   
 39  17  39  1   
 40  17  40  1   
 41  18  19  2   
 42  18  41  1   
 43  19  42  1   
@<TRIPOS>SUBSTRUCTURE
  1 ****   2 GROUP 4 **** **** 0

# MOE 2024.06 (io_trps.svl 2023.06)
