@<TRIPOS>MOLECULE
NONAME
46 48 1 0 0 
SMALL
USER_CHARGES


@<TRIPOS>ATOM
  1 S        0.3800     1.0480     0.1890 S.o2  1 <1>   1.3330 
  2 O        0.4190     2.2830     0.9340 O.2   1 <1>  -0.6500 
  3 O        0.2640     1.1590    -1.2490 O.2   1 <1>  -0.6500 
  4 N        1.8470     0.2520     0.5210 N.am  1 <1>  -0.8490 
  5 C       -0.8910    -0.0400     0.8480 C.3   1 <1>   0.0890 
  6 C        2.7750     0.8860     1.4910 C.3   1 <1>   0.1960 
  7 C        2.4690    -0.4370    -0.6070 C.3   1 <1>   0.1960 
  8 C       -0.7960    -1.4600     0.3020 C.ar  1 <1>  -0.1440 
  9 C        3.6200     2.0960     0.9900 C.3   1 <1>   0.4230 
 10 C        3.5130     0.4120    -1.3590 C.3   1 <1>  -0.0800 
 11 C       -1.2110    -1.7380    -0.9920 C.ar  1 <1>  -0.1500 
 12 C       -0.2740    -2.4800     1.0840 C.ar  1 <1>  -0.1500 
 13 N        3.0680     2.7270    -0.2670 N.4   1 <1>  -0.9590 
 14 C        5.1340     1.7780     0.8800 C.3   1 <1>   0.1200 
 15 C        4.9410     0.1500    -0.8360 C.3   1 <1>   0.1200 
 16 C        3.1720     1.9130    -1.5280 C.3   1 <1>   0.3430 
 17 C       -1.1030    -3.0210    -1.4990 C.ar  1 <1>  -0.1500 
 18 C       -0.1670    -3.7630     0.5770 C.ar  1 <1>  -0.1500 
 19 C        3.6840     4.1120    -0.4790 C.3   1 <1>   0.2370 
 20 O        5.5340     1.3200    -0.3850 O.3   1 <1>  -0.5600 
 21 C       -0.5810    -4.0340    -0.7150 C.ar  1 <1>  -0.1500 
 22 C        3.9530     4.9550     0.7780 C.2   1 <1>   0.9060 
 23 O        3.1100     4.9480     1.6820 O.co2 1 <1>  -0.9000 
 24 O        5.0540     5.4920     0.8970 O.co2 1 <1>  -0.9000 
 25 H       -0.8080    -0.0690     1.9160 H     1 <1>   0.0800 
 26 H       -1.8580     0.3610     0.6120 H     1 <1>   0.0800 
 27 H        2.2030     1.2270     2.3370 H     1 <1>   0.0800 
 28 H        3.4380     0.1310     1.8750 H     1 <1>   0.0800 
 29 H        2.9300    -1.3400    -0.2450 H     1 <1>   0.0800 
 30 H        1.7050    -0.7600    -1.2970 H     1 <1>   0.0800 
 31 H        3.5400     2.8110     1.7910 H     1 <1>   0.0800 
 32 H        3.5140     0.0080    -2.3550 H     1 <1>   0.0800 
 33 H       -1.6160    -0.9590    -1.6160 H     1 <1>   0.1500 
 34 H        0.0540    -2.2860     2.0910 H     1 <1>   0.1500 
 35 H        2.0740     2.9000    -0.0250 H     1 <1>   0.4500 
 36 H        5.4380     1.0600     1.6210 H     1 <1>   0.0800 
 37 H        5.6870     2.6830     1.0690 H     1 <1>   0.0800 
 38 H        5.5570    -0.2110    -1.6430 H     1 <1>   0.0800 
 39 H        4.9690    -0.5820    -0.0470 H     1 <1>   0.0800 
 40 H        2.2490     2.0040    -2.0760 H     1 <1>   0.0800 
 41 H        3.9470     2.3420    -2.1400 H     1 <1>   0.0800 
 42 H       -1.4270    -3.2310    -2.5040 H     1 <1>   0.1500 
 43 H        0.2360    -4.5530     1.1870 H     1 <1>   0.1500 
 44 H        4.6380     3.9990    -0.9620 H     1 <1>   0.0800 
 45 H        3.0520     4.6930    -1.1250 H     1 <1>   0.0800 
 46 H       -0.5000    -5.0320    -1.1090 H     1 <1>   0.1500 
@<TRIPOS>BOND
  1   1   2  2   
  2   1   3  2   
  3   1   4  am  
  4   1   5  1   
  5   4   6  1   
  6   4   7  1   
  7   5   8  1   
  8   5  25  1   
  9   5  26  1   
 10   6   9  1   
 11   6  27  1   
 12   6  28  1   
 13   7  10  1   
 14   7  29  1   
 15   7  30  1   
 16   8  11  ar  
 17   8  12  ar  
 18   9  13  1   
 19   9  14  1   
 20   9  31  1   
 21  10  15  1   
 22  10  16  1   
 23  10  32  1   
 24  11  17  ar  
 25  11  33  1   
 26  12  18  ar  
 27  12  34  1   
 28  13  16  1   
 29  13  19  1   
 30  13  35  1   
 31  14  20  1   
 32  14  36  1   
 33  14  37  1   
 34  15  20  1   
 35  15  38  1   
 36  15  39  1   
 37  16  40  1   
 38  16  41  1   
 39  17  21  ar  
 40  17  42  1   
 41  18  21  ar  
 42  18  43  1   
 43  19  22  1   
 44  19  44  1   
 45  19  45  1   
 46  21  46  1   
 47  22  23  ar  
 48  22  24  ar  
@<TRIPOS>SUBSTRUCTURE
  1 ****   4 GROUP 4 **** **** 0

# MOE 2024.06 (io_trps.svl 2023.06)
