@<TRIPOS>MOLECULE
NONAME
57 59 1 0 0 
SMALL
USER_CHARGES


@<TRIPOS>ATOM
  1 O        0.3870     2.8410    -2.9850 O.co2 1 <1>  -0.9000 
  2 C        0.3160     2.2230    -1.9160 C.2   1 <1>   0.9060 
  3 O        0.2740     0.9930    -1.8750 O.co2 1 <1>  -0.9000 
  4 C        0.1600     3.0020    -0.6120 C.3   1 <1>  -0.1060 
  5 C       -1.2010     2.5620    -0.0210 C.3   1 <1>   0.2000 
  6 C        0.1220     4.5010    -0.9800 C.3   1 <1>   0.3430 
  7 C        1.3920     2.6750     0.2870 C.3   1 <1>  -0.1600 
  8 O       -1.4820     3.2910     1.1310 O.3   1 <1>  -0.6800 
  9 C       -2.3570     2.8350    -1.0020 C.3   1 <1>  -0.1600 
 10 N       -1.2770     5.0380    -1.1010 N.4   1 <1>  -0.9590 
 11 C        1.5370     3.4300     1.6240 C.3   1 <1>  -0.1600 
 12 C       -2.1370     4.0910    -1.8540 C.3   1 <1>   0.3430 
 13 C       -1.2870     6.4020    -1.6610 C.3   1 <1>   0.4860 
 14 C        2.8900     3.1200     2.2700 C.3   1 <1>  -0.2400 
 15 C       -0.6510     7.3450    -0.6560 C.ar  1 <1>  -0.1430 
 16 C        0.6540     7.7760    -0.8340 C.ar  1 <1>  -0.1500 
 17 C       -1.3650     7.7790     0.4520 C.ar  1 <1>  -0.1500 
 18 C        1.2500     8.6290     0.0790 C.ar  1 <1>   0.0820 
 19 C       -0.7770     8.6350     1.3680 C.ar  1 <1>  -0.1500 
 20 O        2.5290     8.9890    -0.1780 O.3   1 <1>  -0.3630 
 21 C        0.5270     9.0620     1.1870 C.ar  1 <1>  -0.1500 
 22 C        3.2350     9.8720     0.6670 C.3   1 <1>   0.2630 
 23 C        4.6380    10.0610     0.1140 C.ar  1 <1>  -0.1430 
 24 C        4.8270    10.7200    -1.0920 C.ar  1 <1>  -0.1500 
 25 C        5.7410     9.5800     0.8050 C.ar  1 <1>  -0.1500 
 26 C        6.1020    10.9010    -1.5990 C.ar  1 <1>  -0.1500 
 27 C        7.0160     9.7610     0.2980 C.ar  1 <1>  -0.1500 
 28 C        7.1980    10.4220    -0.9030 C.ar  1 <1>  -0.1500 
 29 H       -1.1840     1.5150     0.2420 H     1 <1>   0.0800 
 30 H        0.6630     4.6650    -1.8970 H     1 <1>   0.0800 
 31 H        0.6300     5.0610    -0.2160 H     1 <1>   0.0800 
 32 H        1.3900     1.6160     0.4890 H     1 <1>   0.0800 
 33 H        2.2750     2.8660    -0.3000 H     1 <1>   0.0800 
 34 H       -0.9210     2.9520     1.8580 H     1 <1>   0.4000 
 35 H       -2.4410     2.0000    -1.6760 H     1 <1>   0.0800 
 36 H       -3.2890     2.8990    -0.4700 H     1 <1>   0.0800 
 37 H       -1.6330     5.0380    -0.1320 H     1 <1>   0.4500 
 38 H        1.4650     4.4930     1.4810 H     1 <1>   0.0800 
 39 H        0.7680     3.1280     2.3110 H     1 <1>   0.0800 
 40 H       -3.0880     4.5380    -2.0890 H     1 <1>   0.0800 
 41 H       -1.6480     3.8200    -2.7780 H     1 <1>   0.0800 
 42 H       -0.7400     6.4210    -2.5900 H     1 <1>   0.0800 
 43 H       -2.2990     6.7150    -1.8510 H     1 <1>   0.0800 
 44 H        3.6950     3.4390     1.6310 H     1 <1>   0.0800 
 45 H        2.9890     2.0630     2.4460 H     1 <1>   0.0800 
 46 H        2.9770     3.6340     3.2110 H     1 <1>   0.0800 
 47 H        1.2340     7.4580    -1.6840 H     1 <1>   0.1500 
 48 H       -2.3810     7.4600     0.6130 H     1 <1>   0.1500 
 49 H       -1.3360     8.9710     2.2250 H     1 <1>   0.1500 
 50 H        0.9550     9.7270     1.9140 H     1 <1>   0.1500 
 51 H        2.7130    10.8120     0.6880 H     1 <1>   0.0800 
 52 H        3.2680     9.4450     1.6530 H     1 <1>   0.0800 
 53 H        3.9780    11.0900    -1.6410 H     1 <1>   0.1500 
 54 H        5.6140     9.0620     1.7390 H     1 <1>   0.1500 
 55 H        6.2400    11.4130    -2.5350 H     1 <1>   0.1500 
 56 H        7.8680     9.3850     0.8390 H     1 <1>   0.1500 
 57 H        8.1890    10.5620    -1.2970 H     1 <1>   0.1500 
@<TRIPOS>BOND
  1   1   2  ar  
  2   2   3  ar  
  3   2   4  1   
  4   4   5  1   
  5   4   6  1   
  6   4   7  1   
  7   5   8  1   
  8   5   9  1   
  9   5  29  1   
 10   6  10  1   
 11   6  30  1   
 12   6  31  1   
 13   7  11  1   
 14   7  32  1   
 15   7  33  1   
 16   8  34  1   
 17   9  12  1   
 18   9  35  1   
 19   9  36  1   
 20  10  12  1   
 21  10  13  1   
 22  10  37  1   
 23  11  14  1   
 24  11  38  1   
 25  11  39  1   
 26  12  40  1   
 27  12  41  1   
 28  13  15  1   
 29  13  42  1   
 30  13  43  1   
 31  14  44  1   
 32  14  45  1   
 33  14  46  1   
 34  15  16  ar  
 35  15  17  ar  
 36  16  18  ar  
 37  16  47  1   
 38  17  19  ar  
 39  17  48  1   
 40  18  20  1   
 41  18  21  ar  
 42  19  21  ar  
 43  19  49  1   
 44  20  22  1   
 45  21  50  1   
 46  22  23  1   
 47  22  51  1   
 48  22  52  1   
 49  23  24  ar  
 50  23  25  ar  
 51  24  26  ar  
 52  24  53  1   
 53  25  27  ar  
 54  25  54  1   
 55  26  28  ar  
 56  26  55  1   
 57  27  28  ar  
 58  27  56  1   
 59  28  57  1   
@<TRIPOS>SUBSTRUCTURE
  1 ****  16 GROUP 4 **** **** 0

# MOE 2024.06 (io_trps.svl 2023.06)
