@<TRIPOS>MOLECULE
NONAME
58 61 1 0 0 
SMALL
USER_CHARGES


@<TRIPOS>ATOM
  1 O        0.0610     0.2180    -0.4870 O.2   1 <1>  -0.5700 
  2 C       -0.9240     0.8810    -0.7010 C.2   1 <1>   0.5690 
  3 N       -2.1550     0.3040    -0.8400 N.am  1 <1>  -0.6600 
  4 C       -0.7580     2.3850    -0.7960 C.3   1 <1>  -0.0990 
  5 C       -3.4550     0.9910    -1.0460 C.3   1 <1>   0.1400 
  6 C       -2.3590    -1.1620    -0.7340 C.3   1 <1>   0.1400 
  7 C       -0.8770     3.0400     0.5840 C.3   1 <1>  -0.0160 
  8 C       -4.4920    -0.0300    -0.5830 C.3   1 <1>   0.2000 
  9 C       -3.8640    -1.3790    -0.9570 C.3   1 <1>  -0.0800 
 10 C       -0.7880     4.5520     0.4620 C.ar  1 <1>  -0.1440 
 11 O       -4.6010     0.0700     0.7970 O.3   1 <1>  -0.6800 
 12 C       -4.4480    -2.5900    -0.1990 C.3   1 <1>  -0.0170 
 13 C        0.4470     5.1730     0.3730 C.ar  1 <1>  -0.1500 
 14 C       -1.9390     5.3230     0.4360 C.ar  1 <1>  -0.1500 
 15 C       -3.9680    -3.9790    -0.6400 C.ar  1 <1>  -0.1430 
 16 C        0.5390     6.5580     0.2550 C.ar  1 <1>   0.0820 
 17 C       -1.8560     6.6990     0.3200 C.ar  1 <1>  -0.1500 
 18 C       -4.3210    -5.1180     0.1280 C.ar  1 <1>   0.0000 
 19 C       -3.2140    -4.2000    -1.7590 C.ar  1 <1>  -0.1500 
 20 O        1.7280     7.2120     0.1630 O.3   1 <1>  -0.3630 
 21 C       -0.6230     7.3240     0.2290 C.ar  1 <1>  -0.1430 
 22 C       -3.8500    -6.3830    -0.3000 C.ar  1 <1>   0.3100 
 23 C       -5.1210    -5.0760     1.2960 C.ar  1 <1>  -0.1500 
 24 C       -2.8040    -5.4960    -2.0960 C.ar  1 <1>   0.1600 
 25 C        2.9580     6.5230     0.1860 C.3   1 <1>   0.0400 
 26 C       -0.5500     8.8390     0.1020 C.3   1 <1>  -0.0970 
 27 N       -3.0930    -6.5550    -1.4120 N.ar  1 <1>  -0.6200 
 28 C       -4.1790    -7.5250     0.4490 C.ar  1 <1>  -0.1500 
 29 C       -5.4250    -6.2080     2.0030 C.ar  1 <1>  -0.1500 
 30 C       -4.9480    -7.4500     1.5770 C.ar  1 <1>  -0.1500 
 31 H        0.2130     2.5950    -1.2060 H     1 <1>   0.0800 
 32 H       -1.4860     2.7990    -1.4680 H     1 <1>   0.0800 
 33 H       -3.5280     1.9090    -0.4880 H     1 <1>   0.0800 
 34 H       -3.5820     1.1920    -2.0950 H     1 <1>   0.0800 
 35 H       -1.7630    -1.6770    -1.4680 H     1 <1>   0.0800 
 36 H       -2.0620    -1.4880     0.2480 H     1 <1>   0.0800 
 37 H       -0.0870     2.6800     1.2210 H     1 <1>   0.0800 
 38 H       -1.8110     2.7660     1.0420 H     1 <1>   0.0800 
 39 H       -5.4650     0.1270    -1.0160 H     1 <1>   0.0800 
 40 H       -4.0310    -1.5160    -2.0100 H     1 <1>   0.0800 
 41 H       -3.7030     0.0430     1.1850 H     1 <1>   0.4000 
 42 H       -5.5190    -2.5640    -0.2930 H     1 <1>   0.0800 
 43 H       -4.2140    -2.4740     0.8450 H     1 <1>   0.0800 
 44 H        1.3280     4.5630     0.3950 H     1 <1>   0.1500 
 45 H       -2.9070     4.8580     0.5060 H     1 <1>   0.1500 
 46 H       -2.7600     7.2810     0.3020 H     1 <1>   0.1500 
 47 H       -2.9060    -3.4150    -2.4210 H     1 <1>   0.1500 
 48 H       -5.5060    -4.1370     1.6430 H     1 <1>   0.1500 
 49 H       -2.2070    -5.6180    -2.9840 H     1 <1>   0.1500 
 50 H        3.7480     7.2470     0.1020 H     1 <1>   0.0800 
 51 H        2.9930     5.8450    -0.6480 H     1 <1>   0.0800 
 52 H        3.0430     5.9950     1.1190 H     1 <1>   0.0800 
 53 H       -1.5300     9.2790     0.0980 H     1 <1>   0.0800 
 54 H       -0.0490     9.1030    -0.8120 H     1 <1>   0.0800 
 55 H        0.0060     9.2450     0.9280 H     1 <1>   0.0800 
 56 H       -3.8020    -8.4680     0.1000 H     1 <1>   0.1500 
 57 H       -6.0330    -6.1580     2.8890 H     1 <1>   0.1500 
 58 H       -5.1930    -8.3330     2.1420 H     1 <1>   0.1500 
@<TRIPOS>BOND
  1   1   2  2   
  2   2   3  am  
  3   2   4  1   
  4   3   5  1   
  5   3   6  1   
  6   4   7  1   
  7   4  31  1   
  8   4  32  1   
  9   5   8  1   
 10   5  33  1   
 11   5  34  1   
 12   6   9  1   
 13   6  35  1   
 14   6  36  1   
 15   7  10  1   
 16   7  37  1   
 17   7  38  1   
 18   8   9  1   
 19   8  11  1   
 20   8  39  1   
 21   9  12  1   
 22   9  40  1   
 23  10  13  ar  
 24  10  14  ar  
 25  11  41  1   
 26  12  15  1   
 27  12  42  1   
 28  12  43  1   
 29  13  16  ar  
 30  13  44  1   
 31  14  17  ar  
 32  14  45  1   
 33  15  18  ar  
 34  15  19  ar  
 35  16  20  1   
 36  16  21  ar  
 37  17  21  ar  
 38  17  46  1   
 39  18  22  ar  
 40  18  23  ar  
 41  19  24  ar  
 42  19  47  1   
 43  20  25  1   
 44  21  26  1   
 45  22  27  ar  
 46  22  28  ar  
 47  23  29  ar  
 48  23  48  1   
 49  24  27  ar  
 50  24  49  1   
 51  25  50  1   
 52  25  51  1   
 53  25  52  1   
 54  26  53  1   
 55  26  54  1   
 56  26  55  1   
 57  28  30  ar  
 58  28  56  1   
 59  29  30  ar  
 60  29  57  1   
 61  30  58  1   
@<TRIPOS>SUBSTRUCTURE
  1 ****   3 GROUP 4 **** **** 0

# MOE 2024.06 (io_trps.svl 2023.06)
