@<TRIPOS>MOLECULE
NONAME
47 50 1 0 0 
SMALL
USER_CHARGES


@<TRIPOS>ATOM
  1 S       -0.8800    -0.1210    -1.8960 S.3   1 <1>  -0.0800 
  2 C       -1.3590     1.3080    -0.9940 C.2   1 <1>  -0.1400 
  3 C       -2.5150    -0.7630    -1.8060 C.2   1 <1>  -0.1100 
  4 C       -2.6600     1.2600    -0.6830 C.2   1 <1>  -0.1810 
  5 C       -0.3820     2.4150    -0.6340 C.3   1 <1>   0.4600 
  6 C       -3.3270     0.0800    -1.1380 C.2   1 <1>  -0.1500 
  7 C       -3.2860     2.3990     0.0870 C.3   1 <1>   0.0210 
  8 O       -1.0360     3.3660     0.1930 O.3   1 <1>  -0.5600 
  9 C        0.7860     1.8620     0.1880 C.3   1 <1>  -0.1600 
 10 C        0.1630     3.1420    -1.8730 C.3   1 <1>  -0.1600 
 11 C       -2.3980     3.6500    -0.0650 C.3   1 <1>   0.1200 
 12 C        1.7870     2.9400     0.6140 C.3   1 <1>   0.3430 
 13 C        1.3980     4.0030    -1.5830 C.3   1 <1>   0.3430 
 14 N        1.5460     4.2180    -0.1170 N.4   1 <1>  -0.9590 
 15 C        2.5460     5.2730     0.2550 C.3   1 <1>   0.3430 
 16 C        2.1360     6.6910    -0.1820 C.3   1 <1>   0.2000 
 17 O        3.1060     7.5520     0.3240 O.3   1 <1>  -0.5600 
 18 C        0.7560     7.1140     0.3600 C.3   1 <1>  -0.1600 
 19 C        2.9750     8.8930    -0.0490 C.3   1 <1>   0.1200 
 20 C        0.4710     8.5870     0.0450 C.3   1 <1>  -0.1600 
 21 C        1.6550     9.4490     0.4960 C.3   1 <1>  -0.1600 
 22 H       -2.6980    -1.7160    -2.2680 H     1 <1>   0.1500 
 23 H       -4.3730    -0.0820    -0.9440 H     1 <1>   0.1500 
 24 H       -3.3780     2.1340     1.1250 H     1 <1>   0.0800 
 25 H       -4.2680     2.6100    -0.2990 H     1 <1>   0.0800 
 26 H        1.3090     1.1250    -0.3940 H     1 <1>   0.0800 
 27 H        0.4060     1.3550     1.0570 H     1 <1>   0.0800 
 28 H       -0.6090     3.7420    -2.3180 H     1 <1>   0.0800 
 29 H        0.4440     2.4150    -2.6130 H     1 <1>   0.0800 
 30 H       -2.7150     4.4100     0.6290 H     1 <1>   0.0800 
 31 H       -2.4830     4.0400    -1.0640 H     1 <1>   0.0800 
 32 H        2.7910     2.5900     0.4320 H     1 <1>   0.0800 
 33 H        1.6810     3.1150     1.6730 H     1 <1>   0.0800 
 34 H        1.2980     4.9470    -2.0930 H     1 <1>   0.0800 
 35 H        2.2780     3.5080    -1.9610 H     1 <1>   0.0800 
 36 H        0.6100     4.5180     0.2180 H     1 <1>   0.4500 
 37 H        3.5020     5.0380    -0.1830 H     1 <1>   0.0800 
 38 H        2.6610     5.2860     1.3260 H     1 <1>   0.0800 
 39 H        2.1640     6.7680    -1.2550 H     1 <1>   0.0800 
 40 H        0.7350     6.9690     1.4270 H     1 <1>   0.0800 
 41 H       -0.0210     6.5100    -0.0730 H     1 <1>   0.0800 
 42 H        3.0140     8.9610    -1.1230 H     1 <1>   0.0800 
 43 H        3.8090     9.4340     0.3660 H     1 <1>   0.0800 
 44 H       -0.4280     8.9090     0.5430 H     1 <1>   0.0800 
 45 H        0.3270     8.7090    -1.0150 H     1 <1>   0.0800 
 46 H        1.5230    10.4600     0.1550 H     1 <1>   0.0800 
 47 H        1.7060     9.4710     1.5710 H     1 <1>   0.0800 
@<TRIPOS>BOND
  1   1   2  1   
  2   1   3  1   
  3   2   4  2   
  4   2   5  1   
  5   3   6  2   
  6   3  22  1   
  7   4   6  1   
  8   4   7  1   
  9   5   8  1   
 10   5   9  1   
 11   5  10  1   
 12   6  23  1   
 13   7  11  1   
 14   7  24  1   
 15   7  25  1   
 16   8  11  1   
 17   9  12  1   
 18   9  26  1   
 19   9  27  1   
 20  10  13  1   
 21  10  28  1   
 22  10  29  1   
 23  11  30  1   
 24  11  31  1   
 25  12  14  1   
 26  12  32  1   
 27  12  33  1   
 28  13  14  1   
 29  13  34  1   
 30  13  35  1   
 31  14  15  1   
 32  14  36  1   
 33  15  16  1   
 34  15  37  1   
 35  15  38  1   
 36  16  17  1   
 37  16  18  1   
 38  16  39  1   
 39  17  19  1   
 40  18  20  1   
 41  18  40  1   
 42  18  41  1   
 43  19  21  1   
 44  19  42  1   
 45  19  43  1   
 46  20  21  1   
 47  20  44  1   
 48  20  45  1   
 49  21  46  1   
 50  21  47  1   
@<TRIPOS>SUBSTRUCTURE
  1 ****   8 GROUP 4 **** **** 0

# MOE 2024.06 (io_trps.svl 2023.06)
