@<TRIPOS>MOLECULE
NONAME
53 57 1 0 0 
SMALL
USER_CHARGES


@<TRIPOS>ATOM
  1 O       -2.1270     1.8200    -3.5880 O.2   1 <1>  -0.5700 
  2 C       -2.3670     1.8070    -2.3920 C.2   1 <1>   0.7160 
  3 N       -3.3850     0.9890    -1.9370 N.am  1 <1>  -0.6600 
  4 C       -1.6140     2.6900    -1.5470 C.2   1 <1>  -0.0860 
  5 C       -4.0690     1.1570    -0.6270 C.3   1 <1>   0.1400 
  6 C       -3.9910    -0.0670    -2.7950 C.3   1 <1>   0.1400 
  7 C       -1.0550     2.5410    -0.3010 C.2   1 <1>  -0.0260 
  8 C       -1.2550     3.9860    -1.9120 C.2   1 <1>   0.1390 
  9 C       -4.0380    -0.1660     0.1420 C.3   1 <1>  -0.1600 
 10 C       -3.9640    -1.4070    -2.0550 C.3   1 <1>  -0.1600 
 11 N       -1.0350     1.4670     0.5600 N.2   1 <1>  -0.5760 
 12 N       -0.4360     3.7320    -0.0130 N.pl3 1 <1>   0.6010 
 13 N       -0.5680     4.6230    -1.0120 N.2   1 <1>  -0.7070 
 14 C       -4.6420    -1.3240    -0.6750 C.3   1 <1>   0.4240 
 15 C       -0.4010     1.6300     1.6780 C.2   1 <1>   0.3760 
 16 C        0.2310     3.8890     1.1800 C.2   1 <1>  -0.1810 
 17 O       -5.9730    -0.9610    -0.9770 O.3   1 <1>  -0.5600 
 18 C       -4.5780    -2.6850     0.0790 C.ar  1 <1>  -0.1430 
 19 C        0.2580     2.8400     2.0450 C.2   1 <1>  -0.1240 
 20 C       -6.9490    -1.2150    -0.0210 C.3   1 <1>   0.1200 
 21 C       -3.3620    -3.2870     0.4310 C.ar  1 <1>   0.0830 
 22 C       -5.7590    -3.3400     0.4310 C.ar  1 <1>  -0.1430 
 23 C        0.9710     2.9200     3.3860 C.3   1 <1>  -0.1020 
 24 C       -7.1030    -2.7230     0.1040 C.3   1 <1>  -0.0170 
 25 O       -2.2010    -2.6530     0.1220 O.3   1 <1>  -0.3630 
 26 C       -3.3510    -4.5140     1.0930 C.ar  1 <1>  -0.1500 
 27 C       -5.7350    -4.5590     1.0870 C.ar  1 <1>  -0.1500 
 28 C       -0.9290    -3.1830     0.4170 C.3   1 <1>   0.0400 
 29 C       -4.5320    -5.1480     1.4170 C.ar  1 <1>  -0.1500 
 30 H       -5.0910     1.4480    -0.8050 H     1 <1>   0.0800 
 31 H       -3.6060     1.9310    -0.0430 H     1 <1>   0.0800 
 32 H       -3.4510    -0.1650    -3.7210 H     1 <1>   0.0800 
 33 H       -5.0050     0.2070    -3.0280 H     1 <1>   0.0800 
 34 H       -1.5260     4.4220    -2.8610 H     1 <1>   0.1500 
 35 H       -4.5540    -0.0630     1.0760 H     1 <1>   0.0800 
 36 H       -3.0150    -0.3780     0.3770 H     1 <1>   0.0800 
 37 H       -2.9380    -1.7000    -1.9600 H     1 <1>   0.0800 
 38 H       -4.4570    -2.1590    -2.6420 H     1 <1>   0.0800 
 39 H       -0.3660     0.8110     2.3740 H     1 <1>   0.0600 
 40 H        0.6900     4.8450     1.3440 H     1 <1>   0.1500 
 41 H       -7.8670    -0.7680    -0.3580 H     1 <1>   0.0800 
 42 H       -6.6590    -0.7730     0.9150 H     1 <1>   0.0800 
 43 H        1.7480     2.1780     3.4360 H     1 <1>   0.0800 
 44 H        0.2730     2.7480     4.1860 H     1 <1>   0.0800 
 45 H        1.4150     3.8900     3.5230 H     1 <1>   0.0800 
 46 H       -7.4730    -3.1240    -0.8230 H     1 <1>   0.0800 
 47 H       -7.8140    -2.9410     0.8790 H     1 <1>   0.0800 
 48 H       -2.4320    -4.9940     1.3660 H     1 <1>   0.1500 
 49 H       -6.6540    -5.0560     1.3450 H     1 <1>   0.1500 
 50 H       -0.1900    -2.4860     0.0620 H     1 <1>   0.0800 
 51 H       -0.8170    -4.1240    -0.0910 H     1 <1>   0.0800 
 52 H       -0.8380    -3.3020     1.4810 H     1 <1>   0.0800 
 53 H       -4.5170    -6.0960     1.9270 H     1 <1>   0.1500 
@<TRIPOS>BOND
  1   1   2  2   
  2   2   3  am  
  3   2   4  1   
  4   3   5  1   
  5   3   6  1   
  6   4   7  2   
  7   4   8  1   
  8   5   9  1   
  9   5  30  1   
 10   5  31  1   
 11   6  10  1   
 12   6  32  1   
 13   6  33  1   
 14   7  11  1   
 15   7  12  1   
 16   8  13  2   
 17   8  34  1   
 18   9  14  1   
 19   9  35  1   
 20   9  36  1   
 21  10  14  1   
 22  10  37  1   
 23  10  38  1   
 24  11  15  2   
 25  12  13  1   
 26  12  16  1   
 27  14  17  1   
 28  14  18  1   
 29  15  19  1   
 30  15  39  1   
 31  16  19  2   
 32  16  40  1   
 33  17  20  1   
 34  18  21  ar  
 35  18  22  ar  
 36  19  23  1   
 37  20  24  1   
 38  20  41  1   
 39  20  42  1   
 40  21  25  1   
 41  21  26  ar  
 42  22  24  1   
 43  22  27  ar  
 44  23  43  1   
 45  23  44  1   
 46  23  45  1   
 47  24  46  1   
 48  24  47  1   
 49  25  28  1   
 50  26  29  ar  
 51  26  48  1   
 52  27  29  ar  
 53  27  49  1   
 54  28  50  1   
 55  28  51  1   
 56  28  52  1   
 57  29  53  1   
@<TRIPOS>SUBSTRUCTURE
  1 ****   9 GROUP 4 **** **** 0

# MOE 2024.06 (io_trps.svl 2023.06)
