@<TRIPOS>MOLECULE
NONAME
44 46 1 0 0 
SMALL
USER_CHARGES


@<TRIPOS>ATOM
  1 CL      -0.3610     0.1290     1.9070 Cl    1 <1>  -0.1770 
  2 C       -1.5230     1.2100     1.1720 C.ar  1 <1>   0.1770 
  3 C       -2.5330     0.7140     0.3550 C.ar  1 <1>   0.0830 
  4 C       -1.3990     2.5620     1.4270 C.ar  1 <1>  -0.1500 
  5 O       -2.5900    -0.6270     0.1460 O.3   1 <1>  -0.3630 
  6 C       -3.4320     1.6150    -0.2080 C.ar  1 <1>  -0.1500 
  7 C       -2.2930     3.4580     0.8540 C.ar  1 <1>  -0.1430 
  8 C       -3.6390    -1.2280    -0.5770 C.3   1 <1>   0.1200 
  9 C       -3.3100     2.9730     0.0420 C.ar  1 <1>  -0.1500 
 10 C       -2.1510     4.9500     1.1000 C.3   1 <1>   0.4870 
 11 C       -3.4160    -2.7370    -0.5610 C.3   1 <1>  -0.2400 
 12 N       -0.8550     5.4040     0.5310 N.4   1 <1>  -0.9590 
 13 C       -0.4630     6.7840     0.9970 C.3   1 <1>   0.3430 
 14 C       -0.7390     5.1380    -0.9450 C.3   1 <1>   0.3430 
 15 C        1.0060     7.1920     0.6850 C.3   1 <1>   0.2200 
 16 C        0.7000     5.1930    -1.4780 C.3   1 <1>  -0.0190 
 17 N        1.1610     7.5060    -0.7540 N.am  1 <1>  -0.7300 
 18 C        2.0510     6.1340     1.1220 C.3   1 <1>   0.1200 
 19 C        1.0450     6.6290    -1.7660 C.2   1 <1>   0.5690 
 20 C        1.7880     4.5070    -0.6210 C.3   1 <1>   0.1200 
 21 O        1.7010     4.8260     0.7430 O.3   1 <1>  -0.5600 
 22 O        1.1810     6.9910    -2.9010 O.2   1 <1>  -0.5700 
 23 H       -0.6010     2.8860     2.0720 H     1 <1>   0.1500 
 24 H       -4.2310     1.2770    -0.8420 H     1 <1>   0.1500 
 25 H       -4.5710    -0.9770    -0.1000 H     1 <1>   0.0800 
 26 H       -3.6190    -0.8530    -1.5860 H     1 <1>   0.0800 
 27 H       -4.0230     3.6450    -0.4080 H     1 <1>   0.1500 
 28 H       -2.1770     5.1360     2.1610 H     1 <1>   0.0800 
 29 H       -2.9680     5.4810     0.6380 H     1 <1>   0.0800 
 30 H       -3.4210    -3.1000     0.4510 H     1 <1>   0.0800 
 31 H       -2.4740    -2.9760    -1.0220 H     1 <1>   0.0800 
 32 H       -4.2010    -3.2290    -1.1060 H     1 <1>   0.0800 
 33 H       -0.1200     4.7860     0.9310 H     1 <1>   0.4500 
 34 H       -1.1230     7.5180     0.5640 H     1 <1>   0.0800 
 35 H       -0.5880     6.8280     2.0660 H     1 <1>   0.0800 
 36 H       -1.1160     4.1490    -1.1500 H     1 <1>   0.0800 
 37 H       -1.3490     5.8370    -1.4950 H     1 <1>   0.0800 
 38 H        1.2170     8.0990     1.2260 H     1 <1>   0.0800 
 39 H        0.6980     4.6960    -2.4310 H     1 <1>   0.0800 
 40 H        1.4520     8.4550    -1.0150 H     1 <1>   0.3700 
 41 H        2.1240     6.1320     2.1960 H     1 <1>   0.0800 
 42 H        3.0260     6.3670     0.7260 H     1 <1>   0.0800 
 43 H        2.7740     4.7610    -0.9750 H     1 <1>   0.0800 
 44 H        1.6780     3.4380    -0.6960 H     1 <1>   0.0800 
@<TRIPOS>BOND
  1   1   2  1   
  2   2   3  ar  
  3   2   4  ar  
  4   3   5  1   
  5   3   6  ar  
  6   4   7  ar  
  7   4  23  1   
  8   5   8  1   
  9   6   9  ar  
 10   6  24  1   
 11   7   9  ar  
 12   7  10  1   
 13   8  11  1   
 14   8  25  1   
 15   8  26  1   
 16   9  27  1   
 17  10  12  1   
 18  10  28  1   
 19  10  29  1   
 20  11  30  1   
 21  11  31  1   
 22  11  32  1   
 23  12  13  1   
 24  12  14  1   
 25  12  33  1   
 26  13  15  1   
 27  13  34  1   
 28  13  35  1   
 29  14  16  1   
 30  14  36  1   
 31  14  37  1   
 32  15  17  1   
 33  15  18  1   
 34  15  38  1   
 35  16  19  1   
 36  16  20  1   
 37  16  39  1   
 38  17  19  am  
 39  17  40  1   
 40  18  21  1   
 41  18  41  1   
 42  18  42  1   
 43  19  22  2   
 44  20  21  1   
 45  20  43  1   
 46  20  44  1   
@<TRIPOS>SUBSTRUCTURE
  1 ****   7 GROUP 4 **** **** 0

# MOE 2024.06 (io_trps.svl 2023.06)
