@<TRIPOS>MOLECULE
NONAME
41 43 1 0 0 
SMALL
USER_CHARGES


@<TRIPOS>ATOM
  1 O       -3.0260     0.6020    -1.9830 O.2   1 <1>  -0.5700 
  2 C       -2.6480     0.5680    -0.8380 C.2   1 <1>   0.5690 
  3 N       -2.3150    -0.5950    -0.2300 N.am  1 <1>  -0.7300 
  4 C       -2.5600     1.8550    -0.0410 C.3   1 <1>  -0.0990 
  5 C       -2.2900    -1.9240    -0.8850 C.3   1 <1>   0.2200 
  6 C       -1.1130     2.2570     0.2810 C.3   1 <1>  -0.2400 
  7 C       -3.4960    -2.7660    -0.4860 C.3   1 <1>  -0.0800 
  8 C       -1.1660    -2.7450    -0.2720 C.3   1 <1>   0.1200 
  9 C       -3.0650    -3.3370     0.8720 C.3   1 <1>   0.1200 
 10 C       -4.8440    -2.0140    -0.4730 C.3   1 <1>  -0.0170 
 11 O       -1.6740    -3.2050     0.9450 O.3   1 <1>  -0.5600 
 12 C       -6.0980    -2.8510    -0.1920 C.ar  1 <1>  -0.1440 
 13 C       -7.3410    -2.1990     0.0040 C.ar  1 <1>   0.0000 
 14 C       -6.0990    -4.2170    -0.1230 C.ar  1 <1>  -0.1500 
 15 C       -8.4750    -2.9990     0.2910 C.ar  1 <1>   0.3100 
 16 C       -7.5280    -0.7980    -0.0750 C.ar  1 <1>  -0.1500 
 17 C       -7.2810    -4.9130     0.1570 C.ar  1 <1>   0.1600 
 18 N       -8.4280    -4.3520     0.3650 N.ar  1 <1>  -0.6200 
 19 C       -9.7140    -2.3740     0.5050 C.ar  1 <1>  -0.1500 
 20 C       -8.7500    -0.2210     0.1360 C.ar  1 <1>  -0.1500 
 21 C       -9.8590    -1.0160     0.4330 C.ar  1 <1>  -0.1500 
 22 H       -2.0200    -0.6060     0.7490 H     1 <1>   0.3700 
 23 H       -3.0270     2.6400    -0.6090 H     1 <1>   0.0800 
 24 H       -3.1170     1.7360     0.8700 H     1 <1>   0.0800 
 25 H       -2.1890    -1.8190    -1.9530 H     1 <1>   0.0800 
 26 H       -0.5540     2.3840    -0.6300 H     1 <1>   0.0800 
 27 H       -0.6320     1.5020     0.8780 H     1 <1>   0.0800 
 28 H       -1.0990     3.1860     0.8240 H     1 <1>   0.0800 
 29 H       -3.5610    -3.5770    -1.1890 H     1 <1>   0.0800 
 30 H       -0.2720    -2.1710    -0.1010 H     1 <1>   0.0800 
 31 H       -0.9410    -3.6030    -0.8820 H     1 <1>   0.0800 
 32 H       -3.3190    -4.3770     0.9760 H     1 <1>   0.0800 
 33 H       -3.4890    -2.7770     1.6880 H     1 <1>   0.0800 
 34 H       -4.9700    -1.5310    -1.4270 H     1 <1>   0.0800 
 35 H       -4.7900    -1.2440     0.2750 H     1 <1>   0.0800 
 36 H       -5.2190    -4.8080    -0.2760 H     1 <1>   0.1500 
 37 H       -6.6940    -0.1630    -0.3110 H     1 <1>   0.1500 
 38 H       -7.2310    -5.9880     0.2050 H     1 <1>   0.1500 
 39 H      -10.5530    -3.0070     0.7280 H     1 <1>   0.1500 
 40 H       -8.8750     0.8470     0.0740 H     1 <1>   0.1500 
 41 H      -10.8160    -0.5510     0.5990 H     1 <1>   0.1500 
@<TRIPOS>BOND
  1   1   2  2   
  2   2   3  am  
  3   2   4  1   
  4   3   5  1   
  5   3  22  1   
  6   4   6  1   
  7   4  23  1   
  8   4  24  1   
  9   5   7  1   
 10   5   8  1   
 11   5  25  1   
 12   6  26  1   
 13   6  27  1   
 14   6  28  1   
 15   7   9  1   
 16   7  10  1   
 17   7  29  1   
 18   8  11  1   
 19   8  30  1   
 20   8  31  1   
 21   9  11  1   
 22   9  32  1   
 23   9  33  1   
 24  10  12  1   
 25  10  34  1   
 26  10  35  1   
 27  12  13  ar  
 28  12  14  ar  
 29  13  15  ar  
 30  13  16  ar  
 31  14  17  ar  
 32  14  36  1   
 33  15  18  ar  
 34  15  19  ar  
 35  16  20  ar  
 36  16  37  1   
 37  17  18  ar  
 38  17  38  1   
 39  19  21  ar  
 40  19  39  1   
 41  20  21  ar  
 42  20  40  1   
 43  21  41  1   
@<TRIPOS>SUBSTRUCTURE
  1 ****  10 GROUP 4 **** **** 0

# MOE 2024.06 (io_trps.svl 2023.06)
