@<TRIPOS>MOLECULE
NONAME
44 47 1 0 0 
SMALL
USER_CHARGES


@<TRIPOS>ATOM
  1 O       -0.2250     2.3770     2.9480 O.2   1 <1>  -0.5700 
  2 C       -0.0510     2.9250     1.8710 C.2   1 <1>   0.5440 
  3 N       -1.1580     3.4840     1.2500 N.am  1 <1>  -0.6600 
  4 C        1.3060     2.9670     1.3240 C.ar  1 <1>   0.3960 
  5 C       -2.5500     3.0870     1.6160 C.3   1 <1>   0.1400 
  6 C       -1.1080     4.3970     0.0770 C.3   1 <1>   0.1400 
  7 N        1.5550     2.8220     0.0380 N.ar  1 <1>  -0.6200 
  8 C        2.3620     3.1590     2.2540 C.ar  1 <1>   0.1600 
  9 C       -3.1950     2.3060     0.4540 C.3   1 <1>   0.0000 
 10 C       -1.7110     3.6880    -1.1400 C.3   1 <1>  -0.1600 
 11 C        2.8630     2.8790    -0.3080 C.ar  1 <1>   0.3100 
 12 N        3.6250     3.2280     1.9640 N.ar  1 <1>  -0.6200 
 13 C       -4.6240     1.8690     0.8290 C.3   1 <1>   0.2000 
 14 C       -3.1290     3.1600    -0.8470 C.3   1 <1>  -0.1600 
 15 C       -2.5180     0.9380     0.2420 C.3   1 <1>  -0.1600 
 16 C        3.8940     3.0840     0.6430 C.ar  1 <1>   0.3100 
 17 C        3.2170     2.7340    -1.6590 C.ar  1 <1>  -0.1500 
 18 O       -5.5670     2.8560     0.6100 O.3   1 <1>  -0.6800 
 19 C       -4.9370     0.6380    -0.0200 C.3   1 <1>  -0.1600 
 20 C       -3.5770     0.0440    -0.4110 C.3   1 <1>  -0.1600 
 21 C        5.2240     3.1360     0.2000 C.ar  1 <1>  -0.1500 
 22 C        4.5250     2.7890    -2.0660 C.ar  1 <1>  -0.1500 
 23 C        5.5390     2.9930    -1.1270 C.ar  1 <1>  -0.1500 
 24 H       -2.5530     2.4850     2.5080 H     1 <1>   0.0800 
 25 H       -3.1260     3.9730     1.8200 H     1 <1>   0.0800 
 26 H       -1.6840     5.2780     0.3020 H     1 <1>   0.0800 
 27 H       -0.1020     4.7120    -0.1320 H     1 <1>   0.0800 
 28 H        2.0800     3.2560     3.2890 H     1 <1>   0.1500 
 29 H       -1.7490     4.3770    -1.9640 H     1 <1>   0.0800 
 30 H       -1.0600     2.8820    -1.4300 H     1 <1>   0.0800 
 31 H       -4.6630     1.6010     1.8720 H     1 <1>   0.0800 
 32 H       -3.4820     2.5940    -1.6910 H     1 <1>   0.0800 
 33 H       -3.7680     4.0190    -0.7390 H     1 <1>   0.0800 
 34 H       -1.6190     0.9920    -0.3450 H     1 <1>   0.0800 
 35 H       -2.2580     0.5190     1.2000 H     1 <1>   0.0800 
 36 H        2.4250     2.5760    -2.3690 H     1 <1>   0.1500 
 37 H       -5.6020     3.0650    -0.3420 H     1 <1>   0.4000 
 38 H       -5.5130    -0.0680     0.5520 H     1 <1>   0.0800 
 39 H       -5.4810     0.9060    -0.9090 H     1 <1>   0.0800 
 40 H       -3.4790    -0.9740    -0.0760 H     1 <1>   0.0800 
 41 H       -3.4650     0.0680    -1.4820 H     1 <1>   0.0800 
 42 H        5.9890     3.2930     0.9380 H     1 <1>   0.1500 
 43 H        4.7850     2.6760    -3.1050 H     1 <1>   0.1500 
 44 H        6.5640     3.0350    -1.4570 H     1 <1>   0.1500 
@<TRIPOS>BOND
  1   1   2  2   
  2   2   3  am  
  3   2   4  1   
  4   3   5  1   
  5   3   6  1   
  6   4   7  ar  
  7   4   8  ar  
  8   5   9  1   
  9   5  24  1   
 10   5  25  1   
 11   6  10  1   
 12   6  26  1   
 13   6  27  1   
 14   7  11  ar  
 15   8  12  ar  
 16   8  28  1   
 17   9  13  1   
 18   9  14  1   
 19   9  15  1   
 20  10  14  1   
 21  10  29  1   
 22  10  30  1   
 23  11  16  ar  
 24  11  17  ar  
 25  12  16  ar  
 26  13  18  1   
 27  13  19  1   
 28  13  31  1   
 29  14  32  1   
 30  14  33  1   
 31  15  20  1   
 32  15  34  1   
 33  15  35  1   
 34  16  21  ar  
 35  17  22  ar  
 36  17  36  1   
 37  18  37  1   
 38  19  20  1   
 39  19  38  1   
 40  19  39  1   
 41  20  40  1   
 42  20  41  1   
 43  21  23  ar  
 44  21  42  1   
 45  22  23  ar  
 46  22  43  1   
 47  23  44  1   
@<TRIPOS>SUBSTRUCTURE
  1 ****   2 GROUP 4 **** **** 0

# MOE 2024.06 (io_trps.svl 2023.06)
