@<TRIPOS>MOLECULE
NONAME
60 62 1 0 0 
SMALL
USER_CHARGES


@<TRIPOS>ATOM
  1 O       -6.1290     1.8240    -0.6290 O.2   1 <1>  -0.5700 
  2 C       -5.1690     1.9860     0.1040 C.2   1 <1>   0.5440 
  3 N       -5.0620     1.1810     1.2180 N.am  1 <1>  -0.6600 
  4 C       -4.1440     2.9430    -0.2560 C.ar  1 <1>   0.0860 
  5 C       -3.8370     1.1590     2.0860 C.3   1 <1>   0.3210 
  6 C       -6.1590     0.2440     1.6280 C.3   1 <1>   0.1400 
  7 C       -3.8810     4.0660     0.5260 C.ar  1 <1>  -0.1500 
  8 C       -3.3620     2.7440    -1.3910 C.ar  1 <1>  -0.1500 
  9 C       -2.7650     0.2100     1.5530 C.2   1 <1>   0.0460 
 10 C       -6.1120    -1.1160     0.9000 C.3   1 <1>   0.3430 
 11 C       -2.8330     4.9140     0.2250 C.ar  1 <1>  -0.1500 
 12 C       -2.3190     3.5950    -1.7020 C.ar  1 <1>  -0.1500 
 13 N       -2.9780    -1.1240     1.4830 N.2   1 <1>  -0.5650 
 14 C       -1.5120     0.5170     1.1370 C.2   1 <1>  -0.3320 
 15 N       -6.0640    -0.9530    -0.5870 N.4   1 <1>  -0.9590 
 16 C       -2.0340     4.6730    -0.8810 C.ar  1 <1>  -0.1430 
 17 C       -1.8540    -1.5950     1.0470 C.2   1 <1>   0.0360 
 18 N       -0.9240    -0.6480     0.8110 N.pl3 1 <1>   0.0330 
 19 C       -0.7700     1.8430     1.0340 C.3   1 <1>  -0.0600 
 20 C       -7.1000    -1.7500    -1.2960 C.3   1 <1>   0.2630 
 21 C       -4.6910    -1.2230    -1.1000 C.3   1 <1>   0.2630 
 22 C       -0.8330     5.5670    -1.1590 C.3   1 <1>   0.2390 
 23 N        0.3770     4.9920    -0.5270 N.pl3 1 <1>   0.3140 
 24 N        0.5740     5.0770     0.8050 N.2   1 <1>  -0.7070 
 25 C        1.4020     4.3370    -1.1280 C.2   1 <1>  -0.3320 
 26 C        1.7070     4.4870     1.0180 C.2   1 <1>   0.1080 
 27 C        2.2730     4.0010    -0.1530 C.2   1 <1>  -0.1500 
 28 C        1.5220     4.0560    -2.6160 C.3   1 <1>  -0.0600 
 29 C        2.3080     4.3660     2.3980 C.3   1 <1>  -0.0590 
 30 H       -4.1010     0.8450     3.0800 H     1 <1>   0.0800 
 31 H       -3.4250     2.1450     2.1750 H     1 <1>   0.0800 
 32 H       -7.1100     0.7090     1.4300 H     1 <1>   0.0800 
 33 H       -6.1120     0.0720     2.6890 H     1 <1>   0.0800 
 34 H       -4.4960     4.2660     1.3860 H     1 <1>   0.1500 
 35 H       -3.5710     1.9050    -2.0290 H     1 <1>   0.1500 
 36 H       -6.9890    -1.6770     1.1760 H     1 <1>   0.0800 
 37 H       -5.2540    -1.6720     1.2400 H     1 <1>   0.0800 
 38 H       -2.6260     5.7560     0.8660 H     1 <1>   0.1500 
 39 H       -1.7220     3.4040    -2.5770 H     1 <1>   0.1500 
 40 H       -6.2430     0.0650    -0.7530 H     1 <1>   0.4500 
 41 H       -1.6510    -2.6400     0.8850 H     1 <1>   0.1500 
 42 H        0.0350    -0.7870     0.4790 H     1 <1>   0.2700 
 43 H       -1.3800     2.6630     1.3620 H     1 <1>   0.0800 
 44 H       -0.4750     2.0320     0.0180 H     1 <1>   0.0800 
 45 H        0.1140     1.8250     1.6460 H     1 <1>   0.0800 
 46 H       -6.9400    -2.8030    -1.1320 H     1 <1>   0.0800 
 47 H       -7.0580    -1.5530    -2.3550 H     1 <1>   0.0800 
 48 H       -8.0820    -1.4860    -0.9380 H     1 <1>   0.0800 
 49 H       -4.3890    -2.2280    -0.8570 H     1 <1>   0.0800 
 50 H       -3.9910    -0.5380    -0.6480 H     1 <1>   0.0800 
 51 H       -4.6570    -1.0910    -2.1680 H     1 <1>   0.0800 
 52 H       -0.9920     6.5450    -0.7450 H     1 <1>   0.0800 
 53 H       -0.6710     5.6650    -2.2150 H     1 <1>   0.0800 
 54 H        3.2090     3.4780    -0.2330 H     1 <1>   0.1500 
 55 H        0.7060     3.4410    -2.9490 H     1 <1>   0.0800 
 56 H        2.4430     3.5380    -2.8190 H     1 <1>   0.0800 
 57 H        1.5230     4.9770    -3.1720 H     1 <1>   0.0800 
 58 H        1.6170     3.8610     3.0470 H     1 <1>   0.0800 
 59 H        2.5020     5.3470     2.7900 H     1 <1>   0.0800 
 60 H        3.2280     3.8120     2.3600 H     1 <1>   0.0800 
@<TRIPOS>BOND
  1   1   2  2   
  2   2   3  am  
  3   2   4  1   
  4   3   5  1   
  5   3   6  1   
  6   4   7  ar  
  7   4   8  ar  
  8   5   9  1   
  9   5  30  1   
 10   5  31  1   
 11   6  10  1   
 12   6  32  1   
 13   6  33  1   
 14   7  11  ar  
 15   7  34  1   
 16   8  12  ar  
 17   8  35  1   
 18   9  13  1   
 19   9  14  2   
 20  10  15  1   
 21  10  36  1   
 22  10  37  1   
 23  11  16  ar  
 24  11  38  1   
 25  12  16  ar  
 26  12  39  1   
 27  13  17  2   
 28  14  18  1   
 29  14  19  1   
 30  15  20  1   
 31  15  21  1   
 32  15  40  1   
 33  16  22  1   
 34  17  18  1   
 35  17  41  1   
 36  18  42  1   
 37  19  43  1   
 38  19  44  1   
 39  19  45  1   
 40  20  46  1   
 41  20  47  1   
 42  20  48  1   
 43  21  49  1   
 44  21  50  1   
 45  21  51  1   
 46  22  23  1   
 47  22  52  1   
 48  22  53  1   
 49  23  24  1   
 50  23  25  1   
 51  24  26  2   
 52  25  27  2   
 53  25  28  1   
 54  26  27  1   
 55  26  29  1   
 56  27  54  1   
 57  28  55  1   
 58  28  56  1   
 59  28  57  1   
 60  29  58  1   
 61  29  59  1   
 62  29  60  1   
@<TRIPOS>SUBSTRUCTURE
  1 ****  19 GROUP 4 **** **** 0

# MOE 2024.06 (io_trps.svl 2023.06)
