@<TRIPOS>MOLECULE
NONAME
46 48 1 0 0 
SMALL
USER_CHARGES


@<TRIPOS>ATOM
  1 CL      -0.6550     0.0440    -0.9470 Cl    1 <1>  -0.1230 
  2 C       -1.8800     1.1500    -0.3430 C.2   1 <1>   0.1230 
  3 C       -3.1630     0.8030     0.0910 C.2   1 <1>   0.2030 
  4 C       -1.7530     2.4850    -0.2360 C.2   1 <1>  -0.3320 
  5 N       -3.8070     1.9090     0.4470 N.2   1 <1>  -0.7070 
  6 C       -3.6500    -0.5690     0.1330 C.2   1 <1>   0.7160 
  7 N       -2.9370     2.9150     0.2490 N.pl3 1 <1>   0.3000 
  8 C       -0.5800     3.3940    -0.5640 C.3   1 <1>  -0.0600 
  9 O       -2.9310    -1.4480     0.5840 O.2   1 <1>  -0.5700 
 10 N       -4.9060    -0.9490    -0.3170 N.am  1 <1>  -0.6600 
 11 C       -5.3250    -2.3850    -0.3550 C.3   1 <1>   0.1400 
 12 C       -5.9610     0.0020    -0.7640 C.3   1 <1>   0.1400 
 13 C       -6.1790    -2.7730     0.8600 C.3   1 <1>   0.1400 
 14 C       -6.8420     0.4810     0.3980 C.3   1 <1>  -0.1600 
 15 N       -7.3810    -1.8880     1.0150 N.am  1 <1>  -0.6600 
 16 C       -7.0700    -0.5260     1.5320 C.3   1 <1>   0.1400 
 17 C       -8.6650    -2.2320     0.6460 C.2   1 <1>   0.5440 
 18 O       -9.4990    -1.3550     0.5260 O.2   1 <1>  -0.5700 
 19 C       -9.0510    -3.5990     0.3860 C.ar  1 <1>   0.0860 
 20 C       -8.8680    -4.5900     1.3450 C.ar  1 <1>   0.1600 
 21 C       -9.6260    -3.9850    -0.8180 C.ar  1 <1>  -0.1500 
 22 N       -9.1590    -5.8710     1.2030 N.ar  1 <1>  -0.6200 
 23 C       -9.9510    -5.3120    -0.9860 C.ar  1 <1>  -0.1500 
 24 C       -9.6990    -6.2190     0.0430 C.ar  1 <1>   0.3930 
 25 O       -9.9870    -7.5290    -0.0620 O.3   1 <1>  -0.3620 
 26 C      -10.6390    -8.0950    -1.1770 C.3   1 <1>   0.0400 
 27 H       -3.1760     3.8940     0.4540 H     1 <1>   0.2700 
 28 H        0.2480     2.8150    -0.9340 H     1 <1>   0.0800 
 29 H       -0.2590     3.9210     0.3170 H     1 <1>   0.0800 
 30 H       -0.8600     4.1070    -1.3190 H     1 <1>   0.0800 
 31 H       -4.4560    -3.0200    -0.3840 H     1 <1>   0.0800 
 32 H       -5.8820    -2.5740    -1.2550 H     1 <1>   0.0800 
 33 H       -6.5880    -0.4900    -1.4880 H     1 <1>   0.0800 
 34 H       -5.5160     0.8500    -1.2570 H     1 <1>   0.0800 
 35 H       -5.5720    -2.7100     1.7470 H     1 <1>   0.0800 
 36 H       -6.4730    -3.8000     0.7480 H     1 <1>   0.0800 
 37 H       -7.7970     0.7750     0.0010 H     1 <1>   0.0800 
 38 H       -6.4060     1.3650     0.8240 H     1 <1>   0.0800 
 39 H       -7.8820    -0.1850     2.1530 H     1 <1>   0.0800 
 40 H       -6.1880    -0.5710     2.1490 H     1 <1>   0.0800 
 41 H       -8.4480    -4.2950     2.2920 H     1 <1>   0.1500 
 42 H       -9.8110    -3.2530    -1.5860 H     1 <1>   0.1500 
 43 H      -10.3970    -5.6290    -1.9080 H     1 <1>   0.1500 
 44 H      -10.7720    -9.1450    -0.9870 H     1 <1>   0.0800 
 45 H      -10.0260    -7.9570    -2.0500 H     1 <1>   0.0800 
 46 H      -11.5990    -7.6230    -1.2980 H     1 <1>   0.0800 
@<TRIPOS>BOND
  1   1   2  1   
  2   2   3  1   
  3   2   4  2   
  4   3   5  2   
  5   3   6  1   
  6   4   7  1   
  7   4   8  1   
  8   5   7  1   
  9   6   9  2   
 10   6  10  am  
 11   7  27  1   
 12   8  28  1   
 13   8  29  1   
 14   8  30  1   
 15  10  11  1   
 16  10  12  1   
 17  11  13  1   
 18  11  31  1   
 19  11  32  1   
 20  12  14  1   
 21  12  33  1   
 22  12  34  1   
 23  13  15  1   
 24  13  35  1   
 25  13  36  1   
 26  14  16  1   
 27  14  37  1   
 28  14  38  1   
 29  15  16  1   
 30  15  17  am  
 31  16  39  1   
 32  16  40  1   
 33  17  18  2   
 34  17  19  1   
 35  19  20  ar  
 36  19  21  ar  
 37  20  22  ar  
 38  20  41  1   
 39  21  23  ar  
 40  21  42  1   
 41  22  24  ar  
 42  23  24  ar  
 43  23  43  1   
 44  24  25  1   
 45  25  26  1   
 46  26  44  1   
 47  26  45  1   
 48  26  46  1   
@<TRIPOS>SUBSTRUCTURE
  1 ****  11 GROUP 4 **** **** 0

# MOE 2024.06 (io_trps.svl 2023.06)
