@<TRIPOS>MOLECULE
NONAME
50 52 1 0 0 
SMALL
USER_CHARGES


@<TRIPOS>ATOM
  1 S        2.5240    -0.3720    -1.5430 S.o2  1 <1>   1.3330 
  2 O        3.6370     0.5400    -1.6490 O.2   1 <1>  -0.6500 
  3 O        2.3200    -1.3880    -2.5470 O.2   1 <1>  -0.6500 
  4 N        2.6750    -1.1580    -0.0090 N.am  1 <1>  -0.6930 
  5 C        1.0230     0.5680    -1.3570 C.3   1 <1>  -0.1350 
  6 C        1.7660    -2.1150     0.4300 C.ar  1 <1>   0.1990 
  7 C        3.6910    -0.6020     0.9360 C.3   1 <1>   0.2570 
  8 C        1.6260    -3.3240    -0.2420 C.ar  1 <1>  -0.1500 
  9 C        0.9760    -1.8870     1.5520 C.ar  1 <1>  -0.1500 
 10 C        3.4600     0.8590     1.3530 C.2   1 <1>   0.5690 
 11 C        0.7260    -4.2840     0.1860 C.ar  1 <1>  -0.1440 
 12 C        0.0770    -2.8400     1.9900 C.ar  1 <1>  -0.1500 
 13 O        2.3370     1.2310     1.6180 O.2   1 <1>  -0.5700 
 14 N        4.5180     1.7090     1.4600 N.am  1 <1>  -0.5100 
 15 C       -0.0480    -4.0380     1.3080 C.ar  1 <1>  -0.1500 
 16 C        0.5860    -5.5960    -0.5640 C.3   1 <1>  -0.0970 
 17 C        5.8280     1.7330     0.7330 C.3   1 <1>   0.2250 
 18 C        4.4710     3.2020     1.4200 C.3   1 <1>   0.2250 
 19 C        6.0070     3.1680     1.2820 C.3   1 <1>   0.0850 
 20 N        6.5240     4.1360     0.2940 N.pl3 1 <1>   0.4850 
 21 N        7.2700     3.7520    -0.7620 N.2   1 <1>  -0.7070 
 22 C        6.4060     5.4880     0.3360 C.2   1 <1>  -0.3320 
 23 C        7.5870     4.8500    -1.3700 C.2   1 <1>   0.1080 
 24 C        7.0780     5.9710    -0.7310 C.2   1 <1>  -0.1500 
 25 C        5.6670     6.2840     1.4010 C.3   1 <1>  -0.0600 
 26 C        8.4240     4.8640    -2.6280 C.3   1 <1>  -0.0590 
 27 H        0.8020     1.0880    -2.2680 H     1 <1>   0.0800 
 28 H        1.1240     1.2870    -0.5690 H     1 <1>   0.0800 
 29 H        0.2050    -0.0850    -1.1250 H     1 <1>   0.0800 
 30 H        4.6580    -0.6890     0.4750 H     1 <1>   0.0800 
 31 H        3.7060    -1.2010     1.8280 H     1 <1>   0.0800 
 32 H        2.2360    -3.5050    -1.1090 H     1 <1>   0.1500 
 33 H        1.0610    -0.9550     2.0820 H     1 <1>   0.1500 
 34 H       -0.5280    -2.6520     2.8600 H     1 <1>   0.1500 
 35 H       -0.7500    -4.7770     1.6540 H     1 <1>   0.1500 
 36 H        0.9810    -5.5080    -1.5600 H     1 <1>   0.0800 
 37 H       -0.4500    -5.8760    -0.6340 H     1 <1>   0.0800 
 38 H        1.1220    -6.3710    -0.0460 H     1 <1>   0.0800 
 39 H        5.6780     1.6630    -0.3300 H     1 <1>   0.0000 
 40 H        6.5220     1.0190     1.1400 H     1 <1>   0.0000 
 41 H        4.1250     3.6140     2.3510 H     1 <1>   0.0000 
 42 H        3.9490     3.5500     0.5460 H     1 <1>   0.0000 
 43 H        6.5290     3.2120     2.2220 H     1 <1>   0.0000 
 44 H        7.2120     6.9930    -1.0400 H     1 <1>   0.1500 
 45 H        6.0340     6.0320     2.3800 H     1 <1>   0.0800 
 46 H        4.6110     6.0840     1.3560 H     1 <1>   0.0800 
 47 H        5.8170     7.3370     1.2440 H     1 <1>   0.0800 
 48 H        9.3890     4.4410    -2.4220 H     1 <1>   0.0800 
 49 H        8.5480     5.8690    -2.9870 H     1 <1>   0.0800 
 50 H        7.9400     4.2750    -3.3860 H     1 <1>   0.0800 
@<TRIPOS>BOND
  1   1   2  2   
  2   1   3  2   
  3   1   4  am  
  4   1   5  1   
  5   4   6  1   
  6   4   7  1   
  7   5  27  1   
  8   5  28  1   
  9   5  29  1   
 10   6   8  ar  
 11   6   9  ar  
 12   7  10  1   
 13   7  30  1   
 14   7  31  1   
 15   8  11  ar  
 16   8  32  1   
 17   9  12  ar  
 18   9  33  1   
 19  10  13  2   
 20  10  14  am  
 21  11  15  ar  
 22  11  16  1   
 23  12  15  ar  
 24  12  34  1   
 25  14  17  1   
 26  14  18  1   
 27  15  35  1   
 28  16  36  1   
 29  16  37  1   
 30  16  38  1   
 31  17  19  1   
 32  17  39  1   
 33  17  40  1   
 34  18  19  1   
 35  18  41  1   
 36  18  42  1   
 37  19  20  1   
 38  19  43  1   
 39  20  21  1   
 40  20  22  1   
 41  21  23  2   
 42  22  24  2   
 43  22  25  1   
 44  23  24  1   
 45  23  26  1   
 46  24  44  1   
 47  25  45  1   
 48  25  46  1   
 49  25  47  1   
 50  26  48  1   
 51  26  49  1   
 52  26  50  1   
@<TRIPOS>SUBSTRUCTURE
  1 ****  10 GROUP 4 **** **** 0

# MOE 2024.06 (io_trps.svl 2023.06)
