@<TRIPOS>MOLECULE
NONAME
56 59 1 0 0 
SMALL
USER_CHARGES


@<TRIPOS>ATOM
  1 O        4.0410    -0.9180     0.5000 O.2   1 <1>  -0.5700 
  2 C        2.8910    -1.2670     0.6260 C.2   1 <1>   0.5690 
  3 N        1.8700    -0.3840     0.7560 N.am  1 <1>  -0.7300 
  4 C        2.5610    -2.7630     0.6320 C.3   1 <1>   0.1710 
  5 C        1.9740     1.0800     0.7230 C.3   1 <1>   0.2200 
  6 N        1.2060    -3.1060     0.1030 N.3   1 <1>  -0.8100 
  7 C        1.3510     1.6500     2.0020 C.3   1 <1>  -0.1600 
  8 C        1.2520     1.5960    -0.5260 C.3   1 <1>  -0.1600 
  9 C        1.0650    -2.7960    -1.3290 C.3   1 <1>   0.1100 
 10 C        0.8910    -4.5380     0.2460 C.3   1 <1>   0.1100 
 11 C        1.3290     3.1860     1.9720 C.3   1 <1>  -0.1600 
 12 C        1.2290     3.1310    -0.5600 C.3   1 <1>  -0.1600 
 13 C       -0.1140    -3.6510    -1.7730 C.3   1 <1>   0.2000 
 14 C        0.1540    -4.9660    -1.0370 C.3   1 <1>  -0.0800 
 15 C        0.6080     3.7060     0.7210 C.3   1 <1>  -0.1600 
 16 O       -1.2580    -3.0580    -1.2710 O.3   1 <1>  -0.6800 
 17 C       -1.0950    -5.8360    -0.7790 C.3   1 <1>  -0.0170 
 18 C       -0.8500    -7.2090    -0.1370 C.ar  1 <1>  -0.1440 
 19 C       -1.9430    -7.9520     0.3740 C.ar  1 <1>   0.0000 
 20 C        0.3880    -7.7810    -0.0320 C.ar  1 <1>  -0.1500 
 21 C       -1.6720    -9.2030     0.9830 C.ar  1 <1>   0.3100 
 22 C       -3.2940    -7.5330     0.3110 C.ar  1 <1>  -0.1500 
 23 C        0.5460    -9.0290     0.5820 C.ar  1 <1>   0.1600 
 24 N       -0.4240    -9.7240     1.0810 N.ar  1 <1>  -0.6200 
 25 C       -2.7360    -9.9510     1.5110 C.ar  1 <1>  -0.1500 
 26 C       -4.3090    -8.2880     0.8330 C.ar  1 <1>  -0.1500 
 27 C       -4.0300    -9.5120     1.4440 C.ar  1 <1>  -0.1500 
 28 H        0.9270    -0.7750     0.7940 H     1 <1>   0.3700 
 29 H        2.6330    -3.1000     1.6500 H     1 <1>   0.0800 
 30 H        3.3140    -3.2760     0.0610 H     1 <1>   0.0800 
 31 H        3.0120     1.3680     0.6770 H     1 <1>   0.0800 
 32 H        0.3440     1.2880     2.1050 H     1 <1>   0.0800 
 33 H        1.9230     1.3190     2.8510 H     1 <1>   0.0800 
 34 H        1.7560     1.2290    -1.4020 H     1 <1>   0.0800 
 35 H        0.2400     1.2310    -0.5340 H     1 <1>   0.0800 
 36 H        0.8860    -1.7480    -1.5010 H     1 <1>   0.0800 
 37 H        1.9490    -3.0990    -1.8650 H     1 <1>   0.0800 
 38 H        1.7870    -5.1230     0.3670 H     1 <1>   0.0800 
 39 H        0.2690    -4.6760     1.1150 H     1 <1>   0.0800 
 40 H        0.8360     3.5570     2.8540 H     1 <1>   0.0800 
 41 H        2.3410     3.5560     1.9800 H     1 <1>   0.0800 
 42 H        2.2360     3.4990    -0.6630 H     1 <1>   0.0800 
 43 H        0.6670     3.4650    -1.4150 H     1 <1>   0.0800 
 44 H       -0.2060    -3.7540    -2.8410 H     1 <1>   0.0800 
 45 H        0.8420    -5.5230    -1.6470 H     1 <1>   0.0800 
 46 H        0.6600     4.7800     0.6960 H     1 <1>   0.0800 
 47 H       -0.4310     3.4280     0.7680 H     1 <1>   0.0800 
 48 H       -1.0520    -2.8070    -0.3460 H     1 <1>   0.4000 
 49 H       -1.6090    -5.9860    -1.7120 H     1 <1>   0.0800 
 50 H       -1.7520    -5.2810    -0.1330 H     1 <1>   0.0800 
 51 H        1.2780    -7.3160    -0.4050 H     1 <1>   0.1500 
 52 H       -3.5400    -6.6000    -0.1600 H     1 <1>   0.1500 
 53 H        1.5400    -9.4370     0.6440 H     1 <1>   0.1500 
 54 H       -2.4960   -10.8910     1.9730 H     1 <1>   0.1500 
 55 H       -5.3300    -7.9520     0.7790 H     1 <1>   0.1500 
 56 H       -4.8360   -10.0970     1.8520 H     1 <1>   0.1500 
@<TRIPOS>BOND
  1   1   2  2   
  2   2   3  am  
  3   2   4  1   
  4   3   5  1   
  5   3  28  1   
  6   4   6  1   
  7   4  29  1   
  8   4  30  1   
  9   5   7  1   
 10   5   8  1   
 11   5  31  1   
 12   6   9  1   
 13   6  10  1   
 14   7  11  1   
 15   7  32  1   
 16   7  33  1   
 17   8  12  1   
 18   8  34  1   
 19   8  35  1   
 20   9  13  1   
 21   9  36  1   
 22   9  37  1   
 23  10  14  1   
 24  10  38  1   
 25  10  39  1   
 26  11  15  1   
 27  11  40  1   
 28  11  41  1   
 29  12  15  1   
 30  12  42  1   
 31  12  43  1   
 32  13  14  1   
 33  13  16  1   
 34  13  44  1   
 35  14  17  1   
 36  14  45  1   
 37  15  46  1   
 38  15  47  1   
 39  16  48  1   
 40  17  18  1   
 41  17  49  1   
 42  17  50  1   
 43  18  19  ar  
 44  18  20  ar  
 45  19  21  ar  
 46  19  22  ar  
 47  20  23  ar  
 48  20  51  1   
 49  21  24  ar  
 50  21  25  ar  
 51  22  26  ar  
 52  22  52  1   
 53  23  24  ar  
 54  23  53  1   
 55  25  27  ar  
 56  25  54  1   
 57  26  27  ar  
 58  26  55  1   
 59  27  56  1   
@<TRIPOS>SUBSTRUCTURE
  1 ****  10 GROUP 4 **** **** 0

# MOE 2024.06 (io_trps.svl 2023.06)
