@<TRIPOS>MOLECULE
NONAME
41 43 1 0 0 
SMALL
USER_CHARGES


@<TRIPOS>ATOM
  1 O        4.2660    -2.0240    -1.4730 O.2   1 <1>  -0.5700 
  2 C        3.2540    -1.7370    -0.8600 C.2   1 <1>   0.5440 
  3 N        3.1410    -0.4290    -0.4680 N.am  1 <1>  -0.6600 
  4 C        2.2520    -2.7360    -0.5190 C.ar  1 <1>   0.0860 
  5 C        3.6880    -0.0690     0.8880 C.3   1 <1>   0.2200 
  6 C        3.1010     0.6170    -1.5380 C.3   1 <1>   0.1400 
  7 C        1.0030    -2.3850    -0.0030 C.ar  1 <1>  -0.1500 
  8 C        2.5050    -4.0970    -0.6970 C.ar  1 <1>  -0.1500 
  9 C        3.0950     1.2360     1.4450 C.3   1 <1>   0.1200 
 10 C        5.2390    -0.0080     0.8810 C.3   1 <1>   0.3430 
 11 C        4.0620     1.8040    -1.3350 C.3   1 <1>  -0.0800 
 12 C        0.0420    -3.3300     0.3330 C.ar  1 <1>   0.0730 
 13 C        1.5660    -5.0550    -0.3700 C.ar  1 <1>  -0.1500 
 14 O        3.8370     2.3360     1.0130 O.3   1 <1>  -0.5600 
 15 N        5.8170     0.1240    -0.5010 N.4   1 <1>  -0.9590 
 16 C        3.5560     2.7890    -0.2690 C.3   1 <1>   0.1200 
 17 C        5.5530     1.4470    -1.1480 C.3   1 <1>   0.3430 
 18 C       -1.2300    -2.9290     0.8640 C.1   1 <1>   0.4840 
 19 C        0.3410    -4.6730     0.1440 C.ar  1 <1>  -0.1500 
 20 C        7.2640    -0.2260    -0.5290 C.3   1 <1>   0.2630 
 21 N       -2.2320    -2.5930     1.2910 N.1   1 <1>  -0.5570 
 22 H        3.3960    -0.8480     1.5720 H     1 <1>   0.0800 
 23 H        3.3260     0.1540    -2.4850 H     1 <1>   0.0800 
 24 H        2.0930     0.9880    -1.6080 H     1 <1>   0.0800 
 25 H        0.7660    -1.3440     0.1360 H     1 <1>   0.1500 
 26 H        3.4540    -4.4090    -1.1020 H     1 <1>   0.1500 
 27 H        3.1670     1.2260     2.5190 H     1 <1>   0.0800 
 28 H        2.0580     1.3550     1.1800 H     1 <1>   0.0800 
 29 H        5.6030    -0.9200     1.3230 H     1 <1>   0.0800 
 30 H        5.5720     0.8070     1.5030 H     1 <1>   0.0800 
 31 H        4.0140     2.3650    -2.2510 H     1 <1>   0.0800 
 32 H        1.7870    -6.1000    -0.5170 H     1 <1>   0.1500 
 33 H        5.2980    -0.5940    -1.0580 H     1 <1>   0.4500 
 34 H        2.4960     2.9650    -0.3560 H     1 <1>   0.0800 
 35 H        4.0590     3.7350    -0.3790 H     1 <1>   0.0800 
 36 H        6.0280     2.2280    -0.5770 H     1 <1>   0.0800 
 37 H        6.0110     1.4370    -2.1240 H     1 <1>   0.0800 
 38 H       -0.3880    -5.4260     0.3970 H     1 <1>   0.1500 
 39 H        7.8310     0.4760     0.0590 H     1 <1>   0.0800 
 40 H        7.6310    -0.2090    -1.5420 H     1 <1>   0.0800 
 41 H        7.4140    -1.2170    -0.1310 H     1 <1>   0.0800 
@<TRIPOS>BOND
  1   1   2  2   
  2   2   3  am  
  3   2   4  1   
  4   3   5  1   
  5   3   6  1   
  6   4   7  ar  
  7   4   8  ar  
  8   5   9  1   
  9   5  10  1   
 10   5  22  1   
 11   6  11  1   
 12   6  23  1   
 13   6  24  1   
 14   7  12  ar  
 15   7  25  1   
 16   8  13  ar  
 17   8  26  1   
 18   9  14  1   
 19   9  27  1   
 20   9  28  1   
 21  10  15  1   
 22  10  29  1   
 23  10  30  1   
 24  11  16  1   
 25  11  17  1   
 26  11  31  1   
 27  12  18  1   
 28  12  19  ar  
 29  13  19  ar  
 30  13  32  1   
 31  14  16  1   
 32  15  17  1   
 33  15  20  1   
 34  15  33  1   
 35  16  34  1   
 36  16  35  1   
 37  17  36  1   
 38  17  37  1   
 39  18  21  3   
 40  19  38  1   
 41  20  39  1   
 42  20  40  1   
 43  20  41  1   
@<TRIPOS>SUBSTRUCTURE
  1 ****   3 GROUP 4 **** **** 0

# MOE 2024.06 (io_trps.svl 2023.06)
