@<TRIPOS>MOLECULE
NONAME
49 52 1 0 0 
SMALL
USER_CHARGES


@<TRIPOS>ATOM
  1 S       -1.7940     0.2780     1.9920 S.3   1 <1>  -0.0800 
  2 C       -1.3070     0.7980     0.3960 C.2   1 <1>   0.1980 
  3 C       -0.8570     1.5660     2.6710 C.2   1 <1>  -0.1100 
  4 N       -0.5300     1.8090     0.3890 N.2   1 <1>  -0.5650 
  5 C       -1.8450     0.0010    -0.7800 C.3   1 <1>   0.1640 
  6 C       -0.2480     2.2710     1.6930 C.2   1 <1>   0.1410 
  7 C       -3.3590     0.1140    -0.9030 C.ar  1 <1>  -0.1440 
  8 C        0.5980     3.4370     1.9260 C.2   1 <1>   0.7160 
  9 C       -4.1590    -1.0180    -0.8480 C.ar  1 <1>  -0.1500 
 10 C       -3.9540     1.3560    -1.0760 C.ar  1 <1>  -0.1500 
 11 O        0.2040     4.3020     2.6870 O.2   1 <1>  -0.5700 
 12 N        1.8020     3.6580     1.2730 N.am  1 <1>  -0.6600 
 13 C       -5.5340    -0.9100    -0.9660 C.ar  1 <1>  -0.1500 
 14 C       -5.3290     1.4640    -1.1940 C.ar  1 <1>  -0.1500 
 15 C        2.5300     4.9650     1.3880 C.3   1 <1>   0.1400 
 16 C        2.4130     2.7070     0.3010 C.3   1 <1>   0.1400 
 17 C       -6.1200     0.3310    -1.1400 C.ar  1 <1>  -0.1500 
 18 C        2.4810     5.8400     0.1020 C.3   1 <1>   0.4230 
 19 C        2.2230     3.2020    -1.1510 C.3   1 <1>  -0.0800 
 20 N        1.2910     5.6040    -0.8160 N.4   1 <1>  -0.9590 
 21 C        3.8120     5.7820    -0.6810 C.3   1 <1>   0.1200 
 22 C        3.5240     3.7000    -1.7990 C.3   1 <1>   0.1200 
 23 C        1.0550     4.1930    -1.3020 C.3   1 <1>   0.3430 
 24 C        0.0380     6.1100    -0.1690 C.3   1 <1>   0.2630 
 25 O        4.2560     4.4810    -0.9120 O.3   1 <1>  -0.5600 
 26 H       -0.8530     1.6820     3.7400 H     1 <1>   0.1500 
 27 H       -1.3950     0.3640    -1.6860 H     1 <1>   0.0800 
 28 H       -1.5560    -1.0270    -0.6600 H     1 <1>   0.0800 
 29 H       -3.7220    -1.9920    -0.7120 H     1 <1>   0.1500 
 30 H       -3.3500     2.2450    -1.1170 H     1 <1>   0.1500 
 31 H       -6.1490    -1.7920    -0.9230 H     1 <1>   0.1500 
 32 H       -5.7840     2.4300    -1.3270 H     1 <1>   0.1500 
 33 H        2.1250     5.5450     2.1980 H     1 <1>   0.0800 
 34 H        3.5550     4.7690     1.6510 H     1 <1>   0.0800 
 35 H        3.4610     2.5910     0.5270 H     1 <1>   0.0800 
 36 H        1.9750     1.7320     0.4130 H     1 <1>   0.0800 
 37 H       -7.1890     0.4140    -1.2320 H     1 <1>   0.1500 
 38 H        2.4130     6.8590     0.4440 H     1 <1>   0.0800 
 39 H        1.9350     2.3350    -1.7180 H     1 <1>   0.0800 
 40 H        1.4580     6.1760    -1.6530 H     1 <1>   0.4500 
 41 H        4.5770     6.2600    -0.0950 H     1 <1>   0.0800 
 42 H        3.7440     6.3030    -1.6200 H     1 <1>   0.0800 
 43 H        3.3470     4.2540    -2.7060 H     1 <1>   0.0800 
 44 H        4.1460     2.8540    -2.0400 H     1 <1>   0.0800 
 45 H        0.2130     3.7790    -0.7720 H     1 <1>   0.0800 
 46 H        0.7750     4.2310    -2.3420 H     1 <1>   0.0800 
 47 H       -0.1790     5.5480     0.7240 H     1 <1>   0.0800 
 48 H       -0.7990     6.0130    -0.8420 H     1 <1>   0.0800 
 49 H        0.1430     7.1480     0.0990 H     1 <1>   0.0800 
@<TRIPOS>BOND
  1   1   2  1   
  2   1   3  1   
  3   2   4  2   
  4   2   5  1   
  5   3   6  2   
  6   3  26  1   
  7   4   6  1   
  8   5   7  1   
  9   5  27  1   
 10   5  28  1   
 11   6   8  1   
 12   7   9  ar  
 13   7  10  ar  
 14   8  11  2   
 15   8  12  am  
 16   9  13  ar  
 17   9  29  1   
 18  10  14  ar  
 19  10  30  1   
 20  12  15  1   
 21  12  16  1   
 22  13  17  ar  
 23  13  31  1   
 24  14  17  ar  
 25  14  32  1   
 26  15  18  1   
 27  15  33  1   
 28  15  34  1   
 29  16  19  1   
 30  16  35  1   
 31  16  36  1   
 32  17  37  1   
 33  18  20  1   
 34  18  21  1   
 35  18  38  1   
 36  19  22  1   
 37  19  23  1   
 38  19  39  1   
 39  20  23  1   
 40  20  24  1   
 41  20  40  1   
 42  21  25  1   
 43  21  41  1   
 44  21  42  1   
 45  22  25  1   
 46  22  43  1   
 47  22  44  1   
 48  23  45  1   
 49  23  46  1   
 50  24  47  1   
 51  24  48  1   
 52  24  49  1   
@<TRIPOS>SUBSTRUCTURE
  1 ****   4 GROUP 4 **** **** 0

# MOE 2024.06 (io_trps.svl 2023.06)
