@<TRIPOS>MOLECULE
NONAME
50 52 1 0 0 
SMALL
USER_CHARGES


@<TRIPOS>ATOM
  1 F       -0.0270    -2.9080    -2.7560 F     1 <1>  -0.1900 
  2 C       -0.7560    -3.4810    -1.8320 C.ar  1 <1>   0.1900 
  3 C       -0.2430    -3.7880    -0.5670 C.ar  1 <1>   0.0830 
  4 C       -2.0640    -3.7680    -2.1700 C.ar  1 <1>  -0.1500 
  5 O        1.0260    -3.5610    -0.1180 O.3   1 <1>  -0.3630 
  6 C       -1.0970    -4.3880     0.3440 C.ar  1 <1>  -0.1500 
  7 C       -2.8870    -4.3690    -1.2360 C.ar  1 <1>  -0.1500 
  8 C        2.0490    -3.0410    -0.9370 C.3   1 <1>   0.0400 
  9 C       -2.4260    -4.6950     0.0420 C.ar  1 <1>   0.0530 
 10 C       -3.2800    -5.3250     1.0220 C.2   1 <1>   0.0870 
 11 O       -2.9680    -5.2760     2.2980 O.3   1 <1>  -0.0190 
 12 C       -4.4300    -6.0410     0.9330 C.2   1 <1>  -0.2330 
 13 N       -3.8230    -5.9120     3.0590 N.2   1 <1>  -0.4100 
 14 C       -4.7160    -6.3680     2.2570 C.2   1 <1>   0.3720 
 15 C       -5.1840    -6.5100    -0.1820 C.2   1 <1>   1.0330 
 16 N       -5.8060    -7.1310     2.6610 N.pl3 1 <1>  -0.8520 
 17 O       -4.6150    -7.0480    -1.1480 O.co2 1 <1>  -0.9000 
 18 O       -6.4240    -6.5900    -0.1350 O.co2 1 <1>  -0.9000 
 19 C       -5.5130    -8.3760     3.4350 C.3   1 <1>   0.2090 
 20 C       -6.2840    -9.6140     2.9090 C.3   1 <1>   0.1100 
 21 N       -5.6730   -10.3500     1.7600 N.3   1 <1>  -0.8100 
 22 C       -5.2150    -9.4100     0.7200 C.3   1 <1>   0.1100 
 23 C       -6.6560   -11.2990     1.1910 C.3   1 <1>   0.1100 
 24 C       -4.7090   -10.0530    -0.5750 C.3   1 <1>   0.3430 
 25 C       -6.1670   -11.9650    -0.1170 C.3   1 <1>   0.3430 
 26 N       -5.7650   -10.9450    -1.1430 N.4   1 <1>  -0.9590 
 27 C       -5.3200   -11.5320    -2.4350 C.3   1 <1>   0.2630 
 28 H       -2.4340    -3.5270    -3.1490 H     1 <1>   0.1500 
 29 H       -0.7110    -4.6280     1.3180 H     1 <1>   0.1500 
 30 H       -3.9040    -4.5910    -1.5080 H     1 <1>   0.1500 
 31 H        2.9550    -3.0080    -0.3590 H     1 <1>   0.0800 
 32 H        1.7790    -2.0480    -1.2470 H     1 <1>   0.0800 
 33 H        2.1820    -3.6890    -1.7850 H     1 <1>   0.0800 
 34 H       -6.4190    -7.2760     1.8390 H     1 <1>   0.4000 
 35 H       -5.8140    -8.1950     4.4520 H     1 <1>   0.0800 
 36 H       -4.4560    -8.5820     3.4450 H     1 <1>   0.0800 
 37 H       -7.2810    -9.2920     2.6570 H     1 <1>   0.0800 
 38 H       -6.3710   -10.3090     3.7260 H     1 <1>   0.0800 
 39 H       -4.4150    -8.8040     1.1040 H     1 <1>   0.0800 
 40 H       -6.0450    -8.7860     0.4610 H     1 <1>   0.0800 
 41 H       -7.5800   -10.7840     0.9860 H     1 <1>   0.0800 
 42 H       -6.8620   -12.0660     1.9180 H     1 <1>   0.0800 
 43 H       -3.8130   -10.6110    -0.3630 H     1 <1>   0.0800 
 44 H       -4.4650    -9.2720    -1.2780 H     1 <1>   0.0800 
 45 H       -6.9530   -12.5870    -0.5100 H     1 <1>   0.0800 
 46 H       -5.3250   -12.5950     0.1150 H     1 <1>   0.0800 
 47 H       -6.5630   -10.3120    -1.3100 H     1 <1>   0.4500 
 48 H       -4.4560   -12.1570    -2.2830 H     1 <1>   0.0800 
 49 H       -5.0610   -10.7460    -3.1260 H     1 <1>   0.0800 
 50 H       -6.1090   -12.1250    -2.8680 H     1 <1>   0.0800 
@<TRIPOS>BOND
  1   1   2  1   
  2   2   3  ar  
  3   2   4  ar  
  4   3   5  1   
  5   3   6  ar  
  6   4   7  ar  
  7   4  28  1   
  8   5   8  1   
  9   6   9  ar  
 10   6  29  1   
 11   7   9  ar  
 12   7  30  1   
 13   8  31  1   
 14   8  32  1   
 15   8  33  1   
 16   9  10  1   
 17  10  11  1   
 18  10  12  2   
 19  11  13  1   
 20  12  14  1   
 21  12  15  1   
 22  13  14  2   
 23  14  16  1   
 24  15  17  ar  
 25  15  18  ar  
 26  16  19  1   
 27  16  34  1   
 28  19  20  1   
 29  19  35  1   
 30  19  36  1   
 31  20  21  1   
 32  20  37  1   
 33  20  38  1   
 34  21  22  1   
 35  21  23  1   
 36  22  24  1   
 37  22  39  1   
 38  22  40  1   
 39  23  25  1   
 40  23  41  1   
 41  23  42  1   
 42  24  26  1   
 43  24  43  1   
 44  24  44  1   
 45  25  26  1   
 46  25  45  1   
 47  25  46  1   
 48  26  27  1   
 49  26  47  1   
 50  27  48  1   
 51  27  49  1   
 52  27  50  1   
@<TRIPOS>SUBSTRUCTURE
  1 ****  12 GROUP 4 **** **** 0

# MOE 2024.06 (io_trps.svl 2023.06)
