@<TRIPOS>MOLECULE
NONAME
58 61 1 0 0 
SMALL
USER_CHARGES


@<TRIPOS>ATOM
  1 S       -1.5420    -0.5060    -0.2270 S.o2  1 <1>   1.2040 
  2 O       -1.7830    -1.6920    -1.0160 O.2   1 <1>  -0.6500 
  3 O       -2.3750    -0.2620     0.9350 O.2   1 <1>  -0.6500 
  4 C        0.2110    -0.3840     0.2040 C.ar  1 <1>  -0.0090 
  5 C       -1.7830     0.8910    -1.3330 C.3   1 <1>   0.0890 
  6 C        0.6490     0.4890     1.1940 C.ar  1 <1>  -0.1500 
  7 C        1.1670    -1.1350    -0.4700 C.ar  1 <1>  -0.1500 
  8 C       -1.4970     2.2570    -0.7010 C.ar  1 <1>  -0.1440 
  9 C        1.9940     0.6120     1.4990 C.ar  1 <1>  -0.1500 
 10 C        2.5140    -1.0180    -0.1710 C.ar  1 <1>  -0.1500 
 11 C       -2.3550     2.8790     0.2090 C.ar  1 <1>  -0.1440 
 12 C       -0.3070     2.8800    -1.0480 C.ar  1 <1>  -0.1500 
 13 C        2.9280    -0.1410     0.8140 C.ar  1 <1>  -0.1500 
 14 C       -1.9880     4.1000     0.7640 C.ar  1 <1>  -0.1500 
 15 C       -3.6870     2.2720     0.6400 C.3   1 <1>   0.4860 
 16 C        0.0400     4.1000    -0.5000 C.ar  1 <1>  -0.1500 
 17 C       -0.8000     4.7090     0.4100 C.ar  1 <1>  -0.1500 
 18 N       -4.8050     3.1610     0.2300 N.4   1 <1>  -0.9590 
 19 C       -6.1110     2.6490     0.7610 C.3   1 <1>   0.3430 
 20 C       -4.8500     3.4130    -1.2340 C.3   1 <1>   0.3430 
 21 C       -7.3420     3.3930     0.1750 C.3   1 <1>   0.0000 
 22 C       -5.8320     4.5530    -1.5330 C.3   1 <1>  -0.1600 
 23 C       -8.4160     3.5890     1.2570 C.3   1 <1>   0.2000 
 24 C       -6.9350     4.7350    -0.4710 C.3   1 <1>  -0.1600 
 25 C       -8.0680     2.4710    -0.8190 C.3   1 <1>  -0.1600 
 26 O       -7.8490     3.9360     2.4710 O.3   1 <1>  -0.6800 
 27 C       -9.1510     2.2550     1.3740 C.3   1 <1>  -0.1600 
 28 C       -8.9160     1.5280     0.0420 C.3   1 <1>  -0.1600 
 29 H       -1.1490     0.7620    -2.1890 H     1 <1>   0.0800 
 30 H       -2.7900     0.8780    -1.6980 H     1 <1>   0.0800 
 31 H       -0.0660     1.0830     1.7380 H     1 <1>   0.1500 
 32 H        0.8600    -1.8270    -1.2370 H     1 <1>   0.1500 
 33 H        2.3140     1.2940     2.2690 H     1 <1>   0.1500 
 34 H        3.2390    -1.6110    -0.7030 H     1 <1>   0.1500 
 35 H        0.3760     2.4230    -1.7460 H     1 <1>   0.1500 
 36 H        3.9750    -0.0480     1.0490 H     1 <1>   0.1500 
 37 H       -2.6170     4.5930     1.4860 H     1 <1>   0.1500 
 38 H       -3.6870     2.1460     1.7110 H     1 <1>   0.0800 
 39 H       -3.8220     1.3020     0.1940 H     1 <1>   0.0800 
 40 H        0.9680     4.5730    -0.7760 H     1 <1>   0.1500 
 41 H       -0.5240     5.6570     0.8430 H     1 <1>   0.1500 
 42 H       -4.6430     4.0730     0.6720 H     1 <1>   0.4500 
 43 H       -6.2080     1.5990     0.5410 H     1 <1>   0.0800 
 44 H       -6.1040     2.7460     1.8340 H     1 <1>   0.0800 
 45 H       -3.8720     3.6790    -1.6060 H     1 <1>   0.0800 
 46 H       -5.1730     2.5180    -1.7400 H     1 <1>   0.0800 
 47 H       -5.2840     5.4750    -1.6320 H     1 <1>   0.0800 
 48 H       -6.2840     4.3580    -2.4900 H     1 <1>   0.0800 
 49 H       -9.1050     4.3650     0.9640 H     1 <1>   0.0800 
 50 H       -7.7890     5.2210    -0.9130 H     1 <1>   0.0800 
 51 H       -6.5700     5.3880     0.3050 H     1 <1>   0.0800 
 52 H       -8.7310     3.0550    -1.4360 H     1 <1>   0.0800 
 53 H       -7.4000     1.9260    -1.4630 H     1 <1>   0.0800 
 54 H       -8.5520     4.1000     3.1340 H     1 <1>   0.4000 
 55 H       -8.7570     1.6630     2.1830 H     1 <1>   0.0800 
 56 H      -10.2020     2.4210     1.5340 H     1 <1>   0.0800 
 57 H       -8.3880     0.6060     0.2200 H     1 <1>   0.0800 
 58 H       -9.8480     1.2970    -0.4470 H     1 <1>   0.0800 
@<TRIPOS>BOND
  1   1   2  2   
  2   1   3  2   
  3   1   4  1   
  4   1   5  1   
  5   4   6  ar  
  6   4   7  ar  
  7   5   8  1   
  8   5  29  1   
  9   5  30  1   
 10   6   9  ar  
 11   6  31  1   
 12   7  10  ar  
 13   7  32  1   
 14   8  11  ar  
 15   8  12  ar  
 16   9  13  ar  
 17   9  33  1   
 18  10  13  ar  
 19  10  34  1   
 20  11  14  ar  
 21  11  15  1   
 22  12  16  ar  
 23  12  35  1   
 24  13  36  1   
 25  14  17  ar  
 26  14  37  1   
 27  15  18  1   
 28  15  38  1   
 29  15  39  1   
 30  16  17  ar  
 31  16  40  1   
 32  17  41  1   
 33  18  19  1   
 34  18  20  1   
 35  18  42  1   
 36  19  21  1   
 37  19  43  1   
 38  19  44  1   
 39  20  22  1   
 40  20  45  1   
 41  20  46  1   
 42  21  23  1   
 43  21  24  1   
 44  21  25  1   
 45  22  24  1   
 46  22  47  1   
 47  22  48  1   
 48  23  26  1   
 49  23  27  1   
 50  23  49  1   
 51  24  50  1   
 52  24  51  1   
 53  25  28  1   
 54  25  52  1   
 55  25  53  1   
 56  26  54  1   
 57  27  28  1   
 58  27  55  1   
 59  27  56  1   
 60  28  57  1   
 61  28  58  1   
@<TRIPOS>SUBSTRUCTURE
  1 ****  15 GROUP 4 **** **** 0

# MOE 2024.06 (io_trps.svl 2023.06)
