@<TRIPOS>MOLECULE
NONAME
56 59 1 0 0 
SMALL
USER_CHARGES


@<TRIPOS>ATOM
  1 S       -0.4270     1.4130     2.1250 S.3   1 <1>  -0.0800 
  2 C        0.1680     2.7020     1.1020 C.2   1 <1>  -0.1400 
  3 C        1.2090     1.0600     2.6640 C.2   1 <1>  -0.1100 
  4 C        1.5000     2.8200     1.1680 C.2   1 <1>  -0.1810 
  5 C       -0.7440     3.5620     0.2710 C.3   1 <1>   0.0200 
  6 C        2.1000     1.8820     2.0750 C.2   1 <1>  -0.1500 
  7 C        2.2410     3.8710     0.3400 C.3   1 <1>   0.4610 
  8 C        0.0470     4.8290    -0.0950 C.3   1 <1>   0.1200 
  9 O        1.3400     4.5070    -0.5600 O.3   1 <1>  -0.5600 
 10 C        2.8850     4.9400     1.2260 C.3   1 <1>  -0.1600 
 11 C        3.3130     3.2140    -0.5410 C.3   1 <1>  -0.1600 
 12 C        3.6460     5.9990     0.4240 C.3   1 <1>   0.3430 
 13 C        4.3760     4.1960    -1.0360 C.3   1 <1>   0.3430 
 14 N        3.8480     5.5870    -1.0010 N.4   1 <1>  -0.9590 
 15 C        4.7680     6.4720    -1.7760 C.3   1 <1>   0.4860 
 16 C        4.6200     7.9570    -1.4870 C.ar  1 <1>  -0.1430 
 17 C        5.2430     8.5790    -0.4020 C.ar  1 <1>   0.0830 
 18 C        3.8700     8.7230    -2.3680 C.ar  1 <1>  -0.1500 
 19 O        5.9060     7.8640     0.5500 O.3   1 <1>  -0.3630 
 20 C        5.1210     9.9590    -0.2170 C.ar  1 <1>   0.0830 
 21 C        3.7430    10.0870    -2.1840 C.ar  1 <1>  -0.1500 
 22 C        7.1640     7.2340     0.2970 C.3   1 <1>   0.0940 
 23 O        5.7500    10.5200     0.8550 O.3   1 <1>  -0.3630 
 24 C        4.3680    10.7060    -1.1170 C.ar  1 <1>  -0.1500 
 25 C        7.0250     5.6960     0.2720 C.2   1 <1>   0.9060 
 26 C        8.1370     7.7350     1.3710 C.3   1 <1>  -0.2400 
 27 C        5.7010    11.9050     1.1070 C.3   1 <1>   0.0400 
 28 O        6.4680     5.0850     1.1950 O.co2 1 <1>  -0.9000 
 29 O        7.3180     5.0930    -0.7710 O.co2 1 <1>  -0.9000 
 30 H        1.3310     0.2640     3.3760 H     1 <1>   0.1500 
 31 H       -1.6220     3.8290     0.8300 H     1 <1>   0.0800 
 32 H       -1.0430     3.0340    -0.6170 H     1 <1>   0.0800 
 33 H        3.1620     1.8650     2.2480 H     1 <1>   0.1500 
 34 H        0.1420     5.4690     0.7650 H     1 <1>   0.0800 
 35 H       -0.4610     5.3700    -0.8740 H     1 <1>   0.0800 
 36 H        3.5950     4.4630     1.8780 H     1 <1>   0.0800 
 37 H        2.1560     5.4070     1.8600 H     1 <1>   0.0800 
 38 H        2.8420     2.7230    -1.3720 H     1 <1>   0.0800 
 39 H        3.8310     2.4560     0.0170 H     1 <1>   0.0800 
 40 H        4.5930     6.1570     0.9050 H     1 <1>   0.0800 
 41 H        3.1070     6.9320     0.4510 H     1 <1>   0.0800 
 42 H        4.6860     3.9300    -2.0320 H     1 <1>   0.0800 
 43 H        5.2410     4.1250    -0.3970 H     1 <1>   0.0800 
 44 H        2.9120     5.5720    -1.4270 H     1 <1>   0.4500 
 45 H        4.5970     6.3090    -2.8260 H     1 <1>   0.0800 
 46 H        5.7840     6.2020    -1.6030 H     1 <1>   0.0800 
 47 H        3.3820     8.2660    -3.2130 H     1 <1>   0.1500 
 48 H        3.1600    10.6720    -2.8750 H     1 <1>   0.1500 
 49 H        7.5090     7.5550    -0.6680 H     1 <1>   0.0800 
 50 H        4.2540    11.7670    -1.0050 H     1 <1>   0.1500 
 51 H        7.7980     7.4190     2.3420 H     1 <1>   0.0800 
 52 H        8.2020     8.8070     1.3410 H     1 <1>   0.0800 
 53 H        9.1120     7.3180     1.1980 H     1 <1>   0.0800 
 54 H        6.2770    12.1020     1.9940 H     1 <1>   0.0800 
 55 H        4.6780    12.1960     1.2650 H     1 <1>   0.0800 
 56 H        6.1300    12.4280     0.2710 H     1 <1>   0.0800 
@<TRIPOS>BOND
  1   1   2  1   
  2   1   3  1   
  3   2   4  2   
  4   2   5  1   
  5   3   6  2   
  6   3  30  1   
  7   4   6  1   
  8   4   7  1   
  9   5   8  1   
 10   5  31  1   
 11   5  32  1   
 12   6  33  1   
 13   7   9  1   
 14   7  10  1   
 15   7  11  1   
 16   8   9  1   
 17   8  34  1   
 18   8  35  1   
 19  10  12  1   
 20  10  36  1   
 21  10  37  1   
 22  11  13  1   
 23  11  38  1   
 24  11  39  1   
 25  12  14  1   
 26  12  40  1   
 27  12  41  1   
 28  13  14  1   
 29  13  42  1   
 30  13  43  1   
 31  14  15  1   
 32  14  44  1   
 33  15  16  1   
 34  15  45  1   
 35  15  46  1   
 36  16  17  ar  
 37  16  18  ar  
 38  17  19  1   
 39  17  20  ar  
 40  18  21  ar  
 41  18  47  1   
 42  19  22  1   
 43  20  23  1   
 44  20  24  ar  
 45  21  24  ar  
 46  21  48  1   
 47  22  25  1   
 48  22  26  1   
 49  22  49  1   
 50  23  27  1   
 51  24  50  1   
 52  25  28  ar  
 53  25  29  ar  
 54  26  51  1   
 55  26  52  1   
 56  26  53  1   
 57  27  54  1   
 58  27  55  1   
 59  27  56  1   
@<TRIPOS>SUBSTRUCTURE
  1 ****  12 GROUP 4 **** **** 0

# MOE 2024.06 (io_trps.svl 2023.06)
