@<TRIPOS>MOLECULE
NONAME
42 43 1 0 0 
SMALL
USER_CHARGES


@<TRIPOS>ATOM
  1 S       -0.2070    -0.9480     1.0070 S.o2  1 <1>   1.3330 
  2 O       -1.1830    -0.4570     1.9490 O.2   1 <1>  -0.6500 
  3 O        0.2540    -2.3130     1.0820 O.2   1 <1>  -0.6500 
  4 N       -0.9390    -0.6860    -0.4800 N.am  1 <1>  -0.9140 
  5 C        1.2210     0.1420     0.9760 C.3   1 <1>  -0.0550 
  6 C       -1.6060    -1.8050    -1.1600 C.3   1 <1>   0.2760 
  7 C        0.8860     1.6320     0.7800 C.3   1 <1>  -0.1600 
  8 C       -2.5630    -2.6400    -0.2990 C.3   1 <1>  -0.0800 
  9 C       -0.6620    -2.8350    -1.7890 C.3   1 <1>   0.1200 
 10 C        2.1540     2.4920     0.8000 C.3   1 <1>  -0.1600 
 11 C       -2.0370    -4.0660    -0.4970 C.3   1 <1>   0.1200 
 12 C       -4.0210    -2.4880    -0.7670 C.3   1 <1>  -0.0160 
 13 O       -1.3500    -4.0410    -1.7050 O.3   1 <1>  -0.5600 
 14 C        1.8150     3.9720     0.6040 C.3   1 <1>  -0.2400 
 15 C       -4.9740    -3.3080     0.0880 C.ar  1 <1>  -0.1440 
 16 C       -5.2560    -2.9670     1.3960 C.ar  1 <1>  -0.1500 
 17 C       -5.6080    -4.4350    -0.3970 C.ar  1 <1>  -0.1500 
 18 C       -6.1300    -3.7480     2.1340 C.ar  1 <1>   0.1600 
 19 C       -6.4660    -5.1460     0.4260 C.ar  1 <1>   0.1600 
 20 N       -6.7430    -4.8290     1.6800 N.ar  1 <1>  -0.6200 
 21 H       -1.6660    -0.0100    -0.2480 H     1 <1>   0.4200 
 22 H        1.7540     0.0300     1.9010 H     1 <1>   0.0800 
 23 H        1.8770    -0.1730     0.1870 H     1 <1>   0.0800 
 24 H       -2.1610    -1.3820    -1.9810 H     1 <1>   0.0800 
 25 H        0.3790     1.7640    -0.1610 H     1 <1>   0.0800 
 26 H        0.2220     1.9520     1.5660 H     1 <1>   0.0800 
 27 H       -2.5120    -2.3990     0.7460 H     1 <1>   0.0800 
 28 H        0.2590    -2.9400    -1.2470 H     1 <1>   0.0800 
 29 H       -0.4630    -2.6220    -2.8240 H     1 <1>   0.0800 
 30 H        2.6640     2.3690     1.7410 H     1 <1>   0.0800 
 31 H        2.8220     2.1770     0.0150 H     1 <1>   0.0800 
 32 H       -2.8100    -4.8110    -0.5440 H     1 <1>   0.0800 
 33 H       -1.3320    -4.3240     0.2770 H     1 <1>   0.0800 
 34 H       -4.1050    -2.7900    -1.7970 H     1 <1>   0.0800 
 35 H       -4.3110    -1.4530    -0.7040 H     1 <1>   0.0800 
 36 H        1.1670     4.3180     1.3910 H     1 <1>   0.0800 
 37 H        1.3260     4.1270    -0.3420 H     1 <1>   0.0800 
 38 H        2.7160     4.5610     0.6220 H     1 <1>   0.0800 
 39 H       -4.8030    -2.1040     1.8500 H     1 <1>   0.1500 
 40 H       -5.4410    -4.7690    -1.4050 H     1 <1>   0.1500 
 41 H       -6.3360    -3.4670     3.1530 H     1 <1>   0.1500 
 42 H       -6.9510    -6.0220     0.0300 H     1 <1>   0.1500 
@<TRIPOS>BOND
  1   1   2  2   
  2   1   3  2   
  3   1   4  am  
  4   1   5  1   
  5   4   6  1   
  6   4  21  1   
  7   5   7  1   
  8   5  22  1   
  9   5  23  1   
 10   6   8  1   
 11   6   9  1   
 12   6  24  1   
 13   7  10  1   
 14   7  25  1   
 15   7  26  1   
 16   8  11  1   
 17   8  12  1   
 18   8  27  1   
 19   9  13  1   
 20   9  28  1   
 21   9  29  1   
 22  10  14  1   
 23  10  30  1   
 24  10  31  1   
 25  11  13  1   
 26  11  32  1   
 27  11  33  1   
 28  12  15  1   
 29  12  34  1   
 30  12  35  1   
 31  14  36  1   
 32  14  37  1   
 33  14  38  1   
 34  15  16  ar  
 35  15  17  ar  
 36  16  18  ar  
 37  16  39  1   
 38  17  19  ar  
 39  17  40  1   
 40  18  20  ar  
 41  18  41  1   
 42  19  20  ar  
 43  19  42  1   
@<TRIPOS>SUBSTRUCTURE
  1 ****   8 GROUP 4 **** **** 0

# MOE 2024.06 (io_trps.svl 2023.06)
