@<TRIPOS>MOLECULE
NONAME
43 45 1 0 0 
SMALL
USER_CHARGES


@<TRIPOS>ATOM
  1 O       -2.2010     0.6530     1.7510 O.2   1 <1>  -0.5700 
  2 C       -2.1700     0.8770     0.5560 C.2   1 <1>   0.7160 
  3 N       -2.5300    -0.1020    -0.3360 N.am  1 <1>  -0.6600 
  4 C       -1.7710     2.1730     0.0810 C.2   1 <1>  -0.0860 
  5 C       -2.5650    -1.5330     0.1150 C.3   1 <1>   0.3640 
  6 C       -3.0710     0.2560    -1.6840 C.3   1 <1>   0.1400 
  7 C       -2.3540     3.3830     0.1830 C.2   1 <1>  -0.0400 
  8 C       -0.6290     2.4800    -0.6380 C.2   1 <1>   0.1080 
  9 C       -1.1310    -2.0690     0.1090 C.ar  1 <1>  -0.1440 
 10 C       -3.4980    -2.4730    -0.7050 C.3   1 <1>   0.2000 
 11 C       -3.6080    -0.9450    -2.4730 C.3   1 <1>   0.1200 
 12 O       -1.6670     4.3170    -0.4310 O.3   1 <1>  -0.0190 
 13 C       -3.6410     3.7680     0.8840 C.3   1 <1>  -0.0600 
 14 N       -0.6040     3.7250    -0.9310 N.2   1 <1>  -0.4100 
 15 C        0.4590     1.4960    -1.0190 C.3   1 <1>  -0.0590 
 16 C       -0.3540    -2.0630    -1.0430 C.ar  1 <1>  -0.1500 
 17 C       -0.5870    -2.5740     1.2810 C.ar  1 <1>  -0.1500 
 18 O       -4.3120    -1.7910    -1.6230 O.3   1 <1>  -0.5600 
 19 C       -4.4320    -3.2910     0.1990 C.3   1 <1>   0.1200 
 20 C        0.9400    -2.5550    -1.0230 C.ar  1 <1>  -0.1500 
 21 C        0.7060    -3.0660     1.3030 C.ar  1 <1>  -0.1500 
 22 O       -3.7020    -4.0540     1.1060 O.3   1 <1>  -0.6800 
 23 C        1.4700    -3.0580     0.1510 C.ar  1 <1>  -0.1500 
 24 H       -2.9160    -1.5490     1.1330 H     1 <1>   0.0800 
 25 H       -3.8750     0.9590    -1.5530 H     1 <1>   0.0800 
 26 H       -2.3070     0.7430    -2.2640 H     1 <1>   0.0800 
 27 H       -2.9010    -3.1640    -1.2740 H     1 <1>   0.0800 
 28 H       -2.8110    -1.4980    -2.9390 H     1 <1>   0.0800 
 29 H       -4.2830    -0.6090    -3.2400 H     1 <1>   0.0800 
 30 H       -4.0880     2.9100     1.3510 H     1 <1>   0.0800 
 31 H       -4.3340     4.1830     0.1750 H     1 <1>   0.0800 
 32 H       -3.4330     4.5030     1.6400 H     1 <1>   0.0800 
 33 H        0.6560     0.8250    -0.2020 H     1 <1>   0.0800 
 34 H        1.3640     2.0260    -1.2560 H     1 <1>   0.0800 
 35 H        0.1560     0.9260    -1.8770 H     1 <1>   0.0800 
 36 H       -0.7480    -1.6710    -1.9610 H     1 <1>   0.1500 
 37 H       -1.1700    -2.5830     2.1870 H     1 <1>   0.1500 
 38 H       -5.0390    -3.9570    -0.3890 H     1 <1>   0.0800 
 39 H       -5.0680    -2.6320     0.7650 H     1 <1>   0.0800 
 40 H        1.5350    -2.5480    -1.9200 H     1 <1>   0.1500 
 41 H        1.1160    -3.4530     2.2200 H     1 <1>   0.1500 
 42 H       -3.1820    -4.7460     0.6500 H     1 <1>   0.4000 
 43 H        2.4760    -3.4410     0.1690 H     1 <1>   0.1500 
@<TRIPOS>BOND
  1   1   2  2   
  2   2   3  am  
  3   2   4  1   
  4   3   5  1   
  5   3   6  1   
  6   4   7  2   
  7   4   8  1   
  8   5   9  1   
  9   5  10  1   
 10   5  24  1   
 11   6  11  1   
 12   6  25  1   
 13   6  26  1   
 14   7  12  1   
 15   7  13  1   
 16   8  14  2   
 17   8  15  1   
 18   9  16  ar  
 19   9  17  ar  
 20  10  18  1   
 21  10  19  1   
 22  10  27  1   
 23  11  18  1   
 24  11  28  1   
 25  11  29  1   
 26  12  14  1   
 27  13  30  1   
 28  13  31  1   
 29  13  32  1   
 30  15  33  1   
 31  15  34  1   
 32  15  35  1   
 33  16  20  ar  
 34  16  36  1   
 35  17  21  ar  
 36  17  37  1   
 37  19  22  1   
 38  19  38  1   
 39  19  39  1   
 40  20  23  ar  
 41  20  40  1   
 42  21  23  ar  
 43  21  41  1   
 44  22  42  1   
 45  23  43  1   
@<TRIPOS>SUBSTRUCTURE
  1 ****   3 GROUP 4 **** **** 0

# MOE 2024.06 (io_trps.svl 2023.06)
