@<TRIPOS>MOLECULE
NONAME
58 61 1 0 0 
SMALL
USER_CHARGES


@<TRIPOS>ATOM
  1 O        1.5020     4.8660    -1.6620 O.3   1 <1>  -0.0190 
  2 N        2.6640     5.3400    -1.9880 N.2   1 <1>  -0.4100 
  3 C        1.5730     3.6180    -1.2870 C.2   1 <1>  -0.0400 
  4 C        3.4920     4.3620    -1.8890 C.2   1 <1>   0.1080 
  5 C        2.8450     3.2170    -1.4320 C.2   1 <1>  -0.1500 
  6 C        0.3350     2.9120    -0.7630 C.3   1 <1>   0.0200 
  7 C        4.9660     4.4570    -2.2220 C.3   1 <1>  -0.0590 
  8 C       -0.2400     3.5570     0.5230 C.3   1 <1>  -0.0800 
  9 C       -1.0030     4.8620     0.2510 C.3   1 <1>   0.2000 
 10 C        0.8490     3.9760     1.5170 C.3   1 <1>   0.3430 
 11 O       -2.1290     4.8980     1.0640 O.3   1 <1>  -0.6800 
 12 C       -0.0610     6.0150     0.6360 C.3   1 <1>   0.3430 
 13 N        1.1880     5.3780     1.1610 N.4   1 <1>  -0.9590 
 14 C        1.8820     6.1660     2.2110 C.3   1 <1>   0.4860 
 15 C        2.1820     7.5470     1.6600 C.ar  1 <1>  -0.1440 
 16 C        3.0900     7.7080     0.6220 C.ar  1 <1>  -0.1500 
 17 C        1.5380     8.6600     2.1830 C.ar  1 <1>  -0.1500 
 18 C        3.3450     8.9660     0.1060 C.ar  1 <1>  -0.1500 
 19 C        1.7960     9.9190     1.6700 C.ar  1 <1>  -0.1500 
 20 C        2.7010    10.0780     0.6340 C.ar  1 <1>   0.0820 
 21 O        2.9140    11.3300     0.1570 O.3   1 <1>  -0.1650 
 22 C        4.1200    11.7020    -0.3380 C.ar  1 <1>   0.0820 
 23 C        4.1600    12.4100    -1.5270 C.ar  1 <1>  -0.1500 
 24 C        5.3010    11.4000     0.3250 C.ar  1 <1>  -0.1500 
 25 C        5.3710    12.8060    -2.0740 C.ar  1 <1>  -0.1440 
 26 C        6.5110    11.7930    -0.2160 C.ar  1 <1>  -0.1500 
 27 C        6.5560    12.4930    -1.4130 C.ar  1 <1>  -0.1440 
 28 C        5.3700    13.5760    -3.3870 C.3   1 <1>  -0.0970 
 29 C        7.9090    12.9060    -1.9740 C.3   1 <1>  -0.0970 
 30 H        3.3010     2.2610    -1.2450 H     1 <1>   0.1500 
 31 H       -0.4170     2.8870    -1.5340 H     1 <1>   0.0800 
 32 H        0.6010     1.8910    -0.5500 H     1 <1>   0.0800 
 33 H        5.5590     4.1530    -1.3790 H     1 <1>   0.0800 
 34 H        5.2220     5.4680    -2.4820 H     1 <1>   0.0800 
 35 H        5.1900     3.8200    -3.0580 H     1 <1>   0.0800 
 36 H       -0.8930     2.8290     0.9750 H     1 <1>   0.0800 
 37 H       -1.3370     4.9530    -0.7690 H     1 <1>   0.0800 
 38 H        1.7120     3.3320     1.4560 H     1 <1>   0.0800 
 39 H        0.4500     3.9420     2.5180 H     1 <1>   0.0800 
 40 H       -1.9420     4.7030     2.0020 H     1 <1>   0.4000 
 41 H       -0.5270     6.6350     1.3830 H     1 <1>   0.0800 
 42 H        0.1720     6.6170    -0.2280 H     1 <1>   0.0800 
 43 H        1.8240     5.3510     0.3420 H     1 <1>   0.4500 
 44 H        1.2600     6.2500     3.0870 H     1 <1>   0.0800 
 45 H        2.8050     5.6840     2.4890 H     1 <1>   0.0800 
 46 H        3.6070     6.8650     0.1950 H     1 <1>   0.1500 
 47 H        0.8330     8.5670     2.9920 H     1 <1>   0.1500 
 48 H        4.0390     9.0800    -0.7090 H     1 <1>   0.1500 
 49 H        1.3000    10.7870     2.0680 H     1 <1>   0.1500 
 50 H        3.2330    12.6420    -2.0190 H     1 <1>   0.1500 
 51 H        5.2740    10.8660     1.2570 H     1 <1>   0.1500 
 52 H        7.4200    11.5520     0.3060 H     1 <1>   0.1500 
 53 H        4.3680    13.7260    -3.7450 H     1 <1>   0.0800 
 54 H        5.9160    13.0290    -4.1340 H     1 <1>   0.0800 
 55 H        5.8270    14.5390    -3.2490 H     1 <1>   0.0800 
 56 H        8.7090    12.5790    -1.3350 H     1 <1>   0.0800 
 57 H        7.9620    13.9770    -2.0580 H     1 <1>   0.0800 
 58 H        8.0540    12.4690    -2.9460 H     1 <1>   0.0800 
@<TRIPOS>BOND
  1   1   2  1   
  2   1   3  1   
  3   2   4  2   
  4   3   5  2   
  5   3   6  1   
  6   4   5  1   
  7   4   7  1   
  8   5  30  1   
  9   6   8  1   
 10   6  31  1   
 11   6  32  1   
 12   7  33  1   
 13   7  34  1   
 14   7  35  1   
 15   8   9  1   
 16   8  10  1   
 17   8  36  1   
 18   9  11  1   
 19   9  12  1   
 20   9  37  1   
 21  10  13  1   
 22  10  38  1   
 23  10  39  1   
 24  11  40  1   
 25  12  13  1   
 26  12  41  1   
 27  12  42  1   
 28  13  14  1   
 29  13  43  1   
 30  14  15  1   
 31  14  44  1   
 32  14  45  1   
 33  15  16  ar  
 34  15  17  ar  
 35  16  18  ar  
 36  16  46  1   
 37  17  19  ar  
 38  17  47  1   
 39  18  20  ar  
 40  18  48  1   
 41  19  20  ar  
 42  19  49  1   
 43  20  21  1   
 44  21  22  1   
 45  22  23  ar  
 46  22  24  ar  
 47  23  25  ar  
 48  23  50  1   
 49  24  26  ar  
 50  24  51  1   
 51  25  27  ar  
 52  25  28  1   
 53  26  27  ar  
 54  26  52  1   
 55  27  29  1   
 56  28  53  1   
 57  28  54  1   
 58  28  55  1   
 59  29  56  1   
 60  29  57  1   
 61  29  58  1   
@<TRIPOS>SUBSTRUCTURE
  1 ****  16 GROUP 4 **** **** 0

# MOE 2024.06 (io_trps.svl 2023.06)
