@<TRIPOS>MOLECULE
NONAME
51 54 1 0 0 
SMALL
USER_CHARGES


@<TRIPOS>ATOM
  1 CL      -0.9010     1.2730     1.3870 Cl    1 <1>  -0.1770 
  2 C       -0.1390     2.5310     0.4450 C.ar  1 <1>   0.1770 
  3 C        1.1260     2.9620     0.7880 C.ar  1 <1>  -0.1500 
  4 C       -0.8200     3.0720    -0.6310 C.ar  1 <1>  -0.1500 
  5 C        1.7380     3.9610     0.0440 C.ar  1 <1>   0.1000 
  6 C       -0.2140     4.0700    -1.3770 C.ar  1 <1>  -0.1500 
  7 N        3.0120     4.3890     0.3930 N.pl3 1 <1>  -0.8380 
  8 C        1.0550     4.5080    -1.0390 C.ar  1 <1>  -0.1500 
  9 C        4.1140     3.9950    -0.5270 C.3   1 <1>   0.2090 
 10 C        3.1290     5.7960     0.8820 C.3   1 <1>   0.2090 
 11 C        5.4960     4.2480     0.1160 C.3   1 <1>   0.2090 
 12 C        4.5050     6.0400     1.5280 C.3   1 <1>   0.2090 
 13 N        5.6410     5.6730     0.5950 N.pl3 1 <1>  -0.8380 
 14 C        6.5720     6.5880     0.2140 C.ar  1 <1>   0.7710 
 15 N        6.3670     7.8700     0.4740 N.ar  1 <1>  -0.6200 
 16 N        7.6850     6.1670    -0.4140 N.ar  1 <1>  -0.1790 
 17 C        7.2780     8.7520     0.1060 C.ar  1 <1>   0.4100 
 18 C        8.6380     7.0360    -0.8300 C.ar  1 <1>   0.2110 
 19 N        7.0530    10.0570     0.4080 N.pl3 1 <1>  -0.8380 
 20 C        8.4410     8.3510    -0.5780 C.ar  1 <1>  -0.1500 
 21 C        8.1300    11.0610     0.7020 C.3   1 <1>   0.2090 
 22 C        5.6780    10.6190     0.5800 C.3   1 <1>   0.2090 
 23 C        7.9810    12.2890    -0.2110 C.3   1 <1>   0.2000 
 24 C        5.5030    11.8370    -0.3380 C.3   1 <1>  -0.1600 
 25 O        8.9120    13.2500     0.1440 O.3   1 <1>  -0.6800 
 26 C        6.5830    12.9080    -0.1040 C.3   1 <1>  -0.1600 
 27 H        1.6370     2.5300     1.6260 H     1 <1>   0.1500 
 28 H       -1.8040     2.7170    -0.8750 H     1 <1>   0.1500 
 29 H       -0.7310     4.5030    -2.2160 H     1 <1>   0.1500 
 30 H        1.5220     5.2830    -1.6180 H     1 <1>   0.1500 
 31 H        4.0330     4.5540    -1.4430 H     1 <1>   0.0800 
 32 H        4.0150     2.9490    -0.7650 H     1 <1>   0.0800 
 33 H        2.3550     5.9830     1.6070 H     1 <1>   0.0800 
 34 H        2.9930     6.4800     0.0630 H     1 <1>   0.0800 
 35 H        6.2510     3.9930    -0.6030 H     1 <1>   0.0800 
 36 H        5.6000     3.5820     0.9570 H     1 <1>   0.0800 
 37 H        4.5710     5.4340     2.4150 H     1 <1>   0.0800 
 38 H        4.5570     7.0660     1.8460 H     1 <1>   0.0800 
 39 H        7.7770     5.1660    -0.5230 H     1 <1>   0.4570 
 40 H        9.5100     6.6630    -1.3430 H     1 <1>   0.1500 
 41 H        9.1470     9.0930    -0.8990 H     1 <1>   0.1500 
 42 H        9.1080    10.6340     0.5770 H     1 <1>   0.0800 
 43 H        8.0320    11.3690     1.7280 H     1 <1>   0.0800 
 44 H        5.5380    10.9080     1.6080 H     1 <1>   0.0800 
 45 H        4.9280     9.8860     0.3340 H     1 <1>   0.0800 
 46 H        8.1870    12.0020    -1.2280 H     1 <1>   0.0800 
 47 H        4.5310    12.2660    -0.1720 H     1 <1>   0.0800 
 48 H        5.5400    11.5040    -1.3610 H     1 <1>   0.0800 
 49 H        8.6370    13.7070     0.9620 H     1 <1>   0.4000 
 50 H        6.4780    13.6900    -0.8360 H     1 <1>   0.0800 
 51 H        6.4440    13.3290     0.8760 H     1 <1>   0.0800 
@<TRIPOS>BOND
  1   1   2  1   
  2   2   3  ar  
  3   2   4  ar  
  4   3   5  ar  
  5   3  27  1   
  6   4   6  ar  
  7   4  28  1   
  8   5   7  1   
  9   5   8  ar  
 10   6   8  ar  
 11   6  29  1   
 12   7   9  1   
 13   7  10  1   
 14   8  30  1   
 15   9  11  1   
 16   9  31  1   
 17   9  32  1   
 18  10  12  1   
 19  10  33  1   
 20  10  34  1   
 21  11  13  1   
 22  11  35  1   
 23  11  36  1   
 24  12  13  1   
 25  12  37  1   
 26  12  38  1   
 27  13  14  1   
 28  14  15  ar  
 29  14  16  ar  
 30  15  17  ar  
 31  16  18  ar  
 32  16  39  1   
 33  17  19  1   
 34  17  20  ar  
 35  18  20  ar  
 36  18  40  1   
 37  19  21  1   
 38  19  22  1   
 39  20  41  1   
 40  21  23  1   
 41  21  42  1   
 42  21  43  1   
 43  22  24  1   
 44  22  44  1   
 45  22  45  1   
 46  23  25  1   
 47  23  26  1   
 48  23  46  1   
 49  24  26  1   
 50  24  47  1   
 51  24  48  1   
 52  25  49  1   
 53  26  50  1   
 54  26  51  1   
@<TRIPOS>SUBSTRUCTURE
  1 ****  13 GROUP 4 **** **** 0

# MOE 2024.06 (io_trps.svl 2023.06)
