@<TRIPOS>MOLECULE
NONAME
53 56 1 0 0 
SMALL
USER_CHARGES


@<TRIPOS>ATOM
  1 O        1.4450    -0.6730     1.2480 O.3   1 <1>  -0.5600 
  2 C        1.8160    -1.9870     0.9320 C.3   1 <1>   0.1200 
  3 C        1.9470     0.2970     0.3750 C.3   1 <1>   0.1200 
  4 C        3.3520    -2.1470     0.9350 C.3   1 <1>   0.5180 
  5 C        3.4920     0.2690     0.3480 C.3   1 <1>   0.4230 
  6 N        4.0250    -1.1220     0.0780 N.4   1 <1>  -0.9590 
  7 C        3.7530    -3.5670     0.5060 C.3   1 <1>  -0.1950 
  8 C        4.0350     1.3200    -0.6580 C.3   1 <1>   0.1100 
  9 C        4.0910    -1.4250    -1.3900 C.3   1 <1>   0.3430 
 10 C        3.9440    -4.6340     1.5390 C.3   1 <1>  -0.2000 
 11 C        5.1190    -4.1310     0.7520 C.3   1 <1>  -0.2000 
 12 N        5.2340     0.8280    -1.3670 N.3   1 <1>  -0.8100 
 13 C        4.9270    -0.3780    -2.1660 C.3   1 <1>   0.1100 
 14 C        5.9450     1.8530    -2.1620 C.3   1 <1>   0.2530 
 15 C        6.3270     3.0680    -1.3230 C.ar  1 <1>  -0.1440 
 16 C        7.2960     2.9870    -0.3270 C.ar  1 <1>   0.0820 
 17 C        5.7070     4.2870    -1.5550 C.ar  1 <1>  -0.1500 
 18 O        7.9040     1.8120    -0.0600 O.3   1 <1>  -0.3620 
 19 C        7.6440     4.1060     0.4130 C.ar  1 <1>  -0.1500 
 20 C        6.0460     5.4040    -0.8090 C.ar  1 <1>  -0.1500 
 21 C        7.4230     1.1340     1.0790 C.3   1 <1>   0.1200 
 22 C        7.0160     5.3150     0.1740 C.ar  1 <1>  -0.1500 
 23 C        7.4330    -0.3670     0.7900 C.3   1 <1>   0.1200 
 24 O        6.4900    -1.0020     1.5990 O.3   1 <1>  -0.6800 
 25 H        1.3810    -2.6350     1.6730 H     1 <1>   0.0800 
 26 H        1.4020    -2.2410    -0.0270 H     1 <1>   0.0800 
 27 H        1.5380     0.1220    -0.6050 H     1 <1>   0.0800 
 28 H        1.6020     1.2550     0.7230 H     1 <1>   0.0800 
 29 H        3.6870    -2.0040     1.9500 H     1 <1>   0.0800 
 30 H        3.8260     0.5680     1.3270 H     1 <1>   0.0800 
 31 H        5.0130    -1.0800     0.3990 H     1 <1>   0.4500 
 32 H        3.2360    -3.8870    -0.3830 H     1 <1>   0.1000 
 33 H        4.2670     2.2140    -0.1050 H     1 <1>   0.0800 
 34 H        3.2780     1.5780    -1.3790 H     1 <1>   0.0800 
 35 H        4.5280    -2.3960    -1.5500 H     1 <1>   0.0800 
 36 H        3.0940    -1.4450    -1.7960 H     1 <1>   0.0800 
 37 H        3.9010    -4.3920     2.5880 H     1 <1>   0.1000 
 38 H        3.5870    -5.6310     1.3390 H     1 <1>   0.1000 
 39 H        5.5570    -4.7890     0.0190 H     1 <1>   0.1000 
 40 H        5.8630    -3.5590     1.2780 H     1 <1>   0.1000 
 41 H        4.3960    -0.1030    -3.0610 H     1 <1>   0.0800 
 42 H        5.8540    -0.8350    -2.4700 H     1 <1>   0.0800 
 43 H        6.8480     1.4250    -2.5620 H     1 <1>   0.0800 
 44 H        5.3310     2.1620    -2.9900 H     1 <1>   0.0800 
 45 H        4.9570     4.3800    -2.3210 H     1 <1>   0.1500 
 46 H        8.4040     4.0290     1.1690 H     1 <1>   0.1500 
 47 H        5.5600     6.3450    -0.9970 H     1 <1>   0.1500 
 48 H        8.0580     1.3810     1.9100 H     1 <1>   0.0800 
 49 H        6.4160     1.4650     1.2670 H     1 <1>   0.0800 
 50 H        7.2840     6.1850     0.7480 H     1 <1>   0.1500 
 51 H        8.4030    -0.7920     0.9830 H     1 <1>   0.0800 
 52 H        7.1620    -0.5470    -0.2350 H     1 <1>   0.0800 
 53 H        6.8320    -1.0490     2.5190 H     1 <1>   0.4000 
@<TRIPOS>BOND
  1   1   2  1   
  2   1   3  1   
  3   2   4  1   
  4   2  25  1   
  5   2  26  1   
  6   3   5  1   
  7   3  27  1   
  8   3  28  1   
  9   4   6  1   
 10   4   7  1   
 11   4  29  1   
 12   5   6  1   
 13   5   8  1   
 14   5  30  1   
 15   6   9  1   
 16   6  31  1   
 17   7  10  1   
 18   7  11  1   
 19   7  32  1   
 20   8  12  1   
 21   8  33  1   
 22   8  34  1   
 23   9  13  1   
 24   9  35  1   
 25   9  36  1   
 26  10  11  1   
 27  10  37  1   
 28  10  38  1   
 29  11  39  1   
 30  11  40  1   
 31  12  13  1   
 32  12  14  1   
 33  13  41  1   
 34  13  42  1   
 35  14  15  1   
 36  14  43  1   
 37  14  44  1   
 38  15  16  ar  
 39  15  17  ar  
 40  16  18  1   
 41  16  19  ar  
 42  17  20  ar  
 43  17  45  1   
 44  18  21  1   
 45  19  22  ar  
 46  19  46  1   
 47  20  22  ar  
 48  20  47  1   
 49  21  23  1   
 50  21  48  1   
 51  21  49  1   
 52  22  50  1   
 53  23  24  1   
 54  23  51  1   
 55  23  52  1   
 56  24  53  1   
@<TRIPOS>SUBSTRUCTURE
  1 ****  12 GROUP 4 **** **** 0

# MOE 2024.06 (io_trps.svl 2023.06)
