@<TRIPOS>MOLECULE
NONAME
34 35 1 0 0 
SMALL
USER_CHARGES


@<TRIPOS>ATOM
  1 F        0.7040     0.2560     1.1700 F     1 <1>  -0.3400 
  2 C        1.9100     0.6940     0.8140 C.3   1 <1>   1.1640 
  3 F        2.7170     0.3830     1.8240 F     1 <1>  -0.3400 
  4 F        2.2810    -0.0690    -0.2100 F     1 <1>  -0.3400 
  5 C        1.9240     2.2100     0.4780 C.ar  1 <1>   0.1660 
  6 N        3.0410     2.7730     0.0430 N.ar  1 <1>  -0.6200 
  7 C        0.7830     2.9740     0.6300 C.ar  1 <1>  -0.1500 
  8 C        3.0150     4.0730    -0.2350 C.ar  1 <1>   0.7200 
  9 C        0.8540     4.3090     0.3220 C.ar  1 <1>   0.1600 
 10 N        1.9570     4.8670    -0.1030 N.ar  1 <1>  -0.6200 
 11 N        4.1870     4.6500    -0.6790 N.pl3 1 <1>  -0.8380 
 12 C        4.3110     6.1290    -0.8710 C.3   1 <1>   0.2090 
 13 C        5.3330     3.8400    -1.1770 C.3   1 <1>   0.2090 
 14 C        4.3930     6.8310     0.4840 C.3   1 <1>   0.0960 
 15 C        6.4290     3.8190    -0.1170 C.3   1 <1>  -0.2400 
 16 N        4.8650     8.2170     0.3200 N.pl3 1 <1>   0.3140 
 17 N        4.4340     9.0200    -0.6730 N.2   1 <1>  -0.7070 
 18 C        5.7580     8.8520     1.1050 C.2   1 <1>  -0.3020 
 19 C        5.0620    10.1420    -0.4920 C.2   1 <1>   0.1390 
 20 C        5.9080    10.0980     0.6080 C.2   1 <1>  -0.1500 
 21 H       -0.1450     2.5570     0.9780 H     1 <1>   0.1500 
 22 H       -0.0170     4.9350     0.4300 H     1 <1>   0.1500 
 23 H        3.4620     6.5000    -1.4220 H     1 <1>   0.0800 
 24 H        5.1980     6.3480    -1.4400 H     1 <1>   0.0800 
 25 H        5.7090     4.2660    -2.0920 H     1 <1>   0.0800 
 26 H        5.0220     2.8330    -1.3990 H     1 <1>   0.0800 
 27 H        5.0810     6.3100     1.1210 H     1 <1>   0.0800 
 28 H        3.4250     6.8550     0.9460 H     1 <1>   0.0800 
 29 H        6.8010     4.8100     0.0620 H     1 <1>   0.0800 
 30 H        7.2420     3.2030    -0.4530 H     1 <1>   0.0800 
 31 H        6.0420     3.4070     0.7980 H     1 <1>   0.0800 
 32 H        6.2270     8.3940     1.9560 H     1 <1>   0.1500 
 33 H        4.9320    11.0010    -1.1280 H     1 <1>   0.1500 
 34 H        6.5320    10.8990     0.9620 H     1 <1>   0.1500 
@<TRIPOS>BOND
  1   1   2  1   
  2   2   3  1   
  3   2   4  1   
  4   2   5  1   
  5   5   6  ar  
  6   5   7  ar  
  7   6   8  ar  
  8   7   9  ar  
  9   7  21  1   
 10   8  10  ar  
 11   8  11  1   
 12   9  10  ar  
 13   9  22  1   
 14  11  12  1   
 15  11  13  1   
 16  12  14  1   
 17  12  23  1   
 18  12  24  1   
 19  13  15  1   
 20  13  25  1   
 21  13  26  1   
 22  14  16  1   
 23  14  27  1   
 24  14  28  1   
 25  15  29  1   
 26  15  30  1   
 27  15  31  1   
 28  16  17  1   
 29  16  18  1   
 30  17  19  2   
 31  18  20  2   
 32  18  32  1   
 33  19  20  1   
 34  19  33  1   
 35  20  34  1   
@<TRIPOS>SUBSTRUCTURE
  1 ****   8 GROUP 4 **** **** 0

# MOE 2024.06 (io_trps.svl 2023.06)
