@<TRIPOS>MOLECULE
NONAME
43 44 1 0 0 
SMALL
USER_CHARGES


@<TRIPOS>ATOM
  1 S       -0.5540     0.2990     0.9480 S.o2  1 <1>   1.5760 
  2 O       -1.6120    -0.6450     1.2290 O.2   1 <1>  -0.6500 
  3 O        0.1440     0.9480     2.0370 O.2   1 <1>  -0.6500 
  4 N       -1.1080     1.4840    -0.1240 N.am  1 <1>  -0.8490 
  5 N        0.6080    -0.4600    -0.0220 N.am  1 <1>  -0.8490 
  6 C       -1.7820     2.6150     0.5070 C.3   1 <1>   0.1960 
  7 C       -1.8180     1.0000    -1.3120 C.3   1 <1>   0.1960 
  8 C        1.7590     0.4040    -0.2940 C.3   1 <1>   0.1160 
  9 C        1.0520    -1.7230     0.5650 C.3   1 <1>   0.1160 
 10 C       -3.2310     2.2770     0.8730 C.3   1 <1>  -0.1600 
 11 C       -3.2940     0.6820    -1.0420 C.3   1 <1>  -0.1600 
 12 C       -4.0410     1.8380    -0.3630 C.3   1 <1>   0.2800 
 13 O       -4.0690     2.8770    -1.3060 O.3   1 <1>  -0.5600 
 14 C       -5.4840     1.3860    -0.0410 C.3   1 <1>  -0.1600 
 15 C       -4.8510     4.0050    -1.0460 C.3   1 <1>   0.1200 
 16 C       -6.4900     2.5210     0.1770 C.3   1 <1>   0.2800 
 17 C       -6.3160     3.5950    -0.8950 C.3   1 <1>  -0.1600 
 18 O       -6.2540     3.0940     1.4020 O.3   1 <1>  -0.6800 
 19 C       -7.9260     2.0030     0.2240 C.3   1 <1>  -0.2400 
 20 H       -1.7770     3.4430    -0.1820 H     1 <1>   0.0800 
 21 H       -1.2400     2.9230     1.3850 H     1 <1>   0.0800 
 22 H       -1.3220     0.1280    -1.7060 H     1 <1>   0.0800 
 23 H       -1.7680     1.7670    -2.0670 H     1 <1>   0.0800 
 24 H        1.4330     1.3180    -0.7620 H     1 <1>   0.0800 
 25 H        2.4430    -0.0910    -0.9620 H     1 <1>   0.0800 
 26 H        2.2740     0.6500     0.6200 H     1 <1>   0.0800 
 27 H        0.2110    -2.3840     0.6910 H     1 <1>   0.0800 
 28 H        1.5060    -1.5520     1.5270 H     1 <1>   0.0800 
 29 H        1.7640    -2.2030    -0.0840 H     1 <1>   0.0800 
 30 H       -3.6660     3.1310     1.3490 H     1 <1>   0.0800 
 31 H       -3.2330     1.4850     1.6010 H     1 <1>   0.0800 
 32 H       -3.3650    -0.2010    -0.4360 H     1 <1>   0.0800 
 33 H       -3.7710     0.4520    -1.9780 H     1 <1>   0.0800 
 34 H       -5.4860     0.7240     0.8060 H     1 <1>   0.0800 
 35 H       -5.8350     0.8080    -0.8780 H     1 <1>   0.0800 
 36 H       -4.7400     4.6730    -1.8820 H     1 <1>   0.0800 
 37 H       -4.4830     4.5010    -0.1660 H     1 <1>   0.0800 
 38 H       -6.6530     3.2130    -1.8420 H     1 <1>   0.0800 
 39 H       -6.9190     4.4530    -0.6580 H     1 <1>   0.0800 
 40 H       -5.3220     3.3640     1.4530 H     1 <1>   0.4000 
 41 H       -8.1890     1.5460    -0.7120 H     1 <1>   0.0800 
 42 H       -8.6080     2.8120     0.4110 H     1 <1>   0.0800 
 43 H       -8.0300     1.2680     1.0020 H     1 <1>   0.0800 
@<TRIPOS>BOND
  1   1   2  2   
  2   1   3  2   
  3   1   4  am  
  4   1   5  am  
  5   4   6  1   
  6   4   7  1   
  7   5   8  1   
  8   5   9  1   
  9   6  10  1   
 10   6  20  1   
 11   6  21  1   
 12   7  11  1   
 13   7  22  1   
 14   7  23  1   
 15   8  24  1   
 16   8  25  1   
 17   8  26  1   
 18   9  27  1   
 19   9  28  1   
 20   9  29  1   
 21  10  12  1   
 22  10  30  1   
 23  10  31  1   
 24  11  12  1   
 25  11  32  1   
 26  11  33  1   
 27  12  13  1   
 28  12  14  1   
 29  13  15  1   
 30  14  16  1   
 31  14  34  1   
 32  14  35  1   
 33  15  17  1   
 34  15  36  1   
 35  15  37  1   
 36  16  17  1   
 37  16  18  1   
 38  16  19  1   
 39  17  38  1   
 40  17  39  1   
 41  18  40  1   
 42  19  41  1   
 43  19  42  1   
 44  19  43  1   
@<TRIPOS>SUBSTRUCTURE
  1 ****  10 GROUP 4 **** **** 0

# MOE 2024.06 (io_trps.svl 2023.06)
