@<TRIPOS>MOLECULE
NONAME
50 52 1 0 0 
SMALL
USER_CHARGES


@<TRIPOS>ATOM
  1 O        2.8610    -0.1790    -1.9760 O.2   1 <1>  -0.5700 
  2 C        2.7640    -0.5860    -0.8340 C.2   1 <1>   0.5440 
  3 N        2.5680     0.3270     0.1840 N.am  1 <1>  -0.6600 
  4 C        2.8260    -2.0180    -0.6030 C.ar  1 <1>   0.0860 
  5 C        2.6700    -0.0300     1.6400 C.3   1 <1>   0.1400 
  6 C        2.2070     1.7400    -0.1250 C.3   1 <1>   0.1400 
  7 C        1.7660    -2.8300    -0.9960 C.ar  1 <1>  -0.1500 
  8 C        3.9240    -2.6310    -0.0050 C.ar  1 <1>  -0.1500 
  9 C        3.5280     0.9430     2.4740 C.3   1 <1>   0.1400 
 10 C        3.4590     2.6150    -0.2750 C.3   1 <1>  -0.1600 
 11 C        1.7890    -4.2050    -0.7900 C.ar  1 <1>   0.0830 
 12 C        3.9580    -3.9960     0.2080 C.ar  1 <1>  -0.1500 
 13 N        4.6050     1.6000     1.6780 N.am  1 <1>  -0.6600 
 14 C        4.2060     2.8780     1.0370 C.3   1 <1>   0.1400 
 15 O        0.7680    -5.0210    -1.1630 O.3   1 <1>  -0.3630 
 16 C        2.8930    -4.7920    -0.1790 C.ar  1 <1>  -0.1430 
 17 C        5.7440     0.9120     1.3010 C.2   1 <1>   0.7150 
 18 C       -0.3430    -4.5380    -1.8860 C.3   1 <1>   0.0400 
 19 C        2.9410    -6.2940     0.0620 C.3   1 <1>  -0.0970 
 20 O        5.8690    -0.2450     1.6750 O.2   1 <1>  -0.5700 
 21 C        6.7500     1.5010     0.4340 C.2   1 <1>   0.1010 
 22 N        7.4400     2.6010     0.6610 N.2   1 <1>  -0.5650 
 23 N        7.0800     0.9410    -0.7660 N.pl3 1 <1>   0.0480 
 24 C        8.2250     2.7350    -0.4130 C.2   1 <1>   0.0770 
 25 C        8.0190     1.7360    -1.2960 C.2   1 <1>  -0.3020 
 26 C        6.4960    -0.2540    -1.4030 C.3   1 <1>   0.0160 
 27 H        3.0990    -1.0060     1.7540 H     1 <1>   0.0800 
 28 H        1.6810    -0.0740     2.0610 H     1 <1>   0.0800 
 29 H        1.5670     2.1320     0.6450 H     1 <1>   0.0800 
 30 H        1.6530     1.7650    -1.0490 H     1 <1>   0.0800 
 31 H        0.9300    -2.3520    -1.4680 H     1 <1>   0.1500 
 32 H        4.7590    -2.0290     0.3020 H     1 <1>   0.1500 
 33 H        3.9710     0.4030     3.2940 H     1 <1>   0.0800 
 34 H        2.8910     1.6950     2.9030 H     1 <1>   0.0800 
 35 H        3.1560     3.5650    -0.6760 H     1 <1>   0.0800 
 36 H        4.1230     2.1710    -0.9950 H     1 <1>   0.0800 
 37 H        4.8210    -4.4350     0.6780 H     1 <1>   0.1500 
 38 H        3.5770     3.4350     1.7090 H     1 <1>   0.0800 
 39 H        5.0720     3.4860     0.8430 H     1 <1>   0.0800 
 40 H       -0.9860    -5.3710    -2.1060 H     1 <1>   0.0800 
 41 H        0.0040    -4.0920    -2.8010 H     1 <1>   0.0800 
 42 H       -0.8680    -3.8210    -1.2810 H     1 <1>   0.0800 
 43 H        2.1150    -6.5890     0.6840 H     1 <1>   0.0800 
 44 H        3.8560    -6.5830     0.5450 H     1 <1>   0.0800 
 45 H        2.8680    -6.8150    -0.8760 H     1 <1>   0.0800 
 46 H        8.9140     3.5590    -0.5060 H     1 <1>   0.1500 
 47 H        8.4830     1.5590    -2.2490 H     1 <1>   0.1500 
 48 H        5.4360    -0.1190    -1.5090 H     1 <1>   0.0800 
 49 H        6.6920    -1.1150    -0.7910 H     1 <1>   0.0800 
 50 H        6.9330    -0.3990    -2.3740 H     1 <1>   0.0800 
@<TRIPOS>BOND
  1   1   2  2   
  2   2   3  am  
  3   2   4  1   
  4   3   5  1   
  5   3   6  1   
  6   4   7  ar  
  7   4   8  ar  
  8   5   9  1   
  9   5  27  1   
 10   5  28  1   
 11   6  10  1   
 12   6  29  1   
 13   6  30  1   
 14   7  11  ar  
 15   7  31  1   
 16   8  12  ar  
 17   8  32  1   
 18   9  13  1   
 19   9  33  1   
 20   9  34  1   
 21  10  14  1   
 22  10  35  1   
 23  10  36  1   
 24  11  15  1   
 25  11  16  ar  
 26  12  16  ar  
 27  12  37  1   
 28  13  14  1   
 29  13  17  am  
 30  14  38  1   
 31  14  39  1   
 32  15  18  1   
 33  16  19  1   
 34  17  20  2   
 35  17  21  1   
 36  18  40  1   
 37  18  41  1   
 38  18  42  1   
 39  19  43  1   
 40  19  44  1   
 41  19  45  1   
 42  21  22  2   
 43  21  23  1   
 44  22  24  1   
 45  23  25  1   
 46  23  26  1   
 47  24  25  2   
 48  24  46  1   
 49  25  47  1   
 50  26  48  1   
 51  26  49  1   
 52  26  50  1   
@<TRIPOS>SUBSTRUCTURE
  1 ****   2 GROUP 4 **** **** 0

# MOE 2024.06 (io_trps.svl 2023.06)
