@<TRIPOS>MOLECULE
NONAME
45 46 1 0 0 
SMALL
USER_CHARGES


@<TRIPOS>ATOM
  1 O        2.7220    -0.7040     2.4500 O.2   1 <1>  -0.5700 
  2 C        1.9900    -0.9580     1.5230 C.2   1 <1>   0.5690 
  3 N        1.6010    -0.0640     0.5660 N.am  1 <1>  -0.5470 
  4 C        1.4420    -2.3800     1.3820 C.3   1 <1>   0.1710 
  5 C        1.8720     1.2920     0.3390 C.ar  1 <1>   0.1170 
  6 N        0.1830    -2.4600     0.5800 N.3   1 <1>  -0.8100 
  7 C        1.2400     1.9210    -0.7260 C.ar  1 <1>  -0.1500 
  8 C        2.7400     2.0450     1.1230 C.ar  1 <1>  -0.1500 
  9 C       -0.0320    -3.8310     0.0580 C.3   1 <1>   0.2910 
 10 C       -0.9710    -1.9720     1.3560 C.3   1 <1>   0.0300 
 11 C        1.4640     3.2590    -1.0000 C.ar  1 <1>  -0.1500 
 12 C        2.9640     3.3820     0.8510 C.ar  1 <1>  -0.1500 
 13 C       -1.1620    -3.9080    -0.9640 C.2   1 <1>   0.1080 
 14 C        2.3290     4.0050    -0.2130 C.ar  1 <1>  -0.1430 
 15 N       -1.0110    -3.7280    -2.2310 N.2   1 <1>  -0.4100 
 16 C       -2.4930    -4.2020    -0.6690 C.2   1 <1>  -0.1500 
 17 C        2.5860     5.4840    -0.4970 C.3   1 <1>   0.0630 
 18 O       -2.1870    -3.8860    -2.7660 O.3   1 <1>  -0.0190 
 19 C       -3.0910    -4.1690    -1.8690 C.2   1 <1>  -0.0100 
 20 C        1.2880     6.2920    -0.3170 C.3   1 <1>  -0.1600 
 21 C        3.1990     5.6550    -1.8940 C.3   1 <1>  -0.2400 
 22 C        1.4940     7.8120    -0.3910 C.3   1 <1>  -0.2400 
 23 H        0.9340    -0.4980    -0.0810 H     1 <1>   0.3700 
 24 H        1.2840    -2.7920     2.3630 H     1 <1>   0.0800 
 25 H        2.2120    -2.9570     0.9020 H     1 <1>   0.0800 
 26 H        0.5670     1.3620    -1.3490 H     1 <1>   0.1500 
 27 H        3.2480     1.5910     1.9530 H     1 <1>   0.1500 
 28 H       -0.2370    -4.5050     0.8710 H     1 <1>   0.0800 
 29 H        0.8660    -4.1650    -0.4320 H     1 <1>   0.0800 
 30 H       -0.7720    -0.9870     1.7460 H     1 <1>   0.0800 
 31 H       -1.1820    -2.6330     2.1800 H     1 <1>   0.0800 
 32 H       -1.8400    -1.9050     0.7250 H     1 <1>   0.0800 
 33 H        0.9590     3.7160    -1.8310 H     1 <1>   0.1500 
 34 H        3.6410     3.9350     1.4780 H     1 <1>   0.1500 
 35 H       -2.9090    -4.4010     0.3000 H     1 <1>   0.1500 
 36 H        3.3030     5.8460     0.2200 H     1 <1>   0.0800 
 37 H       -4.1100    -4.3280    -2.1740 H     1 <1>   0.1500 
 38 H        0.8720     6.0510     0.6470 H     1 <1>   0.0800 
 39 H        0.5680     5.9970    -1.0600 H     1 <1>   0.0800 
 40 H        2.4840     5.4100    -2.6580 H     1 <1>   0.0800 
 41 H        4.0480     5.0040    -1.9990 H     1 <1>   0.0800 
 42 H        3.5310     6.6660    -2.0430 H     1 <1>   0.0800 
 43 H        2.2310     8.1280     0.3260 H     1 <1>   0.0800 
 44 H        0.5690     8.3150    -0.1720 H     1 <1>   0.0800 
 45 H        1.8120     8.1090    -1.3740 H     1 <1>   0.0800 
@<TRIPOS>BOND
  1   1   2  2   
  2   2   3  am  
  3   2   4  1   
  4   3   5  1   
  5   3  23  1   
  6   4   6  1   
  7   4  24  1   
  8   4  25  1   
  9   5   7  ar  
 10   5   8  ar  
 11   6   9  1   
 12   6  10  1   
 13   7  11  ar  
 14   7  26  1   
 15   8  12  ar  
 16   8  27  1   
 17   9  13  1   
 18   9  28  1   
 19   9  29  1   
 20  10  30  1   
 21  10  31  1   
 22  10  32  1   
 23  11  14  ar  
 24  11  33  1   
 25  12  14  ar  
 26  12  34  1   
 27  13  15  2   
 28  13  16  1   
 29  14  17  1   
 30  15  18  1   
 31  16  19  2   
 32  16  35  1   
 33  17  20  1   
 34  17  21  1   
 35  17  36  1   
 36  18  19  1   
 37  19  37  1   
 38  20  22  1   
 39  20  38  1   
 40  20  39  1   
 41  21  40  1   
 42  21  41  1   
 43  21  42  1   
 44  22  43  1   
 45  22  44  1   
 46  22  45  1   
@<TRIPOS>SUBSTRUCTURE
  1 ****   3 GROUP 4 **** **** 0

# MOE 2024.06 (io_trps.svl 2023.06)
