@<TRIPOS>MOLECULE
NONAME
55 58 1 0 0 
SMALL
USER_CHARGES


@<TRIPOS>ATOM
  1 O       -0.6510    -1.0660    -1.2200 O.3   1 <1>  -0.5600 
  2 C       -0.0030    -1.9320    -0.3260 C.3   1 <1>   0.2800 
  3 C       -1.5140    -0.1000    -0.6860 C.3   1 <1>   0.1200 
  4 C       -0.9500    -2.2710     0.8720 C.3   1 <1>   0.2000 
  5 C        1.2670    -1.2120     0.1520 C.3   1 <1>  -0.1600 
  6 C        0.4130    -3.1380    -1.1940 C.3   1 <1>  -0.1600 
  7 C       -2.7510    -0.7680    -0.0600 C.3   1 <1>  -0.1600 
  8 O       -0.6600    -3.4960     1.4780 O.3   1 <1>  -0.6800 
  9 C       -2.4530    -2.1690     0.5060 C.3   1 <1>   0.2800 
 10 C        2.2230    -2.1710     0.8640 C.3   1 <1>   0.3430 
 11 C        1.4200    -4.0630    -0.5080 C.3   1 <1>   0.3430 
 12 O       -3.1680    -2.3270     1.6780 O.3   1 <1>  -0.6800 
 13 C       -2.9720    -3.2620    -0.4390 C.3   1 <1>  -0.2400 
 14 N        2.6110    -3.3090    -0.0230 N.4   1 <1>  -0.9590 
 15 C        3.5310    -2.9050    -1.1270 C.3   1 <1>   0.4860 
 16 C        4.8730    -2.5420    -0.5120 C.ar  1 <1>  -0.1440 
 17 C        5.6630    -3.5910     0.0330 C.ar  1 <1>   0.0000 
 18 C        5.3070    -1.2340    -0.4600 C.ar  1 <1>  -0.1440 
 19 C        6.8580    -3.2620     0.7150 C.ar  1 <1>   0.3100 
 20 C        5.3470    -4.9660    -0.0600 C.ar  1 <1>  -0.1500 
 21 C        6.5080    -0.9330     0.1930 C.ar  1 <1>  -0.1500 
 22 C        4.5670    -0.0460    -1.0680 C.3   1 <1>  -0.0970 
 23 N        7.6470    -4.1830     1.3210 N.ar  1 <1>  -0.6200 
 24 C        7.2530    -1.9210     0.7690 C.ar  1 <1>  -0.1500 
 25 C        6.1690    -5.8720     0.5400 C.ar  1 <1>  -0.1500 
 26 C        7.3050    -5.4280     1.2260 C.ar  1 <1>   0.1600 
 27 H       -0.9760     0.4780     0.0460 H     1 <1>   0.0800 
 28 H       -1.8100     0.5580    -1.4860 H     1 <1>   0.0800 
 29 H       -0.7830    -1.5300     1.6350 H     1 <1>   0.0800 
 30 H        1.7610    -0.7590    -0.6860 H     1 <1>   0.0800 
 31 H        1.0110    -0.4250     0.8370 H     1 <1>   0.0800 
 32 H       -0.4470    -3.7250    -1.4450 H     1 <1>   0.0800 
 33 H        0.8380    -2.7860    -2.1160 H     1 <1>   0.0800 
 34 H       -3.5210    -0.8250    -0.8090 H     1 <1>   0.0800 
 35 H       -3.1120    -0.1170     0.7170 H     1 <1>   0.0800 
 36 H       -1.4130    -3.6900     2.0840 H     1 <1>   0.4000 
 37 H        1.7330    -2.5600     1.7430 H     1 <1>   0.0800 
 38 H        3.1040    -1.6380     1.1840 H     1 <1>   0.0800 
 39 H        1.7250    -4.8340    -1.1960 H     1 <1>   0.0800 
 40 H        0.9430    -4.5480     0.3280 H     1 <1>   0.0800 
 41 H       -4.1250    -2.2890     1.4860 H     1 <1>   0.4000 
 42 H       -2.5770    -3.1180    -1.4280 H     1 <1>   0.0800 
 43 H       -4.0440    -3.2220    -0.5160 H     1 <1>   0.0800 
 44 H       -2.6840    -4.2380    -0.0930 H     1 <1>   0.0800 
 45 H        3.1660    -3.9430     0.5670 H     1 <1>   0.4500 
 46 H        3.6690    -3.7220    -1.8150 H     1 <1>   0.0800 
 47 H        3.1130    -2.0790    -1.6740 H     1 <1>   0.0800 
 48 H        4.4890    -5.3150    -0.6020 H     1 <1>   0.1500 
 49 H        6.8490     0.0880     0.2450 H     1 <1>   0.1500 
 50 H        5.2740     0.6940    -1.4030 H     1 <1>   0.0800 
 51 H        3.9330     0.4120    -0.3310 H     1 <1>   0.0800 
 52 H        3.9800    -0.3230    -1.9230 H     1 <1>   0.0800 
 53 H        8.1730    -1.6950     1.2800 H     1 <1>   0.1500 
 54 H        5.9750    -6.9290     0.4990 H     1 <1>   0.1500 
 55 H        7.9330    -6.1650     1.6990 H     1 <1>   0.1500 
@<TRIPOS>BOND
  1   1   2  1   
  2   1   3  1   
  3   2   4  1   
  4   2   5  1   
  5   2   6  1   
  6   3   7  1   
  7   3  27  1   
  8   3  28  1   
  9   4   8  1   
 10   4   9  1   
 11   4  29  1   
 12   5  10  1   
 13   5  30  1   
 14   5  31  1   
 15   6  11  1   
 16   6  32  1   
 17   6  33  1   
 18   7   9  1   
 19   7  34  1   
 20   7  35  1   
 21   8  36  1   
 22   9  12  1   
 23   9  13  1   
 24  10  14  1   
 25  10  37  1   
 26  10  38  1   
 27  11  14  1   
 28  11  39  1   
 29  11  40  1   
 30  12  41  1   
 31  13  42  1   
 32  13  43  1   
 33  13  44  1   
 34  14  15  1   
 35  14  45  1   
 36  15  16  1   
 37  15  46  1   
 38  15  47  1   
 39  16  17  ar  
 40  16  18  ar  
 41  17  19  ar  
 42  17  20  ar  
 43  18  21  ar  
 44  18  22  1   
 45  19  23  ar  
 46  19  24  ar  
 47  20  25  ar  
 48  20  48  1   
 49  21  24  ar  
 50  21  49  1   
 51  22  50  1   
 52  22  51  1   
 53  22  52  1   
 54  23  26  ar  
 55  24  53  1   
 56  25  26  ar  
 57  25  54  1   
 58  26  55  1   
@<TRIPOS>SUBSTRUCTURE
  1 ****  14 GROUP 4 **** **** 0

# MOE 2024.06 (io_trps.svl 2023.06)
