@<TRIPOS>MOLECULE
NONAME
51 53 1 0 0 
SMALL
USER_CHARGES


@<TRIPOS>ATOM
  1 CL       0.0750     0.6740     0.5300 Cl    1 <1>  -0.1770 
  2 C       -1.6390     0.9680     0.4190 C.ar  1 <1>   0.1770 
  3 C       -2.1520     2.1790     0.8420 C.ar  1 <1>  -0.1500 
  4 C       -2.4680    -0.0130    -0.0900 C.ar  1 <1>  -0.1500 
  5 C       -3.5130     2.4060     0.7510 C.ar  1 <1>  -0.1500 
  6 C       -3.8280     0.2260    -0.1780 C.ar  1 <1>  -0.1500 
  7 C       -4.3850     1.4380     0.2410 C.ar  1 <1>   0.0530 
  8 C       -5.8020     1.7030     0.1530 C.2   1 <1>   0.0870 
  9 O       -6.2350     2.9390     0.1030 O.3   1 <1>  -0.0190 
 10 C       -6.9020     0.9050     0.0980 C.2   1 <1>  -0.0860 
 11 N       -7.5360     3.0260     0.0250 N.2   1 <1>  -0.4100 
 12 C       -7.9610     1.8150     0.0270 C.2   1 <1>   0.3720 
 13 C       -7.0440    -0.5160     0.1430 C.2   1 <1>   0.7160 
 14 N       -9.3100     1.4650    -0.0230 N.pl3 1 <1>  -0.8520 
 15 O       -6.4770    -1.1500     1.0130 O.2   1 <1>  -0.5700 
 16 N       -7.8350    -1.1950    -0.7650 N.am  1 <1>  -0.6600 
 17 C      -10.2670     2.3910     0.6420 C.3   1 <1>   0.2090 
 18 C       -8.3230    -2.5810    -0.4920 C.3   1 <1>   0.1400 
 19 C       -8.1480    -0.6470    -2.1190 C.3   1 <1>   0.0600 
 20 C      -11.6870     1.8300     0.5530 C.3   1 <1>   0.1200 
 21 C       -9.6920    -2.5640     0.2110 C.3   1 <1>   0.0000 
 22 O      -12.5450     2.6620     1.2660 O.3   1 <1>  -0.5600 
 23 C      -10.8510    -2.0910    -0.6810 C.3   1 <1>   0.2580 
 24 C      -10.4280    -3.9110     0.1110 C.3   1 <1>   0.2580 
 25 C       -9.6950    -1.9750     1.6400 C.3   1 <1>  -0.2400 
 26 C      -13.8750     2.2550     1.2410 C.3   1 <1>   0.0400 
 27 O      -11.6130    -3.1780    -0.1760 O.3   1 <1>  -0.5160 
 28 H       -1.4900     2.9290     1.2350 H     1 <1>   0.1500 
 29 H       -2.0490    -0.9500    -0.4120 H     1 <1>   0.1500 
 30 H       -3.9090     3.3500     1.0840 H     1 <1>   0.1500 
 31 H       -4.4590    -0.5450    -0.5790 H     1 <1>   0.1500 
 32 H       -9.4520     0.4980     0.2800 H     1 <1>   0.4000 
 33 H      -10.2320     3.3510     0.1570 H     1 <1>   0.0800 
 34 H       -9.9900     2.5100     1.6760 H     1 <1>   0.0800 
 35 H       -7.6150    -3.1030     0.1300 H     1 <1>   0.0800 
 36 H       -8.3910    -3.1220    -1.4200 H     1 <1>   0.0800 
 37 H       -7.5220     0.2000    -2.3440 H     1 <1>   0.0800 
 38 H       -9.1760    -0.3310    -2.1620 H     1 <1>   0.0800 
 39 H       -7.9790    -1.3980    -2.8710 H     1 <1>   0.0800 
 40 H      -11.7290     0.8470     0.9890 H     1 <1>   0.0800 
 41 H      -12.0070     1.8010    -0.4740 H     1 <1>   0.0800 
 42 H      -10.6960    -2.2160    -1.7400 H     1 <1>   0.0000 
 43 H      -11.2960    -1.1540    -0.3990 H     1 <1>   0.0000 
 44 H      -10.5330    -4.4500     1.0350 H     1 <1>   0.0000 
 45 H      -10.1610    -4.5190    -0.7370 H     1 <1>   0.0000 
 46 H       -9.4230    -0.9370     1.6300 H     1 <1>   0.0800 
 47 H       -8.9890    -2.5020     2.2570 H     1 <1>   0.0800 
 48 H      -10.6700    -2.0640     2.0880 H     1 <1>   0.0800 
 49 H      -14.4510     2.9580     1.8170 H     1 <1>   0.0800 
 50 H      -13.9560     1.2750     1.6790 H     1 <1>   0.0800 
 51 H      -14.2260     2.2470     0.2240 H     1 <1>   0.0800 
@<TRIPOS>BOND
  1   1   2  1   
  2   2   3  ar  
  3   2   4  ar  
  4   3   5  ar  
  5   3  28  1   
  6   4   6  ar  
  7   4  29  1   
  8   5   7  ar  
  9   5  30  1   
 10   6   7  ar  
 11   6  31  1   
 12   7   8  1   
 13   8   9  1   
 14   8  10  2   
 15   9  11  1   
 16  10  12  1   
 17  10  13  1   
 18  11  12  2   
 19  12  14  1   
 20  13  15  2   
 21  13  16  am  
 22  14  17  1   
 23  14  32  1   
 24  16  18  1   
 25  16  19  1   
 26  17  20  1   
 27  17  33  1   
 28  17  34  1   
 29  18  21  1   
 30  18  35  1   
 31  18  36  1   
 32  19  37  1   
 33  19  38  1   
 34  19  39  1   
 35  20  22  1   
 36  20  40  1   
 37  20  41  1   
 38  21  23  1   
 39  21  24  1   
 40  21  25  1   
 41  22  26  1   
 42  23  27  1   
 43  23  42  1   
 44  23  43  1   
 45  24  27  1   
 46  24  44  1   
 47  24  45  1   
 48  25  46  1   
 49  25  47  1   
 50  25  48  1   
 51  26  49  1   
 52  26  50  1   
 53  26  51  1   
@<TRIPOS>SUBSTRUCTURE
  1 ****  10 GROUP 4 **** **** 0

# MOE 2024.06 (io_trps.svl 2023.06)
