@<TRIPOS>MOLECULE
NONAME
41 43 1 0 0 
SMALL
USER_CHARGES


@<TRIPOS>ATOM
  1 O       -0.7370     0.3920     0.0080 O.3   1 <1>  -0.5600 
  2 C       -1.3670     0.4090     1.2590 C.3   1 <1>   0.1200 
  3 C       -1.0400    -0.6930    -0.8200 C.3   1 <1>   0.1200 
  4 C       -2.7980     0.9920     1.1560 C.3   1 <1>   0.4230 
  5 C       -2.5540    -0.8570    -1.0780 C.3   1 <1>  -0.0800 
  6 N       -3.0530     1.5180    -0.2420 N.4   1 <1>  -0.9590 
  7 C       -3.8600     0.0010     1.7000 C.3   1 <1>   0.2090 
  8 C       -3.2540    -1.7840    -0.0600 C.3   1 <1>   0.2090 
  9 C       -3.3030     0.4720    -1.2930 C.3   1 <1>   0.3430 
 10 C       -4.1510     2.5250    -0.2670 C.3   1 <1>   0.2630 
 11 N       -4.2870    -1.0730     0.7480 N.pl3 1 <1>  -0.8380 
 12 C       -5.6380    -1.2310     0.4760 C.ar  1 <1>   0.4100 
 13 N       -6.2330    -0.1340     0.0130 N.ar  1 <1>  -0.6200 
 14 C       -6.3020    -2.4500     0.6840 C.ar  1 <1>   0.0730 
 15 C       -7.5210    -0.2330    -0.2640 C.ar  1 <1>   0.1670 
 16 C       -5.6050    -3.5850     1.2030 C.1   1 <1>   0.4840 
 17 C       -7.6480    -2.5260     0.3830 C.ar  1 <1>  -0.1500 
 18 C       -8.2620    -1.3900    -0.1000 C.ar  1 <1>  -0.1500 
 19 C       -8.1890     1.0210    -0.7890 C.3   1 <1>  -0.0970 
 20 N       -5.0250    -4.4890     1.5890 N.1   1 <1>  -0.5570 
 21 H       -1.3550    -0.5810     1.6820 H     1 <1>   0.0800 
 22 H       -0.7780     1.0420     1.9000 H     1 <1>   0.0800 
 23 H       -0.5350    -0.5110    -1.7530 H     1 <1>   0.0800 
 24 H       -0.6140    -1.5830    -0.3870 H     1 <1>   0.0800 
 25 H       -2.8130     1.8310     1.8310 H     1 <1>   0.0800 
 26 H       -2.6220    -1.3880    -2.0100 H     1 <1>   0.0800 
 27 H       -2.1480     1.9390    -0.5030 H     1 <1>   0.4500 
 28 H       -4.7250     0.5690     1.9970 H     1 <1>   0.0800 
 29 H       -3.4850    -0.4650     2.5940 H     1 <1>   0.0800 
 30 H       -2.5410    -2.2470     0.6010 H     1 <1>   0.0800 
 31 H       -3.7320    -2.5810    -0.6060 H     1 <1>   0.0800 
 32 H       -4.3570     0.2570    -1.3390 H     1 <1>   0.0800 
 33 H       -3.0200     0.8750    -2.2500 H     1 <1>   0.0800 
 34 H       -5.0850     2.0570     0.0020 H     1 <1>   0.0800 
 35 H       -4.2510     2.9440    -1.2550 H     1 <1>   0.0800 
 36 H       -3.9470     3.3230     0.4270 H     1 <1>   0.0800 
 37 H       -8.2030    -3.4390     0.5230 H     1 <1>   0.1500 
 38 H       -9.3100    -1.4100    -0.3450 H     1 <1>   0.1500 
 39 H       -9.2310     0.8510    -0.9890 H     1 <1>   0.0800 
 40 H       -7.7110     1.3320    -1.7000 H     1 <1>   0.0800 
 41 H       -8.1040     1.8080    -0.0630 H     1 <1>   0.0800 
@<TRIPOS>BOND
  1   1   2  1   
  2   1   3  1   
  3   2   4  1   
  4   2  21  1   
  5   2  22  1   
  6   3   5  1   
  7   3  23  1   
  8   3  24  1   
  9   4   6  1   
 10   4   7  1   
 11   4  25  1   
 12   5   8  1   
 13   5   9  1   
 14   5  26  1   
 15   6   9  1   
 16   6  10  1   
 17   6  27  1   
 18   7  11  1   
 19   7  28  1   
 20   7  29  1   
 21   8  11  1   
 22   8  30  1   
 23   8  31  1   
 24   9  32  1   
 25   9  33  1   
 26  10  34  1   
 27  10  35  1   
 28  10  36  1   
 29  11  12  1   
 30  12  13  ar  
 31  12  14  ar  
 32  13  15  ar  
 33  14  16  1   
 34  14  17  ar  
 35  15  18  ar  
 36  15  19  1   
 37  16  20  3   
 38  17  18  ar  
 39  17  37  1   
 40  18  38  1   
 41  19  39  1   
 42  19  40  1   
 43  19  41  1   
@<TRIPOS>SUBSTRUCTURE
  1 ****  11 GROUP 4 **** **** 0

# MOE 2024.06 (io_trps.svl 2023.06)
