@<TRIPOS>MOLECULE
NONAME
56 59 1 0 0 
SMALL
USER_CHARGES


@<TRIPOS>ATOM
  1 O        1.4520    -0.7660    -2.4360 O.2   1 <1>  -0.5700 
  2 C        1.5790    -1.6560    -1.6290 C.2   1 <1>   0.5690 
  3 N        2.0030    -1.3980    -0.3470 N.am  1 <1>  -0.6600 
  4 C        1.2500    -3.0460    -2.1360 C.3   1 <1>  -0.0990 
  5 C        2.2680    -2.4160     0.7260 C.3   1 <1>   0.1400 
  6 C        2.2320     0.0100     0.0850 C.3   1 <1>   0.1400 
  7 C        0.8690    -4.0560    -1.0610 C.3   1 <1>   0.1200 
  8 C        2.8930    -3.7680     0.2770 C.3   1 <1>   0.2800 
  9 C        3.7090     0.3730    -0.0960 C.3   1 <1>  -0.1600 
 10 O        2.0030    -4.5830    -0.4420 O.3   1 <1>  -0.5600 
 11 C        4.1500    -3.5900    -0.6110 C.3   1 <1>  -0.1600 
 12 C        3.2210    -4.5880     1.5410 C.3   1 <1>  -0.1600 
 13 C        3.9870     1.8120     0.3500 C.3   1 <1>  -0.2400 
 14 C        5.4560    -3.5970     0.1860 C.3   1 <1>   0.1400 
 15 C        4.3380    -5.5980     1.2870 C.3   1 <1>   0.1400 
 16 N        5.6010    -4.8680     0.9610 N.am  1 <1>  -0.6600 
 17 C        6.8200    -5.3980     1.3290 C.2   1 <1>   0.5690 
 18 O        6.8840    -6.4580     1.9130 O.2   1 <1>  -0.5700 
 19 C        8.1280    -4.6400     1.0580 C.3   1 <1>   0.2610 
 20 O        8.4290    -4.6290    -0.3360 O.3   1 <1>  -0.3630 
 21 C        9.3240    -5.2200     1.8310 C.3   1 <1>   0.1200 
 22 C        9.6720    -4.2180    -0.6910 C.ar  1 <1>   0.0820 
 23 O       10.4980    -4.4780     1.5470 O.3   1 <1>  -0.3630 
 24 C       10.7000    -4.1270     0.2510 C.ar  1 <1>   0.0820 
 25 C        9.9120    -3.8780    -2.0110 C.ar  1 <1>  -0.1500 
 26 C       11.9500    -3.6760    -0.1330 C.ar  1 <1>  -0.1500 
 27 C       11.1680    -3.4330    -2.3920 C.ar  1 <1>  -0.1500 
 28 C       12.1840    -3.3290    -1.4540 C.ar  1 <1>  -0.1500 
 29 H        2.0680    -3.4200    -2.7220 H     1 <1>   0.0800 
 30 H        0.4090    -2.9430    -2.7970 H     1 <1>   0.0800 
 31 H        1.3590    -2.6020     1.2690 H     1 <1>   0.0800 
 32 H        2.9550    -1.9750     1.4260 H     1 <1>   0.0800 
 33 H        1.9410     0.1260     1.1150 H     1 <1>   0.0800 
 34 H        1.6230     0.6780    -0.5020 H     1 <1>   0.0800 
 35 H        0.3620    -4.8860    -1.5220 H     1 <1>   0.0800 
 36 H        0.2090    -3.6340    -0.3230 H     1 <1>   0.0800 
 37 H        3.9660     0.2730    -1.1370 H     1 <1>   0.0800 
 38 H        4.3250    -0.2970     0.4750 H     1 <1>   0.0800 
 39 H        4.1040    -2.6760    -1.1710 H     1 <1>   0.0800 
 40 H        4.2040    -4.3950    -1.3240 H     1 <1>   0.0800 
 41 H        2.3390    -5.1000     1.8810 H     1 <1>   0.0800 
 42 H        3.5460    -3.9480     2.3410 H     1 <1>   0.0800 
 43 H        3.3990     2.5040    -0.2290 H     1 <1>   0.0800 
 44 H        5.0270     2.0470     0.2040 H     1 <1>   0.0800 
 45 H        3.7490     1.9400     1.3910 H     1 <1>   0.0800 
 46 H        5.4690    -2.7640     0.8670 H     1 <1>   0.0800 
 47 H        6.2730    -3.4830    -0.5040 H     1 <1>   0.0800 
 48 H        4.0760    -6.2440     0.4660 H     1 <1>   0.0800 
 49 H        4.4770    -6.2080     2.1640 H     1 <1>   0.0800 
 50 H        7.9930    -3.6200     1.3630 H     1 <1>   0.0800 
 51 H        9.4930    -6.2440     1.5460 H     1 <1>   0.0800 
 52 H        9.1490    -5.1760     2.8900 H     1 <1>   0.0800 
 53 H        9.1190    -3.9610    -2.7320 H     1 <1>   0.1500 
 54 H       12.7330    -3.6030     0.6000 H     1 <1>   0.1500 
 55 H       11.3550    -3.1670    -3.4180 H     1 <1>   0.1500 
 56 H       13.1570    -2.9810    -1.7530 H     1 <1>   0.1500 
@<TRIPOS>BOND
  1   1   2  2   
  2   2   3  am  
  3   2   4  1   
  4   3   5  1   
  5   3   6  1   
  6   4   7  1   
  7   4  29  1   
  8   4  30  1   
  9   5   8  1   
 10   5  31  1   
 11   5  32  1   
 12   6   9  1   
 13   6  33  1   
 14   6  34  1   
 15   7  10  1   
 16   7  35  1   
 17   7  36  1   
 18   8  10  1   
 19   8  11  1   
 20   8  12  1   
 21   9  13  1   
 22   9  37  1   
 23   9  38  1   
 24  11  14  1   
 25  11  39  1   
 26  11  40  1   
 27  12  15  1   
 28  12  41  1   
 29  12  42  1   
 30  13  43  1   
 31  13  44  1   
 32  13  45  1   
 33  14  16  1   
 34  14  46  1   
 35  14  47  1   
 36  15  16  1   
 37  15  48  1   
 38  15  49  1   
 39  16  17  am  
 40  17  18  2   
 41  17  19  1   
 42  19  20  1   
 43  19  21  1   
 44  19  50  1   
 45  20  22  1   
 46  21  23  1   
 47  21  51  1   
 48  21  52  1   
 49  22  24  ar  
 50  22  25  ar  
 51  23  24  1   
 52  24  26  ar  
 53  25  27  ar  
 54  25  53  1   
 55  26  28  ar  
 56  26  54  1   
 57  27  28  ar  
 58  27  55  1   
 59  28  56  1   
@<TRIPOS>SUBSTRUCTURE
  1 ****  14 GROUP 4 **** **** 0

# MOE 2024.06 (io_trps.svl 2023.06)
