@<TRIPOS>MOLECULE
NONAME
45 46 1 0 0 
SMALL
USER_CHARGES


@<TRIPOS>ATOM
  1 O        0.2630     0.1710    -1.6190 O.2   1 <1>  -0.5700 
  2 C        1.0480    -0.3610    -0.8750 C.2   1 <1>   0.5690 
  3 N        1.7930     0.3400     0.0170 N.am  1 <1>  -0.7300 
  4 C        1.2090    -1.8610    -0.9330 C.3   1 <1>  -0.0990 
  5 C        1.7530     1.8100     0.1790 C.3   1 <1>   0.1400 
  6 C        0.2000    -2.5640    -0.0120 C.3   1 <1>   0.1760 
  7 C        3.1000     2.3950    -0.2410 C.3   1 <1>  -0.1600 
  8 N        0.6000    -3.9800     0.1670 N.pl3 1 <1>   0.0480 
  9 C       -1.2400    -2.4960    -0.5410 C.3   1 <1>  -0.2400 
 10 C        3.0950     3.9130    -0.0920 C.3   1 <1>   0.2090 
 11 C        0.9010    -4.6030     1.3300 C.2   1 <1>   0.0360 
 12 C        0.7690    -4.9280    -0.7750 C.2   1 <1>  -0.3020 
 13 N        4.4330     4.4290    -0.4490 N.pl3 1 <1>  -0.8690 
 14 N        1.2440    -5.8420     1.1930 N.2   1 <1>  -0.5650 
 15 C        1.1590    -6.0500    -0.1330 C.2   1 <1>   0.0770 
 16 C        4.8120     5.7220    -0.1620 C.ar  1 <1>   0.4100 
 17 N        4.0070     6.4480     0.6030 N.ar  1 <1>  -0.6200 
 18 C        6.0060     6.2070    -0.6860 C.ar  1 <1>  -0.1500 
 19 C        4.4050     7.6850     0.8490 C.ar  1 <1>   0.1600 
 20 C        6.4050     7.4970    -0.4220 C.ar  1 <1>  -0.1500 
 21 C        5.5730     8.2600     0.3730 C.ar  1 <1>  -0.1440 
 22 C        5.9490     9.6930     0.7080 C.3   1 <1>  -0.0970 
 23 H        2.4880    -0.1400     0.5910 H     1 <1>   0.3700 
 24 H        2.2110    -2.1100    -0.6350 H     1 <1>   0.0800 
 25 H        1.0700    -2.1830    -1.9490 H     1 <1>   0.0800 
 26 H        1.5460     2.0490     1.2090 H     1 <1>   0.0800 
 27 H        0.9660     2.2260    -0.4300 H     1 <1>   0.0800 
 28 H        0.2320    -2.0950     0.9560 H     1 <1>   0.0800 
 29 H        3.2880     2.1410    -1.2690 H     1 <1>   0.0800 
 30 H        3.8770     1.9880     0.3810 H     1 <1>   0.0800 
 31 H       -1.3060    -2.9220    -1.5260 H     1 <1>   0.0800 
 32 H       -1.5730    -1.4750    -0.5930 H     1 <1>   0.0800 
 33 H       -1.9030    -3.0300     0.1180 H     1 <1>   0.0800 
 34 H        2.8690     4.1800     0.9280 H     1 <1>   0.0800 
 35 H        2.3560     4.3580    -0.7370 H     1 <1>   0.0800 
 36 H        0.8550    -4.0960     2.2780 H     1 <1>   0.1500 
 37 H        0.6050    -4.7620    -1.8240 H     1 <1>   0.1500 
 38 H        4.8010     4.0570    -1.3240 H     1 <1>   0.4000 
 39 H        1.3870    -7.0130    -0.5620 H     1 <1>   0.1500 
 40 H        6.6120     5.5630    -1.2920 H     1 <1>   0.1500 
 41 H        3.7550     8.2760     1.4700 H     1 <1>   0.1500 
 42 H        7.3250     7.8910    -0.8170 H     1 <1>   0.1500 
 43 H        5.2000    10.1530     1.3260 H     1 <1>   0.0800 
 44 H        6.0470    10.2660    -0.1970 H     1 <1>   0.0800 
 45 H        6.8870     9.7110     1.2340 H     1 <1>   0.0800 
@<TRIPOS>BOND
  1   1   2  2   
  2   2   3  am  
  3   2   4  1   
  4   3   5  1   
  5   3  23  1   
  6   4   6  1   
  7   4  24  1   
  8   4  25  1   
  9   5   7  1   
 10   5  26  1   
 11   5  27  1   
 12   6   8  1   
 13   6   9  1   
 14   6  28  1   
 15   7  10  1   
 16   7  29  1   
 17   7  30  1   
 18   8  11  1   
 19   8  12  1   
 20   9  31  1   
 21   9  32  1   
 22   9  33  1   
 23  10  13  1   
 24  10  34  1   
 25  10  35  1   
 26  11  14  2   
 27  11  36  1   
 28  12  15  2   
 29  12  37  1   
 30  13  16  1   
 31  13  38  1   
 32  14  15  1   
 33  15  39  1   
 34  16  17  ar  
 35  16  18  ar  
 36  17  19  ar  
 37  18  20  ar  
 38  18  40  1   
 39  19  21  ar  
 40  19  41  1   
 41  20  21  ar  
 42  20  42  1   
 43  21  22  1   
 44  22  43  1   
 45  22  44  1   
 46  22  45  1   
@<TRIPOS>SUBSTRUCTURE
  1 ****   5 GROUP 4 **** **** 0

# MOE 2024.06 (io_trps.svl 2023.06)
