@<TRIPOS>MOLECULE
NONAME
41 42 1 0 0 
SMALL
USER_CHARGES


@<TRIPOS>ATOM
  1 CL      -3.5390     0.9570    -2.0880 Cl    1 <1>  -0.1230 
  2 C       -2.7270     0.5270    -0.5890 C.2   1 <1>   0.1230 
  3 C       -2.8360    -0.6800     0.1110 C.2   1 <1>   0.2030 
  4 C       -1.8790     1.3190     0.0910 C.2   1 <1>  -0.3320 
  5 N       -2.0700    -0.6200     1.1950 N.2   1 <1>  -0.7070 
  6 C       -3.6520    -1.8220    -0.2680 C.2   1 <1>   0.7160 
  7 N       -1.4980     0.5970     1.1660 N.pl3 1 <1>   0.3000 
  8 C       -1.3960     2.7300    -0.2050 C.3   1 <1>  -0.0600 
  9 O       -4.3780    -1.8290    -1.2480 O.2   1 <1>  -0.5700 
 10 N       -3.6370    -2.9410     0.5130 N.am  1 <1>  -0.7300 
 11 C       -4.4160    -4.1760     0.2750 C.3   1 <1>   0.2200 
 12 C       -5.8310    -4.0030     0.8360 C.3   1 <1>  -0.0800 
 13 C       -3.8560    -5.3410     1.0890 C.3   1 <1>   0.1200 
 14 C       -5.9250    -5.0700     1.9330 C.3   1 <1>   0.1200 
 15 C       -6.9310    -4.0190    -0.2510 C.3   1 <1>  -0.0550 
 16 O       -4.6080    -5.3650     2.2590 O.3   1 <1>  -0.5600 
 17 S       -7.2350    -5.5730    -1.1080 S.o2  1 <1>   1.3330 
 18 O       -5.9880    -6.2940    -1.2420 O.2   1 <1>  -0.6500 
 19 O       -8.0370    -5.3160    -2.2820 O.2   1 <1>  -0.6500 
 20 N       -8.2210    -6.4360    -0.0250 N.am  1 <1>  -0.8490 
 21 C       -8.0710    -7.8880    -0.1740 C.3   1 <1>   0.1160 
 22 C       -9.6410    -6.0770    -0.1130 C.3   1 <1>   0.1160 
 23 H       -0.8460     0.9140     1.8960 H     1 <1>   0.2700 
 24 H       -1.8400     3.0930    -1.1160 H     1 <1>   0.0800 
 25 H       -0.3260     2.7420    -0.3210 H     1 <1>   0.0800 
 26 H       -1.6700     3.3940     0.5950 H     1 <1>   0.0800 
 27 H       -3.1160    -2.8810     1.3930 H     1 <1>   0.3700 
 28 H       -4.4000    -4.4090    -0.7770 H     1 <1>   0.0800 
 29 H       -5.8960    -3.0490     1.3300 H     1 <1>   0.0800 
 30 H       -2.8140    -5.2270     1.3280 H     1 <1>   0.0800 
 31 H       -4.0170    -6.2720     0.5740 H     1 <1>   0.0800 
 32 H       -6.3770    -5.9830     1.5940 H     1 <1>   0.0800 
 33 H       -6.4330    -4.7140     2.8120 H     1 <1>   0.0800 
 34 H       -6.6580    -3.2840    -0.9850 H     1 <1>   0.0800 
 35 H       -7.8490    -3.6840     0.1890 H     1 <1>   0.0800 
 36 H       -8.7010    -8.4040     0.5300 H     1 <1>   0.0800 
 37 H       -7.0500    -8.1760     0.0170 H     1 <1>   0.0800 
 38 H       -8.3330    -8.1900    -1.1750 H     1 <1>   0.0800 
 39 H      -10.1990    -6.5810     0.6580 H     1 <1>   0.0800 
 40 H      -10.0420    -6.3560    -1.0740 H     1 <1>   0.0800 
 41 H       -9.7660    -5.0160     0.0160 H     1 <1>   0.0800 
@<TRIPOS>BOND
  1   1   2  1   
  2   2   3  1   
  3   2   4  2   
  4   3   5  2   
  5   3   6  1   
  6   4   7  1   
  7   4   8  1   
  8   5   7  1   
  9   6   9  2   
 10   6  10  am  
 11   7  23  1   
 12   8  24  1   
 13   8  25  1   
 14   8  26  1   
 15  10  11  1   
 16  10  27  1   
 17  11  12  1   
 18  11  13  1   
 19  11  28  1   
 20  12  14  1   
 21  12  15  1   
 22  12  29  1   
 23  13  16  1   
 24  13  30  1   
 25  13  31  1   
 26  14  16  1   
 27  14  32  1   
 28  14  33  1   
 29  15  17  1   
 30  15  34  1   
 31  15  35  1   
 32  17  18  2   
 33  17  19  2   
 34  17  20  am  
 35  20  21  1   
 36  20  22  1   
 37  21  36  1   
 38  21  37  1   
 39  21  38  1   
 40  22  39  1   
 41  22  40  1   
 42  22  41  1   
@<TRIPOS>SUBSTRUCTURE
  1 ****  11 GROUP 4 **** **** 0

# MOE 2024.06 (io_trps.svl 2023.06)
