@<TRIPOS>MOLECULE
NONAME
39 41 1 0 0 
SMALL
USER_CHARGES


@<TRIPOS>ATOM
  1 O        0.5940     0.5750    -0.9870 O.3   1 <1>  -0.3630 
  2 C        1.8580     1.0450    -0.8450 C.ar  1 <1>   0.0830 
  3 C        0.0040    -0.1710     0.0590 C.3   1 <1>   0.1200 
  4 C        2.7080     0.5840     0.1570 C.ar  1 <1>  -0.1440 
  5 C        2.2960     2.0070    -1.7390 C.ar  1 <1>  -0.1500 
  6 C        1.0030    -1.1940     0.6050 C.3   1 <1>  -0.1600 
  7 C        3.9900     1.1020     0.2500 C.ar  1 <1>  -0.1500 
  8 C        2.2410    -0.4730     1.1430 C.3   1 <1>  -0.0160 
  9 C        3.5780     2.5170    -1.6400 C.ar  1 <1>  -0.1500 
 10 C        4.4340     2.0640    -0.6460 C.ar  1 <1>  -0.1440 
 11 C        5.8430     2.6200    -0.5370 C.3   1 <1>   0.3530 
 12 N        5.8300     3.7180     0.4370 N.pl3 1 <1>  -0.8690 
 13 C        6.6860     4.7570     0.3690 C.ar  1 <1>   0.7200 
 14 N        6.2220     5.8830     0.8870 N.ar  1 <1>  -0.6200 
 15 N        7.8690     4.5550    -0.2010 N.ar  1 <1>  -0.6200 
 16 C        7.0350     6.9080     0.8380 C.ar  1 <1>   0.1670 
 17 C        8.6650     5.5940    -0.2380 C.ar  1 <1>   0.1670 
 18 C        8.2880     6.8120     0.2780 C.ar  1 <1>  -0.1500 
 19 C        6.5350     8.2090     1.4290 C.3   1 <1>  -0.0970 
 20 C       10.0250     5.3950    -0.8730 C.3   1 <1>  -0.0970 
 21 H       -0.8690    -0.6580    -0.3390 H     1 <1>   0.0800 
 22 H       -0.2950     0.5210     0.8270 H     1 <1>   0.0800 
 23 H        1.6280     2.3510    -2.5070 H     1 <1>   0.1500 
 24 H        1.2830    -1.8640    -0.1890 H     1 <1>   0.0800 
 25 H        0.5460    -1.7730     1.3880 H     1 <1>   0.0800 
 26 H        4.6510     0.7580     1.0270 H     1 <1>   0.1500 
 27 H        2.0000     0.0110     2.0740 H     1 <1>   0.0800 
 28 H        3.0260    -1.1860     1.3240 H     1 <1>   0.0800 
 29 H        3.9060     3.2680    -2.3370 H     1 <1>   0.1500 
 30 H        6.1770     2.9790    -1.4960 H     1 <1>   0.0800 
 31 H        6.5240     1.8560    -0.2020 H     1 <1>   0.0800 
 32 H        4.8960     4.0020     0.7230 H     1 <1>   0.4000 
 33 H        8.9470     7.6580     0.2440 H     1 <1>   0.1500 
 34 H        5.6420     8.5160     0.9150 H     1 <1>   0.0800 
 35 H        7.2730     8.9840     1.3410 H     1 <1>   0.0800 
 36 H        6.3020     8.0640     2.4680 H     1 <1>   0.0800 
 37 H       10.5580     4.6270    -0.3440 H     1 <1>   0.0800 
 38 H       10.6010     6.3010    -0.8470 H     1 <1>   0.0800 
 39 H        9.9010     5.0890    -1.8960 H     1 <1>   0.0800 
@<TRIPOS>BOND
  1   1   2  1   
  2   1   3  1   
  3   2   4  ar  
  4   2   5  ar  
  5   3   6  1   
  6   3  21  1   
  7   3  22  1   
  8   4   7  ar  
  9   4   8  1   
 10   5   9  ar  
 11   5  23  1   
 12   6   8  1   
 13   6  24  1   
 14   6  25  1   
 15   7  10  ar  
 16   7  26  1   
 17   8  27  1   
 18   8  28  1   
 19   9  10  ar  
 20   9  29  1   
 21  10  11  1   
 22  11  12  1   
 23  11  30  1   
 24  11  31  1   
 25  12  13  1   
 26  12  32  1   
 27  13  14  ar  
 28  13  15  ar  
 29  14  16  ar  
 30  15  17  ar  
 31  16  18  ar  
 32  16  19  1   
 33  17  18  ar  
 34  17  20  1   
 35  18  33  1   
 36  19  34  1   
 37  19  35  1   
 38  19  36  1   
 39  20  37  1   
 40  20  38  1   
 41  20  39  1   
@<TRIPOS>SUBSTRUCTURE
  1 ****  10 GROUP 4 **** **** 0

# MOE 2024.06 (io_trps.svl 2023.06)
