@<TRIPOS>MOLECULE
NONAME
58 59 1 0 0 
SMALL
USER_CHARGES


@<TRIPOS>ATOM
  1 O       -1.0050    -1.3760    -1.2910 O.co2 1 <1>  -0.9000 
  2 C       -0.5030    -1.1650    -0.1830 C.2   1 <1>   0.9060 
  3 O       -1.1600    -0.7350     0.7720 O.co2 1 <1>  -0.9000 
  4 C        1.0140    -1.3970    -0.0080 C.3   1 <1>  -0.1060 
  5 C        1.5140    -0.7350     1.3030 C.3   1 <1>  -0.1600 
  6 C        1.7470    -0.7070    -1.1850 C.3   1 <1>  -0.1600 
  7 C        1.3290    -2.9230    -0.0430 C.3   1 <1>  -0.1600 
  8 C        3.0290    -0.7460     1.4280 C.3   1 <1>   0.3430 
  9 C        3.2630    -0.6770    -1.0240 C.3   1 <1>   0.3430 
 10 C        0.6560    -3.7460     1.0690 C.3   1 <1>  -0.1600 
 11 N        3.6130    -0.0140     0.2700 N.4   1 <1>  -0.9590 
 12 C        0.9290    -5.2410     0.8850 C.3   1 <1>  -0.2400 
 13 C        5.1060     0.1620     0.4110 C.3   1 <1>   0.4040 
 14 C        5.7530     1.0050    -0.6980 C.2   1 <1>   0.5690 
 15 O        6.0620     0.4490    -1.7230 O.2   1 <1>  -0.5700 
 16 N        5.9370     2.3390    -0.5210 N.am  1 <1>  -0.7300 
 17 C        6.6870     3.2020    -1.4410 C.3   1 <1>   0.3640 
 18 C        7.6310     4.0400    -0.5770 C.ar  1 <1>  -0.1430 
 19 C        5.6950     4.0250    -2.2610 C.3   1 <1>  -0.2400 
 20 C        8.9850     3.7230    -0.4700 C.ar  1 <1>  -0.1430 
 21 C        7.1360     5.1230     0.1440 C.ar  1 <1>  -0.1500 
 22 C        9.8060     4.4920     0.3400 C.ar  1 <1>  -0.1500 
 23 C        9.6120     2.5490    -1.2130 C.3   1 <1>  -0.0970 
 24 C        7.9600     5.8890     0.9500 C.ar  1 <1>  -0.1430 
 25 C        9.3000     5.5670     1.0450 C.ar  1 <1>  -0.1500 
 26 C        7.4030     7.0720     1.7230 C.3   1 <1>  -0.0970 
 27 H        1.0760    -1.2250     2.1530 H     1 <1>   0.0800 
 28 H        1.1670     0.2830     1.3400 H     1 <1>   0.0800 
 29 H        1.3820     0.3000    -1.2900 H     1 <1>   0.0800 
 30 H        1.5020    -1.2140    -2.1030 H     1 <1>   0.0800 
 31 H        2.3870    -3.1010    -0.0070 H     1 <1>   0.0800 
 32 H        0.9740    -3.3050    -0.9870 H     1 <1>   0.0800 
 33 H        3.3830    -1.7640     1.4430 H     1 <1>   0.0800 
 34 H        3.3110    -0.2690     2.3520 H     1 <1>   0.0800 
 35 H        3.6960    -0.1380    -1.8520 H     1 <1>   0.0800 
 36 H        3.6490    -1.6830    -1.0400 H     1 <1>   0.0800 
 37 H       -0.4100    -3.5820     1.0460 H     1 <1>   0.0800 
 38 H        1.0150    -3.4470     2.0360 H     1 <1>   0.0800 
 39 H        3.1590     0.9080     0.2390 H     1 <1>   0.4500 
 40 H        0.5400    -5.5770    -0.0610 H     1 <1>   0.0800 
 41 H        0.4460    -5.8000     1.6670 H     1 <1>   0.0800 
 42 H        1.9850    -5.4430     0.9190 H     1 <1>   0.0800 
 43 H        5.5790    -0.8050     0.4010 H     1 <1>   0.0800 
 44 H        5.3260     0.6270     1.3560 H     1 <1>   0.0800 
 45 H        5.7860     2.8010     0.3770 H     1 <1>   0.3700 
 46 H        7.2500     2.5980    -2.1310 H     1 <1>   0.0800 
 47 H        4.9890     4.5390    -1.6380 H     1 <1>   0.0800 
 48 H        5.1620     3.3790    -2.9350 H     1 <1>   0.0800 
 49 H        6.2330     4.7490    -2.8470 H     1 <1>   0.0800 
 50 H        6.0970     5.3880     0.0860 H     1 <1>   0.1500 
 51 H       10.8520     4.2610     0.4290 H     1 <1>   0.1500 
 52 H        9.0750     1.6420    -1.0020 H     1 <1>   0.0800 
 53 H       10.6350     2.4050    -0.9160 H     1 <1>   0.0800 
 54 H        9.5950     2.7320    -2.2720 H     1 <1>   0.0800 
 55 H        9.9550     6.1500     1.6680 H     1 <1>   0.1500 
 56 H        6.5590     7.4960     1.2090 H     1 <1>   0.0800 
 57 H        8.1520     7.8360     1.8280 H     1 <1>   0.0800 
 58 H        7.0920     6.7540     2.7020 H     1 <1>   0.0800 
@<TRIPOS>BOND
  1   1   2  ar  
  2   2   3  ar  
  3   2   4  1   
  4   4   5  1   
  5   4   6  1   
  6   4   7  1   
  7   5   8  1   
  8   5  27  1   
  9   5  28  1   
 10   6   9  1   
 11   6  29  1   
 12   6  30  1   
 13   7  10  1   
 14   7  31  1   
 15   7  32  1   
 16   8  11  1   
 17   8  33  1   
 18   8  34  1   
 19   9  11  1   
 20   9  35  1   
 21   9  36  1   
 22  10  12  1   
 23  10  37  1   
 24  10  38  1   
 25  11  13  1   
 26  11  39  1   
 27  12  40  1   
 28  12  41  1   
 29  12  42  1   
 30  13  14  1   
 31  13  43  1   
 32  13  44  1   
 33  14  15  2   
 34  14  16  am  
 35  16  17  1   
 36  16  45  1   
 37  17  18  1   
 38  17  19  1   
 39  17  46  1   
 40  18  20  ar  
 41  18  21  ar  
 42  19  47  1   
 43  19  48  1   
 44  19  49  1   
 45  20  22  ar  
 46  20  23  1   
 47  21  24  ar  
 48  21  50  1   
 49  22  25  ar  
 50  22  51  1   
 51  23  52  1   
 52  23  53  1   
 53  23  54  1   
 54  24  25  ar  
 55  24  26  1   
 56  25  55  1   
 57  26  56  1   
 58  26  57  1   
 59  26  58  1   
@<TRIPOS>SUBSTRUCTURE
  1 ****  13 GROUP 4 **** **** 0

# MOE 2024.06 (io_trps.svl 2023.06)
