@<TRIPOS>MOLECULE
NONAME
55 57 1 0 0 
SMALL
USER_CHARGES


@<TRIPOS>ATOM
  1 O       -0.2330     1.4890    -1.0340 O.2   1 <1>  -0.5700 
  2 C       -0.6440     2.6250    -0.9810 C.2   1 <1>   0.5690 
  3 N       -1.1390     3.1990     0.1580 N.am  1 <1>  -0.5090 
  4 C       -0.5960     3.4900    -2.2350 C.3   1 <1>   0.1810 
  5 C       -1.6090     4.6190     0.1240 C.3   1 <1>   0.3640 
  6 C       -1.0690     2.5420     1.4840 C.3   1 <1>   0.0490 
  7 O       -0.1310     4.7750    -1.9190 O.3   1 <1>  -0.5600 
  8 C       -3.1290     4.7020    -0.0710 C.ar  1 <1>  -0.1440 
  9 C       -0.8980     5.4890    -0.9540 C.3   1 <1>   0.2610 
 10 C       -1.8010     1.2520     1.6750 C.3   1 <1>  -0.2000 
 11 C       -2.2810     2.4880     2.3640 C.3   1 <1>  -0.2000 
 12 C       -3.8870     3.6740    -0.6240 C.ar  1 <1>  -0.1500 
 13 C       -3.7760     5.8680     0.3190 C.ar  1 <1>  -0.1500 
 14 C       -0.0870     6.5760    -0.2340 C.2   1 <1>   0.5690 
 15 C       -5.2560     3.8070    -0.7810 C.ar  1 <1>  -0.1500 
 16 C       -5.1430     6.0030     0.1620 C.ar  1 <1>  -0.1500 
 17 O       -0.6730     7.6150    -0.0240 O.2   1 <1>  -0.5700 
 18 N        1.2080     6.3930     0.2080 N.am  1 <1>  -0.6600 
 19 C       -5.8940     4.9780    -0.3860 C.ar  1 <1>   0.0830 
 20 C        1.9840     7.5280     0.7820 C.3   1 <1>   0.1400 
 21 C        1.9790     5.1250     0.0540 C.3   1 <1>   0.0600 
 22 O       -7.2290     5.1900    -0.5030 O.3   1 <1>  -0.3630 
 23 C        2.9460     8.0820    -0.2690 C.3   1 <1>  -0.1600 
 24 C       -8.0870     4.1980    -1.0220 C.3   1 <1>   0.0400 
 25 C        3.6730     9.3160     0.2580 C.3   1 <1>   0.1200 
 26 O        4.5860     9.7120    -0.7080 O.3   1 <1>  -0.5600 
 27 C        5.2930    10.8630    -0.3820 C.3   1 <1>   0.0400 
 28 H       -1.5730     3.5700    -2.6750 H     1 <1>   0.0800 
 29 H        0.0820     3.0580    -2.9480 H     1 <1>   0.0800 
 30 H       -1.3990     5.0500     1.0890 H     1 <1>   0.0800 
 31 H       -0.1000     2.6430     1.9440 H     1 <1>   0.1000 
 32 H       -1.6550     6.0060    -1.5160 H     1 <1>   0.0800 
 33 H       -2.3640     0.8570     0.8470 H     1 <1>   0.1000 
 34 H       -1.3360     0.4800     2.2620 H     1 <1>   0.1000 
 35 H       -2.1520     2.5500     3.4300 H     1 <1>   0.1000 
 36 H       -3.2140     2.9120     2.0380 H     1 <1>   0.1000 
 37 H       -3.4290     2.7510    -0.9320 H     1 <1>   0.1500 
 38 H       -3.2200     6.6860     0.7480 H     1 <1>   0.1500 
 39 H       -5.8070     2.9910    -1.2080 H     1 <1>   0.1500 
 40 H       -5.6380     6.9080     0.4660 H     1 <1>   0.1500 
 41 H        1.3150     8.3090     1.1030 H     1 <1>   0.0800 
 42 H        2.5290     7.1900     1.6470 H     1 <1>   0.0800 
 43 H        2.7930     5.0910     0.7570 H     1 <1>   0.0800 
 44 H        2.3770     5.0650    -0.9440 H     1 <1>   0.0800 
 45 H        1.3480     4.2740     0.2310 H     1 <1>   0.0800 
 46 H        2.3900     8.3580    -1.1480 H     1 <1>   0.0800 
 47 H        3.6730     7.3340    -0.5270 H     1 <1>   0.0800 
 48 H       -9.0900     4.5840    -1.0070 H     1 <1>   0.0800 
 49 H       -8.0230     3.3220    -0.4020 H     1 <1>   0.0800 
 50 H       -7.7950     3.9790    -2.0340 H     1 <1>   0.0800 
 51 H        4.2090     9.0880     1.1640 H     1 <1>   0.0800 
 52 H        2.9770    10.1210     0.4310 H     1 <1>   0.0800 
 53 H        5.9700    11.0790    -1.1890 H     1 <1>   0.0800 
 54 H        5.8480    10.6950     0.5240 H     1 <1>   0.0800 
 55 H        4.6030    11.6810    -0.2600 H     1 <1>   0.0800 
@<TRIPOS>BOND
  1   1   2  2   
  2   2   3  am  
  3   2   4  1   
  4   3   5  1   
  5   3   6  1   
  6   4   7  1   
  7   4  28  1   
  8   4  29  1   
  9   5   8  1   
 10   5   9  1   
 11   5  30  1   
 12   6  10  1   
 13   6  11  1   
 14   6  31  1   
 15   7   9  1   
 16   8  12  ar  
 17   8  13  ar  
 18   9  14  1   
 19   9  32  1   
 20  10  11  1   
 21  10  33  1   
 22  10  34  1   
 23  11  35  1   
 24  11  36  1   
 25  12  15  ar  
 26  12  37  1   
 27  13  16  ar  
 28  13  38  1   
 29  14  17  2   
 30  14  18  am  
 31  15  19  ar  
 32  15  39  1   
 33  16  19  ar  
 34  16  40  1   
 35  18  20  1   
 36  18  21  1   
 37  19  22  1   
 38  20  23  1   
 39  20  41  1   
 40  20  42  1   
 41  21  43  1   
 42  21  44  1   
 43  21  45  1   
 44  22  24  1   
 45  23  25  1   
 46  23  46  1   
 47  23  47  1   
 48  24  48  1   
 49  24  49  1   
 50  24  50  1   
 51  25  26  1   
 52  25  51  1   
 53  25  52  1   
 54  26  27  1   
 55  27  53  1   
 56  27  54  1   
 57  27  55  1   
@<TRIPOS>SUBSTRUCTURE
  1 ****   5 GROUP 4 **** **** 0

# MOE 2024.06 (io_trps.svl 2023.06)
