@<TRIPOS>MOLECULE
NONAME
49 52 1 0 0 
SMALL
USER_CHARGES


@<TRIPOS>ATOM
  1 O       -2.2230     1.8790     2.5410 O.2   1 <1>  -0.5700 
  2 C       -2.0490     2.4100     1.4650 C.2   1 <1>   0.5440 
  3 N       -2.9090     2.2730     0.4340 N.am  1 <1>  -0.7300 
  4 C       -0.9540     3.2380     1.0550 C.ar  1 <1>   0.0860 
  5 C       -2.4370     2.9650    -0.7820 C.3   1 <1>   0.3640 
  6 C       -1.1400     3.5860    -0.2720 C.ar  1 <1>  -0.1440 
  7 C        0.1660     3.6960     1.7380 C.ar  1 <1>  -0.1500 
  8 C       -3.4440     4.0300    -1.2130 C.3   1 <1>  -0.0990 
  9 C       -0.2240     4.3790    -0.9390 C.ar  1 <1>  -0.1500 
 10 C        1.0860     4.4950     1.0800 C.ar  1 <1>  -0.1500 
 11 C       -4.7450     3.4220    -1.7010 C.2   1 <1>   0.5690 
 12 C        0.8930     4.8340    -0.2530 C.ar  1 <1>  -0.1500 
 13 O       -4.7090     2.2960    -2.1400 O.2   1 <1>  -0.5700 
 14 N       -5.9150     4.1380    -1.6530 N.am  1 <1>  -0.6600 
 15 C       -7.2260     3.4980    -1.9580 C.3   1 <1>   0.1400 
 16 C       -6.0550     5.5710    -1.2710 C.3   1 <1>   0.1400 
 17 C       -8.1120     3.5660    -0.7120 C.3   1 <1>  -0.1600 
 18 C       -6.9030     5.6580    -0.0020 C.3   1 <1>  -0.1600 
 19 C       -8.2770     5.0030    -0.2050 C.3   1 <1>   0.4180 
 20 O       -8.9750     5.6940    -1.2130 O.3   1 <1>  -0.5600 
 21 C       -9.0790     4.9990     1.0940 C.2   1 <1>  -0.2880 
 22 C       -9.6420     6.8710    -0.8500 C.3   1 <1>   0.1200 
 23 C      -10.2050     5.6910     1.2830 C.2   1 <1>  -0.2760 
 24 C      -10.7460     6.5750     0.1740 C.3   1 <1>  -0.0220 
 25 C      -11.0300     5.6620     2.5570 C.3   1 <1>  -0.1020 
 26 H       -3.6830     1.6060     0.4160 H     1 <1>   0.3700 
 27 H       -2.2390     2.2540    -1.5670 H     1 <1>   0.0800 
 28 H        0.3020     3.4210     2.7700 H     1 <1>   0.1500 
 29 H       -3.0270     4.6090    -2.0140 H     1 <1>   0.0800 
 30 H       -3.6200     4.6750    -0.3750 H     1 <1>   0.0800 
 31 H       -0.3680     4.6420    -1.9730 H     1 <1>   0.1500 
 32 H        1.9560     4.8530     1.6030 H     1 <1>   0.1500 
 33 H        1.6160     5.4530    -0.7560 H     1 <1>   0.1500 
 34 H       -7.0950     2.4710    -2.2530 H     1 <1>   0.0800 
 35 H       -7.6960     4.0220    -2.7740 H     1 <1>   0.0800 
 36 H       -6.5470     6.0980    -2.0720 H     1 <1>   0.0800 
 37 H       -5.1010     6.0380    -1.1140 H     1 <1>   0.0800 
 38 H       -7.6670     2.9610     0.0560 H     1 <1>   0.0800 
 39 H       -9.0810     3.1560    -0.9300 H     1 <1>   0.0800 
 40 H       -7.0220     6.6820     0.2970 H     1 <1>   0.0800 
 41 H       -6.3850     5.1540     0.7940 H     1 <1>   0.0800 
 42 H       -8.6450     4.3680     1.8480 H     1 <1>   0.1500 
 43 H      -10.0660     7.2970    -1.7420 H     1 <1>   0.0800 
 44 H       -8.9260     7.5620    -0.4430 H     1 <1>   0.0800 
 45 H      -11.5720     6.0870    -0.3110 H     1 <1>   0.0800 
 46 H      -11.0960     7.5080     0.5780 H     1 <1>   0.0800 
 47 H      -12.0240     5.3120     2.3450 H     1 <1>   0.0800 
 48 H      -11.0900     6.6460     2.9850 H     1 <1>   0.0800 
 49 H      -10.5830     5.0020     3.2790 H     1 <1>   0.0800 
@<TRIPOS>BOND
  1   1   2  2   
  2   2   3  am  
  3   2   4  1   
  4   3   5  1   
  5   3  26  1   
  6   4   6  ar  
  7   4   7  ar  
  8   5   6  1   
  9   5   8  1   
 10   5  27  1   
 11   6   9  ar  
 12   7  10  ar  
 13   7  28  1   
 14   8  11  1   
 15   8  29  1   
 16   8  30  1   
 17   9  12  ar  
 18   9  31  1   
 19  10  12  ar  
 20  10  32  1   
 21  11  13  2   
 22  11  14  am  
 23  12  33  1   
 24  14  15  1   
 25  14  16  1   
 26  15  17  1   
 27  15  34  1   
 28  15  35  1   
 29  16  18  1   
 30  16  36  1   
 31  16  37  1   
 32  17  19  1   
 33  17  38  1   
 34  17  39  1   
 35  18  19  1   
 36  18  40  1   
 37  18  41  1   
 38  19  20  1   
 39  19  21  1   
 40  20  22  1   
 41  21  23  2   
 42  21  42  1   
 43  22  24  1   
 44  22  43  1   
 45  22  44  1   
 46  23  24  1   
 47  23  25  1   
 48  24  45  1   
 49  24  46  1   
 50  25  47  1   
 51  25  48  1   
 52  25  49  1   
@<TRIPOS>SUBSTRUCTURE
  1 ****  14 GROUP 4 **** **** 0

# MOE 2024.06 (io_trps.svl 2023.06)
