@<TRIPOS>MOLECULE
NONAME
59 61 1 0 0 
SMALL
USER_CHARGES


@<TRIPOS>ATOM
  1 O       -1.9050     0.2010     2.3390 O.2   1 <1>  -0.5700 
  2 C       -1.9310     0.8000     1.2910 C.2   1 <1>   0.5690 
  3 N       -2.0170     0.1560     0.0860 N.am  1 <1>  -0.6600 
  4 C       -1.8460     2.3130     1.3580 C.3   1 <1>  -0.0990 
  5 C       -2.0640    -1.3460     0.0330 C.3   1 <1>   0.3640 
  6 C       -2.1000     0.8630    -1.2330 C.3   1 <1>   0.1400 
  7 C       -0.4000     2.7910     1.1840 C.3   1 <1>  -0.0170 
  8 C       -0.6700    -1.9600    -0.1910 C.ar  1 <1>  -0.1440 
  9 C       -3.0850    -1.8540    -1.0360 C.3   1 <1>   0.2000 
 10 C       -2.2290    -0.1100    -2.4130 C.3   1 <1>   0.1200 
 11 C       -0.3580     4.3050     1.0200 C.ar  1 <1>  -0.1440 
 12 C       -0.5370    -3.3370    -0.0530 C.ar  1 <1>  -0.1500 
 13 C        0.4640    -1.2180    -0.5110 C.ar  1 <1>  -0.1500 
 14 O       -3.2570    -1.0130    -2.1580 O.3   1 <1>  -0.5600 
 15 C       -4.4760    -2.0510    -0.4220 C.3   1 <1>   0.1200 
 16 C       -0.6250     4.9060    -0.2100 C.ar  1 <1>   0.0830 
 17 C       -0.0540     5.0940     2.1180 C.ar  1 <1>  -0.1500 
 18 C        0.6790    -3.9690    -0.2540 C.ar  1 <1>   0.0830 
 19 C        1.6890    -1.8360    -0.6950 C.ar  1 <1>  -0.1500 
 20 O       -4.4800    -3.1630     0.4150 O.3   1 <1>  -0.6800 
 21 O       -0.9280     4.0990    -1.2640 O.3   1 <1>  -0.3630 
 22 C       -0.5760     6.2950    -0.3170 C.ar  1 <1>  -0.1500 
 23 C       -0.0080     6.4710     2.0040 C.ar  1 <1>  -0.1500 
 24 O        0.7010    -5.3210    -0.1480 O.3   1 <1>  -0.3630 
 25 C        1.8110    -3.2060    -0.5560 C.ar  1 <1>   0.0830 
 26 C       -1.1770     4.6270    -2.5480 C.3   1 <1>   0.0400 
 27 C       -0.2690     7.0710     0.7860 C.ar  1 <1>  -0.1500 
 28 C        1.0420    -6.0410    -1.3130 C.3   1 <1>   0.0400 
 29 O        3.0450    -3.7460    -0.7100 O.3   1 <1>  -0.3630 
 30 C        3.6300    -4.2930     0.4510 C.3   1 <1>   0.0400 
 31 H       -2.4790     2.7530     0.6120 H     1 <1>   0.0800 
 32 H       -2.2100     2.6380     2.3150 H     1 <1>   0.0800 
 33 H       -2.3930    -1.7140     0.9900 H     1 <1>   0.0800 
 34 H       -2.9600     1.5110    -1.2330 H     1 <1>   0.0800 
 35 H       -1.2250     1.4710    -1.3750 H     1 <1>   0.0800 
 36 H        0.0480     2.3290     0.3230 H     1 <1>   0.0800 
 37 H        0.1780     2.4900     2.0400 H     1 <1>   0.0800 
 38 H       -2.7560    -2.8010    -1.4230 H     1 <1>   0.0800 
 39 H       -1.3160    -0.6550    -2.5790 H     1 <1>   0.0800 
 40 H       -2.4760     0.4270    -3.3120 H     1 <1>   0.0800 
 41 H       -1.3840    -3.9430     0.2140 H     1 <1>   0.1500 
 42 H        0.4160    -0.1500    -0.6120 H     1 <1>   0.1500 
 43 H       -5.2120    -2.2100    -1.1900 H     1 <1>   0.0800 
 44 H       -4.7470    -1.1900     0.1660 H     1 <1>   0.0800 
 45 H        0.1500     4.6390     3.0720 H     1 <1>   0.1500 
 46 H        2.5600    -1.2540    -0.9380 H     1 <1>   0.1500 
 47 H       -4.5250    -3.9900    -0.1040 H     1 <1>   0.4000 
 48 H       -0.7750     6.7930    -1.2460 H     1 <1>   0.1500 
 49 H        0.2300     7.0750     2.8620 H     1 <1>   0.1500 
 50 H       -1.3760     3.8080    -3.2160 H     1 <1>   0.0800 
 51 H       -0.3050     5.1640    -2.8790 H     1 <1>   0.0800 
 52 H       -2.0340     5.2750    -2.4990 H     1 <1>   0.0800 
 53 H       -0.2330     8.1430     0.6980 H     1 <1>   0.1500 
 54 H        0.8680    -7.0850    -1.1240 H     1 <1>   0.0800 
 55 H        2.0790    -5.8800    -1.5420 H     1 <1>   0.0800 
 56 H        0.4220    -5.7040    -2.1250 H     1 <1>   0.0800 
 57 H        4.6280    -4.6080     0.2090 H     1 <1>   0.0800 
 58 H        3.0480    -5.1350     0.7800 H     1 <1>   0.0800 
 59 H        3.6560    -3.5360     1.2150 H     1 <1>   0.0800 
@<TRIPOS>BOND
  1   1   2  2   
  2   2   3  am  
  3   2   4  1   
  4   3   5  1   
  5   3   6  1   
  6   4   7  1   
  7   4  31  1   
  8   4  32  1   
  9   5   8  1   
 10   5   9  1   
 11   5  33  1   
 12   6  10  1   
 13   6  34  1   
 14   6  35  1   
 15   7  11  1   
 16   7  36  1   
 17   7  37  1   
 18   8  12  ar  
 19   8  13  ar  
 20   9  14  1   
 21   9  15  1   
 22   9  38  1   
 23  10  14  1   
 24  10  39  1   
 25  10  40  1   
 26  11  16  ar  
 27  11  17  ar  
 28  12  18  ar  
 29  12  41  1   
 30  13  19  ar  
 31  13  42  1   
 32  15  20  1   
 33  15  43  1   
 34  15  44  1   
 35  16  21  1   
 36  16  22  ar  
 37  17  23  ar  
 38  17  45  1   
 39  18  24  1   
 40  18  25  ar  
 41  19  25  ar  
 42  19  46  1   
 43  20  47  1   
 44  21  26  1   
 45  22  27  ar  
 46  22  48  1   
 47  23  27  ar  
 48  23  49  1   
 49  24  28  1   
 50  25  29  1   
 51  26  50  1   
 52  26  51  1   
 53  26  52  1   
 54  27  53  1   
 55  28  54  1   
 56  28  55  1   
 57  28  56  1   
 58  29  30  1   
 59  30  57  1   
 60  30  58  1   
 61  30  59  1   
@<TRIPOS>SUBSTRUCTURE
  1 ****   3 GROUP 4 **** **** 0

# MOE 2024.06 (io_trps.svl 2023.06)
