@<TRIPOS>MOLECULE
NONAME
55 57 1 0 0 
SMALL
USER_CHARGES


@<TRIPOS>ATOM
  1 O        1.0370    -0.3290     0.3570 O.2   1 <1>  -0.5700 
  2 C        1.9540    -0.5530    -0.4000 C.2   1 <1>   0.5690 
  3 N        2.6600     0.4720    -0.9850 N.am  1 <1>  -0.6600 
  4 C        2.3360    -2.0100    -0.6290 C.3   1 <1>   0.0440 
  5 C        2.5560     1.8470    -0.4160 C.3   1 <1>   0.1400 
  6 C        3.7680     0.2720    -1.9620 C.3   1 <1>   0.0600 
  7 C        3.6420    -2.3520     0.0820 C.ar  1 <1>  -0.1440 
  8 C        3.3480     1.9010     0.8970 C.3   1 <1>   0.1400 
  9 C        3.6950    -2.3080     1.4670 C.ar  1 <1>  -0.1500 
 10 C        4.7850    -2.6940    -0.6270 C.ar  1 <1>  -0.1500 
 11 N        3.8510     3.2740     1.1980 N.am  1 <1>  -0.6600 
 12 C        4.8710    -2.6030     2.1320 C.ar  1 <1>  -0.1500 
 13 C        5.9650    -2.9830     0.0360 C.ar  1 <1>  -0.1500 
 14 C        5.0750     3.7640     0.8010 C.2   1 <1>   0.5690 
 15 C        2.9810     4.0490     2.1270 C.3   1 <1>   0.0600 
 16 C        6.0130    -2.9470     1.4280 C.ar  1 <1>   0.0830 
 17 O        5.5330     4.7810     1.2640 O.2   1 <1>  -0.5700 
 18 C        5.9000     3.0720    -0.2760 C.3   1 <1>  -0.0990 
 19 O        7.1150    -3.2290     2.1710 O.3   1 <1>  -0.3630 
 20 C        6.8340     1.9700     0.2560 C.3   1 <1>  -0.1600 
 21 C        8.2920    -3.8100     1.6420 C.3   1 <1>   0.1200 
 22 C        7.6060     1.2980    -0.8910 C.3   1 <1>   0.0210 
 23 C        9.3860    -2.7490     1.4950 C.3   1 <1>   0.0960 
 24 C        8.2600    -0.0090    -0.4820 C.2   1 <1>   0.0460 
 25 N        9.0140    -1.7220     0.5120 N.pl3 1 <1>   0.3140 
 26 N        8.8070    -0.8130    -1.4000 N.2   1 <1>  -0.2270 
 27 C        8.3880    -0.5660     0.7310 C.2   1 <1>  -0.3020 
 28 N        9.2630    -1.8530    -0.7940 N.2   1 <1>  -0.4180 
 29 H        2.4020    -2.2090    -1.6810 H     1 <1>   0.0800 
 30 H        1.5550    -2.6350    -0.2370 H     1 <1>   0.0800 
 31 H        1.5240     2.0840    -0.2230 H     1 <1>   0.0800 
 32 H        2.9410     2.5630    -1.1190 H     1 <1>   0.0800 
 33 H        3.5650    -0.5670    -2.6030 H     1 <1>   0.0800 
 34 H        4.6900     0.0960    -1.4330 H     1 <1>   0.0800 
 35 H        3.8780     1.1440    -2.5830 H     1 <1>   0.0800 
 36 H        4.1750     1.2220     0.8390 H     1 <1>   0.0800 
 37 H        2.7180     1.5600     1.7000 H     1 <1>   0.0800 
 38 H        2.8170    -2.0410     2.0320 H     1 <1>   0.1500 
 39 H        4.7680    -2.7340    -1.7020 H     1 <1>   0.1500 
 40 H        4.9070    -2.5710     3.2050 H     1 <1>   0.1500 
 41 H        6.8300    -3.2210    -0.5520 H     1 <1>   0.1500 
 42 H        1.9670     4.0470     1.7680 H     1 <1>   0.0800 
 43 H        3.3140     5.0710     2.2000 H     1 <1>   0.0800 
 44 H        3.0120     3.6060     3.1070 H     1 <1>   0.0800 
 45 H        6.4950     3.8250    -0.7620 H     1 <1>   0.0800 
 46 H        5.2390     2.6720    -1.0180 H     1 <1>   0.0800 
 47 H        6.2620     1.2260     0.7760 H     1 <1>   0.0800 
 48 H        7.5310     2.3950     0.9590 H     1 <1>   0.0800 
 49 H        8.0870    -4.3120     0.7150 H     1 <1>   0.0800 
 50 H        8.6140    -4.5510     2.3510 H     1 <1>   0.0800 
 51 H        8.3620     1.9660    -1.2650 H     1 <1>   0.0800 
 52 H        6.9320     1.0800    -1.6990 H     1 <1>   0.0800 
 53 H       10.2950    -3.2150     1.1620 H     1 <1>   0.0800 
 54 H        9.5720    -2.2790     2.4420 H     1 <1>   0.0800 
 55 H        8.0730    -0.2350     1.7030 H     1 <1>   0.1500 
@<TRIPOS>BOND
  1   1   2  2   
  2   2   3  am  
  3   2   4  1   
  4   3   5  1   
  5   3   6  1   
  6   4   7  1   
  7   4  29  1   
  8   4  30  1   
  9   5   8  1   
 10   5  31  1   
 11   5  32  1   
 12   6  33  1   
 13   6  34  1   
 14   6  35  1   
 15   7   9  ar  
 16   7  10  ar  
 17   8  11  1   
 18   8  36  1   
 19   8  37  1   
 20   9  12  ar  
 21   9  38  1   
 22  10  13  ar  
 23  10  39  1   
 24  11  14  am  
 25  11  15  1   
 26  12  16  ar  
 27  12  40  1   
 28  13  16  ar  
 29  13  41  1   
 30  14  17  2   
 31  14  18  1   
 32  15  42  1   
 33  15  43  1   
 34  15  44  1   
 35  16  19  1   
 36  18  20  1   
 37  18  45  1   
 38  18  46  1   
 39  19  21  1   
 40  20  22  1   
 41  20  47  1   
 42  20  48  1   
 43  21  23  1   
 44  21  49  1   
 45  21  50  1   
 46  22  24  1   
 47  22  51  1   
 48  22  52  1   
 49  23  25  1   
 50  23  53  1   
 51  23  54  1   
 52  24  26  1   
 53  24  27  2   
 54  25  27  1   
 55  25  28  1   
 56  26  28  2   
 57  27  55  1   
@<TRIPOS>SUBSTRUCTURE
  1 ****  20 GROUP 4 **** **** 0

# MOE 2024.06 (io_trps.svl 2023.06)
