@<TRIPOS>MOLECULE
NONAME
11 11 1 0 0 
SMALL
USER_CHARGES


@<TRIPOS>ATOM
  1 CL      -0.3320    -0.3960    -0.0730 Cl    1 <1>  -0.1240 
  2 C       -1.1420     1.1420    -0.0500 C.2   1 <1>   0.5020 
  3 S       -0.1360     2.5460    -0.0010 S.3   1 <1>  -0.0800 
  4 N       -2.3950     1.3750    -0.0640 N.2   1 <1>  -0.3380 
  5 C       -1.6190     3.4290    -0.0030 C.2   1 <1>   0.4340 
  6 N       -2.6770     2.7180    -0.0370 N.2   1 <1>  -0.3380 
  7 S       -1.4930     5.2090     0.0400 S.3   1 <1>  -0.2860 
  8 C       -3.2530     5.7670     0.0260 C.3   1 <1>  -0.0100 
  9 H       -3.2590     6.8420     0.0510 H     1 <1>   0.0800 
 10 H       -3.7370     5.3570     0.8950 H     1 <1>   0.0800 
 11 H       -3.7090     5.3990    -0.8760 H     1 <1>   0.0800 
@<TRIPOS>BOND
  1   1   2  1   
  2   2   3  1   
  3   2   4  2   
  4   3   5  1   
  5   4   6  1   
  6   5   6  2   
  7   5   7  1   
  8   7   8  1   
  9   8   9  1   
 10   8  10  1   
 11   8  11  1   
@<TRIPOS>SUBSTRUCTURE
  1 ****   5 GROUP 4 **** **** 0

# MOE 2024.06 (io_trps.svl 2023.06)
