@<TRIPOS>MOLECULE
NONAME
48 51 1 0 0 
SMALL
USER_CHARGES


@<TRIPOS>ATOM
  1 O       -0.2480    -0.7210     1.2440 O.3   1 <1>  -0.5600 
  2 C       -0.1780    -1.9660     0.5820 C.3   1 <1>   0.2800 
  3 C       -1.4650    -0.0350     1.3140 C.3   1 <1>   0.1200 
  4 C       -1.5900    -2.4570     0.1200 C.3   1 <1>   0.2000 
  5 C        0.7900    -1.7330    -0.6030 C.3   1 <1>  -0.1600 
  6 C        0.4250    -2.9440     1.6190 C.3   1 <1>  -0.1600 
  7 C       -2.0760     0.0480    -0.0850 C.3   1 <1>  -0.1600 
  8 O       -1.5070    -3.6500    -0.6170 O.3   1 <1>  -0.6800 
  9 C       -2.4260    -1.3550    -0.6080 C.3   1 <1>   0.2800 
 10 C        2.2480    -1.8300    -0.1640 C.3   1 <1>   0.2090 
 11 C        1.4040    -3.9400     0.9950 C.3   1 <1>   0.2090 
 12 O       -3.7560    -1.5700    -0.2960 O.3   1 <1>  -0.6800 
 13 C       -2.3570    -1.3910    -2.1420 C.3   1 <1>  -0.2400 
 14 N        2.5150    -3.2110     0.3210 N.pl3 1 <1>  -0.8220 
 15 C        3.7670    -3.7680     0.1870 C.2   1 <1>   0.5620 
 16 O        3.9660    -5.0170     0.5990 O.3   1 <1>  -0.2800 
 17 N        4.8040    -3.1900    -0.3170 N.2   1 <1>  -0.5650 
 18 C        5.2350    -5.2670     0.3430 C.ar  1 <1>   0.1400 
 19 C        5.7670    -4.1400    -0.2260 C.ar  1 <1>   0.2270 
 20 C        5.9830    -6.4120     0.5660 C.ar  1 <1>  -0.1500 
 21 C        7.1060    -4.1230    -0.6000 C.ar  1 <1>  -0.1500 
 22 C        7.3140    -6.3930     0.1920 C.ar  1 <1>  -0.1500 
 23 C        7.8790    -5.2530    -0.3900 C.ar  1 <1>  -0.1440 
 24 C        9.3440    -5.2720    -0.7870 C.3   1 <1>  -0.0970 
 25 H       -2.1170    -0.5490     2.0000 H     1 <1>   0.0800 
 26 H       -1.2620     0.9490     1.6990 H     1 <1>   0.0800 
 27 H       -2.1270    -2.7150     1.0160 H     1 <1>   0.0800 
 28 H        0.6450    -2.4700    -1.3700 H     1 <1>   0.0800 
 29 H        0.6160    -0.7690    -1.0420 H     1 <1>   0.0800 
 30 H        0.9630    -2.3960     2.3720 H     1 <1>   0.0800 
 31 H       -0.3530    -3.4930     2.1150 H     1 <1>   0.0800 
 32 H       -1.3540     0.5200    -0.7260 H     1 <1>   0.0800 
 33 H       -2.9460     0.6790    -0.0680 H     1 <1>   0.0800 
 34 H       -1.2320    -3.4590    -1.5320 H     1 <1>   0.4000 
 35 H        2.4470    -1.1270     0.6280 H     1 <1>   0.0800 
 36 H        2.8940    -1.6000    -0.9940 H     1 <1>   0.0800 
 37 H        0.8950    -4.5550     0.2720 H     1 <1>   0.0800 
 38 H        1.8000    -4.5800     1.7640 H     1 <1>   0.0800 
 39 H       -4.3250    -1.0240    -0.8680 H     1 <1>   0.4000 
 40 H       -1.3420    -1.2860    -2.4750 H     1 <1>   0.0800 
 41 H       -2.9260    -0.5820    -2.5640 H     1 <1>   0.0800 
 42 H       -2.7460    -2.3210    -2.5190 H     1 <1>   0.0800 
 43 H        5.5270    -7.2760     1.0140 H     1 <1>   0.1500 
 44 H        7.5040    -3.2300    -1.0440 H     1 <1>   0.1500 
 45 H        7.9240    -7.2660     0.3510 H     1 <1>   0.1500 
 46 H        9.5180    -6.0500    -1.5090 H     1 <1>   0.0800 
 47 H        9.9550    -5.4570     0.0780 H     1 <1>   0.0800 
 48 H        9.6380    -4.3320    -1.2190 H     1 <1>   0.0800 
@<TRIPOS>BOND
  1   1   2  1   
  2   1   3  1   
  3   2   4  1   
  4   2   5  1   
  5   2   6  1   
  6   3   7  1   
  7   3  25  1   
  8   3  26  1   
  9   4   8  1   
 10   4   9  1   
 11   4  27  1   
 12   5  10  1   
 13   5  28  1   
 14   5  29  1   
 15   6  11  1   
 16   6  30  1   
 17   6  31  1   
 18   7   9  1   
 19   7  32  1   
 20   7  33  1   
 21   8  34  1   
 22   9  12  1   
 23   9  13  1   
 24  10  14  1   
 25  10  35  1   
 26  10  36  1   
 27  11  14  1   
 28  11  37  1   
 29  11  38  1   
 30  12  39  1   
 31  13  40  1   
 32  13  41  1   
 33  13  42  1   
 34  14  15  1   
 35  15  16  1   
 36  15  17  2   
 37  16  18  1   
 38  17  19  1   
 39  18  19  ar  
 40  18  20  ar  
 41  19  21  ar  
 42  20  22  ar  
 43  20  43  1   
 44  21  23  ar  
 45  21  44  1   
 46  22  23  ar  
 47  22  45  1   
 48  23  24  1   
 49  24  46  1   
 50  24  47  1   
 51  24  48  1   
@<TRIPOS>SUBSTRUCTURE
  1 ****  14 GROUP 4 **** **** 0

# MOE 2024.06 (io_trps.svl 2023.06)
