@<TRIPOS>MOLECULE
NONAME
46 48 1 0 0 
SMALL
USER_CHARGES


@<TRIPOS>ATOM
  1 CL      -2.8310    -1.4700    -4.0840 Cl    1 <1>  -0.1770 
  2 C       -2.9900    -1.7650    -2.3710 C.ar  1 <1>   0.1770 
  3 C       -3.1540    -3.0590    -1.9200 C.ar  1 <1>  -0.1500 
  4 C       -2.9490    -0.6960    -1.4950 C.ar  1 <1>  -0.1500 
  5 C       -3.2840    -3.2970    -0.5610 C.ar  1 <1>   0.0830 
  6 C       -3.0760    -0.9310    -0.1360 C.ar  1 <1>  -0.1500 
  7 O       -3.4490    -4.5880    -0.1850 O.3   1 <1>  -0.3630 
  8 C       -3.2430    -2.2260     0.3320 C.ar  1 <1>  -0.1500 
  9 C       -3.6220    -4.9440     1.1800 C.3   1 <1>   0.1810 
 10 C       -3.8310    -6.4460     1.3500 C.2   1 <1>   0.5690 
 11 O       -3.0720    -7.0420     2.0800 O.2   1 <1>  -0.5700 
 12 N       -4.8650    -7.0900     0.7230 N.am  1 <1>  -0.6600 
 13 C       -5.7980    -6.5070    -0.2740 C.3   1 <1>   0.1400 
 14 C       -5.1330    -8.5350     0.8830 C.3   1 <1>   0.1400 
 15 C       -6.7550    -7.6430    -0.6610 C.3   1 <1>   0.2000 
 16 C       -5.9590    -8.9140    -0.3480 C.3   1 <1>  -0.0800 
 17 O       -7.8910    -7.6080     0.1570 O.3   1 <1>  -0.5600 
 18 C       -6.8180   -10.1760    -0.1480 C.3   1 <1>   0.0200 
 19 C       -8.9160    -6.7740    -0.2840 C.3   1 <1>   0.0400 
 20 C       -5.9930   -11.4460    -0.0170 C.2   1 <1>  -0.0400 
 21 O       -6.6090   -12.5700     0.2380 O.3   1 <1>  -0.0190 
 22 C       -4.6810   -11.7140    -0.1120 C.2   1 <1>  -0.1500 
 23 N       -5.7820   -13.5720     0.3220 N.2   1 <1>  -0.4100 
 24 C       -4.6110   -13.0850     0.1160 C.2   1 <1>   0.1080 
 25 C       -3.3370   -13.8990     0.1240 C.3   1 <1>  -0.0590 
 26 H       -3.1790    -3.8750    -2.6170 H     1 <1>   0.1500 
 27 H       -2.8190     0.3020    -1.8740 H     1 <1>   0.1500 
 28 H       -3.0440    -0.1070     0.5560 H     1 <1>   0.1500 
 29 H       -3.3350    -2.3760     1.3910 H     1 <1>   0.1500 
 30 H       -2.7410    -4.6460     1.7190 H     1 <1>   0.0800 
 31 H       -4.4800    -4.4230     1.5630 H     1 <1>   0.0800 
 32 H       -6.3230    -5.6610     0.1340 H     1 <1>   0.0800 
 33 H       -5.2340    -6.2020    -1.1380 H     1 <1>   0.0800 
 34 H       -4.2150    -9.0930     0.9460 H     1 <1>   0.0800 
 35 H       -5.7050    -8.6830     1.7840 H     1 <1>   0.0800 
 36 H       -7.0570    -7.6010    -1.6940 H     1 <1>   0.0800 
 37 H       -5.2780    -9.0820    -1.1630 H     1 <1>   0.0800 
 38 H       -7.4820   -10.2900    -0.9860 H     1 <1>   0.0800 
 39 H       -7.4250   -10.0690     0.7350 H     1 <1>   0.0800 
 40 H       -9.7170    -6.8250     0.4310 H     1 <1>   0.0800 
 41 H       -9.2660    -7.1170    -1.2420 H     1 <1>   0.0800 
 42 H       -8.5560    -5.7620    -0.3520 H     1 <1>   0.0800 
 43 H       -3.8480   -11.0660    -0.3130 H     1 <1>   0.1500 
 44 H       -2.8570   -13.8330    -0.8340 H     1 <1>   0.0800 
 45 H       -3.5610   -14.9290     0.3320 H     1 <1>   0.0800 
 46 H       -2.6730   -13.5270     0.8820 H     1 <1>   0.0800 
@<TRIPOS>BOND
  1   1   2  1   
  2   2   3  ar  
  3   2   4  ar  
  4   3   5  ar  
  5   3  26  1   
  6   4   6  ar  
  7   4  27  1   
  8   5   7  1   
  9   5   8  ar  
 10   6   8  ar  
 11   6  28  1   
 12   7   9  1   
 13   8  29  1   
 14   9  10  1   
 15   9  30  1   
 16   9  31  1   
 17  10  11  2   
 18  10  12  am  
 19  12  13  1   
 20  12  14  1   
 21  13  15  1   
 22  13  32  1   
 23  13  33  1   
 24  14  16  1   
 25  14  34  1   
 26  14  35  1   
 27  15  16  1   
 28  15  17  1   
 29  15  36  1   
 30  16  18  1   
 31  16  37  1   
 32  17  19  1   
 33  18  20  1   
 34  18  38  1   
 35  18  39  1   
 36  19  40  1   
 37  19  41  1   
 38  19  42  1   
 39  20  21  1   
 40  20  22  2   
 41  21  23  1   
 42  22  24  1   
 43  22  43  1   
 44  23  24  2   
 45  24  25  1   
 46  25  44  1   
 47  25  45  1   
 48  25  46  1   
@<TRIPOS>SUBSTRUCTURE
  1 ****  12 GROUP 4 **** **** 0

# MOE 2024.06 (io_trps.svl 2023.06)
