@<TRIPOS>MOLECULE
NONAME
46 49 1 0 0 
SMALL
USER_CHARGES


@<TRIPOS>ATOM
  1 S       -0.0600    -0.1090    -1.7030 S.3   1 <1>  -0.0800 
  2 C        1.5740     0.1500    -1.1620 C.2   1 <1>   0.1240 
  3 C       -0.2770    -1.4640    -0.5750 C.2   1 <1>  -0.0450 
  4 N        2.4070     1.1040    -1.6370 N.pl3 1 <1>  -0.5340 
  5 C        1.9380    -0.7240    -0.1930 C.2   1 <1>  -0.0860 
  6 C        0.8790    -1.6410     0.1290 C.2   1 <1>  -0.1810 
  7 C       -1.5410    -2.1610    -0.5870 C.2   1 <1>   0.7150 
  8 C        3.6640     1.1830    -1.1120 C.2   1 <1>   0.4400 
  9 C        3.2740    -0.5710     0.3090 C.2   1 <1>   0.8670 
 10 C        1.0840    -2.7190     1.1850 C.3   1 <1>  -0.0590 
 11 O       -1.5520    -3.3800    -0.6080 O.2   1 <1>  -0.5700 
 12 N       -2.7530    -1.4990    -0.5580 N.am  1 <1>  -0.6600 
 13 N        4.1060     0.4080    -0.1900 N.2   1 <1>  -0.6610 
 14 O        3.7170    -1.2900     1.1900 O.2   1 <1>  -0.5700 
 15 C       -2.8880    -0.0970    -0.0630 C.3   1 <1>   0.1400 
 16 C       -4.0160    -2.2410    -0.8470 C.3   1 <1>   0.1400 
 17 C       -4.2000     0.0550     0.7050 C.3   1 <1>  -0.1600 
 18 C       -5.1250    -1.2760    -1.2700 C.3   1 <1>  -0.1600 
 19 C       -5.4090    -0.1920    -0.2140 C.3   1 <1>   0.4180 
 20 O       -5.6620     0.9810    -0.9480 O.3   1 <1>  -0.5600 
 21 C       -6.6340    -0.5850     0.6120 C.2   1 <1>  -0.2880 
 22 C       -6.4180     1.9910    -0.3380 C.3   1 <1>   0.1200 
 23 C       -7.7430     0.1510     0.7110 C.2   1 <1>  -0.2760 
 24 C       -7.8270     1.4880     0.0000 C.3   1 <1>  -0.0220 
 25 C       -8.9800    -0.2530     1.4930 C.3   1 <1>  -0.1020 
 26 H        2.1060     1.7430    -2.3760 H     1 <1>   0.4000 
 27 H        4.3050     1.9510    -1.5120 H     1 <1>   0.0600 
 28 H        0.1950    -3.3070     1.3250 H     1 <1>   0.0800 
 29 H        1.3440    -2.2700     2.1270 H     1 <1>   0.0800 
 30 H        1.8800    -3.3770     0.8870 H     1 <1>   0.0800 
 31 H       -2.8800     0.5810    -0.9010 H     1 <1>   0.0800 
 32 H       -2.0640     0.1470     0.5860 H     1 <1>   0.0800 
 33 H       -4.3140    -2.7830     0.0350 H     1 <1>   0.0800 
 34 H       -3.8410    -2.9550    -1.6350 H     1 <1>   0.0800 
 35 H       -4.2550     1.0290     1.1510 H     1 <1>   0.0800 
 36 H       -4.2010    -0.6600     1.5080 H     1 <1>   0.0800 
 37 H       -6.0220    -1.8310    -1.4710 H     1 <1>   0.0800 
 38 H       -4.8200    -0.8150    -2.1930 H     1 <1>   0.0800 
 39 H       -6.5150    -1.5340     1.1030 H     1 <1>   0.1500 
 40 H       -6.4710     2.8190    -1.0210 H     1 <1>   0.0800 
 41 H       -5.9120     2.3110     0.5550 H     1 <1>   0.0800 
 42 H       -8.4050     1.3880    -0.9020 H     1 <1>   0.0800 
 43 H       -8.3070     2.2160     0.6290 H     1 <1>   0.0800 
 44 H       -9.1820     0.4650     2.2680 H     1 <1>   0.0800 
 45 H       -8.8390    -1.2160     1.9500 H     1 <1>   0.0800 
 46 H       -9.8310    -0.3070     0.8380 H     1 <1>   0.0800 
@<TRIPOS>BOND
  1   1   2  1   
  2   1   3  1   
  3   2   4  1   
  4   2   5  2   
  5   3   6  2   
  6   3   7  1   
  7   4   8  1   
  8   4  26  1   
  9   5   6  1   
 10   5   9  1   
 11   6  10  1   
 12   7  11  2   
 13   7  12  am  
 14   8  13  2   
 15   8  27  1   
 16   9  13  1   
 17   9  14  2   
 18  10  28  1   
 19  10  29  1   
 20  10  30  1   
 21  12  15  1   
 22  12  16  1   
 23  15  17  1   
 24  15  31  1   
 25  15  32  1   
 26  16  18  1   
 27  16  33  1   
 28  16  34  1   
 29  17  19  1   
 30  17  35  1   
 31  17  36  1   
 32  18  19  1   
 33  18  37  1   
 34  18  38  1   
 35  19  20  1   
 36  19  21  1   
 37  20  22  1   
 38  21  23  2   
 39  21  39  1   
 40  22  24  1   
 41  22  40  1   
 42  22  41  1   
 43  23  24  1   
 44  23  25  1   
 45  24  42  1   
 46  24  43  1   
 47  25  44  1   
 48  25  45  1   
 49  25  46  1   
@<TRIPOS>SUBSTRUCTURE
  1 ****  15 GROUP 4 **** **** 0

# MOE 2024.06 (io_trps.svl 2023.06)
