@<TRIPOS>MOLECULE
NONAME
43 44 1 0 0 
SMALL
USER_CHARGES


@<TRIPOS>ATOM
  1 CL      -1.0830    -1.5690     1.2540 Cl    1 <1>  -0.1770 
  2 C        0.5560    -1.8950     0.7360 C.ar  1 <1>   0.1770 
  3 C        0.8030    -2.6030    -0.4330 C.ar  1 <1>  -0.1440 
  4 C        1.5890    -1.4240     1.5270 C.ar  1 <1>  -0.1500 
  5 C        2.1220    -2.8380    -0.7950 C.ar  1 <1>  -0.1500 
  6 C       -0.3210    -3.1160    -1.3180 C.3   1 <1>   0.2140 
  7 C        2.9000    -1.6620     1.1510 C.ar  1 <1>  -0.1500 
  8 C        3.1630    -2.3700    -0.0100 C.ar  1 <1>  -0.1500 
  9 S       -0.4210    -4.9160    -1.1230 S.3   1 <1>  -0.4600 
 10 C       -2.0370    -5.3300    -1.8700 C.3   1 <1>   0.1310 
 11 C       -2.1920    -6.8340    -2.0810 C.2   1 <1>   0.5690 
 12 O       -2.1150    -7.2290    -3.2210 O.2   1 <1>  -0.5700 
 13 N       -2.4410    -7.6920    -1.0360 N.am  1 <1>  -0.6600 
 14 C       -2.5210    -9.1600    -1.2780 C.3   1 <1>   0.3200 
 15 C       -2.5510    -7.2680     0.3940 C.3   1 <1>   0.1400 
 16 C       -3.9270    -9.6520    -0.9940 C.2   1 <1>  -0.3320 
 17 C       -3.9870    -6.8600     0.7470 C.3   1 <1>   0.1200 
 18 N       -4.3560   -10.2430     0.1420 N.pl3 1 <1>   0.0480 
 19 C       -4.9960    -9.5840    -1.8170 C.2   1 <1>   0.0770 
 20 O       -4.1210    -6.8540     2.1280 O.3   1 <1>  -0.6800 
 21 C       -5.6680   -10.4850    -0.0760 C.2   1 <1>   0.0360 
 22 C       -3.6090   -10.5550     1.3750 C.3   1 <1>   0.0160 
 23 N       -6.0920   -10.1050    -1.2360 N.2   1 <1>  -0.5650 
 24 H        1.3660    -0.8800     2.4260 H     1 <1>   0.1500 
 25 H        2.3430    -3.3950    -1.6910 H     1 <1>   0.1500 
 26 H       -0.1200    -2.9190    -2.3560 H     1 <1>   0.0800 
 27 H       -1.2790    -2.7080    -1.0520 H     1 <1>   0.0800 
 28 H        3.7110    -1.2990     1.7590 H     1 <1>   0.1500 
 29 H        4.1810    -2.5610    -0.3020 H     1 <1>   0.1500 
 30 H       -2.0820    -4.8270    -2.8180 H     1 <1>   0.0800 
 31 H       -2.8020    -4.9480    -1.2220 H     1 <1>   0.0800 
 32 H       -1.8020    -9.6680    -0.6610 H     1 <1>   0.0800 
 33 H       -2.2770    -9.3880    -2.3010 H     1 <1>   0.0800 
 34 H       -1.8890    -6.4460     0.5940 H     1 <1>   0.0800 
 35 H       -2.2470    -8.0840     1.0240 H     1 <1>   0.0800 
 36 H       -4.7040    -7.5560     0.3500 H     1 <1>   0.0800 
 37 H       -4.2030    -5.8720     0.3810 H     1 <1>   0.0800 
 38 H       -5.0320    -9.1730    -2.8130 H     1 <1>   0.1500 
 39 H       -5.0240    -6.5770     2.3830 H     1 <1>   0.4000 
 40 H       -6.2910   -10.9540     0.6650 H     1 <1>   0.1500 
 41 H       -2.6060   -10.8490     1.1290 H     1 <1>   0.0800 
 42 H       -4.0950   -11.3610     1.8940 H     1 <1>   0.0800 
 43 H       -3.5900    -9.6860     2.0080 H     1 <1>   0.0800 
@<TRIPOS>BOND
  1   1   2  1   
  2   2   3  ar  
  3   2   4  ar  
  4   3   5  ar  
  5   3   6  1   
  6   4   7  ar  
  7   4  24  1   
  8   5   8  ar  
  9   5  25  1   
 10   6   9  1   
 11   6  26  1   
 12   6  27  1   
 13   7   8  ar  
 14   7  28  1   
 15   8  29  1   
 16   9  10  1   
 17  10  11  1   
 18  10  30  1   
 19  10  31  1   
 20  11  12  2   
 21  11  13  am  
 22  13  14  1   
 23  13  15  1   
 24  14  16  1   
 25  14  32  1   
 26  14  33  1   
 27  15  17  1   
 28  15  34  1   
 29  15  35  1   
 30  16  18  1   
 31  16  19  2   
 32  17  20  1   
 33  17  36  1   
 34  17  37  1   
 35  18  21  1   
 36  18  22  1   
 37  19  23  1   
 38  19  38  1   
 39  20  39  1   
 40  21  23  2   
 41  21  40  1   
 42  22  41  1   
 43  22  42  1   
 44  22  43  1   
@<TRIPOS>SUBSTRUCTURE
  1 ****  15 GROUP 4 **** **** 0

# MOE 2024.06 (io_trps.svl 2023.06)
