@<TRIPOS>MOLECULE
NONAME
47 50 1 0 0 
SMALL
USER_CHARGES


@<TRIPOS>ATOM
  1 O       -0.0760    -2.0400     1.5330 O.co2 1 <1>  -0.9000 
  2 C       -0.3960    -2.9150     0.7160 C.2   1 <1>   1.0330 
  3 O       -1.3540    -3.6610     0.9960 O.co2 1 <1>  -0.9000 
  4 C        0.3370    -3.1090    -0.5000 C.2   1 <1>  -0.2330 
  5 C       -0.1610    -3.7950    -1.6060 C.2   1 <1>   0.3720 
  6 C        1.5890    -2.7500    -0.8940 C.2   1 <1>   0.0870 
  7 N        0.6950    -3.8400    -2.5640 N.2   1 <1>  -0.4100 
  8 N       -1.4090    -4.3930    -1.6660 N.pl3 1 <1>  -0.8520 
  9 O        1.7410    -3.1980    -2.1200 O.3   1 <1>  -0.0190 
 10 C        2.6950    -2.0640    -0.2670 C.ar  1 <1>   0.0530 
 11 C       -1.4560    -5.7600    -2.2280 C.3   1 <1>   0.3890 
 12 C        2.9360    -2.1320     1.1050 C.ar  1 <1>  -0.1500 
 13 C        3.5930    -1.3170    -1.0330 C.ar  1 <1>  -0.1500 
 14 C       -2.3550    -6.6860    -1.4190 C.2   1 <1>   0.0070 
 15 C        4.0150    -1.4910     1.6850 C.ar  1 <1>  -0.1500 
 16 C        4.6760    -0.6740    -0.4610 C.ar  1 <1>  -0.1500 
 17 N       -3.6090    -6.8450    -1.6920 N.2   1 <1>  -0.3380 
 18 N       -1.9800    -7.4590    -0.3820 N.pl3 1 <1>   0.0480 
 19 C        4.8900    -0.7600     0.9030 C.ar  1 <1>  -0.1500 
 20 N       -4.0990    -7.7250    -0.8230 N.2   1 <1>  -0.3380 
 21 C       -3.1240    -8.0690    -0.0590 C.2   1 <1>   0.0360 
 22 C       -0.6800    -7.7660     0.2790 C.3   1 <1>   0.1760 
 23 C        0.0150    -6.5230     0.8450 C.3   1 <1>  -0.1600 
 24 C        0.2480    -8.5560    -0.6620 C.3   1 <1>  -0.1600 
 25 C        1.3370    -6.8830     1.5360 C.3   1 <1>  -0.1600 
 26 C        1.5690    -8.9130     0.0340 C.3   1 <1>  -0.1600 
 27 C        2.2600    -7.6590     0.5870 C.3   1 <1>  -0.1600 
 28 H       -1.8240    -4.3640    -0.7090 H     1 <1>   0.4000 
 29 H       -0.4650    -6.1690    -2.2910 H     1 <1>   0.0800 
 30 H       -1.8440    -5.6930    -3.2290 H     1 <1>   0.0800 
 31 H        2.2630    -2.6940     1.7280 H     1 <1>   0.1500 
 32 H        3.4340    -1.2400    -2.0930 H     1 <1>   0.1500 
 33 H        4.1650    -1.5600     2.7480 H     1 <1>   0.1500 
 34 H        5.3510    -0.1050    -1.0760 H     1 <1>   0.1500 
 35 H        5.7290    -0.2600     1.3540 H     1 <1>   0.1500 
 36 H       -3.2050    -8.7730     0.7470 H     1 <1>   0.1500 
 37 H       -0.9010    -8.4040     1.1170 H     1 <1>   0.0800 
 38 H       -0.6340    -6.0350     1.5520 H     1 <1>   0.0800 
 39 H        0.2320    -5.8360     0.0530 H     1 <1>   0.0800 
 40 H        0.4730    -7.9710    -1.5350 H     1 <1>   0.0800 
 41 H       -0.2430    -9.4600    -0.9770 H     1 <1>   0.0800 
 42 H        1.1360    -7.4750     2.4120 H     1 <1>   0.0800 
 43 H        1.8240    -5.9770     1.8550 H     1 <1>   0.0800 
 44 H        2.2240    -9.4040    -0.6650 H     1 <1>   0.0800 
 45 H        1.3770    -9.5980     0.8420 H     1 <1>   0.0800 
 46 H        3.1580    -7.9400     1.1110 H     1 <1>   0.0800 
 47 H        2.5460    -7.0160    -0.2300 H     1 <1>   0.0800 
@<TRIPOS>BOND
  1   1   2  ar  
  2   2   3  ar  
  3   2   4  1   
  4   4   5  1   
  5   4   6  2   
  6   5   7  2   
  7   5   8  1   
  8   6   9  1   
  9   6  10  1   
 10   7   9  1   
 11   8  11  1   
 12   8  28  1   
 13  10  12  ar  
 14  10  13  ar  
 15  11  14  1   
 16  11  29  1   
 17  11  30  1   
 18  12  15  ar  
 19  12  31  1   
 20  13  16  ar  
 21  13  32  1   
 22  14  17  2   
 23  14  18  1   
 24  15  19  ar  
 25  15  33  1   
 26  16  19  ar  
 27  16  34  1   
 28  17  20  1   
 29  18  21  1   
 30  18  22  1   
 31  19  35  1   
 32  20  21  2   
 33  21  36  1   
 34  22  23  1   
 35  22  24  1   
 36  22  37  1   
 37  23  25  1   
 38  23  38  1   
 39  23  39  1   
 40  24  26  1   
 41  24  40  1   
 42  24  41  1   
 43  25  27  1   
 44  25  42  1   
 45  25  43  1   
 46  26  27  1   
 47  26  44  1   
 48  26  45  1   
 49  27  46  1   
 50  27  47  1   
@<TRIPOS>SUBSTRUCTURE
  1 ****   4 GROUP 4 **** **** 0

# MOE 2024.06 (io_trps.svl 2023.06)
