@<TRIPOS>MOLECULE
NONAME
57 59 1 0 0 
SMALL
USER_CHARGES


@<TRIPOS>ATOM
  1 O        0.0520     1.3140    -0.9720 O.2   1 <1>  -0.5700 
  2 C       -0.2970     2.4700    -1.0080 C.2   1 <1>   0.5690 
  3 N       -1.1440     3.0390    -0.0890 N.am  1 <1>  -0.6600 
  4 C        0.2440     3.3360    -2.1410 C.3   1 <1>   0.1810 
  5 C       -1.4810     4.5010    -0.1710 C.3   1 <1>   0.3640 
  6 C       -1.6850     2.3430     1.1130 C.3   1 <1>   0.2200 
  7 O        0.4680     4.6530    -1.7170 O.3   1 <1>  -0.5600 
  8 C       -2.9830     4.6880    -0.3920 C.ar  1 <1>  -0.1440 
  9 C       -0.6990     5.3060    -1.2440 C.3   1 <1>   0.2610 
 10 C       -0.5470     2.0010     2.0730 C.3   1 <1>  -0.2400 
 11 C       -2.5020     1.1080     0.7290 C.3   1 <1>  -0.2400 
 12 C       -3.6570     5.6870     0.2970 C.ar  1 <1>  -0.1500 
 13 C       -3.6910     3.8880    -1.2800 C.ar  1 <1>  -0.1500 
 14 C       -0.3830     6.6980    -0.6800 C.2   1 <1>   0.5690 
 15 C       -5.0140     5.8770     0.1090 C.ar  1 <1>  -0.1500 
 16 C       -5.0490     4.0770    -1.4680 C.ar  1 <1>  -0.1500 
 17 O       -1.0540     7.6140    -1.0990 O.2   1 <1>  -0.5700 
 18 N        0.5830     6.9090     0.2850 N.am  1 <1>  -0.6600 
 19 C       -5.7120     5.0710    -0.7720 C.ar  1 <1>  -0.1500 
 20 C        1.4750     5.8640     0.8630 C.3   1 <1>   0.1400 
 21 C        0.9700     8.2880     0.6940 C.3   1 <1>   0.1400 
 22 C        2.9030     6.0990     0.3670 C.3   1 <1>  -0.1600 
 23 C        2.3980     8.5700     0.2180 C.3   1 <1>  -0.1600 
 24 C        3.3970     7.5110     0.7260 C.3   1 <1>  -0.0800 
 25 C        4.8040     7.7440     0.1590 C.3   1 <1>   0.1200 
 26 O        5.2610     8.9880     0.5830 O.3   1 <1>  -0.5600 
 27 C        6.5160     9.3250     0.0910 C.3   1 <1>   0.0400 
 28 H       -0.4480     3.3460    -2.9630 H     1 <1>   0.0800 
 29 H        1.1840     2.9370    -2.4780 H     1 <1>   0.0800 
 30 H       -1.2430     4.9250     0.7890 H     1 <1>   0.0800 
 31 H       -2.3540     3.0140     1.6270 H     1 <1>   0.0800 
 32 H       -1.3350     5.4460    -2.0990 H     1 <1>   0.0800 
 33 H        0.1190     1.2810     1.6340 H     1 <1>   0.0800 
 34 H       -0.9480     1.5780     2.9760 H     1 <1>   0.0800 
 35 H        0.0050     2.8870     2.3280 H     1 <1>   0.0800 
 36 H       -1.8800     0.3470     0.2950 H     1 <1>   0.0800 
 37 H       -3.2760     1.3740     0.0350 H     1 <1>   0.0800 
 38 H       -2.9660     0.6960     1.6070 H     1 <1>   0.0800 
 39 H       -3.1300     6.3320     0.9800 H     1 <1>   0.1500 
 40 H       -3.1910     3.1080    -1.8280 H     1 <1>   0.1500 
 41 H       -5.5270     6.6560     0.6460 H     1 <1>   0.1500 
 42 H       -5.5900     3.4500    -2.1550 H     1 <1>   0.1500 
 43 H       -6.7680     5.2200    -0.9180 H     1 <1>   0.1500 
 44 H        1.4480     5.9370     1.9370 H     1 <1>   0.0800 
 45 H        1.1570     4.8740     0.5960 H     1 <1>   0.0800 
 46 H        0.3000     9.0190     0.2730 H     1 <1>   0.0800 
 47 H        0.9180     8.3690     1.7660 H     1 <1>   0.0800 
 48 H        3.5520     5.3630     0.8080 H     1 <1>   0.0800 
 49 H        2.9220     5.9580    -0.7000 H     1 <1>   0.0800 
 50 H        2.4030     8.5930    -0.8580 H     1 <1>   0.0800 
 51 H        2.6960     9.5440     0.5650 H     1 <1>   0.0800 
 52 H        3.4590     7.5820     1.7990 H     1 <1>   0.0800 
 53 H        4.7820     7.7310    -0.9180 H     1 <1>   0.0800 
 54 H        5.4840     6.9920     0.5190 H     1 <1>   0.0800 
 55 H        6.7770    10.2950     0.4780 H     1 <1>   0.0800 
 56 H        6.4780     9.3630    -0.9840 H     1 <1>   0.0800 
 57 H        7.2350     8.5970     0.4220 H     1 <1>   0.0800 
@<TRIPOS>BOND
  1   1   2  2   
  2   2   3  am  
  3   2   4  1   
  4   3   5  1   
  5   3   6  1   
  6   4   7  1   
  7   4  28  1   
  8   4  29  1   
  9   5   8  1   
 10   5   9  1   
 11   5  30  1   
 12   6  10  1   
 13   6  11  1   
 14   6  31  1   
 15   7   9  1   
 16   8  12  ar  
 17   8  13  ar  
 18   9  14  1   
 19   9  32  1   
 20  10  33  1   
 21  10  34  1   
 22  10  35  1   
 23  11  36  1   
 24  11  37  1   
 25  11  38  1   
 26  12  15  ar  
 27  12  39  1   
 28  13  16  ar  
 29  13  40  1   
 30  14  17  2   
 31  14  18  am  
 32  15  19  ar  
 33  15  41  1   
 34  16  19  ar  
 35  16  42  1   
 36  18  20  1   
 37  18  21  1   
 38  19  43  1   
 39  20  22  1   
 40  20  44  1   
 41  20  45  1   
 42  21  23  1   
 43  21  46  1   
 44  21  47  1   
 45  22  24  1   
 46  22  48  1   
 47  22  49  1   
 48  23  24  1   
 49  23  50  1   
 50  23  51  1   
 51  24  25  1   
 52  24  52  1   
 53  25  26  1   
 54  25  53  1   
 55  25  54  1   
 56  26  27  1   
 57  27  55  1   
 58  27  56  1   
 59  27  57  1   
@<TRIPOS>SUBSTRUCTURE
  1 ****   9 GROUP 4 **** **** 0

# MOE 2024.06 (io_trps.svl 2023.06)
