@<TRIPOS>MOLECULE
NONAME
53 55 1 0 0 
SMALL
USER_CHARGES


@<TRIPOS>ATOM
  1 O       -0.2110     0.6720     1.0280 O.2   1 <1>  -0.5700 
  2 C       -0.1400     1.7120     0.4250 C.2   1 <1>   0.5690 
  3 N       -0.7390     2.8270     0.9010 N.am  1 <1>  -0.7300 
  4 C        0.6110     1.7770    -0.9110 C.3   1 <1>   0.1810 
  5 C       -0.6880     4.1400     0.2160 C.3   1 <1>   0.3640 
  6 O        0.9380     3.0960    -1.2960 O.3   1 <1>  -0.5600 
  7 C       -2.0720     4.7770     0.2400 C.ar  1 <1>  -0.1440 
  8 C       -0.1520     4.0060    -1.2300 C.3   1 <1>   0.2610 
  9 C       -2.2000     6.1170     0.5690 C.ar  1 <1>  -0.1500 
 10 C       -3.2130     4.0520    -0.0730 C.ar  1 <1>  -0.1500 
 11 C        0.1910     5.3910    -1.7950 C.2   1 <1>   0.5690 
 12 C       -3.4380     6.7370     0.5850 C.ar  1 <1>   0.0830 
 13 C       -4.4590     4.6550    -0.0490 C.ar  1 <1>  -0.1500 
 14 O       -0.5110     5.7850    -2.6990 O.2   1 <1>  -0.5700 
 15 N        1.2110     6.1800    -1.2980 N.am  1 <1>  -0.6600 
 16 O       -3.4290     8.0580     0.9080 O.3   1 <1>  -0.3620 
 17 C       -4.5930     6.0000     0.2870 C.ar  1 <1>   0.0830 
 18 C        1.3760     7.5860    -1.7670 C.3   1 <1>   0.1400 
 19 C        2.2970     5.7190    -0.3830 C.3   1 <1>   0.1400 
 20 C       -4.1760     8.9620     0.1240 C.3   1 <1>   0.0400 
 21 O       -5.8140     6.6080     0.3480 O.3   1 <1>  -0.3630 
 22 C        1.4590     8.5310    -0.5660 C.3   1 <1>  -0.1600 
 23 C        2.3870     6.6490     0.8270 C.3   1 <1>  -0.1600 
 24 C       -7.0150     5.8910     0.1710 C.3   1 <1>   0.0400 
 25 C        2.5770     8.1010     0.3890 C.3   1 <1>   0.2000 
 26 O        2.5350     8.8800     1.5410 O.3   1 <1>  -0.5600 
 27 C        3.1680    10.1180     1.4550 C.3   1 <1>   0.0400 
 28 H       -1.2520     2.7790     1.7830 H     1 <1>   0.3700 
 29 H        0.0060     1.3390    -1.6830 H     1 <1>   0.0800 
 30 H        1.5270     1.2220    -0.8320 H     1 <1>   0.0800 
 31 H       -0.0190     4.7690     0.7740 H     1 <1>   0.0800 
 32 H       -0.9350     3.6010    -1.8460 H     1 <1>   0.0800 
 33 H       -1.3350     6.7100     0.8100 H     1 <1>   0.1500 
 34 H       -3.1410     3.0110    -0.3370 H     1 <1>   0.1500 
 35 H       -5.3130     4.0530    -0.2950 H     1 <1>   0.1500 
 36 H        2.2740     7.6560    -2.3550 H     1 <1>   0.0800 
 37 H        0.5490     7.8830    -2.3900 H     1 <1>   0.0800 
 38 H        2.1330     4.7150    -0.0410 H     1 <1>   0.0800 
 39 H        3.2290     5.7310    -0.9220 H     1 <1>   0.0800 
 40 H       -3.7350     9.9360     0.2260 H     1 <1>   0.0800 
 41 H       -5.1880     8.9820     0.4840 H     1 <1>   0.0800 
 42 H       -4.1440     8.6470    -0.9050 H     1 <1>   0.0800 
 43 H        0.5150     8.5220    -0.0500 H     1 <1>   0.0800 
 44 H        1.6400     9.5260    -0.9260 H     1 <1>   0.0800 
 45 H        3.2190     6.3530     1.4400 H     1 <1>   0.0800 
 46 H        1.4880     6.5640     1.4090 H     1 <1>   0.0800 
 47 H       -7.8340     6.5730     0.3110 H     1 <1>   0.0800 
 48 H       -7.0640     5.1060     0.9050 H     1 <1>   0.0800 
 49 H       -7.0400     5.4910    -0.8270 H     1 <1>   0.0800 
 50 H        3.5420     8.2110    -0.0780 H     1 <1>   0.0800 
 51 H        3.0910    10.5970     2.4140 H     1 <1>   0.0800 
 52 H        2.6800    10.7220     0.7120 H     1 <1>   0.0800 
 53 H        4.2050     9.9710     1.2070 H     1 <1>   0.0800 
@<TRIPOS>BOND
  1   1   2  2   
  2   2   3  am  
  3   2   4  1   
  4   3   5  1   
  5   3  28  1   
  6   4   6  1   
  7   4  29  1   
  8   4  30  1   
  9   5   7  1   
 10   5   8  1   
 11   5  31  1   
 12   6   8  1   
 13   7   9  ar  
 14   7  10  ar  
 15   8  11  1   
 16   8  32  1   
 17   9  12  ar  
 18   9  33  1   
 19  10  13  ar  
 20  10  34  1   
 21  11  14  2   
 22  11  15  am  
 23  12  16  1   
 24  12  17  ar  
 25  13  17  ar  
 26  13  35  1   
 27  15  18  1   
 28  15  19  1   
 29  16  20  1   
 30  17  21  1   
 31  18  22  1   
 32  18  36  1   
 33  18  37  1   
 34  19  23  1   
 35  19  38  1   
 36  19  39  1   
 37  20  40  1   
 38  20  41  1   
 39  20  42  1   
 40  21  24  1   
 41  22  25  1   
 42  22  43  1   
 43  22  44  1   
 44  23  25  1   
 45  23  45  1   
 46  23  46  1   
 47  24  47  1   
 48  24  48  1   
 49  24  49  1   
 50  25  26  1   
 51  25  50  1   
 52  26  27  1   
 53  27  51  1   
 54  27  52  1   
 55  27  53  1   
@<TRIPOS>SUBSTRUCTURE
  1 ****   7 GROUP 4 **** **** 0

# MOE 2024.06 (io_trps.svl 2023.06)
