@<TRIPOS>MOLECULE
NONAME
46 49 1 0 0 
SMALL
USER_CHARGES


@<TRIPOS>ATOM
  1 O       -0.0610     1.5510     2.4840 O.2   1 <1>  -0.5700 
  2 C        0.1340     2.4520     1.6910 C.2   1 <1>   0.6160 
  3 N       -0.9360     3.1310     1.1520 N.am  1 <1>  -0.6600 
  4 C        1.4880     2.7870     1.3250 C.2   1 <1>  -0.0140 
  5 C       -2.3460     2.8010     1.5150 C.3   1 <1>   0.1400 
  6 C       -0.8240     4.1320     0.0570 C.3   1 <1>   0.1400 
  7 C        2.1770     2.0000     0.3270 C.ar  1 <1>   0.0280 
  8 C        2.1310     3.8500     1.8860 C.2   1 <1>  -0.1360 
  9 C       -3.0870     2.2010     0.3040 C.3   1 <1>   0.0000 
 10 C       -1.5250     3.5980    -1.1960 C.3   1 <1>  -0.1600 
 11 C        3.4740     2.3860    -0.0590 C.ar  1 <1>   0.1170 
 12 C        1.6200     0.8720    -0.2850 C.ar  1 <1>  -0.1500 
 13 C        3.4430     4.2250     1.5050 C.2   1 <1>   0.6160 
 14 C       -4.5400     1.8620     0.6880 C.3   1 <1>   0.2000 
 15 C       -2.9770     3.1740    -0.9060 C.3   1 <1>  -0.1600 
 16 C       -2.5500     0.8070    -0.0680 C.3   1 <1>  -0.1600 
 17 N        4.0610     3.4900     0.5450 N.am  1 <1>  -0.5470 
 18 C        4.1590     1.6660    -1.0340 C.ar  1 <1>  -0.1500 
 19 C        2.3080     0.1650    -1.2490 C.ar  1 <1>  -0.1500 
 20 O        4.0310     5.1770     1.9830 O.2   1 <1>  -0.5700 
 21 O       -5.3880     2.9500     0.6110 O.3   1 <1>  -0.6800 
 22 C       -4.9950     0.7640    -0.2720 C.3   1 <1>  -0.1600 
 23 C       -3.7100     0.0780    -0.7560 C.3   1 <1>  -0.1600 
 24 C        3.5820     0.5640    -1.6280 C.ar  1 <1>  -0.1500 
 25 H       -2.3750     2.1130     2.3430 H     1 <1>   0.0800 
 26 H       -2.8450     3.7020     1.8290 H     1 <1>   0.0800 
 27 H       -1.2950     5.0470     0.3740 H     1 <1>   0.0800 
 28 H        0.2040     4.3510    -0.1720 H     1 <1>   0.0800 
 29 H        1.6680     4.4560     2.6410 H     1 <1>   0.1500 
 30 H       -1.5220     4.3630    -1.9520 H     1 <1>   0.0800 
 31 H       -0.9600     2.7690    -1.5840 H     1 <1>   0.0800 
 32 H        0.6390     0.5370     0.0020 H     1 <1>   0.1500 
 33 H       -4.5750     1.4870     1.6980 H     1 <1>   0.0800 
 34 H       -3.4050     2.7320    -1.7880 H     1 <1>   0.0800 
 35 H       -3.5300     4.0720    -0.6900 H     1 <1>   0.0800 
 36 H       -1.6760     0.8380    -0.6920 H     1 <1>   0.0800 
 37 H       -2.2930     0.2730     0.8330 H     1 <1>   0.0800 
 38 H        5.0060     3.7880     0.3070 H     1 <1>   0.3700 
 39 H        5.1470     1.9730    -1.3230 H     1 <1>   0.1500 
 40 H        1.8620    -0.7000    -1.7080 H     1 <1>   0.1500 
 41 H       -5.4480     3.2520    -0.3140 H     1 <1>   0.4000 
 42 H       -5.6330     0.0660     0.2400 H     1 <1>   0.0800 
 43 H       -5.5200     1.1780    -1.1150 H     1 <1>   0.0800 
 44 H       -3.7040    -0.9690    -0.5070 H     1 <1>   0.0800 
 45 H       -3.6250     0.1800    -1.8240 H     1 <1>   0.0800 
 46 H        4.1140     0.0090    -2.3810 H     1 <1>   0.1500 
@<TRIPOS>BOND
  1   1   2  2   
  2   2   3  am  
  3   2   4  1   
  4   3   5  1   
  5   3   6  1   
  6   4   7  1   
  7   4   8  2   
  8   5   9  1   
  9   5  25  1   
 10   5  26  1   
 11   6  10  1   
 12   6  27  1   
 13   6  28  1   
 14   7  11  ar  
 15   7  12  ar  
 16   8  13  1   
 17   8  29  1   
 18   9  14  1   
 19   9  15  1   
 20   9  16  1   
 21  10  15  1   
 22  10  30  1   
 23  10  31  1   
 24  11  17  1   
 25  11  18  ar  
 26  12  19  ar  
 27  12  32  1   
 28  13  17  am  
 29  13  20  2   
 30  14  21  1   
 31  14  22  1   
 32  14  33  1   
 33  15  34  1   
 34  15  35  1   
 35  16  23  1   
 36  16  36  1   
 37  16  37  1   
 38  17  38  1   
 39  18  24  ar  
 40  18  39  1   
 41  19  24  ar  
 42  19  40  1   
 43  21  41  1   
 44  22  23  1   
 45  22  42  1   
 46  22  43  1   
 47  23  44  1   
 48  23  45  1   
 49  24  46  1   
@<TRIPOS>SUBSTRUCTURE
  1 ****   2 GROUP 4 **** **** 0

# MOE 2024.06 (io_trps.svl 2023.06)
