@<TRIPOS>MOLECULE
NONAME
48 50 1 0 0 
SMALL
USER_CHARGES


@<TRIPOS>ATOM
  1 O       -0.5720    -0.8770     0.2570 O.2   1 <1>  -0.5700 
  2 C       -1.2450     0.1230     0.1450 C.2   1 <1>   0.5690 
  3 N       -2.5970     0.0520    -0.1270 N.am  1 <1>  -0.6600 
  4 C       -0.5210     1.4630     0.2680 C.3   1 <1>   0.1810 
  5 C       -3.4470     1.2720    -0.3090 C.3   1 <1>   0.2200 
  6 C       -3.2540    -1.2850    -0.2570 C.3   1 <1>   0.0600 
  7 O       -0.9220     2.1600     1.4420 O.3   1 <1>  -0.3620 
  8 C       -4.4310     1.4940     0.8300 C.3   1 <1>  -0.1600 
  9 C       -4.3060     1.2710    -1.5700 C.3   1 <1>  -0.1600 
 10 C       -1.0630     3.5160     1.4800 C.ar  1 <1>   0.0820 
 11 C       -5.5020     2.4300     0.2510 C.3   1 <1>  -0.0800 
 12 C       -5.4630     2.2420    -1.2770 C.3   1 <1>  -0.0800 
 13 C       -0.4300     4.4410     0.6340 C.ar  1 <1>   0.0820 
 14 C       -1.9370     3.9780     2.4510 C.ar  1 <1>  -0.1500 
 15 C       -5.2280     3.9220     0.5170 C.3   1 <1>  -0.1600 
 16 C       -5.2690     3.6440    -1.8820 C.3   1 <1>  -0.1600 
 17 O        0.4680     4.0440    -0.3060 O.3   1 <1>  -0.3630 
 18 C       -0.7130     5.7960     0.7740 C.ar  1 <1>  -0.1500 
 19 C       -2.2150     5.3270     2.5790 C.ar  1 <1>  -0.1500 
 20 C       -4.7050     4.5310    -0.7790 C.3   1 <1>   0.2000 
 21 C        0.3470     4.5660    -1.6130 C.3   1 <1>   0.0400 
 22 C       -1.6060     6.2370     1.7360 C.ar  1 <1>  -0.1500 
 23 O       -3.3270     4.4490    -0.8090 O.3   1 <1>  -0.6800 
 24 H       -0.7540     2.0470    -0.6000 H     1 <1>   0.0800 
 25 H        0.5410     1.3110     0.3210 H     1 <1>   0.0800 
 26 H       -2.8280     2.1430    -0.3620 H     1 <1>   0.0800 
 27 H       -4.2700    -1.2510     0.0900 H     1 <1>   0.0800 
 28 H       -2.7250    -2.0200     0.3250 H     1 <1>   0.0800 
 29 H       -3.2420    -1.5900    -1.2880 H     1 <1>   0.0800 
 30 H       -4.8970     0.5680     1.1060 H     1 <1>   0.0800 
 31 H       -3.9400     1.9060     1.6920 H     1 <1>   0.0800 
 32 H       -3.7290     1.5660    -2.4280 H     1 <1>   0.0800 
 33 H       -4.7240     0.2980    -1.7460 H     1 <1>   0.0800 
 34 H       -6.4670     2.1640     0.6490 H     1 <1>   0.0800 
 35 H       -6.3860     1.8180    -1.6370 H     1 <1>   0.0800 
 36 H       -2.4040     3.2670     3.1090 H     1 <1>   0.1500 
 37 H       -4.5710     4.0960     1.3490 H     1 <1>   0.0800 
 38 H       -6.1690     4.3930     0.7390 H     1 <1>   0.0800 
 39 H       -6.2360     4.0290    -2.1490 H     1 <1>   0.0800 
 40 H       -4.6520     3.6520    -2.7630 H     1 <1>   0.0800 
 41 H       -0.2300     6.5190     0.1450 H     1 <1>   0.1500 
 42 H       -2.9000     5.6670     3.3380 H     1 <1>   0.1500 
 43 H       -4.9820     5.5660    -0.8940 H     1 <1>   0.0800 
 44 H        0.9280     3.9500    -2.2750 H     1 <1>   0.0800 
 45 H        0.7260     5.5720    -1.6290 H     1 <1>   0.0800 
 46 H       -0.6900     4.5430    -1.9060 H     1 <1>   0.0800 
 47 H       -1.8150     7.2890     1.8340 H     1 <1>   0.1500 
 48 H       -2.9480     4.7850     0.0300 H     1 <1>   0.4000 
@<TRIPOS>BOND
  1   1   2  2   
  2   2   3  am  
  3   2   4  1   
  4   3   5  1   
  5   3   6  1   
  6   4   7  1   
  7   4  24  1   
  8   4  25  1   
  9   5   8  1   
 10   5   9  1   
 11   5  26  1   
 12   6  27  1   
 13   6  28  1   
 14   6  29  1   
 15   7  10  1   
 16   8  11  1   
 17   8  30  1   
 18   8  31  1   
 19   9  12  1   
 20   9  32  1   
 21   9  33  1   
 22  10  13  ar  
 23  10  14  ar  
 24  11  12  1   
 25  11  15  1   
 26  11  34  1   
 27  12  16  1   
 28  12  35  1   
 29  13  17  1   
 30  13  18  ar  
 31  14  19  ar  
 32  14  36  1   
 33  15  20  1   
 34  15  37  1   
 35  15  38  1   
 36  16  20  1   
 37  16  39  1   
 38  16  40  1   
 39  17  21  1   
 40  18  22  ar  
 41  18  41  1   
 42  19  22  ar  
 43  19  42  1   
 44  20  23  1   
 45  20  43  1   
 46  21  44  1   
 47  21  45  1   
 48  21  46  1   
 49  22  47  1   
 50  23  48  1   
@<TRIPOS>SUBSTRUCTURE
  1 ****   5 GROUP 4 **** **** 0

# MOE 2024.06 (io_trps.svl 2023.06)
