@<TRIPOS>MOLECULE
NONAME
50 53 1 0 0 
SMALL
USER_CHARGES


@<TRIPOS>ATOM
  1 O        0.3180     1.9170    -1.7350 O.2   1 <1>  -0.5700 
  2 C       -0.0500     3.0600    -1.5920 C.2   1 <1>   0.5690 
  3 N       -0.8620     3.4680    -0.5670 N.am  1 <1>  -0.5090 
  4 C        0.3880     4.0880    -2.6300 C.3   1 <1>   0.1810 
  5 C       -1.4980     4.8240    -0.5740 C.3   1 <1>   0.3640 
  6 C       -1.2720     2.5760     0.5420 C.3   1 <1>   0.0490 
  7 O        0.3640     5.3940    -2.1140 O.3   1 <1>  -0.5600 
  8 C       -3.0040     4.6720    -0.7920 C.ar  1 <1>  -0.1440 
  9 C       -0.9030     5.8050    -1.6220 C.3   1 <1>   0.2610 
 10 C       -0.9290     2.9780     1.9430 C.3   1 <1>  -0.2000 
 11 C       -0.2330     1.8180     1.3070 C.3   1 <1>  -0.2000 
 12 C       -3.8910     5.4170    -0.0260 C.ar  1 <1>   0.1600 
 13 C       -3.5220     3.8050    -1.7400 C.ar  1 <1>  -0.1500 
 14 C       -0.8030     7.2000    -0.9970 C.2   1 <1>   0.5690 
 15 N       -5.2100     5.3600    -0.1200 N.ar  1 <1>  -0.6200 
 16 C       -4.8940     3.7390    -1.8530 C.ar  1 <1>  -0.1500 
 17 O       -1.7950     7.7120    -0.5340 O.2   1 <1>  -0.5700 
 18 N        0.4000     7.8230    -0.9460 N.am  1 <1>  -0.7300 
 19 C       -5.6810     4.5250    -1.0300 C.ar  1 <1>   0.1600 
 20 C        0.6940     9.0810    -0.2460 C.3   1 <1>   0.3210 
 21 C        1.8260     8.8110     0.7210 C.2   1 <1>  -0.1810 
 22 C        3.1560     9.0280     0.6080 C.2   1 <1>  -0.3320 
 23 C        1.6650     8.2420     1.9770 C.2   1 <1>   0.1390 
 24 N        3.7150     8.5980     1.7640 N.pl3 1 <1>   0.3140 
 25 C        3.9450     9.6240    -0.5480 C.3   1 <1>  -0.0600 
 26 N        2.7910     8.1110     2.6070 N.2   1 <1>  -0.7070 
 27 C        5.1370     8.6170     2.1300 C.3   1 <1>   0.0160 
 28 H       -0.2560     4.0400    -3.4890 H     1 <1>   0.0800 
 29 H        1.3960     3.8740    -2.9360 H     1 <1>   0.0800 
 30 H       -1.3390     5.2510     0.4010 H     1 <1>   0.0800 
 31 H       -2.2190     2.0930     0.3590 H     1 <1>   0.1000 
 32 H       -1.5660     5.8730    -2.4660 H     1 <1>   0.0800 
 33 H       -0.3480     3.8640     2.1260 H     1 <1>   0.1000 
 34 H       -1.6340     2.7730     2.7300 H     1 <1>   0.1000 
 35 H       -0.4700     0.8250     1.6450 H     1 <1>   0.1000 
 36 H        0.7960     1.9180     1.0100 H     1 <1>   0.1000 
 37 H       -3.4990     6.1040     0.7070 H     1 <1>   0.1500 
 38 H       -2.8930     3.1950    -2.3650 H     1 <1>   0.1500 
 39 H       -5.3530     3.0820    -2.5690 H     1 <1>   0.1500 
 40 H        1.2210     7.3070    -1.2760 H     1 <1>   0.3700 
 41 H       -6.7520     4.4640    -1.1250 H     1 <1>   0.1500 
 42 H        0.9820     9.8300    -0.9610 H     1 <1>   0.0800 
 43 H       -0.1740     9.4320     0.2870 H     1 <1>   0.0800 
 44 H        0.7180     7.9380     2.3910 H     1 <1>   0.1500 
 45 H        3.2950     9.8650    -1.3690 H     1 <1>   0.0800 
 46 H        4.6810     8.9210    -0.8950 H     1 <1>   0.0800 
 47 H        4.4420    10.5240    -0.2320 H     1 <1>   0.0800 
 48 H        5.5040     9.6240     2.0660 H     1 <1>   0.0800 
 49 H        5.6810     7.9810     1.4590 H     1 <1>   0.0800 
 50 H        5.2450     8.2570     3.1360 H     1 <1>   0.0800 
@<TRIPOS>BOND
  1   1   2  2   
  2   2   3  am  
  3   2   4  1   
  4   3   5  1   
  5   3   6  1   
  6   4   7  1   
  7   4  28  1   
  8   4  29  1   
  9   5   8  1   
 10   5   9  1   
 11   5  30  1   
 12   6  10  1   
 13   6  11  1   
 14   6  31  1   
 15   7   9  1   
 16   8  12  ar  
 17   8  13  ar  
 18   9  14  1   
 19   9  32  1   
 20  10  11  1   
 21  10  33  1   
 22  10  34  1   
 23  11  35  1   
 24  11  36  1   
 25  12  15  ar  
 26  12  37  1   
 27  13  16  ar  
 28  13  38  1   
 29  14  17  2   
 30  14  18  am  
 31  15  19  ar  
 32  16  19  ar  
 33  16  39  1   
 34  18  20  1   
 35  18  40  1   
 36  19  41  1   
 37  20  21  1   
 38  20  42  1   
 39  20  43  1   
 40  21  22  2   
 41  21  23  1   
 42  22  24  1   
 43  22  25  1   
 44  23  26  2   
 45  23  44  1   
 46  24  26  1   
 47  24  27  1   
 48  25  45  1   
 49  25  46  1   
 50  25  47  1   
 51  27  48  1   
 52  27  49  1   
 53  27  50  1   
@<TRIPOS>SUBSTRUCTURE
  1 ****   9 GROUP 4 **** **** 0

# MOE 2024.06 (io_trps.svl 2023.06)
