@<TRIPOS>MOLECULE
NONAME
27 28 1 0 0 
SMALL
USER_CHARGES


@<TRIPOS>ATOM
  1 CL      -0.0020     0.1680    -0.0780 Cl    1 <1>  -0.1770 
  2 C        0.9890    -1.2140     0.3560 C.ar  1 <1>   0.1770 
  3 C        0.7170    -2.4780    -0.1510 C.ar  1 <1>   0.4100 
  4 C        2.0510    -1.0710     1.2050 C.ar  1 <1>   0.1600 
  5 N        1.4630    -3.5140     0.1930 N.ar  1 <1>  -0.6200 
  6 N       -0.3350    -2.7150    -1.0050 N.pl3 1 <1>  -0.8690 
  7 N        2.8110    -2.0990     1.5450 N.ar  1 <1>  -0.6200 
  8 C        2.4710    -3.2600     1.0120 C.ar  1 <1>   0.4770 
  9 C       -0.4550    -3.8970    -1.9040 C.3   1 <1>   0.3890 
 10 C        3.3380    -4.4360     1.3930 C.3   1 <1>  -0.0960 
 11 C       -1.1870    -5.0230    -1.2030 C.2   1 <1>   0.0070 
 12 N       -2.1200    -5.7610    -1.7020 N.2   1 <1>  -0.3380 
 13 N       -0.9090    -5.3720     0.0480 N.pl3 1 <1>   0.0330 
 14 N       -2.4760    -6.6290    -0.7500 N.2   1 <1>  -0.3380 
 15 C       -1.7460    -6.3810     0.2820 C.2   1 <1>   0.0060 
 16 C       -1.8170    -7.1270     1.5970 C.3   1 <1>  -0.0600 
 17 H        2.2870    -0.1040     1.6140 H     1 <1>   0.1500 
 18 H       -0.9650    -1.9380    -1.2280 H     1 <1>   0.4000 
 19 H        0.5240    -4.2370    -2.1940 H     1 <1>   0.0800 
 20 H       -0.9930    -3.6210    -2.7940 H     1 <1>   0.0800 
 21 H        3.1670    -5.2640     0.7300 H     1 <1>   0.0800 
 22 H        3.1110    -4.7350     2.3990 H     1 <1>   0.0800 
 23 H        4.3730    -4.1550     1.3360 H     1 <1>   0.0800 
 24 H       -0.2050    -4.9210     0.6400 H     1 <1>   0.2700 
 25 H       -0.8720    -7.5900     1.8110 H     1 <1>   0.0800 
 26 H       -2.5710    -7.8920     1.5390 H     1 <1>   0.0800 
 27 H       -2.0720    -6.4500     2.3910 H     1 <1>   0.0800 
@<TRIPOS>BOND
  1   1   2  1   
  2   2   3  ar  
  3   2   4  ar  
  4   3   5  ar  
  5   3   6  1   
  6   4   7  ar  
  7   4  17  1   
  8   5   8  ar  
  9   6   9  1   
 10   6  18  1   
 11   7   8  ar  
 12   8  10  1   
 13   9  11  1   
 14   9  19  1   
 15   9  20  1   
 16  10  21  1   
 17  10  22  1   
 18  10  23  1   
 19  11  12  2   
 20  11  13  1   
 21  12  14  1   
 22  13  15  1   
 23  13  24  1   
 24  14  15  2   
 25  15  16  1   
 26  16  25  1   
 27  16  26  1   
 28  16  27  1   
@<TRIPOS>SUBSTRUCTURE
  1 ****   5 GROUP 4 **** **** 0

# MOE 2024.06 (io_trps.svl 2023.06)
