@<TRIPOS>MOLECULE
NONAME
47 50 1 0 0 
SMALL
USER_CHARGES


@<TRIPOS>ATOM
  1 S        3.2550    -1.9380     0.4530 S.3   1 <1>  -0.2860 
  2 C        1.4800    -2.1490     0.3070 C.2   1 <1>   0.2420 
  3 C        3.4650    -0.6450     1.7740 C.3   1 <1>   0.1310 
  4 N        0.6070    -1.3620     0.8220 N.2   1 <1>  -0.3380 
  5 N        0.9460    -3.1420    -0.3830 N.pl3 1 <1>   0.0330 
  6 C        4.0720     0.6310     1.2010 C.2   1 <1>   0.5690 
  7 N       -0.5780    -1.8400     0.4420 N.2   1 <1>  -0.3380 
  8 C       -0.3710    -2.9140    -0.2780 C.2   1 <1>   0.1860 
  9 O        5.2740     0.6980     1.1040 O.2   1 <1>  -0.5700 
 10 N        3.2990     1.6900     0.7970 N.am  1 <1>  -0.6600 
 11 C       -1.3670    -3.7520    -0.8940 C.2   1 <1>   0.1400 
 12 C        3.9490     3.0490     0.6790 C.3   1 <1>   0.2200 
 13 C        1.9160     1.4950     0.2610 C.3   1 <1>   0.1400 
 14 O       -2.6530    -3.4260    -0.8270 O.3   1 <1>  -0.2800 
 15 C       -1.2520    -4.9130    -1.5980 C.2   1 <1>  -0.1500 
 16 C        3.0340     4.2050     1.1150 C.3   1 <1>   0.1200 
 17 C        4.4990     3.2750    -0.7470 C.3   1 <1>   0.3430 
 18 C        1.4800     2.5180    -0.8040 C.3   1 <1>  -0.0800 
 19 C       -3.3550    -4.3400    -1.4630 C.2   1 <1>  -0.0100 
 20 C       -2.5440    -5.2920    -1.9660 C.2   1 <1>  -0.1500 
 21 O        2.2380     4.6360     0.0540 O.3   1 <1>  -0.5600 
 22 N        3.8640     2.3580    -1.7570 N.4   1 <1>  -0.9590 
 23 C        1.1050     3.8740    -0.1910 C.3   1 <1>   0.1200 
 24 C        2.4190     2.6650    -2.0220 C.3   1 <1>   0.3430 
 25 C        4.6640     2.3100    -3.0140 C.3   1 <1>   0.2630 
 26 H        2.5120    -0.4550     2.2300 H     1 <1>   0.0800 
 27 H        4.1290    -1.0640     2.5070 H     1 <1>   0.0800 
 28 H        1.4280    -3.8940    -0.8740 H     1 <1>   0.2700 
 29 H        4.7870     3.0760     1.3550 H     1 <1>   0.0800 
 30 H        1.8710     0.5290    -0.2040 H     1 <1>   0.0800 
 31 H        1.2140     1.4960     1.0800 H     1 <1>   0.0800 
 32 H       -0.3630    -5.4630    -1.8440 H     1 <1>   0.1500 
 33 H        3.6430     5.0460     1.3990 H     1 <1>   0.0800 
 34 H        2.4220     3.9350     1.9590 H     1 <1>   0.0800 
 35 H        5.5590     3.0850    -0.7180 H     1 <1>   0.0800 
 36 H        4.3590     4.3050    -1.0320 H     1 <1>   0.0800 
 37 H        0.5510     2.1400    -1.1940 H     1 <1>   0.0800 
 38 H       -4.4260    -4.2340    -1.5070 H     1 <1>   0.1500 
 39 H       -2.8100    -6.1680    -2.5330 H     1 <1>   0.1500 
 40 H        3.8970     1.4360    -1.2920 H     1 <1>   0.4500 
 41 H        0.5460     3.7620     0.7240 H     1 <1>   0.0800 
 42 H        0.5000     4.4330    -0.8840 H     1 <1>   0.0800 
 43 H        2.3300     3.6670    -2.4110 H     1 <1>   0.0800 
 44 H        2.0680     1.9910    -2.7870 H     1 <1>   0.0800 
 45 H        4.6700     3.2760    -3.4910 H     1 <1>   0.0800 
 46 H        4.2450     1.5880    -3.6970 H     1 <1>   0.0800 
 47 H        5.6810     2.0250    -2.7970 H     1 <1>   0.0800 
@<TRIPOS>BOND
  1   1   2  1   
  2   1   3  1   
  3   2   4  2   
  4   2   5  1   
  5   3   6  1   
  6   3  26  1   
  7   3  27  1   
  8   4   7  1   
  9   5   8  1   
 10   5  28  1   
 11   6   9  2   
 12   6  10  am  
 13   7   8  2   
 14   8  11  1   
 15  10  12  1   
 16  10  13  1   
 17  11  14  1   
 18  11  15  2   
 19  12  16  1   
 20  12  17  1   
 21  12  29  1   
 22  13  18  1   
 23  13  30  1   
 24  13  31  1   
 25  14  19  1   
 26  15  20  1   
 27  15  32  1   
 28  16  21  1   
 29  16  33  1   
 30  16  34  1   
 31  17  22  1   
 32  17  35  1   
 33  17  36  1   
 34  18  23  1   
 35  18  24  1   
 36  18  37  1   
 37  19  20  2   
 38  19  38  1   
 39  20  39  1   
 40  21  23  1   
 41  22  24  1   
 42  22  25  1   
 43  22  40  1   
 44  23  41  1   
 45  23  42  1   
 46  24  43  1   
 47  24  44  1   
 48  25  45  1   
 49  25  46  1   
 50  25  47  1   
@<TRIPOS>SUBSTRUCTURE
  1 ****  13 GROUP 4 **** **** 0

# MOE 2024.06 (io_trps.svl 2023.06)
