@<TRIPOS>MOLECULE
NONAME
53 56 1 0 0 
SMALL
USER_CHARGES


@<TRIPOS>ATOM
  1 CL      -2.7380    -3.4120    -2.1350 Cl    1 <1>  -0.1240 
  2 C       -3.1210    -1.7920    -1.5890 C.2   1 <1>  -0.0280 
  3 N       -2.9430    -0.6940    -2.3450 N.pl3 1 <1>   0.3140 
  4 C       -3.6340    -1.4190    -0.4000 C.2   1 <1>  -0.1810 
  5 N       -3.3520     0.3970    -1.6690 N.2   1 <1>  -0.7070 
  6 C       -2.3940    -0.6100    -3.7060 C.3   1 <1>   0.0160 
  7 C       -3.7540    -0.0360    -0.5120 C.2   1 <1>   0.1080 
  8 C       -4.0070    -2.2780     0.7820 C.3   1 <1>   0.5240 
  9 C       -4.2870     0.9070     0.5550 C.3   1 <1>   0.0210 
 10 N       -4.9020    -3.3560     0.2960 N.4   1 <1>  -0.9590 
 11 C       -3.2390     1.1700     1.6420 C.3   1 <1>  -0.2400 
 12 C       -6.2090    -2.7850    -0.1670 C.3   1 <1>   0.3430 
 13 C       -5.2080    -4.3320     1.3860 C.3   1 <1>   0.3430 
 14 C       -7.2210    -3.1240     0.9320 C.3   1 <1>   0.2000 
 15 C       -6.7350    -4.4800     1.4330 C.3   1 <1>  -0.0800 
 16 O       -7.0670    -2.2020     1.9620 O.3   1 <1>  -0.6800 
 17 C       -7.2660    -5.6390     0.5570 C.3   1 <1>  -0.0170 
 18 C       -6.4740    -6.9190     0.8060 C.ar  1 <1>  -0.1440 
 19 C       -5.3630    -7.3090     0.0160 C.ar  1 <1>   0.0000 
 20 C       -6.8190    -7.7230     1.8520 C.ar  1 <1>  -0.1500 
 21 C       -4.6590    -8.4740     0.4100 C.ar  1 <1>   0.3100 
 22 C       -4.9000    -6.6170    -1.1290 C.ar  1 <1>  -0.1500 
 23 C       -6.0710    -8.8710     2.1370 C.ar  1 <1>   0.1600 
 24 N       -5.0270    -9.2380     1.4670 N.ar  1 <1>  -0.6200 
 25 C       -3.5210    -8.8600    -0.3140 C.ar  1 <1>  -0.1500 
 26 C       -3.7880    -7.0230    -1.8160 C.ar  1 <1>  -0.1500 
 27 C       -3.0840    -8.1550    -1.4010 C.ar  1 <1>  -0.1500 
 28 H       -1.4300    -1.0830    -3.7300 H     1 <1>   0.0800 
 29 H       -2.2940     0.4240    -3.9820 H     1 <1>   0.0800 
 30 H       -3.0610    -1.1020    -4.3890 H     1 <1>   0.0800 
 31 H       -4.5120    -1.6870     1.5300 H     1 <1>   0.0800 
 32 H       -3.1140    -2.6990     1.2140 H     1 <1>   0.0800 
 33 H       -4.5510     1.8400     0.0890 H     1 <1>   0.0800 
 34 H       -5.1790     0.4980     0.9930 H     1 <1>   0.0800 
 35 H       -4.4130    -3.8140    -0.4860 H     1 <1>   0.4500 
 36 H       -2.3550     1.5940     1.1970 H     1 <1>   0.0800 
 37 H       -2.9690     0.2610     2.1470 H     1 <1>   0.0800 
 38 H       -3.6250     1.8670     2.3640 H     1 <1>   0.0800 
 39 H       -6.1590    -1.7210    -0.3340 H     1 <1>   0.0800 
 40 H       -6.5060    -3.2670    -1.0830 H     1 <1>   0.0800 
 41 H       -4.7100    -5.2740     1.2270 H     1 <1>   0.0800 
 42 H       -4.8790    -3.9300     2.3300 H     1 <1>   0.0800 
 43 H       -8.2430    -3.1050     0.5890 H     1 <1>   0.0800 
 44 H       -7.0490    -4.6600     2.4460 H     1 <1>   0.0800 
 45 H       -7.8120    -2.2550     2.6000 H     1 <1>   0.4000 
 46 H       -7.2600    -5.3900    -0.4870 H     1 <1>   0.0800 
 47 H       -8.2970    -5.8160     0.8120 H     1 <1>   0.0800 
 48 H       -7.6590    -7.5050     2.4870 H     1 <1>   0.1500 
 49 H       -5.4280    -5.7590    -1.4900 H     1 <1>   0.1500 
 50 H       -6.3790    -9.4840     2.9690 H     1 <1>   0.1500 
 51 H       -3.0000    -9.7410     0.0170 H     1 <1>   0.1500 
 52 H       -3.4420    -6.4900    -2.6860 H     1 <1>   0.1500 
 53 H       -2.2090    -8.4660    -1.9470 H     1 <1>   0.1500 
@<TRIPOS>BOND
  1   1   2  1   
  2   2   3  1   
  3   2   4  2   
  4   3   5  1   
  5   3   6  1   
  6   4   7  1   
  7   4   8  1   
  8   5   7  2   
  9   6  28  1   
 10   6  29  1   
 11   6  30  1   
 12   7   9  1   
 13   8  10  1   
 14   8  31  1   
 15   8  32  1   
 16   9  11  1   
 17   9  33  1   
 18   9  34  1   
 19  10  12  1   
 20  10  13  1   
 21  10  35  1   
 22  11  36  1   
 23  11  37  1   
 24  11  38  1   
 25  12  14  1   
 26  12  39  1   
 27  12  40  1   
 28  13  15  1   
 29  13  41  1   
 30  13  42  1   
 31  14  15  1   
 32  14  16  1   
 33  14  43  1   
 34  15  17  1   
 35  15  44  1   
 36  16  45  1   
 37  17  18  1   
 38  17  46  1   
 39  17  47  1   
 40  18  19  ar  
 41  18  20  ar  
 42  19  21  ar  
 43  19  22  ar  
 44  20  23  ar  
 45  20  48  1   
 46  21  24  ar  
 47  21  25  ar  
 48  22  26  ar  
 49  22  49  1   
 50  23  24  ar  
 51  23  50  1   
 52  25  27  ar  
 53  25  51  1   
 54  26  27  ar  
 55  26  52  1   
 56  27  53  1   
@<TRIPOS>SUBSTRUCTURE
  1 ****  10 GROUP 4 **** **** 0

# MOE 2024.06 (io_trps.svl 2023.06)
