@<TRIPOS>MOLECULE
NONAME
50 53 1 0 0 
SMALL
USER_CHARGES


@<TRIPOS>ATOM
  1 S       -0.1590     0.6390     0.6360 S.3   1 <1>  -0.0800 
  2 C        0.8740    -0.7680     0.4970 C.2   1 <1>  -0.0450 
  3 C        0.8150     1.4630    -0.5530 C.2   1 <1>   0.1980 
  4 C        1.8350    -0.4660    -0.4070 C.2   1 <1>   0.0460 
  5 C        0.6100    -1.9320     1.3030 C.2   1 <1>   0.7150 
  6 N        1.7890     0.7800    -0.9970 N.2   1 <1>  -0.5650 
  7 C        0.4160     2.8710    -0.9290 C.3   1 <1>  -0.0600 
  8 C        2.9690    -1.3720    -0.8410 C.3   1 <1>  -0.0590 
  9 O        1.5210    -2.4180     1.9510 O.2   1 <1>  -0.5700 
 10 N       -0.6340    -2.5290     1.3480 N.am  1 <1>  -0.6600 
 11 C       -1.6710    -2.3570     0.2930 C.3   1 <1>   0.1400 
 12 C       -0.9750    -3.5670     2.3600 C.3   1 <1>   0.1400 
 13 C       -1.8810    -3.6890    -0.4320 C.3   1 <1>  -0.1600 
 14 C       -1.1790    -4.9140     1.6630 C.3   1 <1>  -0.1600 
 15 C       -2.2310    -4.8320     0.5420 C.3   1 <1>   0.4240 
 16 O       -3.4090    -4.4440     1.2140 O.3   1 <1>  -0.5600 
 17 C       -2.4050    -6.2000    -0.1810 C.ar  1 <1>  -0.1430 
 18 C       -4.6270    -4.6990     0.5950 C.3   1 <1>   0.1200 
 19 C       -1.3540    -6.8210    -0.8680 C.ar  1 <1>   0.0830 
 20 C       -3.6430    -6.8430    -0.1570 C.ar  1 <1>  -0.1430 
 21 C       -4.8230    -6.2060     0.5460 C.3   1 <1>  -0.0170 
 22 O       -0.1460    -6.2010    -0.9250 O.3   1 <1>  -0.3630 
 23 C       -1.5510    -8.0540    -1.4880 C.ar  1 <1>  -0.1500 
 24 C       -3.8260    -8.0690    -0.7740 C.ar  1 <1>  -0.1500 
 25 C        1.0120    -6.8260    -1.4350 C.3   1 <1>   0.0400 
 26 C       -2.7810    -8.6760    -1.4390 C.ar  1 <1>  -0.1500 
 27 H        0.4440     3.5010    -0.0590 H     1 <1>   0.0800 
 28 H       -0.5770     2.8720    -1.3380 H     1 <1>   0.0800 
 29 H        1.0990     3.2560    -1.6630 H     1 <1>   0.0800 
 30 H        2.9130    -2.3240    -0.3450 H     1 <1>   0.0800 
 31 H        3.9080    -0.9100    -0.5990 H     1 <1>   0.0800 
 32 H        2.9200    -1.5270    -1.9020 H     1 <1>   0.0800 
 33 H       -1.3750    -1.6150    -0.4260 H     1 <1>   0.0800 
 34 H       -2.5900    -2.0350     0.7520 H     1 <1>   0.0800 
 35 H       -1.8770    -3.2760     2.8710 H     1 <1>   0.0800 
 36 H       -0.1940    -3.6540     3.0970 H     1 <1>   0.0800 
 37 H       -0.9740    -3.9150    -0.9580 H     1 <1>   0.0800 
 38 H       -2.6500    -3.5890    -1.1730 H     1 <1>   0.0800 
 39 H       -1.4890    -5.6520     2.3790 H     1 <1>   0.0800 
 40 H       -0.2290    -5.2240     1.2790 H     1 <1>   0.0800 
 41 H       -4.6250    -4.2730    -0.3920 H     1 <1>   0.0800 
 42 H       -5.4000    -4.2360     1.1820 H     1 <1>   0.0800 
 43 H       -5.7350    -6.4260     0.0220 H     1 <1>   0.0800 
 44 H       -4.9040    -6.5910     1.5470 H     1 <1>   0.0800 
 45 H       -0.7620    -8.5480    -2.0190 H     1 <1>   0.1500 
 46 H       -4.7850    -8.5570    -0.7400 H     1 <1>   0.1500 
 47 H        1.8410    -6.1580    -1.2890 H     1 <1>   0.0800 
 48 H        0.8740    -7.0130    -2.4850 H     1 <1>   0.0800 
 49 H        1.1800    -7.7410    -0.8950 H     1 <1>   0.0800 
 50 H       -2.9270    -9.6290    -1.9170 H     1 <1>   0.1500 
@<TRIPOS>BOND
  1   1   2  1   
  2   1   3  1   
  3   2   4  2   
  4   2   5  1   
  5   3   6  2   
  6   3   7  1   
  7   4   6  1   
  8   4   8  1   
  9   5   9  2   
 10   5  10  am  
 11   7  27  1   
 12   7  28  1   
 13   7  29  1   
 14   8  30  1   
 15   8  31  1   
 16   8  32  1   
 17  10  11  1   
 18  10  12  1   
 19  11  13  1   
 20  11  33  1   
 21  11  34  1   
 22  12  14  1   
 23  12  35  1   
 24  12  36  1   
 25  13  15  1   
 26  13  37  1   
 27  13  38  1   
 28  14  15  1   
 29  14  39  1   
 30  14  40  1   
 31  15  16  1   
 32  15  17  1   
 33  16  18  1   
 34  17  19  ar  
 35  17  20  ar  
 36  18  21  1   
 37  18  41  1   
 38  18  42  1   
 39  19  22  1   
 40  19  23  ar  
 41  20  21  1   
 42  20  24  ar  
 43  21  43  1   
 44  21  44  1   
 45  22  25  1   
 46  23  26  ar  
 47  23  45  1   
 48  24  26  ar  
 49  24  46  1   
 50  25  47  1   
 51  25  48  1   
 52  25  49  1   
 53  26  50  1   
@<TRIPOS>SUBSTRUCTURE
  1 ****  13 GROUP 4 **** **** 0

# MOE 2024.06 (io_trps.svl 2023.06)
