@<TRIPOS>MOLECULE
NONAME
47 49 1 0 0 
SMALL
USER_CHARGES


@<TRIPOS>ATOM
  1 O       -1.0280    -0.2640     2.1000 O.2   1 <1>  -0.5700 
  2 C       -1.4360     0.3550     1.1440 C.2   1 <1>   0.5690 
  3 N       -2.2600    -0.2470     0.2210 N.am  1 <1>  -0.6600 
  4 C       -0.9440     1.8070     1.0280 C.3   1 <1>  -0.0190 
  5 C       -2.3080    -1.7540     0.2040 C.3   1 <1>   0.3640 
  6 C       -3.2500     0.4960    -0.6180 C.3   1 <1>   0.1400 
  7 C       -2.0250     2.8860     1.2570 C.3   1 <1>  -0.1600 
  8 C       -0.1360     2.0670    -0.2610 C.3   1 <1>  -0.1600 
  9 C       -1.0280    -2.2840    -0.4510 C.ar  1 <1>  -0.1440 
 10 C       -3.5430    -2.4050    -0.4950 C.3   1 <1>   0.2000 
 11 C       -4.0280    -0.3990    -1.5860 C.3   1 <1>   0.1200 
 12 C       -1.4150     4.2940     1.2380 C.3   1 <1>  -0.1600 
 13 C        0.4460     3.4880    -0.2810 C.3   1 <1>  -0.1600 
 14 C       -0.5630    -1.7810    -1.6600 C.ar  1 <1>  -0.1500 
 15 C       -0.3130    -3.2980     0.1700 C.ar  1 <1>  -0.1500 
 16 O       -4.5290    -1.4890    -0.8900 O.3   1 <1>  -0.5600 
 17 C       -4.2360    -3.4430     0.3990 C.3   1 <1>   0.1200 
 18 C       -0.6450     4.5450    -0.0650 C.3   1 <1>  -0.1600 
 19 C        0.5870    -2.2880    -2.2400 C.ar  1 <1>  -0.1500 
 20 C        0.8370    -3.8070    -0.4070 C.ar  1 <1>  -0.1500 
 21 O       -3.3660    -4.4780     0.7290 O.3   1 <1>  -0.6800 
 22 C        1.2870    -3.3030    -1.6140 C.ar  1 <1>  -0.1500 
 23 H       -0.2420     1.9280     1.8350 H     1 <1>   0.0800 
 24 H       -2.3120    -2.0910     1.2270 H     1 <1>   0.0800 
 25 H       -3.9620     0.9680     0.0370 H     1 <1>   0.0800 
 26 H       -2.7590     1.2620    -1.1850 H     1 <1>   0.0800 
 27 H       -2.7780     2.8410     0.4960 H     1 <1>   0.0800 
 28 H       -2.5020     2.7140     2.2070 H     1 <1>   0.0800 
 29 H        0.6670     1.3520    -0.3230 H     1 <1>   0.0800 
 30 H       -0.7530     1.9340    -1.1280 H     1 <1>   0.0800 
 31 H       -3.2180    -2.9040    -1.3900 H     1 <1>   0.0800 
 32 H       -3.4060    -0.7440    -2.3930 H     1 <1>   0.0800 
 33 H       -4.8620     0.1410    -1.9980 H     1 <1>   0.0800 
 34 H       -2.1950     5.0280     1.3440 H     1 <1>   0.0800 
 35 H       -0.7450     4.4050     2.0740 H     1 <1>   0.0800 
 36 H        1.1850     3.5790     0.4970 H     1 <1>   0.0800 
 37 H        0.9390     3.6630    -1.2220 H     1 <1>   0.0800 
 38 H       -1.0900    -0.9860    -2.1540 H     1 <1>   0.1500 
 39 H       -0.6510    -3.6950     1.1130 H     1 <1>   0.1500 
 40 H       -5.0830    -3.8700    -0.1100 H     1 <1>   0.0800 
 41 H       -4.5630    -2.9840     1.3160 H     1 <1>   0.0800 
 42 H       -0.1950     5.5230    -0.0330 H     1 <1>   0.0800 
 43 H       -1.3300     4.5260    -0.8960 H     1 <1>   0.0800 
 44 H        0.9390    -1.8910    -3.1760 H     1 <1>   0.1500 
 45 H        1.3820    -4.5930     0.0870 H     1 <1>   0.1500 
 46 H       -3.0920    -4.9760    -0.0670 H     1 <1>   0.4000 
 47 H        2.1820    -3.6980    -2.0620 H     1 <1>   0.1500 
@<TRIPOS>BOND
  1   1   2  2   
  2   2   3  am  
  3   2   4  1   
  4   3   5  1   
  5   3   6  1   
  6   4   7  1   
  7   4   8  1   
  8   4  23  1   
  9   5   9  1   
 10   5  10  1   
 11   5  24  1   
 12   6  11  1   
 13   6  25  1   
 14   6  26  1   
 15   7  12  1   
 16   7  27  1   
 17   7  28  1   
 18   8  13  1   
 19   8  29  1   
 20   8  30  1   
 21   9  14  ar  
 22   9  15  ar  
 23  10  16  1   
 24  10  17  1   
 25  10  31  1   
 26  11  16  1   
 27  11  32  1   
 28  11  33  1   
 29  12  18  1   
 30  12  34  1   
 31  12  35  1   
 32  13  18  1   
 33  13  36  1   
 34  13  37  1   
 35  14  19  ar  
 36  14  38  1   
 37  15  20  ar  
 38  15  39  1   
 39  17  21  1   
 40  17  40  1   
 41  17  41  1   
 42  18  42  1   
 43  18  43  1   
 44  19  22  ar  
 45  19  44  1   
 46  20  22  ar  
 47  20  45  1   
 48  21  46  1   
 49  22  47  1   
@<TRIPOS>SUBSTRUCTURE
  1 ****   3 GROUP 4 **** **** 0

# MOE 2024.06 (io_trps.svl 2023.06)
