@<TRIPOS>MOLECULE
NONAME
57 59 1 0 0 
SMALL
USER_CHARGES


@<TRIPOS>ATOM
  1 O        1.0890     1.1130     1.0890 O.2   1 <1>  -0.5700 
  2 C        1.8790     0.2620     0.7260 C.2   1 <1>   0.5440 
  3 N        1.4330    -1.0290     0.5290 N.am  1 <1>  -0.6600 
  4 C        3.2670     0.6330     0.5200 C.ar  1 <1>   0.0860 
  5 C       -0.0190    -1.3530     0.4640 C.3   1 <1>   0.1400 
  6 C        2.3240    -2.2220     0.5130 C.3   1 <1>   0.1400 
  7 C        3.9170     0.3820    -0.6880 C.ar  1 <1>  -0.1500 
  8 C        3.9960     1.2640     1.5240 C.ar  1 <1>  -0.1500 
  9 C       -0.3050    -2.1730    -0.7990 C.3   1 <1>  -0.1600 
 10 C        2.0650    -3.0410    -0.7560 C.3   1 <1>  -0.1600 
 11 C        5.2400     0.7350    -0.8820 C.ar  1 <1>  -0.1500 
 12 C        5.3190     1.6200     1.3370 C.ar  1 <1>  -0.1500 
 13 C        0.5830    -3.4230    -0.8830 C.3   1 <1>  -0.1600 
 14 C        5.9500     1.3580     0.1320 C.ar  1 <1>  -0.1430 
 15 C        7.3960     1.7740    -0.0700 C.3   1 <1>   0.2840 
 16 N        7.3980     3.2120    -0.3780 N.am  1 <1>  -0.7300 
 17 C        8.1530     4.1410     0.2560 C.2   1 <1>   0.5690 
 18 O        9.0060     3.8330     1.0520 O.2   1 <1>  -0.5700 
 19 C        7.9020     5.6200    -0.0290 C.3   1 <1>  -0.0190 
 20 C        6.4300     6.0110     0.2170 C.3   1 <1>  -0.1600 
 21 C        8.3590     6.0180    -1.4530 C.3   1 <1>  -0.1600 
 22 C        6.1980     7.5300     0.0780 C.3   1 <1>   0.2000 
 23 C        7.6810     7.2960    -1.9880 C.3   1 <1>  -0.1600 
 24 O        4.9080     7.7260    -0.4480 O.3   1 <1>  -0.5600 
 25 C        7.2350     8.2170    -0.8500 C.3   1 <1>   0.2000 
 26 C        3.8670     7.6160     0.4740 C.3   1 <1>   0.0400 
 27 O        6.6670     9.3430    -1.4100 O.3   1 <1>  -0.6800 
 28 H       -0.2920    -1.9150     1.3400 H     1 <1>   0.0800 
 29 H       -0.6090    -0.4520     0.4470 H     1 <1>   0.0800 
 30 H        3.3600    -1.9360     0.5610 H     1 <1>   0.0800 
 31 H        2.1100    -2.8230     1.3800 H     1 <1>   0.0800 
 32 H        3.3670    -0.0920    -1.4820 H     1 <1>   0.1500 
 33 H        3.5080     1.4780     2.4600 H     1 <1>   0.1500 
 34 H       -1.3410    -2.4630    -0.8050 H     1 <1>   0.0800 
 35 H       -0.1370    -1.5480    -1.6590 H     1 <1>   0.0800 
 36 H        2.3660    -2.4650    -1.6130 H     1 <1>   0.0800 
 37 H        2.6660    -3.9330    -0.7320 H     1 <1>   0.0800 
 38 H        5.7110     0.5280    -1.8280 H     1 <1>   0.1500 
 39 H        5.8580     2.1110     2.1310 H     1 <1>   0.1500 
 40 H        0.4150    -3.9260    -1.8200 H     1 <1>   0.0800 
 41 H        0.3190    -4.1000    -0.0890 H     1 <1>   0.0800 
 42 H        7.8380     1.2310    -0.8870 H     1 <1>   0.0800 
 43 H        7.9680     1.5780     0.8210 H     1 <1>   0.0800 
 44 H        6.6390     3.5120    -0.9910 H     1 <1>   0.3700 
 45 H        8.5010     6.1740     0.6740 H     1 <1>   0.0800 
 46 H        6.1390     5.6990     1.2040 H     1 <1>   0.0800 
 47 H        5.8120     5.4950    -0.4970 H     1 <1>   0.0800 
 48 H        9.4260     6.1620    -1.4340 H     1 <1>   0.0800 
 49 H        8.1620     5.2180    -2.1460 H     1 <1>   0.0800 
 50 H        6.2560     8.0060     1.0430 H     1 <1>   0.0800 
 51 H        6.8120     7.0170    -2.5600 H     1 <1>   0.0800 
 52 H        8.3600     7.8190    -2.6390 H     1 <1>   0.0800 
 53 H        8.0960     8.5290    -0.2840 H     1 <1>   0.0800 
 54 H        2.9420     7.7980    -0.0440 H     1 <1>   0.0800 
 55 H        3.9980     8.3510     1.2490 H     1 <1>   0.0800 
 56 H        3.8550     6.6230     0.8900 H     1 <1>   0.0800 
 57 H        5.7060     9.1450    -1.4890 H     1 <1>   0.4000 
@<TRIPOS>BOND
  1   1   2  2   
  2   2   3  am  
  3   2   4  1   
  4   3   5  1   
  5   3   6  1   
  6   4   7  ar  
  7   4   8  ar  
  8   5   9  1   
  9   5  28  1   
 10   5  29  1   
 11   6  10  1   
 12   6  30  1   
 13   6  31  1   
 14   7  11  ar  
 15   7  32  1   
 16   8  12  ar  
 17   8  33  1   
 18   9  13  1   
 19   9  34  1   
 20   9  35  1   
 21  10  13  1   
 22  10  36  1   
 23  10  37  1   
 24  11  14  ar  
 25  11  38  1   
 26  12  14  ar  
 27  12  39  1   
 28  13  40  1   
 29  13  41  1   
 30  14  15  1   
 31  15  16  1   
 32  15  42  1   
 33  15  43  1   
 34  16  17  am  
 35  16  44  1   
 36  17  18  2   
 37  17  19  1   
 38  19  20  1   
 39  19  21  1   
 40  19  45  1   
 41  20  22  1   
 42  20  46  1   
 43  20  47  1   
 44  21  23  1   
 45  21  48  1   
 46  21  49  1   
 47  22  24  1   
 48  22  25  1   
 49  22  50  1   
 50  23  25  1   
 51  23  51  1   
 52  23  52  1   
 53  24  26  1   
 54  25  27  1   
 55  25  53  1   
 56  26  54  1   
 57  26  55  1   
 58  26  56  1   
 59  27  57  1   
@<TRIPOS>SUBSTRUCTURE
  1 ****  14 GROUP 4 **** **** 0

# MOE 2024.06 (io_trps.svl 2023.06)
