@<TRIPOS>MOLECULE
NONAME
43 45 1 0 0 
SMALL
USER_CHARGES


@<TRIPOS>ATOM
  1 CL      -1.0480    -1.4750    -2.8280 Cl    1 <1>  -0.1240 
  2 C       -2.0560    -1.6760    -1.4200 C.2   1 <1>   0.2640 
  3 O       -2.7870    -2.7590    -1.3190 O.3   1 <1>  -0.2800 
  4 C       -2.2180    -0.8570    -0.3630 C.2   1 <1>  -0.1500 
  5 C       -3.4660    -2.6890    -0.1740 C.2   1 <1>   0.0550 
  6 C       -3.1380    -1.5190     0.4530 C.2   1 <1>  -0.1500 
  7 C       -4.3640    -3.7530     0.2250 C.2   1 <1>   0.7150 
  8 O       -4.0460    -4.9170     0.0540 O.2   1 <1>  -0.5700 
  9 N       -5.5860    -3.4970     0.8240 N.am  1 <1>  -0.6600 
 10 C       -6.3010    -4.5830     1.5570 C.3   1 <1>   0.1400 
 11 C       -6.3520    -2.2460     0.5960 C.3   1 <1>   0.1400 
 12 C       -7.2310    -5.3650     0.6200 C.3   1 <1>   0.1400 
 13 C       -7.5870    -2.4990    -0.2720 C.3   1 <1>  -0.1600 
 14 N       -8.5780    -4.7300     0.4170 N.am  1 <1>  -0.6600 
 15 C       -8.7080    -3.2410     0.4620 C.3   1 <1>   0.1400 
 16 C       -9.7290    -5.4960     0.4100 C.2   1 <1>   0.5440 
 17 O      -10.7780    -4.9770     0.7430 O.2   1 <1>  -0.5700 
 18 C       -9.7290    -6.8940     0.0390 C.ar  1 <1>   0.0860 
 19 C       -9.0430    -7.3500    -1.0840 C.ar  1 <1>   0.1600 
 20 C      -10.4250    -7.8440     0.7760 C.ar  1 <1>  -0.1500 
 21 N       -8.9750    -8.6040    -1.4980 N.ar  1 <1>  -0.6200 
 22 C      -10.3750    -9.1560     0.3620 C.ar  1 <1>  -0.1500 
 23 C       -9.6400    -9.4920    -0.7740 C.ar  1 <1>   0.3930 
 24 O       -9.5500   -10.7560    -1.2280 O.3   1 <1>  -0.3630 
 25 C      -10.2320   -11.8430    -0.6420 C.3   1 <1>   0.0400 
 26 H       -1.7500     0.0920    -0.1750 H     1 <1>   0.1500 
 27 H       -3.4990    -1.1590     1.4010 H     1 <1>   0.1500 
 28 H       -6.8540    -4.1820     2.3880 H     1 <1>   0.0800 
 29 H       -5.5710    -5.2660     1.9570 H     1 <1>   0.0800 
 30 H       -5.7380    -1.5200     0.0930 H     1 <1>   0.0800 
 31 H       -6.6430    -1.8270     1.5450 H     1 <1>   0.0800 
 32 H       -7.3690    -6.3410     1.0520 H     1 <1>   0.0800 
 33 H       -6.7440    -5.4990    -0.3310 H     1 <1>   0.0800 
 34 H       -7.3240    -3.0050    -1.1840 H     1 <1>   0.0800 
 35 H       -7.9760    -1.5350    -0.5480 H     1 <1>   0.0800 
 36 H       -9.6400    -2.9690    -0.0060 H     1 <1>   0.0800 
 37 H       -8.7650    -2.9200     1.4880 H     1 <1>   0.0800 
 38 H       -8.5180    -6.6220    -1.6790 H     1 <1>   0.1500 
 39 H      -10.9880    -7.5460     1.6440 H     1 <1>   0.1500 
 40 H      -10.9050    -9.9010     0.9210 H     1 <1>   0.1500 
 41 H      -10.0040   -12.7240    -1.2140 H     1 <1>   0.0800 
 42 H      -11.2900   -11.6510    -0.6730 H     1 <1>   0.0800 
 43 H       -9.8890   -11.9660     0.3700 H     1 <1>   0.0800 
@<TRIPOS>BOND
  1   1   2  1   
  2   2   3  1   
  3   2   4  2   
  4   3   5  1   
  5   4   6  1   
  6   4  26  1   
  7   5   6  2   
  8   5   7  1   
  9   6  27  1   
 10   7   8  2   
 11   7   9  am  
 12   9  10  1   
 13   9  11  1   
 14  10  12  1   
 15  10  28  1   
 16  10  29  1   
 17  11  13  1   
 18  11  30  1   
 19  11  31  1   
 20  12  14  1   
 21  12  32  1   
 22  12  33  1   
 23  13  15  1   
 24  13  34  1   
 25  13  35  1   
 26  14  15  1   
 27  14  16  am  
 28  15  36  1   
 29  15  37  1   
 30  16  17  2   
 31  16  18  1   
 32  18  19  ar  
 33  18  20  ar  
 34  19  21  ar  
 35  19  38  1   
 36  20  22  ar  
 37  20  39  1   
 38  21  23  ar  
 39  22  23  ar  
 40  22  40  1   
 41  23  24  1   
 42  24  25  1   
 43  25  41  1   
 44  25  42  1   
 45  25  43  1   
@<TRIPOS>SUBSTRUCTURE
  1 ****  12 GROUP 4 **** **** 0

# MOE 2024.06 (io_trps.svl 2023.06)
