@<TRIPOS>MOLECULE
NONAME
46 48 1 0 0 
SMALL
USER_CHARGES


@<TRIPOS>ATOM
  1 F       -3.1440    -0.2390     1.7960 F     1 <1>  -0.1900 
  2 C       -2.6840     0.5680     0.8780 C.ar  1 <1>   0.1900 
  3 C       -2.3970     0.0640    -0.3920 C.ar  1 <1>   0.0860 
  4 C       -2.5120     1.8970     1.2310 C.ar  1 <1>  -0.1500 
  5 C       -2.5810    -1.3270    -0.7370 C.2   1 <1>   0.5440 
  6 C       -1.9000     0.9710    -1.3290 C.ar  1 <1>  -0.1500 
  7 C       -2.0260     2.7830     0.2830 C.ar  1 <1>  -0.1500 
  8 O       -1.6030    -1.9870    -1.0270 O.2   1 <1>  -0.5700 
  9 N       -3.8250    -1.9210    -0.7810 N.am  1 <1>  -0.6600 
 10 C       -1.7300     2.2970    -0.9780 C.ar  1 <1>   0.1900 
 11 C       -5.1270    -1.2150    -0.5770 C.3   1 <1>   0.1400 
 12 C       -3.9950    -3.3960    -0.9580 C.3   1 <1>   0.1400 
 13 F       -1.2710     3.1280    -1.8740 F     1 <1>  -0.1900 
 14 C       -5.9560    -1.9060     0.5220 C.3   1 <1>   0.2950 
 15 C       -4.9060    -3.9830     0.1440 C.3   1 <1>   0.2000 
 16 O       -6.1060    -3.2660     0.2120 O.3   1 <1>  -0.5600 
 17 C       -7.3420    -1.2500     0.6580 C.3   1 <1>  -0.1950 
 18 C       -5.2830    -5.4490    -0.1030 C.3   1 <1>  -0.1600 
 19 C       -8.5250    -1.9780     1.2190 C.3   1 <1>  -0.2000 
 20 C       -8.4900    -1.6050    -0.2370 C.3   1 <1>  -0.2000 
 21 C       -4.0750    -6.3990    -0.0560 C.3   1 <1>  -0.1600 
 22 C       -4.5170    -7.8580    -0.2140 C.3   1 <1>  -0.1600 
 23 C       -3.3150    -8.8060    -0.1700 C.3   1 <1>  -0.2400 
 24 H       -2.7510     2.2280     2.2260 H     1 <1>   0.1500 
 25 H       -1.6470     0.6360    -2.3190 H     1 <1>   0.1500 
 26 H       -1.8770     3.8240     0.5110 H     1 <1>   0.1500 
 27 H       -4.9740    -0.1860    -0.3120 H     1 <1>   0.0800 
 28 H       -5.6850    -1.2370    -1.4960 H     1 <1>   0.0800 
 29 H       -4.4320    -3.5870    -1.9230 H     1 <1>   0.0800 
 30 H       -3.0400    -3.8890    -0.9260 H     1 <1>   0.0800 
 31 H       -5.4430    -1.8340     1.4660 H     1 <1>   0.0800 
 32 H       -4.4140    -3.8990     1.0980 H     1 <1>   0.0800 
 33 H       -7.2540    -0.2150     0.9390 H     1 <1>   0.1000 
 34 H       -5.9850    -5.7450     0.6580 H     1 <1>   0.0800 
 35 H       -5.7700    -5.5320    -1.0580 H     1 <1>   0.0800 
 36 H       -8.4250    -3.0180     1.4800 H     1 <1>   0.1000 
 37 H       -9.1970    -1.4520     1.8740 H     1 <1>   0.1000 
 38 H       -9.1420    -0.8230    -0.5850 H     1 <1>   0.1000 
 39 H       -8.3700    -2.3960    -0.9580 H     1 <1>   0.1000 
 40 H       -3.3850    -6.1570    -0.8460 H     1 <1>   0.0800 
 41 H       -3.5630    -6.2820     0.8840 H     1 <1>   0.0800 
 42 H       -5.2000    -8.1180     0.5770 H     1 <1>   0.0800 
 43 H       -5.0310    -7.9820    -1.1520 H     1 <1>   0.0800 
 44 H       -2.7980    -8.7150     0.7690 H     1 <1>   0.0800 
 45 H       -2.6280    -8.5800    -0.9670 H     1 <1>   0.0800 
 46 H       -3.6440    -9.8240    -0.2810 H     1 <1>   0.0800 
@<TRIPOS>BOND
  1   1   2  1   
  2   2   3  ar  
  3   2   4  ar  
  4   3   5  1   
  5   3   6  ar  
  6   4   7  ar  
  7   4  24  1   
  8   5   8  2   
  9   5   9  am  
 10   6  10  ar  
 11   6  25  1   
 12   7  10  ar  
 13   7  26  1   
 14   9  11  1   
 15   9  12  1   
 16  10  13  1   
 17  11  14  1   
 18  11  27  1   
 19  11  28  1   
 20  12  15  1   
 21  12  29  1   
 22  12  30  1   
 23  14  16  1   
 24  14  17  1   
 25  14  31  1   
 26  15  16  1   
 27  15  18  1   
 28  15  32  1   
 29  17  19  1   
 30  17  20  1   
 31  17  33  1   
 32  18  21  1   
 33  18  34  1   
 34  18  35  1   
 35  19  20  1   
 36  19  36  1   
 37  19  37  1   
 38  20  38  1   
 39  20  39  1   
 40  21  22  1   
 41  21  40  1   
 42  21  41  1   
 43  22  23  1   
 44  22  42  1   
 45  22  43  1   
 46  23  44  1   
 47  23  45  1   
 48  23  46  1   
@<TRIPOS>SUBSTRUCTURE
  1 ****   9 GROUP 4 **** **** 0

# MOE 2024.06 (io_trps.svl 2023.06)
