@<TRIPOS>MOLECULE
NONAME
66 71 1 0 0 
SMALL
USER_CHARGES


@<TRIPOS>ATOM
  1 O       -1.8770    -0.7220     0.1240 O.3   1 <1>  -0.6800 
  2 C       -2.6550    -1.8010     0.5120 C.3   1 <1>   0.2000 
  3 C       -2.7420    -2.8200    -0.6390 C.3   1 <1>   0.2090 
  4 C       -4.0410    -1.2660     0.8830 C.3   1 <1>  -0.1600 
  5 N       -3.6900    -3.9330    -0.2910 N.pl3 1 <1>  -0.8380 
  6 C       -5.0120    -2.4260     1.1640 C.3   1 <1>  -0.1600 
  7 C       -3.3840    -5.2540    -0.3550 C.ar  1 <1>   0.4100 
  8 C       -5.0670    -3.4270     0.0030 C.3   1 <1>   0.2090 
  9 N       -4.3520    -6.0950    -0.6750 N.ar  1 <1>  -0.6200 
 10 C       -2.0800    -5.7140    -0.0900 C.ar  1 <1>  -0.1500 
 11 C       -4.0640    -7.3810    -0.7750 C.ar  1 <1>   0.7710 
 12 C       -1.8070    -7.0350    -0.2000 C.ar  1 <1>   0.2110 
 13 N       -2.8240    -7.8600    -0.5540 N.ar  1 <1>  -0.1790 
 14 N       -5.0690    -8.2320    -1.1170 N.pl3 1 <1>  -0.8380 
 15 C       -5.3150    -9.5870    -0.5170 C.3   1 <1>   0.2090 
 16 C       -6.2480    -7.7390    -1.9190 C.3   1 <1>   0.2090 
 17 C       -6.6420    -9.6180     0.2890 C.3   1 <1>   0.3430 
 18 C       -7.5390    -7.7380    -1.0770 C.3   1 <1>   0.3430 
 19 N       -7.8390    -9.0920    -0.4720 N.4   1 <1>  -0.9590 
 20 C       -9.0950    -9.0810     0.3620 C.3   1 <1>   0.4230 
 21 C       -9.4130   -10.4970     0.9150 C.3   1 <1>  -0.0800 
 22 C      -10.3170    -8.5980    -0.4680 C.3   1 <1>  -0.0800 
 23 C       -9.7020   -11.4830    -0.2420 C.3   1 <1>  -0.1600 
 24 C      -10.6600   -10.4230     1.8190 C.3   1 <1>  -0.1600 
 25 C      -10.6090    -9.5770    -1.6300 C.3   1 <1>  -0.1600 
 26 C      -11.5590    -8.5340     0.4440 C.3   1 <1>  -0.1600 
 27 C      -10.9020   -10.9820    -1.0690 C.3   1 <1>  -0.0800 
 28 C      -11.8710    -9.9280     1.0120 C.3   1 <1>  -0.0800 
 29 C      -12.1360   -10.9010    -0.1520 C.3   1 <1>  -0.1600 
 30 H       -0.9300    -0.9580     0.1040 H     1 <1>   0.4000 
 31 H       -2.1910    -2.2550     1.3710 H     1 <1>   0.0800 
 32 H       -1.7640    -3.2000    -0.8680 H     1 <1>   0.0800 
 33 H       -3.1150    -2.3170    -1.5160 H     1 <1>   0.0800 
 34 H       -4.4240    -0.6760     0.0680 H     1 <1>   0.0800 
 35 H       -3.9640    -0.6390     1.7540 H     1 <1>   0.0800 
 36 H       -5.9970    -2.0300     1.3360 H     1 <1>   0.0800 
 37 H       -4.7080    -2.9450     2.0560 H     1 <1>   0.0800 
 38 H       -5.7250    -4.2350     0.2690 H     1 <1>   0.0800 
 39 H       -5.4630    -2.9470    -0.8760 H     1 <1>   0.0800 
 40 H       -1.3240    -5.0120     0.2050 H     1 <1>   0.1500 
 41 H       -0.8260    -7.4470    -0.0210 H     1 <1>   0.1500 
 42 H       -2.6760    -8.8480    -0.7320 H     1 <1>   0.4570 
 43 H       -4.5120    -9.8630     0.1440 H     1 <1>   0.0800 
 44 H       -5.3630   -10.3230    -1.3030 H     1 <1>   0.0800 
 45 H       -6.3850    -8.3740    -2.7780 H     1 <1>   0.0800 
 46 H       -6.0750    -6.7430    -2.2960 H     1 <1>   0.0800 
 47 H       -6.5080    -9.0300     1.1830 H     1 <1>   0.0800 
 48 H       -6.8240   -10.6340     0.5960 H     1 <1>   0.0800 
 49 H       -8.3530    -7.4300    -1.7120 H     1 <1>   0.0800 
 50 H       -7.4350    -7.0040    -0.2940 H     1 <1>   0.0800 
 51 H       -8.0500    -9.7430    -1.2390 H     1 <1>   0.4500 
 52 H       -8.9620    -8.4100     1.1950 H     1 <1>   0.0800 
 53 H       -8.6100   -10.8670     1.5250 H     1 <1>   0.0800 
 54 H      -10.1620    -7.6060    -0.8490 H     1 <1>   0.0800 
 55 H       -9.9340   -12.4540     0.1630 H     1 <1>   0.0800 
 56 H       -8.8440   -11.6060    -0.8760 H     1 <1>   0.0800 
 57 H      -10.4820    -9.7610     2.6500 H     1 <1>   0.0800 
 58 H      -10.8760   -11.3970     2.2270 H     1 <1>   0.0800 
 59 H       -9.7880    -9.6190    -2.3210 H     1 <1>   0.0800 
 60 H      -11.4670    -9.2320    -2.1830 H     1 <1>   0.0800 
 61 H      -12.4070    -8.1780    -0.1150 H     1 <1>   0.0800 
 62 H      -11.3940    -7.8410     1.2520 H     1 <1>   0.0800 
 63 H      -11.1020   -11.6660    -1.8780 H     1 <1>   0.0800 
 64 H      -12.7400    -9.8790     1.6480 H     1 <1>   0.0800 
 65 H      -12.3680   -11.8790     0.2360 H     1 <1>   0.0800 
 66 H      -12.9910   -10.5700    -0.7160 H     1 <1>   0.0800 
@<TRIPOS>BOND
  1   1   2  1   
  2   1  30  1   
  3   2   3  1   
  4   2   4  1   
  5   2  31  1   
  6   3   5  1   
  7   3  32  1   
  8   3  33  1   
  9   4   6  1   
 10   4  34  1   
 11   4  35  1   
 12   5   7  1   
 13   5   8  1   
 14   6   8  1   
 15   6  36  1   
 16   6  37  1   
 17   7   9  ar  
 18   7  10  ar  
 19   8  38  1   
 20   8  39  1   
 21   9  11  ar  
 22  10  12  ar  
 23  10  40  1   
 24  11  13  ar  
 25  11  14  1   
 26  12  13  ar  
 27  12  41  1   
 28  13  42  1   
 29  14  15  1   
 30  14  16  1   
 31  15  17  1   
 32  15  43  1   
 33  15  44  1   
 34  16  18  1   
 35  16  45  1   
 36  16  46  1   
 37  17  19  1   
 38  17  47  1   
 39  17  48  1   
 40  18  19  1   
 41  18  49  1   
 42  18  50  1   
 43  19  20  1   
 44  19  51  1   
 45  20  21  1   
 46  20  22  1   
 47  20  52  1   
 48  21  23  1   
 49  21  24  1   
 50  21  53  1   
 51  22  25  1   
 52  22  26  1   
 53  22  54  1   
 54  23  27  1   
 55  23  55  1   
 56  23  56  1   
 57  24  28  1   
 58  24  57  1   
 59  24  58  1   
 60  25  27  1   
 61  25  59  1   
 62  25  60  1   
 63  26  28  1   
 64  26  61  1   
 65  26  62  1   
 66  27  29  1   
 67  27  63  1   
 68  28  29  1   
 69  28  64  1   
 70  29  65  1   
 71  29  66  1   
@<TRIPOS>SUBSTRUCTURE
  1 ****  18 GROUP 4 **** **** 0

# MOE 2024.06 (io_trps.svl 2023.06)
