@<TRIPOS>MOLECULE
NONAME
51 53 1 0 0 
SMALL
USER_CHARGES


@<TRIPOS>ATOM
  1 O       -1.7550     1.1090    -3.0350 O.2   1 <1>  -0.5700 
  2 C       -1.9930     1.6050    -1.9580 C.2   1 <1>   0.5690 
  3 N       -2.2830     0.8200    -0.8710 N.am  1 <1>  -0.6600 
  4 C       -1.9910     3.1160    -1.8760 C.3   1 <1>   0.1570 
  5 C       -2.5350     1.2900     0.5180 C.3   1 <1>   0.1400 
  6 C       -2.2590    -0.6600    -0.9270 C.3   1 <1>   0.1400 
  7 N       -0.9630     3.5950    -0.9420 N.pl3 1 <1>   0.3140 
  8 C       -2.9040     0.0260     1.2910 C.3   1 <1>   0.2000 
  9 C       -2.2320    -1.1160     0.5330 C.3   1 <1>  -0.0800 
 10 N       -1.3160     4.2670     0.1700 N.2   1 <1>  -0.7070 
 11 C        0.3820     3.4610    -1.0290 C.2   1 <1>  -0.3320 
 12 O       -2.4460     0.0680     2.5980 O.3   1 <1>  -0.6800 
 13 C       -2.9080    -2.4750     0.7710 C.3   1 <1>   0.0200 
 14 C       -0.2000     4.5450     0.7630 C.2   1 <1>   0.1080 
 15 C        0.9040     4.0680     0.0610 C.2   1 <1>  -0.1810 
 16 C        1.0970     2.7420    -2.1650 C.3   1 <1>  -0.0600 
 17 C       -2.2720    -3.5570    -0.0800 C.2   1 <1>  -0.0400 
 18 C       -0.1580     5.3090     2.0670 C.3   1 <1>  -0.0590 
 19 C        2.3620     4.2140     0.4610 C.3   1 <1>   0.0210 
 20 O       -1.0090    -3.8510     0.0720 O.3   1 <1>  -0.0190 
 21 C       -2.7660    -4.3460    -1.0460 C.2   1 <1>  -0.1500 
 22 C        2.8040     3.0190     1.3070 C.3   1 <1>  -0.2400 
 23 N       -0.6290    -4.7910    -0.7440 N.2   1 <1>  -0.4100 
 24 C       -1.6670    -5.1100    -1.4290 C.2   1 <1>   0.1080 
 25 C       -1.6820    -6.1720    -2.5060 C.3   1 <1>  -0.0590 
 26 H       -2.9510     3.4580    -1.5420 H     1 <1>   0.0800 
 27 H       -1.7920     3.5320    -2.8430 H     1 <1>   0.0800 
 28 H       -1.6330     1.7210     0.9160 H     1 <1>   0.0800 
 29 H       -3.3340     2.0110     0.5420 H     1 <1>   0.0800 
 30 H       -3.1500    -1.0040    -1.4240 H     1 <1>   0.0800 
 31 H       -1.3940    -1.0130    -1.4650 H     1 <1>   0.0800 
 32 H       -3.9750    -0.0900     1.3100 H     1 <1>   0.0800 
 33 H       -1.1980    -1.1770     0.8250 H     1 <1>   0.0800 
 34 H       -1.4820     0.2280     2.6140 H     1 <1>   0.4000 
 35 H       -3.9550    -2.4100     0.5350 H     1 <1>   0.0800 
 36 H       -2.8150    -2.7450     1.8080 H     1 <1>   0.0800 
 37 H        2.1620     2.8290    -2.0630 H     1 <1>   0.0800 
 38 H        0.8120     3.1640    -3.1120 H     1 <1>   0.0800 
 39 H        0.8460     1.6970    -2.1610 H     1 <1>   0.0800 
 40 H        0.5040     4.8230     2.7590 H     1 <1>   0.0800 
 41 H       -1.1420     5.3510     2.4970 H     1 <1>   0.0800 
 42 H        0.1850     6.3100     1.8860 H     1 <1>   0.0800 
 43 H        2.9730     4.2770    -0.4220 H     1 <1>   0.0800 
 44 H        2.4980     5.1260     1.0140 H     1 <1>   0.0800 
 45 H       -3.7580    -4.4040    -1.4540 H     1 <1>   0.1500 
 46 H        2.6840     2.1090     0.7460 H     1 <1>   0.0800 
 47 H        2.2080     2.9540     2.1990 H     1 <1>   0.0800 
 48 H        3.8380     3.1220     1.5840 H     1 <1>   0.0800 
 49 H       -2.4110    -6.9240    -2.2670 H     1 <1>   0.0800 
 50 H       -0.7140    -6.6350    -2.5780 H     1 <1>   0.0800 
 51 H       -1.9260    -5.7270    -3.4530 H     1 <1>   0.0800 
@<TRIPOS>BOND
  1   1   2  2   
  2   2   3  am  
  3   2   4  1   
  4   3   5  1   
  5   3   6  1   
  6   4   7  1   
  7   4  26  1   
  8   4  27  1   
  9   5   8  1   
 10   5  28  1   
 11   5  29  1   
 12   6   9  1   
 13   6  30  1   
 14   6  31  1   
 15   7  10  1   
 16   7  11  1   
 17   8   9  1   
 18   8  12  1   
 19   8  32  1   
 20   9  13  1   
 21   9  33  1   
 22  10  14  2   
 23  11  15  2   
 24  11  16  1   
 25  12  34  1   
 26  13  17  1   
 27  13  35  1   
 28  13  36  1   
 29  14  15  1   
 30  14  18  1   
 31  15  19  1   
 32  16  37  1   
 33  16  38  1   
 34  16  39  1   
 35  17  20  1   
 36  17  21  2   
 37  18  40  1   
 38  18  41  1   
 39  18  42  1   
 40  19  22  1   
 41  19  43  1   
 42  19  44  1   
 43  20  23  1   
 44  21  24  1   
 45  21  45  1   
 46  22  46  1   
 47  22  47  1   
 48  22  48  1   
 49  23  24  2   
 50  24  25  1   
 51  25  49  1   
 52  25  50  1   
 53  25  51  1   
@<TRIPOS>SUBSTRUCTURE
  1 ****   3 GROUP 4 **** **** 0

# MOE 2024.06 (io_trps.svl 2023.06)
