@<TRIPOS>MOLECULE
NONAME
57 59 1 0 0 
SMALL
USER_CHARGES


@<TRIPOS>ATOM
  1 S        0.9720    -0.4860     0.1770 S.o2  1 <1>   1.3330 
  2 O        2.3020    -0.9450    -0.1580 O.2   1 <1>  -0.6500 
  3 O       -0.0900    -0.6120    -0.7940 O.2   1 <1>  -0.6500 
  4 N        0.4660    -1.3270     1.5660 N.am  1 <1>  -0.8490 
  5 C        1.0580     1.2230     0.7340 C.3   1 <1>  -0.0550 
  6 C       -0.9860    -1.2890     1.7750 C.3   1 <1>   0.1160 
  7 C        0.9270    -2.7200     1.5700 C.3   1 <1>   0.1160 
  8 C        2.3140     1.6560     1.5250 C.3   1 <1>  -0.0800 
  9 C        3.5860     1.6840     0.6760 C.3   1 <1>   0.2200 
 10 C        2.7020     0.8060     2.7410 C.3   1 <1>   0.1200 
 11 N        4.0760     3.0750     0.5840 N.am  1 <1>  -0.7300 
 12 C        4.5590     0.8170     1.4720 C.3   1 <1>   0.1200 
 13 O        4.0900     0.8530     2.7810 O.3   1 <1>  -0.5600 
 14 C        3.6440     3.9940    -0.3230 C.2   1 <1>   0.5690 
 15 O        2.7930     3.6880    -1.1280 O.2   1 <1>  -0.5700 
 16 C        4.2630     5.4180    -0.2840 C.3   1 <1>   0.2040 
 17 C        5.8020     5.2550    -0.3190 C.ar  1 <1>  -0.1440 
 18 C        3.7690     6.1260     1.0050 C.3   1 <1>  -0.1600 
 19 C        3.8580     6.3010    -1.5060 C.3   1 <1>  -0.1600 
 20 C        6.6620     5.7920     0.6360 C.ar  1 <1>  -0.1500 
 21 C        6.3620     4.5290    -1.3650 C.ar  1 <1>  -0.1500 
 22 C        2.2370     6.2950     1.0520 C.3   1 <1>  -0.1600 
 23 C        2.6380     7.2220    -1.2880 C.3   1 <1>  -0.1600 
 24 C        8.0300     5.6020     0.5480 C.ar  1 <1>  -0.1500 
 25 C        7.7290     4.3380    -1.4560 C.ar  1 <1>  -0.1500 
 26 C        1.6180     6.6130    -0.3210 C.3   1 <1>  -0.1600 
 27 C        8.5670     4.8750    -0.4980 C.ar  1 <1>  -0.1500 
 28 H        0.9990     1.8570    -0.1310 H     1 <1>   0.0800 
 29 H        0.1920     1.4350     1.3280 H     1 <1>   0.0800 
 30 H       -1.2370    -1.7530     2.7140 H     1 <1>   0.0800 
 31 H       -1.4950    -1.8110     0.9800 H     1 <1>   0.0800 
 32 H       -1.3340    -0.2710     1.7950 H     1 <1>   0.0800 
 33 H        0.5970    -3.2210     2.4640 H     1 <1>   0.0800 
 34 H        2.0040    -2.7520     1.5460 H     1 <1>   0.0800 
 35 H        0.5470    -3.2420     0.7080 H     1 <1>   0.0800 
 36 H        2.1190     2.6480     1.8940 H     1 <1>   0.0800 
 37 H        3.4490     1.2860    -0.3160 H     1 <1>   0.0800 
 38 H        2.4260    -0.2270     2.6380 H     1 <1>   0.0800 
 39 H        2.3100     1.1990     3.6620 H     1 <1>   0.0800 
 40 H        4.8190     3.3240     1.2410 H     1 <1>   0.3700 
 41 H        5.5720     1.1760     1.4370 H     1 <1>   0.0800 
 42 H        4.5180    -0.2040     1.1350 H     1 <1>   0.0800 
 43 H        4.0870     5.5830     1.8780 H     1 <1>   0.0800 
 44 H        4.2110     7.1060     1.0490 H     1 <1>   0.0800 
 45 H        4.6870     6.9330    -1.7740 H     1 <1>   0.0800 
 46 H        3.6750     5.6680    -2.3570 H     1 <1>   0.0800 
 47 H        6.2970     6.3680     1.4660 H     1 <1>   0.1500 
 48 H        5.7300     4.1000    -2.1250 H     1 <1>   0.1500 
 49 H        1.7840     5.3950     1.4310 H     1 <1>   0.0800 
 50 H        2.0020     7.0870     1.7420 H     1 <1>   0.0800 
 51 H        2.9730     8.1630    -0.8850 H     1 <1>   0.0800 
 52 H        2.1690     7.4260    -2.2350 H     1 <1>   0.0800 
 53 H        8.6800     6.0240     1.2950 H     1 <1>   0.1500 
 54 H        8.1400     3.7720    -2.2740 H     1 <1>   0.1500 
 55 H        0.7870     7.2860    -0.1950 H     1 <1>   0.0800 
 56 H        1.2290     5.7090    -0.7570 H     1 <1>   0.0800 
 57 H        9.6300     4.7280    -0.5660 H     1 <1>   0.1500 
@<TRIPOS>BOND
  1   1   2  2   
  2   1   3  2   
  3   1   4  am  
  4   1   5  1   
  5   4   6  1   
  6   4   7  1   
  7   5   8  1   
  8   5  28  1   
  9   5  29  1   
 10   6  30  1   
 11   6  31  1   
 12   6  32  1   
 13   7  33  1   
 14   7  34  1   
 15   7  35  1   
 16   8   9  1   
 17   8  10  1   
 18   8  36  1   
 19   9  11  1   
 20   9  12  1   
 21   9  37  1   
 22  10  13  1   
 23  10  38  1   
 24  10  39  1   
 25  11  14  am  
 26  11  40  1   
 27  12  13  1   
 28  12  41  1   
 29  12  42  1   
 30  14  15  2   
 31  14  16  1   
 32  16  17  1   
 33  16  18  1   
 34  16  19  1   
 35  17  20  ar  
 36  17  21  ar  
 37  18  22  1   
 38  18  43  1   
 39  18  44  1   
 40  19  23  1   
 41  19  45  1   
 42  19  46  1   
 43  20  24  ar  
 44  20  47  1   
 45  21  25  ar  
 46  21  48  1   
 47  22  26  1   
 48  22  49  1   
 49  22  50  1   
 50  23  26  1   
 51  23  51  1   
 52  23  52  1   
 53  24  27  ar  
 54  24  53  1   
 55  25  27  ar  
 56  25  54  1   
 57  26  55  1   
 58  26  56  1   
 59  27  57  1   
@<TRIPOS>SUBSTRUCTURE
  1 ****  11 GROUP 4 **** **** 0

# MOE 2024.06 (io_trps.svl 2023.06)
