@<TRIPOS>MOLECULE
NONAME
49 51 1 0 0 
SMALL
USER_CHARGES


@<TRIPOS>ATOM
  1 F        8.4430     4.5740     4.0810 F     1 <1>  -0.1900 
  2 C        7.6330     4.5280     3.0580 C.ar  1 <1>   0.1900 
  3 C        8.0470     3.8900     1.9050 C.ar  1 <1>  -0.1500 
  4 C        6.3910     5.1220     3.1660 C.ar  1 <1>  -0.1500 
  5 C        7.1820     3.8450     0.8240 C.ar  1 <1>  -0.1500 
  6 C        5.5390     5.0770     2.0750 C.ar  1 <1>  -0.1500 
  7 C        5.9280     4.4390     0.9030 C.ar  1 <1>  -0.1430 
  8 C        4.9670     4.4130    -0.2830 C.3   1 <1>   0.0450 
  9 C        4.9610     5.7420    -1.0300 C.2   1 <1>   0.5690 
 10 O        4.2380     6.6040    -0.5820 O.2   1 <1>  -0.5700 
 11 N        5.7260     5.9690    -2.1540 N.am  1 <1>  -0.6600 
 12 C        6.6520     4.9630    -2.7790 C.3   1 <1>   0.1400 
 13 C        5.7370     7.3290    -2.7670 C.3   1 <1>   0.1400 
 14 C        8.0050     5.5500    -3.2120 C.3   1 <1>   0.1400 
 15 C        6.7680     8.2220    -2.0610 C.3   1 <1>  -0.1600 
 16 N        8.5530     6.4400    -2.1530 N.am  1 <1>  -0.6600 
 17 C        8.2450     7.8870    -2.3270 C.3   1 <1>   0.1400 
 18 C        9.2500     5.9110    -1.0880 C.2   1 <1>   0.6160 
 19 O        9.6280     4.7560    -1.1490 O.2   1 <1>  -0.5700 
 20 C        9.5440     6.6890     0.0950 C.2   1 <1>   0.0140 
 21 C       10.8210     6.9810     0.4900 C.2   1 <1>  -0.1360 
 22 C        8.4790     7.1700     0.9140 C.2   1 <1>  -0.1500 
 23 C       11.0820     7.7580     1.6440 C.2   1 <1>   0.6160 
 24 C        8.7210     7.9140     2.0240 C.2   1 <1>  -0.0290 
 25 O       12.2070     8.0560     2.0140 O.2   1 <1>  -0.5700 
 26 N       10.0180     8.2060     2.3710 N.am  1 <1>  -0.5390 
 27 C        7.6270     8.4430     2.9280 C.3   1 <1>  -0.1020 
 28 H        9.0240     3.4440     1.8510 H     1 <1>   0.1500 
 29 H        6.1030     5.6080     4.0790 H     1 <1>   0.1500 
 30 H        7.5050     3.3490    -0.0750 H     1 <1>   0.1500 
 31 H        4.5710     5.5460     2.1360 H     1 <1>   0.1500 
 32 H        3.9730     4.2410     0.0870 H     1 <1>   0.0800 
 33 H        5.1890     3.5970    -0.9400 H     1 <1>   0.0800 
 34 H        6.1700     4.5250    -3.6340 H     1 <1>   0.0800 
 35 H        6.8680     4.1740    -2.0870 H     1 <1>   0.0800 
 36 H        4.7610     7.7720    -2.6590 H     1 <1>   0.0800 
 37 H        5.9430     7.2650    -3.8210 H     1 <1>   0.0800 
 38 H        7.8910     6.0980    -4.1310 H     1 <1>   0.0800 
 39 H        8.6930     4.7460    -3.4090 H     1 <1>   0.0800 
 40 H        6.5740     8.2100    -1.0040 H     1 <1>   0.0800 
 41 H        6.6040     9.2340    -2.3840 H     1 <1>   0.0800 
 42 H        8.8650     8.4770    -1.6740 H     1 <1>   0.0800 
 43 H        8.4940     8.1680    -3.3360 H     1 <1>   0.0800 
 44 H       11.6740     6.6340    -0.0610 H     1 <1>   0.1500 
 45 H        7.4760     6.9060     0.6260 H     1 <1>   0.1500 
 46 H       10.2590     8.7440     3.2030 H     1 <1>   0.3700 
 47 H        7.6780     9.5160     2.9800 H     1 <1>   0.0800 
 48 H        7.7420     8.0360     3.9160 H     1 <1>   0.0800 
 49 H        6.6600     8.1630     2.5510 H     1 <1>   0.0800 
@<TRIPOS>BOND
  1   1   2  1   
  2   2   3  ar  
  3   2   4  ar  
  4   3   5  ar  
  5   3  28  1   
  6   4   6  ar  
  7   4  29  1   
  8   5   7  ar  
  9   5  30  1   
 10   6   7  ar  
 11   6  31  1   
 12   7   8  1   
 13   8   9  1   
 14   8  32  1   
 15   8  33  1   
 16   9  10  2   
 17   9  11  am  
 18  11  12  1   
 19  11  13  1   
 20  12  14  1   
 21  12  34  1   
 22  12  35  1   
 23  13  15  1   
 24  13  36  1   
 25  13  37  1   
 26  14  16  1   
 27  14  38  1   
 28  14  39  1   
 29  15  17  1   
 30  15  40  1   
 31  15  41  1   
 32  16  17  1   
 33  16  18  am  
 34  17  42  1   
 35  17  43  1   
 36  18  19  2   
 37  18  20  1   
 38  20  21  2   
 39  20  22  1   
 40  21  23  1   
 41  21  44  1   
 42  22  24  2   
 43  22  45  1   
 44  23  25  2   
 45  23  26  am  
 46  24  26  1   
 47  24  27  1   
 48  26  46  1   
 49  27  47  1   
 50  27  48  1   
 51  27  49  1   
@<TRIPOS>SUBSTRUCTURE
  1 ****  22 GROUP 4 **** **** 0

# MOE 2024.06 (io_trps.svl 2023.06)
