@<TRIPOS>MOLECULE
NONAME
45 46 1 0 0 
SMALL
USER_CHARGES


@<TRIPOS>ATOM
  1 O       -1.1110     0.8240    -1.7480 O.2   1 <1>  -0.5700 
  2 C       -1.1380     1.6040    -0.8080 C.2   1 <1>   0.5440 
  3 N       -0.8120     1.1090     0.4500 N.am  1 <1>  -0.6600 
  4 C       -1.5380     2.9950    -1.0570 C.ar  1 <1>   0.3960 
  5 C       -0.2120    -0.2420     0.6350 C.3   1 <1>   0.0600 
  6 C       -1.0480     1.8590     1.7130 C.3   1 <1>   0.0600 
  7 N       -0.9110     4.0070    -0.4290 N.ar  1 <1>  -0.6200 
  8 C       -2.5700     3.2320    -1.9670 C.ar  1 <1>  -0.1500 
  9 C       -1.3160     5.2250    -0.7110 C.ar  1 <1>   0.4100 
 10 C       -2.9950     4.5130    -2.2490 C.ar  1 <1>  -0.1500 
 11 N       -0.6250     6.1970    -0.0520 N.pl3 1 <1>  -0.8690 
 12 C       -2.3450     5.5290    -1.5950 C.ar  1 <1>  -0.1500 
 13 C        0.0550     7.2500    -0.8230 C.3   1 <1>   0.2090 
 14 C        1.4520     7.4520    -0.2430 C.3   1 <1>  -0.1600 
 15 C        2.2180     8.5250    -1.0240 C.3   1 <1>   0.0960 
 16 N        3.5660     8.7130    -0.4490 N.pl3 1 <1>   0.0480 
 17 C        3.9910     9.6110     0.4770 C.2   1 <1>   0.0070 
 18 C        4.6590     7.9910    -0.7580 C.2   1 <1>  -0.3020 
 19 N        5.2510     9.5010     0.7560 N.2   1 <1>  -0.5650 
 20 C        3.0570    10.6400     1.1100 C.3   1 <1>   0.0200 
 21 C        5.6720     8.4850    -0.0170 C.2   1 <1>   0.0770 
 22 C        3.7200    11.4680     2.2180 C.3   1 <1>  -0.2400 
 23 H        0.1270    -0.6440    -0.3040 H     1 <1>   0.0800 
 24 H       -0.9460    -0.9090     1.0520 H     1 <1>   0.0800 
 25 H        0.6310    -0.1780     1.3000 H     1 <1>   0.0800 
 26 H       -1.8580     2.5570     1.5930 H     1 <1>   0.0800 
 27 H       -0.1570     2.3990     1.9820 H     1 <1>   0.0800 
 28 H       -1.3040     1.1780     2.5060 H     1 <1>   0.0800 
 29 H       -3.0370     2.3930    -2.4540 H     1 <1>   0.1500 
 30 H       -3.7940     4.7020    -2.9450 H     1 <1>   0.1500 
 31 H        0.0060     5.7500     0.6190 H     1 <1>   0.4000 
 32 H       -2.6190     6.5540    -1.7510 H     1 <1>   0.1500 
 33 H       -0.5160     8.1610    -0.7540 H     1 <1>   0.0800 
 34 H        0.1230     6.9590    -1.8590 H     1 <1>   0.0800 
 35 H        1.9930     6.5230    -0.2990 H     1 <1>   0.0800 
 36 H        1.3670     7.7520     0.7870 H     1 <1>   0.0800 
 37 H        1.6910     9.4610    -0.9930 H     1 <1>   0.0800 
 38 H        2.3270     8.2290    -2.0520 H     1 <1>   0.0800 
 39 H        4.6600     7.1850    -1.4680 H     1 <1>   0.1500 
 40 H        2.2080    10.1280     1.5260 H     1 <1>   0.0800 
 41 H        2.7070    11.3060     0.3420 H     1 <1>   0.0800 
 42 H        6.6980     8.1570     0.0040 H     1 <1>   0.1500 
 43 H        4.0730    10.8190     3.0000 H     1 <1>   0.0800 
 44 H        3.0190    12.1680     2.6340 H     1 <1>   0.0800 
 45 H        4.5600    12.0090     1.8190 H     1 <1>   0.0800 
@<TRIPOS>BOND
  1   1   2  2   
  2   2   3  am  
  3   2   4  1   
  4   3   5  1   
  5   3   6  1   
  6   4   7  ar  
  7   4   8  ar  
  8   5  23  1   
  9   5  24  1   
 10   5  25  1   
 11   6  26  1   
 12   6  27  1   
 13   6  28  1   
 14   7   9  ar  
 15   8  10  ar  
 16   8  29  1   
 17   9  11  1   
 18   9  12  ar  
 19  10  12  ar  
 20  10  30  1   
 21  11  13  1   
 22  11  31  1   
 23  12  32  1   
 24  13  14  1   
 25  13  33  1   
 26  13  34  1   
 27  14  15  1   
 28  14  35  1   
 29  14  36  1   
 30  15  16  1   
 31  15  37  1   
 32  15  38  1   
 33  16  17  1   
 34  16  18  1   
 35  17  19  2   
 36  17  20  1   
 37  18  21  2   
 38  18  39  1   
 39  19  21  1   
 40  20  22  1   
 41  20  40  1   
 42  20  41  1   
 43  21  42  1   
 44  22  43  1   
 45  22  44  1   
 46  22  45  1   
@<TRIPOS>SUBSTRUCTURE
  1 ****  11 GROUP 4 **** **** 0

# MOE 2024.06 (io_trps.svl 2023.06)
