@<TRIPOS>MOLECULE
NONAME
55 58 1 0 0 
SMALL
USER_CHARGES


@<TRIPOS>ATOM
  1 S        0.5460     0.6680     2.1140 S.3   1 <1>  -0.0800 
  2 C       -0.7550     1.2320     1.0980 C.2   1 <1>  -0.1400 
  3 C        0.3820    -0.9180     1.3980 C.2   1 <1>   0.2280 
  4 C       -1.1880     0.2050     0.3470 C.2   1 <1>   0.0460 
  5 C       -1.1820     2.6830     1.2050 C.3   1 <1>   0.5230 
  6 N       -0.5330    -0.9990     0.5170 N.2   1 <1>  -0.5650 
  7 C       -2.3130     0.1990    -0.6690 C.3   1 <1>  -0.0590 
  8 N       -0.1790     3.5930     0.5790 N.4   1 <1>  -0.9590 
  9 C        0.9570     3.8870     1.5150 C.3   1 <1>   0.3430 
 10 C        0.2670     3.1330    -0.7840 C.3   1 <1>   0.3430 
 11 C        1.7320     5.1600     1.0970 C.3   1 <1>   0.2200 
 12 C        1.1890     4.0990    -1.5700 C.3   1 <1>  -0.0800 
 13 N        0.9390     5.9890     0.1100 N.am  1 <1>  -0.6600 
 14 C        3.1330     4.7870     0.5860 C.3   1 <1>   0.1200 
 15 C        2.6730     3.7070    -1.4670 C.3   1 <1>   0.1200 
 16 C        0.9790     5.6090    -1.3330 C.3   1 <1>   0.1400 
 17 C       -0.0600     6.7870     0.5860 C.2   1 <1>   0.5690 
 18 O        3.0840     3.5990    -0.1470 O.3   1 <1>  -0.5600 
 19 O       -0.6980     6.4310     1.5470 O.2   1 <1>  -0.5700 
 20 C       -0.4240     8.0900    -0.0980 C.3   1 <1>  -0.0990 
 21 C        0.0660     9.2870     0.7230 C.3   1 <1>   0.0200 
 22 C       -0.2530    10.5880     0.0050 C.2   1 <1>  -0.3320 
 23 N       -1.4420    11.2370     0.0400 N.pl3 1 <1>   0.3140 
 24 C        0.5660    11.3240    -0.7770 C.2   1 <1>  -0.1500 
 25 N       -1.4090    12.3560    -0.7010 N.2   1 <1>  -0.7070 
 26 C       -2.6550    10.8610     0.7790 C.3   1 <1>   0.0160 
 27 C       -0.2060    12.4040    -1.1840 C.2   1 <1>   0.1390 
 28 H        1.0490    -1.6900     1.7420 H     1 <1>   0.1500 
 29 H       -1.3290     2.9440     2.2410 H     1 <1>   0.0800 
 30 H       -2.1260     2.7980     0.7000 H     1 <1>   0.0800 
 31 H       -2.7780     1.1620    -0.7490 H     1 <1>   0.0800 
 32 H       -3.0560    -0.5210    -0.3740 H     1 <1>   0.0800 
 33 H       -1.9280    -0.0880    -1.6310 H     1 <1>   0.0800 
 34 H       -0.6190     4.5230     0.4790 H     1 <1>   0.4500 
 35 H        0.5660     4.0530     2.5050 H     1 <1>   0.0800 
 36 H        1.6310     3.0480     1.5670 H     1 <1>   0.0800 
 37 H        0.7740     2.1850    -0.6880 H     1 <1>   0.0800 
 38 H       -0.6120     2.9600    -1.3820 H     1 <1>   0.0800 
 39 H        1.8780     5.7600     1.9790 H     1 <1>   0.0800 
 40 H        0.9540     3.9400    -2.6070 H     1 <1>   0.0800 
 41 H        3.7760     4.5960     1.4280 H     1 <1>   0.0800 
 42 H        3.5740     5.5740    -0.0030 H     1 <1>   0.0800 
 43 H        3.3100     4.4130    -1.9740 H     1 <1>   0.0800 
 44 H        2.8270     2.7410    -1.9190 H     1 <1>   0.0800 
 45 H        0.0500     5.8970    -1.7960 H     1 <1>   0.0800 
 46 H        1.7640     6.1660    -1.8180 H     1 <1>   0.0800 
 47 H        0.0150     8.1420    -1.0760 H     1 <1>   0.0800 
 48 H       -1.4910     8.1390    -0.2080 H     1 <1>   0.0800 
 49 H        1.1320     9.2150     0.8520 H     1 <1>   0.0800 
 50 H       -0.3820     9.2820     1.7020 H     1 <1>   0.0800 
 51 H        1.5910    11.1490    -1.0470 H     1 <1>   0.1500 
 52 H       -3.0360     9.9370     0.3900 H     1 <1>   0.0800 
 53 H       -3.3930    11.6320     0.6560 H     1 <1>   0.0800 
 54 H       -2.4170    10.7560     1.8200 H     1 <1>   0.0800 
 55 H        0.1420    13.1950    -1.8260 H     1 <1>   0.1500 
@<TRIPOS>BOND
  1   1   2  1   
  2   1   3  1   
  3   2   4  2   
  4   2   5  1   
  5   3   6  2   
  6   3  28  1   
  7   4   6  1   
  8   4   7  1   
  9   5   8  1   
 10   5  29  1   
 11   5  30  1   
 12   7  31  1   
 13   7  32  1   
 14   7  33  1   
 15   8   9  1   
 16   8  10  1   
 17   8  34  1   
 18   9  11  1   
 19   9  35  1   
 20   9  36  1   
 21  10  12  1   
 22  10  37  1   
 23  10  38  1   
 24  11  13  1   
 25  11  14  1   
 26  11  39  1   
 27  12  15  1   
 28  12  16  1   
 29  12  40  1   
 30  13  16  1   
 31  13  17  am  
 32  14  18  1   
 33  14  41  1   
 34  14  42  1   
 35  15  18  1   
 36  15  43  1   
 37  15  44  1   
 38  16  45  1   
 39  16  46  1   
 40  17  19  2   
 41  17  20  1   
 42  20  21  1   
 43  20  47  1   
 44  20  48  1   
 45  21  22  1   
 46  21  49  1   
 47  21  50  1   
 48  22  23  1   
 49  22  24  2   
 50  23  25  1   
 51  23  26  1   
 52  24  27  1   
 53  24  51  1   
 54  25  27  2   
 55  26  52  1   
 56  26  53  1   
 57  26  54  1   
 58  27  55  1   
@<TRIPOS>SUBSTRUCTURE
  1 ****  13 GROUP 4 **** **** 0

# MOE 2024.06 (io_trps.svl 2023.06)
