@<TRIPOS>MOLECULE
NONAME
54 56 1 0 0 
SMALL
USER_CHARGES


@<TRIPOS>ATOM
  1 O       -3.0800     2.2330    -1.5610 O.2   1 <1>  -0.5700 
  2 C       -2.8740     1.2760    -0.8390 C.2   1 <1>   0.5440 
  3 N       -3.4370     0.0610    -1.1720 N.am  1 <1>  -0.6600 
  4 C       -2.0420     1.4520     0.3340 C.ar  1 <1>   0.0860 
  5 C       -3.0590    -1.2140    -0.4600 C.3   1 <1>   0.3640 
  6 C       -4.4710    -0.0020    -2.2490 C.3   1 <1>   0.1400 
  7 C       -0.6690     1.6640     0.2010 C.ar  1 <1>  -0.1500 
  8 C       -2.5810     1.4100     1.6200 C.ar  1 <1>  -0.1500 
  9 C       -1.5470    -1.4250    -0.5910 C.ar  1 <1>  -0.1430 
 10 C       -3.7890    -2.5140    -0.9300 C.3   1 <1>   0.2000 
 11 C       -4.6530    -1.4120    -2.8100 C.3   1 <1>   0.1200 
 12 C        0.1480     1.8160     1.3130 C.ar  1 <1>   0.0830 
 13 C       -1.7820     1.5700     2.7370 C.ar  1 <1>  -0.1500 
 14 C       -0.7980    -1.7690     0.5250 C.ar  1 <1>  -0.1500 
 15 C       -0.8970    -1.2680    -1.8090 C.ar  1 <1>  -0.1500 
 16 O       -4.8970    -2.2860    -1.7590 O.3   1 <1>  -0.5600 
 17 C       -4.3060    -3.3540     0.2480 C.3   1 <1>   0.1200 
 18 O        1.4990     1.9960     1.2410 O.3   1 <1>  -0.3630 
 19 C       -0.4240     1.7750     2.5810 C.ar  1 <1>   0.0830 
 20 C        0.5700    -1.9480     0.4300 C.ar  1 <1>   0.0830 
 21 C        0.4730    -1.4410    -1.9120 C.ar  1 <1>  -0.1500 
 22 O       -3.2920    -3.6380     1.1570 O.3   1 <1>  -0.6800 
 23 C        2.1780     1.8320     0.0140 C.3   1 <1>   0.0400 
 24 O        0.3540     1.9380     3.6590 O.3   1 <1>  -0.5330 
 25 O        1.2430    -2.3120     1.5460 O.3   1 <1>  -0.3620 
 26 C        1.2240    -1.7810    -0.7920 C.ar  1 <1>   0.0830 
 27 C        1.8710    -1.2670     2.2490 C.3   1 <1>   0.0400 
 28 O        2.5760    -1.9490    -0.8380 O.3   1 <1>  -0.3630 
 29 C        3.2400    -2.1660    -2.0620 C.3   1 <1>   0.0400 
 30 H       -3.2870    -1.0740     0.5820 H     1 <1>   0.0800 
 31 H       -5.4100     0.3400    -1.8500 H     1 <1>   0.0800 
 32 H       -4.1990     0.6580    -3.0550 H     1 <1>   0.0800 
 33 H       -0.2710     1.6990    -0.7950 H     1 <1>   0.1500 
 34 H       -3.6400     1.2560     1.7380 H     1 <1>   0.1500 
 35 H       -3.1040    -3.1180    -1.4980 H     1 <1>   0.0800 
 36 H       -3.7810    -1.7350    -3.3510 H     1 <1>   0.0800 
 37 H       -5.5030    -1.4400    -3.4690 H     1 <1>   0.0800 
 38 H       -2.2010     1.5390     3.7280 H     1 <1>   0.1500 
 39 H       -1.2660    -1.9000     1.4850 H     1 <1>   0.1500 
 40 H       -1.4590    -0.9960    -2.6860 H     1 <1>   0.1500 
 41 H       -4.7110    -4.2870    -0.1050 H     1 <1>   0.0800 
 42 H       -5.0710    -2.8110     0.7760 H     1 <1>   0.0800 
 43 H        0.9350    -1.3010    -2.8700 H     1 <1>   0.1500 
 44 H       -2.6160    -4.2290     0.7650 H     1 <1>   0.4000 
 45 H        3.2330     1.9320     0.1960 H     1 <1>   0.0800 
 46 H        1.8520     2.5940    -0.6720 H     1 <1>   0.0800 
 47 H        1.9680     0.8510    -0.3750 H     1 <1>   0.0800 
 48 H        1.2720     2.1270     3.3780 H     1 <1>   0.4500 
 49 H        2.4010    -1.6930     3.0810 H     1 <1>   0.0800 
 50 H        1.1180    -0.5860     2.6000 H     1 <1>   0.0800 
 51 H        2.5580    -0.7660     1.5910 H     1 <1>   0.0800 
 52 H        4.2620    -2.4180    -1.8450 H     1 <1>   0.0800 
 53 H        3.2040    -1.2640    -2.6460 H     1 <1>   0.0800 
 54 H        2.7640    -2.9810    -2.5780 H     1 <1>   0.0800 
@<TRIPOS>BOND
  1   1   2  2   
  2   2   3  am  
  3   2   4  1   
  4   3   5  1   
  5   3   6  1   
  6   4   7  ar  
  7   4   8  ar  
  8   5   9  1   
  9   5  10  1   
 10   5  30  1   
 11   6  11  1   
 12   6  31  1   
 13   6  32  1   
 14   7  12  ar  
 15   7  33  1   
 16   8  13  ar  
 17   8  34  1   
 18   9  14  ar  
 19   9  15  ar  
 20  10  16  1   
 21  10  17  1   
 22  10  35  1   
 23  11  16  1   
 24  11  36  1   
 25  11  37  1   
 26  12  18  1   
 27  12  19  ar  
 28  13  19  ar  
 29  13  38  1   
 30  14  20  ar  
 31  14  39  1   
 32  15  21  ar  
 33  15  40  1   
 34  17  22  1   
 35  17  41  1   
 36  17  42  1   
 37  18  23  1   
 38  19  24  1   
 39  20  25  1   
 40  20  26  ar  
 41  21  26  ar  
 42  21  43  1   
 43  22  44  1   
 44  23  45  1   
 45  23  46  1   
 46  23  47  1   
 47  24  48  1   
 48  25  27  1   
 49  26  28  1   
 50  27  49  1   
 51  27  50  1   
 52  27  51  1   
 53  28  29  1   
 54  29  52  1   
 55  29  53  1   
 56  29  54  1   
@<TRIPOS>SUBSTRUCTURE
  1 ****   9 GROUP 4 **** **** 0

# MOE 2024.06 (io_trps.svl 2023.06)
