@<TRIPOS>MOLECULE
NONAME
46 48 1 0 0 
SMALL
USER_CHARGES


@<TRIPOS>ATOM
  1 S        0.9150     1.0170     1.7770 S.3   1 <1>  -0.0800 
  2 C        0.9870     0.7540     0.0550 C.2   1 <1>  -0.1400 
  3 C       -0.8200     1.1840     1.6490 C.2   1 <1>   0.2280 
  4 C       -0.2600     0.8150    -0.4410 C.2   1 <1>   0.0460 
  5 C        2.3460     0.5120    -0.5730 C.3   1 <1>   0.3200 
  6 N       -1.2760     1.0570     0.4680 N.2   1 <1>  -0.5650 
  7 C       -0.6840     0.6430    -1.8850 C.3   1 <1>  -0.0590 
  8 N        2.7480    -0.8920    -0.3180 N.am  1 <1>  -0.6600 
  9 C        2.3360    -1.8950    -1.1600 C.2   1 <1>   0.7160 
 10 C        3.4630    -1.1660     0.9570 C.3   1 <1>   0.2840 
 11 O        1.9940    -1.6140    -2.2930 O.2   1 <1>  -0.5700 
 12 C        2.2760    -3.2580    -0.7110 C.2   1 <1>  -0.0860 
 13 C        4.8130    -1.8160     0.6890 C.ar  1 <1>  -0.1430 
 14 C        1.3520    -3.8090     0.1620 C.2   1 <1>   0.1080 
 15 C        3.0560    -4.3230    -0.9800 C.2   1 <1>  -0.0400 
 16 C        5.1330    -3.0250     1.2890 C.ar  1 <1>  -0.1500 
 17 C        5.7370    -1.2110    -0.1510 C.ar  1 <1>  -0.1500 
 18 N        1.6170    -5.0430     0.3730 N.2   1 <1>  -0.4100 
 19 C        0.1730    -3.0720     0.7790 C.3   1 <1>   0.0210 
 20 O        2.6730    -5.3950    -0.3280 O.3   1 <1>  -0.0190 
 21 C        4.2650    -4.4150    -1.8880 C.3   1 <1>  -0.0600 
 22 C        6.3610    -3.6190     1.0580 C.ar  1 <1>  -0.1500 
 23 C        6.9650    -1.8050    -0.3850 C.ar  1 <1>  -0.1500 
 24 C       -0.9560    -2.8850    -0.2380 C.3   1 <1>  -0.2400 
 25 C        7.2790    -3.0090     0.2210 C.ar  1 <1>  -0.1500 
 26 H       -1.3650     1.3790     2.5560 H     1 <1>   0.1500 
 27 H        3.0740     1.1910    -0.1650 H     1 <1>   0.0800 
 28 H        2.2940     0.6920    -1.6330 H     1 <1>   0.0800 
 29 H        0.1560     0.4040    -2.5110 H     1 <1>   0.0800 
 30 H       -1.1370     1.5510    -2.2380 H     1 <1>   0.0800 
 31 H       -1.4030    -0.1510    -1.9580 H     1 <1>   0.0800 
 32 H        2.8590    -1.8060     1.5760 H     1 <1>   0.0800 
 33 H        3.6230    -0.2490     1.4970 H     1 <1>   0.0800 
 34 H        4.4260    -3.5180     1.9360 H     1 <1>   0.1500 
 35 H        5.5040    -0.2760    -0.6280 H     1 <1>   0.1500 
 36 H        0.4920    -2.1120     1.1400 H     1 <1>   0.0800 
 37 H       -0.1930    -3.6360     1.6190 H     1 <1>   0.0800 
 38 H        4.4890    -3.4540    -2.3150 H     1 <1>   0.0800 
 39 H        4.0720    -5.1130    -2.6810 H     1 <1>   0.0800 
 40 H        5.1180    -4.7500    -1.3270 H     1 <1>   0.0800 
 41 H        6.6010    -4.5570     1.5280 H     1 <1>   0.1500 
 42 H        7.6770    -1.3310    -1.0370 H     1 <1>   0.1500 
 43 H       -0.6020    -2.3430    -1.0960 H     1 <1>   0.0800 
 44 H       -1.7670    -2.3350     0.2050 H     1 <1>   0.0800 
 45 H       -1.3200    -3.8430    -0.5640 H     1 <1>   0.0800 
 46 H        8.2340    -3.4710     0.0410 H     1 <1>   0.1500 
@<TRIPOS>BOND
  1   1   2  1   
  2   1   3  1   
  3   2   4  2   
  4   2   5  1   
  5   3   6  2   
  6   3  26  1   
  7   4   6  1   
  8   4   7  1   
  9   5   8  1   
 10   5  27  1   
 11   5  28  1   
 12   7  29  1   
 13   7  30  1   
 14   7  31  1   
 15   8   9  am  
 16   8  10  1   
 17   9  11  2   
 18   9  12  1   
 19  10  13  1   
 20  10  32  1   
 21  10  33  1   
 22  12  14  1   
 23  12  15  2   
 24  13  16  ar  
 25  13  17  ar  
 26  14  18  2   
 27  14  19  1   
 28  15  20  1   
 29  15  21  1   
 30  16  22  ar  
 31  16  34  1   
 32  17  23  ar  
 33  17  35  1   
 34  18  20  1   
 35  19  24  1   
 36  19  36  1   
 37  19  37  1   
 38  21  38  1   
 39  21  39  1   
 40  21  40  1   
 41  22  25  ar  
 42  22  41  1   
 43  23  25  ar  
 44  23  42  1   
 45  24  43  1   
 46  24  44  1   
 47  24  45  1   
 48  25  46  1   
@<TRIPOS>SUBSTRUCTURE
  1 ****   8 GROUP 4 **** **** 0

# MOE 2024.06 (io_trps.svl 2023.06)
