@<TRIPOS>MOLECULE
NONAME
36 36 1 0 0 
SMALL
USER_CHARGES


@<TRIPOS>ATOM
  1 O       -1.2320    -0.6100     0.5110 O.2   1 <1>  -0.5700 
  2 C       -2.0290     0.3050     0.5300 C.2   1 <1>   0.5690 
  3 N       -3.3170     0.0810     0.9550 N.am  1 <1>  -0.6600 
  4 C       -1.5760     1.7170     0.0730 C.3   1 <1>   0.2610 
  5 C       -3.7060    -1.2450     1.5230 C.3   1 <1>   0.3200 
  6 C       -4.4690     0.9880     0.6690 C.3   1 <1>   0.1400 
  7 O       -2.0250     2.0080    -1.2200 O.3   1 <1>  -0.6800 
  8 C       -0.0470     1.9840     0.1420 C.3   1 <1>  -0.0800 
  9 C       -4.0330    -2.2240     0.4100 C.2   1 <1>   0.0060 
 10 C       -4.7680     1.8780     1.8790 C.3   1 <1>   0.1200 
 11 C        0.2470     3.4940     0.1320 C.3   1 <1>  -0.2400 
 12 C        0.7710     1.3120    -0.9800 C.3   1 <1>  -0.2400 
 13 N       -5.1890    -2.7750     0.2130 N.2   1 <1>  -0.5650 
 14 N       -3.0950    -2.6010    -0.4840 N.pl3 1 <1>   0.0330 
 15 O       -5.7860     2.7640     1.5630 O.3   1 <1>  -0.6800 
 16 C       -4.9910    -3.5530    -0.8700 C.2   1 <1>   0.0770 
 17 C       -3.7170    -3.4600    -1.3100 C.2   1 <1>  -0.3020 
 18 H       -2.0580     2.4200     0.7260 H     1 <1>   0.0800 
 19 H       -2.8990    -1.6390     2.1170 H     1 <1>   0.0800 
 20 H       -4.5640    -1.1340     2.1630 H     1 <1>   0.0800 
 21 H       -4.2540     1.5990    -0.1880 H     1 <1>   0.0800 
 22 H       -5.3390     0.3950     0.4370 H     1 <1>   0.0800 
 23 H       -1.5220     1.4610    -1.8550 H     1 <1>   0.4000 
 24 H        0.3030     1.5960     1.0840 H     1 <1>   0.0800 
 25 H       -3.9040     2.4520     2.1630 H     1 <1>   0.0800 
 26 H       -5.0990     1.2840     2.7130 H     1 <1>   0.0800 
 27 H       -0.0870     3.9390    -0.7890 H     1 <1>   0.0800 
 28 H        1.3030     3.6710     0.2340 H     1 <1>   0.0800 
 29 H       -0.2550     3.9810     0.9490 H     1 <1>   0.0800 
 30 H        0.5300     1.7310    -1.9410 H     1 <1>   0.0800 
 31 H        0.5940     0.2520    -1.0090 H     1 <1>   0.0800 
 32 H        1.8220     1.4620    -0.8050 H     1 <1>   0.0800 
 33 H       -2.1250    -2.2560    -0.4950 H     1 <1>   0.2700 
 34 H       -5.5190     3.3680     0.8410 H     1 <1>   0.4000 
 35 H       -5.7900    -4.1480    -1.2820 H     1 <1>   0.1500 
 36 H       -3.2340    -3.9410    -2.1400 H     1 <1>   0.1500 
@<TRIPOS>BOND
  1   1   2  2   
  2   2   3  am  
  3   2   4  1   
  4   3   5  1   
  5   3   6  1   
  6   4   7  1   
  7   4   8  1   
  8   4  18  1   
  9   5   9  1   
 10   5  19  1   
 11   5  20  1   
 12   6  10  1   
 13   6  21  1   
 14   6  22  1   
 15   7  23  1   
 16   8  11  1   
 17   8  12  1   
 18   8  24  1   
 19   9  13  2   
 20   9  14  1   
 21  10  15  1   
 22  10  25  1   
 23  10  26  1   
 24  11  27  1   
 25  11  28  1   
 26  11  29  1   
 27  12  30  1   
 28  12  31  1   
 29  12  32  1   
 30  13  16  1   
 31  14  17  1   
 32  14  33  1   
 33  15  34  1   
 34  16  17  2   
 35  16  35  1   
 36  17  36  1   
@<TRIPOS>SUBSTRUCTURE
  1 ****   3 GROUP 4 **** **** 0

# MOE 2024.06 (io_trps.svl 2023.06)
