@<TRIPOS>MOLECULE
NONAME
47 48 1 0 0 
SMALL
USER_CHARGES


@<TRIPOS>ATOM
  1 S        0.4510     0.4010     0.3960 S.o2  1 <1>   1.3330 
  2 O        0.4630    -0.9590     0.8890 O.2   1 <1>  -0.6500 
  3 O        0.0240     1.4720     1.2680 O.2   1 <1>  -0.6500 
  4 N       -0.5130     0.4340    -1.0020 N.am  1 <1>  -0.8490 
  5 C        2.0820     0.8060    -0.2210 C.3   1 <1>  -0.0550 
  6 C       -0.4520    -0.8040    -1.7850 C.3   1 <1>   0.1160 
  7 C       -1.9080     0.7710    -0.7070 C.3   1 <1>   0.1160 
  8 C        3.1310     0.9270     0.8970 C.3   1 <1>  -0.0800 
  9 C        4.4930     1.3480     0.3680 C.3   1 <1>   0.2200 
 10 C        3.4450    -0.3680     1.6350 C.3   1 <1>   0.1200 
 11 N        4.6420     2.8110     0.5090 N.am  1 <1>  -0.7300 
 12 C        5.4870     0.5590     1.2230 C.3   1 <1>   0.1200 
 13 O        4.7310    -0.1840     2.1290 O.3   1 <1>  -0.5600 
 14 C        4.3540     3.7100    -0.4750 C.2   1 <1>   0.5440 
 15 O        4.0680     3.2950    -1.5810 O.2   1 <1>  -0.5700 
 16 C        4.3590     5.1260    -0.1710 C.ar  1 <1>   0.0860 
 17 C        5.3240     6.0120    -0.6680 C.ar  1 <1>  -0.1440 
 18 C        3.3700     5.6360     0.6700 C.ar  1 <1>  -0.1500 
 19 C        5.2840     7.3520    -0.3140 C.ar  1 <1>  -0.1500 
 20 C        6.4380     5.5360    -1.5970 C.3   1 <1>  -0.0170 
 21 C        3.3340     6.9730     1.0170 C.ar  1 <1>  -0.1500 
 22 C        4.2960     7.8340     0.5240 C.ar  1 <1>  -0.1500 
 23 C        7.5830     4.9050    -0.8000 C.3   1 <1>  -0.2400 
 24 H        2.3950     0.0640    -0.9280 H     1 <1>   0.0800 
 25 H        2.0260     1.7450    -0.7380 H     1 <1>   0.0800 
 26 H       -1.0090    -0.6910    -2.6990 H     1 <1>   0.0800 
 27 H       -0.8630    -1.6270    -1.2230 H     1 <1>   0.0800 
 28 H        0.5690    -1.0350    -2.0380 H     1 <1>   0.0800 
 29 H       -2.4850     0.8020    -1.6150 H     1 <1>   0.0800 
 30 H       -1.9620     1.7430    -0.2430 H     1 <1>   0.0800 
 31 H       -2.3360     0.0440    -0.0360 H     1 <1>   0.0800 
 32 H        2.7880     1.6370     1.6300 H     1 <1>   0.0800 
 33 H        4.6200     1.0620    -0.6640 H     1 <1>   0.0800 
 34 H        3.4590    -1.2160     0.9710 H     1 <1>   0.0800 
 35 H        2.7710    -0.5530     2.4550 H     1 <1>   0.0800 
 36 H        4.8110     3.1510     1.4570 H     1 <1>   0.3700 
 37 H        6.1560     1.1960     1.7730 H     1 <1>   0.0800 
 38 H        6.0460    -0.1300     0.6160 H     1 <1>   0.0800 
 39 H        2.6150     4.9700     1.0520 H     1 <1>   0.1500 
 40 H        6.0270     8.0340    -0.6920 H     1 <1>   0.1500 
 41 H        6.0530     4.8250    -2.3080 H     1 <1>   0.0800 
 42 H        6.8190     6.3680    -2.1630 H     1 <1>   0.0800 
 43 H        2.5600     7.3430     1.6670 H     1 <1>   0.1500 
 44 H        4.2740     8.8760     0.7900 H     1 <1>   0.1500 
 45 H        7.2370     4.0370    -0.2680 H     1 <1>   0.0800 
 46 H        7.9760     5.6130    -0.0920 H     1 <1>   0.0800 
 47 H        8.3730     4.6070    -1.4660 H     1 <1>   0.0800 
@<TRIPOS>BOND
  1   1   2  2   
  2   1   3  2   
  3   1   4  am  
  4   1   5  1   
  5   4   6  1   
  6   4   7  1   
  7   5   8  1   
  8   5  24  1   
  9   5  25  1   
 10   6  26  1   
 11   6  27  1   
 12   6  28  1   
 13   7  29  1   
 14   7  30  1   
 15   7  31  1   
 16   8   9  1   
 17   8  10  1   
 18   8  32  1   
 19   9  11  1   
 20   9  12  1   
 21   9  33  1   
 22  10  13  1   
 23  10  34  1   
 24  10  35  1   
 25  11  14  am  
 26  11  36  1   
 27  12  13  1   
 28  12  37  1   
 29  12  38  1   
 30  14  15  2   
 31  14  16  1   
 32  16  17  ar  
 33  16  18  ar  
 34  17  19  ar  
 35  17  20  1   
 36  18  21  ar  
 37  18  39  1   
 38  19  22  ar  
 39  19  40  1   
 40  20  23  1   
 41  20  41  1   
 42  20  42  1   
 43  21  22  ar  
 44  21  43  1   
 45  22  44  1   
 46  23  45  1   
 47  23  46  1   
 48  23  47  1   
@<TRIPOS>SUBSTRUCTURE
  1 ****  11 GROUP 4 **** **** 0

# MOE 2024.06 (io_trps.svl 2023.06)
