@<TRIPOS>MOLECULE
NONAME
45 46 1 0 0 
SMALL
USER_CHARGES


@<TRIPOS>ATOM
  1 O       -0.7000    -0.3900    -3.3560 O.2   1 <1>  -0.5700 
  2 C       -1.3690     0.5050    -2.8940 C.2   1 <1>   0.5690 
  3 N       -2.6790     0.3140    -2.5390 N.am  1 <1>  -0.6600 
  4 C       -0.6700     1.8300    -2.6270 C.3   1 <1>   0.0440 
  5 C       -3.0730    -1.0340    -2.0420 C.3   1 <1>   0.3200 
  6 C       -3.6770     1.4290    -2.3740 C.3   1 <1>   0.1400 
  7 C       -0.6070     2.0920    -1.1250 C.ar  1 <1>  -0.1440 
  8 C       -3.4800    -0.9130    -0.5850 C.2   1 <1>  -0.3320 
  9 C       -5.0270     1.1930    -3.0760 C.3   1 <1>   0.1200 
 10 C       -1.2860     3.1530    -0.5480 C.ar  1 <1>  -0.1500 
 11 C        0.1350     1.2440    -0.3170 C.ar  1 <1>  -0.1500 
 12 N       -2.7710    -0.2360     0.3410 N.pl3 1 <1>   0.0330 
 13 C       -4.5660    -1.4030     0.0510 C.2   1 <1>   0.0770 
 14 O       -5.7670     0.1920    -2.4600 O.3   1 <1>  -0.6800 
 15 C       -1.2250     3.3600     0.8190 C.ar  1 <1>  -0.1500 
 16 C        0.1960     1.4520     1.0490 C.ar  1 <1>  -0.1500 
 17 C       -3.4870    -0.3470     1.4800 C.2   1 <1>   0.0070 
 18 N       -4.5710    -1.0390     1.3460 N.2   1 <1>  -0.5650 
 19 C       -0.4820     2.5130     1.6260 C.ar  1 <1>  -0.1430 
 20 C       -3.0540     0.2910     2.7790 C.3   1 <1>  -0.0600 
 21 C       -0.3980     2.7570     3.1240 C.3   1 <1>  -0.0170 
 22 C        0.7720     3.6890     3.4490 C.3   1 <1>  -0.2400 
 23 H       -1.1650     2.6260    -3.1480 H     1 <1>   0.0800 
 24 H        0.3320     1.7750    -3.0110 H     1 <1>   0.0800 
 25 H       -2.2480    -1.7220    -2.1150 H     1 <1>   0.0800 
 26 H       -3.8760    -1.4280    -2.6380 H     1 <1>   0.0800 
 27 H       -3.2700     2.3290    -2.7930 H     1 <1>   0.0800 
 28 H       -3.8460     1.6200    -1.3280 H     1 <1>   0.0800 
 29 H       -4.8790     0.9210    -4.1070 H     1 <1>   0.0800 
 30 H       -5.6160     2.0930    -3.0370 H     1 <1>   0.0800 
 31 H       -1.8620     3.8290    -1.1550 H     1 <1>   0.1500 
 32 H        0.6720     0.4170    -0.7530 H     1 <1>   0.1500 
 33 H       -1.8980     0.2890     0.2030 H     1 <1>   0.2700 
 34 H       -5.3610    -2.0030    -0.3620 H     1 <1>   0.1500 
 35 H       -5.6540     0.2260    -1.4860 H     1 <1>   0.4000 
 36 H       -1.7520     4.1920     1.2540 H     1 <1>   0.1500 
 37 H        0.7850     0.7900     1.6610 H     1 <1>   0.1500 
 38 H       -3.0760     1.3610     2.6840 H     1 <1>   0.0800 
 39 H       -2.0590    -0.0270     3.0320 H     1 <1>   0.0800 
 40 H       -3.7230    -0.0010     3.5690 H     1 <1>   0.0800 
 41 H       -0.2640     1.8230     3.6400 H     1 <1>   0.0800 
 42 H       -1.3150     3.1980     3.4750 H     1 <1>   0.0800 
 43 H        1.6970     3.2520     3.1170 H     1 <1>   0.0800 
 44 H        0.8290     3.8580     4.5090 H     1 <1>   0.0800 
 45 H        0.6420     4.6350     2.9530 H     1 <1>   0.0800 
@<TRIPOS>BOND
  1   1   2  2   
  2   2   3  am  
  3   2   4  1   
  4   3   5  1   
  5   3   6  1   
  6   4   7  1   
  7   4  23  1   
  8   4  24  1   
  9   5   8  1   
 10   5  25  1   
 11   5  26  1   
 12   6   9  1   
 13   6  27  1   
 14   6  28  1   
 15   7  10  ar  
 16   7  11  ar  
 17   8  12  1   
 18   8  13  2   
 19   9  14  1   
 20   9  29  1   
 21   9  30  1   
 22  10  15  ar  
 23  10  31  1   
 24  11  16  ar  
 25  11  32  1   
 26  12  17  1   
 27  12  33  1   
 28  13  18  1   
 29  13  34  1   
 30  14  35  1   
 31  15  19  ar  
 32  15  36  1   
 33  16  19  ar  
 34  16  37  1   
 35  17  18  2   
 36  17  20  1   
 37  19  21  1   
 38  20  38  1   
 39  20  39  1   
 40  20  40  1   
 41  21  22  1   
 42  21  41  1   
 43  21  42  1   
 44  22  43  1   
 45  22  44  1   
 46  22  45  1   
@<TRIPOS>SUBSTRUCTURE
  1 ****  12 GROUP 4 **** **** 0

# MOE 2024.06 (io_trps.svl 2023.06)
