@<TRIPOS>MOLECULE
NONAME
50 52 1 0 0 
SMALL
USER_CHARGES


@<TRIPOS>ATOM
  1 CL      -1.0400     0.1750     0.8940 Cl    1 <1>  -0.1770 
  2 C       -0.7010    -1.4210     0.2500 C.ar  1 <1>   0.1770 
  3 C       -1.7540    -2.2220    -0.1910 C.ar  1 <1>   0.1170 
  4 C        0.6140    -1.8330     0.1920 C.ar  1 <1>  -0.1500 
  5 N       -3.0690    -1.7320    -0.0950 N.am  1 <1>  -0.5470 
  6 C       -1.4410    -3.4730    -0.7360 C.ar  1 <1>  -0.1430 
  7 C        0.9080    -3.0800    -0.3290 C.ar  1 <1>  -0.1500 
  8 C       -4.1400    -2.2710     0.5570 C.2   1 <1>   0.6900 
  9 C       -0.1180    -3.8880    -0.7900 C.ar  1 <1>  -0.1500 
 10 C       -2.5110    -4.4090    -1.2860 C.3   1 <1>  -0.0960 
 11 O       -4.0270    -3.3070     1.1850 O.2   1 <1>  -0.5700 
 12 N       -5.3370    -1.6020     0.5190 N.am  1 <1>  -0.6600 
 13 C       -5.6290    -0.5080    -0.4540 C.3   1 <1>   0.1400 
 14 C       -6.4560    -2.0190     1.4130 C.3   1 <1>   0.1400 
 15 C       -7.1290    -0.4360    -0.7430 C.3   1 <1>  -0.1600 
 16 C       -7.3190    -0.8080     1.7750 C.3   1 <1>  -0.1600 
 17 C       -7.9400    -0.1210     0.5340 C.3   1 <1>   0.2800 
 18 O       -7.7660     1.2660     0.7400 O.3   1 <1>  -0.5600 
 19 C       -9.4510    -0.4950     0.3960 C.3   1 <1>   0.2000 
 20 C       -8.8830     2.1100     0.7680 C.3   1 <1>   0.1200 
 21 O       -9.6410    -1.8450     0.0790 O.3   1 <1>  -0.6800 
 22 C      -10.2470     0.4410    -0.5630 C.3   1 <1>   0.2800 
 23 C       -9.7120     1.8820    -0.4980 C.3   1 <1>  -0.1600 
 24 O      -11.5510     0.4630    -0.1020 O.3   1 <1>  -0.6800 
 25 C      -10.3480    -0.0340    -2.0200 C.3   1 <1>  -0.2400 
 26 H        1.3960    -1.1880     0.5500 H     1 <1>   0.1500 
 27 H       -3.1540    -0.7240    -0.1770 H     1 <1>   0.3700 
 28 H        1.9280    -3.4210    -0.3780 H     1 <1>   0.1500 
 29 H        0.1240    -4.8550    -1.1970 H     1 <1>   0.1500 
 30 H       -2.0950    -5.0790    -2.0160 H     1 <1>   0.0800 
 31 H       -3.3000    -3.8520    -1.7560 H     1 <1>   0.0800 
 32 H       -2.9290    -4.9920    -0.4860 H     1 <1>   0.0800 
 33 H       -5.2990     0.4310    -0.0400 H     1 <1>   0.0800 
 34 H       -5.1010    -0.6870    -1.3750 H     1 <1>   0.0800 
 35 H       -7.0530    -2.7620     0.9110 H     1 <1>   0.0800 
 36 H       -6.0600    -2.4600     2.3130 H     1 <1>   0.0800 
 37 H       -7.4310    -1.3810    -1.1580 H     1 <1>   0.0800 
 38 H       -7.3100     0.3160    -1.4860 H     1 <1>   0.0800 
 39 H       -6.6950    -0.1130     2.3100 H     1 <1>   0.0800 
 40 H       -8.0890    -1.1320     2.4510 H     1 <1>   0.0800 
 41 H       -9.8790    -0.3700     1.3750 H     1 <1>   0.0800 
 42 H       -9.4520     1.9070     1.6590 H     1 <1>   0.0800 
 43 H       -8.5230     3.1230     0.8080 H     1 <1>   0.0800 
 44 H      -10.6040    -2.0140     0.0320 H     1 <1>   0.4000 
 45 H       -9.0670     2.0770    -1.3370 H     1 <1>   0.0800 
 46 H      -10.5160     2.5940    -0.5420 H     1 <1>   0.0800 
 47 H      -12.1080     0.9740    -0.7190 H     1 <1>   0.4000 
 48 H       -9.3700    -0.1460    -2.4480 H     1 <1>   0.0800 
 49 H      -10.8890     0.6790    -2.6160 H     1 <1>   0.0800 
 50 H      -10.8430    -0.9860    -2.0800 H     1 <1>   0.0800 
@<TRIPOS>BOND
  1   1   2  1   
  2   2   3  ar  
  3   2   4  ar  
  4   3   5  1   
  5   3   6  ar  
  6   4   7  ar  
  7   4  26  1   
  8   5   8  am  
  9   5  27  1   
 10   6   9  ar  
 11   6  10  1   
 12   7   9  ar  
 13   7  28  1   
 14   8  11  2   
 15   8  12  am  
 16   9  29  1   
 17  10  30  1   
 18  10  31  1   
 19  10  32  1   
 20  12  13  1   
 21  12  14  1   
 22  13  15  1   
 23  13  33  1   
 24  13  34  1   
 25  14  16  1   
 26  14  35  1   
 27  14  36  1   
 28  15  17  1   
 29  15  37  1   
 30  15  38  1   
 31  16  17  1   
 32  16  39  1   
 33  16  40  1   
 34  17  18  1   
 35  17  19  1   
 36  18  20  1   
 37  19  21  1   
 38  19  22  1   
 39  19  41  1   
 40  20  23  1   
 41  20  42  1   
 42  20  43  1   
 43  21  44  1   
 44  22  23  1   
 45  22  24  1   
 46  22  25  1   
 47  23  45  1   
 48  23  46  1   
 49  24  47  1   
 50  25  48  1   
 51  25  49  1   
 52  25  50  1   
@<TRIPOS>SUBSTRUCTURE
  1 ****  12 GROUP 4 **** **** 0

# MOE 2024.06 (io_trps.svl 2023.06)
