@<TRIPOS>MOLECULE
NONAME
54 57 1 0 0 
SMALL
USER_CHARGES


@<TRIPOS>ATOM
  1 O       -0.4500     0.0330     1.1570 O.3   1 <1>  -0.5600 
  2 C        0.1060     0.3140    -0.0850 C.3   1 <1>   0.1200 
  3 C       -1.8140     0.3290     1.1380 C.3   1 <1>   0.1200 
  4 C       -0.6210     1.5760    -0.5360 C.3   1 <1>   0.2890 
  5 C       -2.0400     1.2510    -0.0700 C.3   1 <1>  -0.0800 
  6 N       -0.0620     2.7240     0.2340 N.pl3 1 <1>  -0.8690 
  7 C       -2.9610     2.4510     0.2330 C.3   1 <1>  -0.0170 
  8 C        0.4880     3.9080    -0.1330 C.ar  1 <1>   0.4610 
  9 C       -4.3590     1.9820     0.6240 C.ar  1 <1>  -0.1440 
 10 N        0.5040     4.3010    -1.4170 N.ar  1 <1>  -0.1790 
 11 C        1.0580     4.7690     0.7740 C.ar  1 <1>  -0.1500 
 12 C       -5.3040     1.5260    -0.3270 C.ar  1 <1>   0.0000 
 13 C       -4.7380     1.9840     1.9350 C.ar  1 <1>  -0.1500 
 14 C        1.0540     5.4730    -1.7910 C.ar  1 <1>   0.7710 
 15 C        1.6020     5.9550     0.3270 C.ar  1 <1>   0.3930 
 16 C       -6.5600     1.0820     0.1550 C.ar  1 <1>   0.3100 
 17 C       -5.0820     1.4870    -1.7240 C.ar  1 <1>  -0.1500 
 18 C       -6.0100     1.5330     2.3040 C.ar  1 <1>   0.1600 
 19 N        1.6040     6.3150    -0.9550 N.ar  1 <1>  -0.6200 
 20 N        1.0540     5.8270    -3.0770 N.pl3 1 <1>  -0.9000 
 21 O        2.1440     6.7600     1.2370 O.3   1 <1>  -0.3630 
 22 N       -6.8950     1.0920     1.4690 N.ar  1 <1>  -0.6200 
 23 C       -7.5120     0.6090    -0.7620 C.ar  1 <1>  -0.1500 
 24 C       -6.0330     1.0220    -2.5910 C.ar  1 <1>  -0.1500 
 25 C        2.7830     7.9870     0.9530 C.3   1 <1>   0.2000 
 26 C       -7.2630     0.5740    -2.1060 C.ar  1 <1>  -0.1500 
 27 C        4.2340     7.7050     0.5620 C.3   1 <1>  -0.2400 
 28 C        2.7050     8.8400     2.2170 C.3   1 <1>  -0.2400 
 29 H        1.1690     0.4490     0.0160 H     1 <1>   0.0800 
 30 H       -0.1020    -0.5160    -0.7390 H     1 <1>   0.0800 
 31 H       -2.3680    -0.5900     1.0450 H     1 <1>   0.0800 
 32 H       -2.0600     0.8050     2.0720 H     1 <1>   0.0800 
 33 H       -0.5520     1.7260    -1.5990 H     1 <1>   0.0800 
 34 H       -2.5050     0.6500    -0.8310 H     1 <1>   0.0800 
 35 H        0.0060     2.4440     1.2270 H     1 <1>   0.4000 
 36 H       -3.0240     3.1040    -0.6180 H     1 <1>   0.0800 
 37 H       -2.5510     3.0310     1.0420 H     1 <1>   0.0800 
 38 H        0.0920     3.7180    -2.1260 H     1 <1>   0.4570 
 39 H        1.0870     4.5330     1.8210 H     1 <1>   0.1500 
 40 H       -4.0820     2.3230     2.7160 H     1 <1>   0.1500 
 41 H       -4.1490     1.8320    -2.1220 H     1 <1>   0.1500 
 42 H       -6.2680     1.5510     3.3500 H     1 <1>   0.1500 
 43 H        0.6940     5.3220    -3.8870 H     1 <1>   0.4000 
 44 H        1.4830     6.7290    -3.3140 H     1 <1>   0.4000 
 45 H       -8.4530     0.2730    -0.3660 H     1 <1>   0.1500 
 46 H       -5.8530     0.9950    -3.6530 H     1 <1>   0.1500 
 47 H        2.2570     8.4830     0.1530 H     1 <1>   0.0800 
 48 H       -8.0040     0.2080    -2.7970 H     1 <1>   0.1500 
 49 H        4.7440     7.1870     1.3550 H     1 <1>   0.0800 
 50 H        4.7480     8.6300     0.3750 H     1 <1>   0.0800 
 51 H        4.2730     7.1140    -0.3340 H     1 <1>   0.0800 
 52 H        3.2030     8.3500     3.0340 H     1 <1>   0.0800 
 53 H        1.6780     9.0170     2.4790 H     1 <1>   0.0800 
 54 H        3.1790     9.7900     2.0480 H     1 <1>   0.0800 
@<TRIPOS>BOND
  1   1   2  1   
  2   1   3  1   
  3   2   4  1   
  4   2  29  1   
  5   2  30  1   
  6   3   5  1   
  7   3  31  1   
  8   3  32  1   
  9   4   5  1   
 10   4   6  1   
 11   4  33  1   
 12   5   7  1   
 13   5  34  1   
 14   6   8  1   
 15   6  35  1   
 16   7   9  1   
 17   7  36  1   
 18   7  37  1   
 19   8  10  ar  
 20   8  11  ar  
 21   9  12  ar  
 22   9  13  ar  
 23  10  14  ar  
 24  10  38  1   
 25  11  15  ar  
 26  11  39  1   
 27  12  16  ar  
 28  12  17  ar  
 29  13  18  ar  
 30  13  40  1   
 31  14  19  ar  
 32  14  20  1   
 33  15  19  ar  
 34  15  21  1   
 35  16  22  ar  
 36  16  23  ar  
 37  17  24  ar  
 38  17  41  1   
 39  18  22  ar  
 40  18  42  1   
 41  20  43  1   
 42  20  44  1   
 43  21  25  1   
 44  23  26  ar  
 45  23  45  1   
 46  24  26  ar  
 47  24  46  1   
 48  25  27  1   
 49  25  28  1   
 50  25  47  1   
 51  26  48  1   
 52  27  49  1   
 53  27  50  1   
 54  27  51  1   
 55  28  52  1   
 56  28  53  1   
 57  28  54  1   
@<TRIPOS>SUBSTRUCTURE
  1 ****   7 GROUP 4 **** **** 0

# MOE 2024.06 (io_trps.svl 2023.06)
