@<TRIPOS>MOLECULE
NONAME
53 56 1 0 0 
SMALL
USER_CHARGES


@<TRIPOS>ATOM
  1 O        1.9440     0.0150     2.0800 O.2   1 <1>  -0.5700 
  2 C        2.1150    -1.0510     1.5070 C.2   1 <1>   0.4690 
  3 C        2.8770    -1.2050     0.2820 C.ar  1 <1>   0.0860 
  4 C        1.5050    -2.1920     2.0850 C.2   1 <1>  -0.1360 
  5 C        2.9750    -2.5080    -0.2580 C.ar  1 <1>   0.1000 
  6 C        3.5180    -0.1540    -0.4090 C.ar  1 <1>  -0.1440 
  7 C        1.6250    -3.4270     1.5470 C.2   1 <1>  -0.0380 
  8 N        2.3750    -3.5830     0.3990 N.pl3 1 <1>  -0.6000 
  9 C        3.6680    -2.7370    -1.4540 C.ar  1 <1>  -0.1430 
 10 C        4.2020    -0.4060    -1.5800 C.ar  1 <1>  -0.1500 
 11 C        3.4950     1.2910     0.0810 C.3   1 <1>  -0.0970 
 12 C        0.9290    -4.6370     2.1610 C.3   1 <1>   0.4810 
 13 C        4.2750    -1.6860    -2.1010 C.ar  1 <1>  -0.1500 
 14 C        3.7730    -4.1260    -2.0720 C.3   1 <1>  -0.0970 
 15 N        0.1530    -5.2880     1.0830 N.4   1 <1>  -0.9590 
 16 C       -0.9670    -4.5000     0.4800 C.3   1 <1>   0.3430 
 17 C       -0.3510    -6.6530     1.3030 C.3   1 <1>   0.3430 
 18 C       -1.9380    -5.5580    -0.0800 C.3   1 <1>   0.2000 
 19 C       -1.1740    -6.8830     0.0350 C.3   1 <1>  -0.0800 
 20 O       -3.0780    -5.6220     0.7130 O.3   1 <1>  -0.6800 
 21 C       -0.2940    -7.1000    -1.2320 C.3   1 <1>  -0.0170 
 22 C        1.1040    -7.6420    -0.9490 C.ar  1 <1>   0.1670 
 23 N        2.0190    -6.7620    -0.5440 N.ar  1 <1>  -0.6200 
 24 C        1.3460    -8.9960    -1.1180 C.ar  1 <1>  -0.1500 
 25 C        3.2230    -7.2720    -0.3060 C.ar  1 <1>   0.1600 
 26 C        2.6000    -9.5030    -0.8610 C.ar  1 <1>  -0.1500 
 27 C        3.5580    -8.6070    -0.4440 C.ar  1 <1>  -0.1500 
 28 H        0.9390    -2.0030     2.9780 H     1 <1>   0.1500 
 29 H        2.5660    -4.5080    -0.0140 H     1 <1>   0.4000 
 30 H        4.6920     0.3910    -2.1120 H     1 <1>   0.1500 
 31 H        4.0500     1.9400    -0.5730 H     1 <1>   0.0800 
 32 H        3.9310     1.3550     1.0620 H     1 <1>   0.0800 
 33 H        2.4830     1.6510     0.1260 H     1 <1>   0.0800 
 34 H        0.2810    -4.3340     2.9670 H     1 <1>   0.0800 
 35 H        1.6720    -5.3180     2.5440 H     1 <1>   0.0800 
 36 H        4.8170    -1.8390    -3.0190 H     1 <1>   0.1500 
 37 H        4.2370    -4.0800    -3.0410 H     1 <1>   0.0800 
 38 H        2.7970    -4.5580    -2.1970 H     1 <1>   0.0800 
 39 H        4.3730    -4.7600    -1.4470 H     1 <1>   0.0800 
 40 H        0.8500    -5.4230     0.3260 H     1 <1>   0.4500 
 41 H       -1.4670    -3.8930     1.2170 H     1 <1>   0.0800 
 42 H       -0.5890    -3.8700    -0.3090 H     1 <1>   0.0800 
 43 H        0.4510    -7.3680     1.4060 H     1 <1>   0.0800 
 44 H       -0.9820    -6.6870     2.1760 H     1 <1>   0.0800 
 45 H       -2.2560    -5.3280    -1.0840 H     1 <1>   0.0800 
 46 H       -1.8360    -7.7240     0.1550 H     1 <1>   0.0800 
 47 H       -2.9070    -5.9080     1.6300 H     1 <1>   0.4000 
 48 H       -0.1680    -6.1780    -1.7730 H     1 <1>   0.0800 
 49 H       -0.8100    -7.7670    -1.9000 H     1 <1>   0.0800 
 50 H        0.5660    -9.6590    -1.4510 H     1 <1>   0.1500 
 51 H        3.9970    -6.5970     0.0200 H     1 <1>   0.1500 
 52 H        2.8230   -10.5510    -0.9840 H     1 <1>   0.1500 
 53 H        4.5590    -8.9420    -0.2320 H     1 <1>   0.1500 
@<TRIPOS>BOND
  1   1   2  2   
  2   2   3  1   
  3   2   4  1   
  4   3   5  ar  
  5   3   6  ar  
  6   4   7  2   
  7   4  28  1   
  8   5   8  1   
  9   5   9  ar  
 10   6  10  ar  
 11   6  11  1   
 12   7   8  1   
 13   7  12  1   
 14   8  29  1   
 15   9  13  ar  
 16   9  14  1   
 17  10  13  ar  
 18  10  30  1   
 19  11  31  1   
 20  11  32  1   
 21  11  33  1   
 22  12  15  1   
 23  12  34  1   
 24  12  35  1   
 25  13  36  1   
 26  14  37  1   
 27  14  38  1   
 28  14  39  1   
 29  15  16  1   
 30  15  17  1   
 31  15  40  1   
 32  16  18  1   
 33  16  41  1   
 34  16  42  1   
 35  17  19  1   
 36  17  43  1   
 37  17  44  1   
 38  18  19  1   
 39  18  20  1   
 40  18  45  1   
 41  19  21  1   
 42  19  46  1   
 43  20  47  1   
 44  21  22  1   
 45  21  48  1   
 46  21  49  1   
 47  22  23  ar  
 48  22  24  ar  
 49  23  25  ar  
 50  24  26  ar  
 51  24  50  1   
 52  25  27  ar  
 53  25  51  1   
 54  26  27  ar  
 55  26  52  1   
 56  27  53  1   
@<TRIPOS>SUBSTRUCTURE
  1 ****   8 GROUP 4 **** **** 0

# MOE 2024.06 (io_trps.svl 2023.06)
