@<TRIPOS>MOLECULE
NONAME
50 54 1 0 0 
SMALL
USER_CHARGES


@<TRIPOS>ATOM
  1 O       -0.7980     0.8880    -1.0200 O.3   1 <1>  -0.0190 
  2 N        0.4380     1.2360    -1.1130 N.2   1 <1>  -0.4100 
  3 C       -1.4030     1.6630    -0.1650 C.2   1 <1>   0.5620 
  4 C        0.5490     2.2310    -0.2990 C.2   1 <1>   0.4620 
  5 N       -0.6120     2.5340     0.3280 N.2   1 <1>  -0.5650 
  6 N       -2.7410     1.5180     0.1370 N.pl3 1 <1>  -0.8220 
  7 C        1.7770     2.9720    -0.0540 C.ar  1 <1>   0.0540 
  8 C       -3.4920     0.2770    -0.1950 C.3   1 <1>   0.2090 
  9 C       -3.3210     2.1490     1.3360 C.3   1 <1>   0.2090 
 10 C        2.9350     2.7200    -0.7940 C.ar  1 <1>  -0.1500 
 11 C        1.8550     3.9640     0.9270 C.ar  1 <1>  -0.1500 
 12 C       -4.9010     0.5640     0.3180 C.3   1 <1>   0.2800 
 13 C       -4.7750     1.6420     1.4110 C.3   1 <1>  -0.0800 
 14 C        4.1070     3.4190    -0.5690 C.ar  1 <1>  -0.1500 
 15 C        3.0240     4.6670     1.1580 C.ar  1 <1>  -0.1500 
 16 O       -5.6650     1.2020    -0.6510 O.3   1 <1>  -0.5600 
 17 C       -5.8760    -0.5180     0.7630 C.3   1 <1>  -0.1600 
 18 C       -5.9670     2.5580     1.0460 C.3   1 <1>  -0.0800 
 19 C        4.1540     4.3960     0.4090 C.ar  1 <1>  -0.1500 
 20 C       -6.7260     1.6190     0.0970 C.3   1 <1>   0.2000 
 21 C       -7.1800     0.2940     0.7440 C.3   1 <1>  -0.1600 
 22 C       -5.4860     3.8130     0.2880 C.3   1 <1>   0.3430 
 23 N       -6.5810     4.5590    -0.4070 N.4   1 <1>  -0.9590 
 24 C       -5.9900     5.6330    -1.2620 C.3   1 <1>   0.2630 
 25 C       -7.5980     5.1250     0.5330 C.3   1 <1>   0.2630 
 26 H       -3.4920     0.0830    -1.2540 H     1 <1>   0.0800 
 27 H       -3.0610    -0.5540     0.3340 H     1 <1>   0.0800 
 28 H       -2.7720     1.8090     2.2000 H     1 <1>   0.0800 
 29 H       -3.2280     3.2180     1.2840 H     1 <1>   0.0800 
 30 H        2.9170     1.9640    -1.5590 H     1 <1>   0.1500 
 31 H        0.9880     4.1880     1.5220 H     1 <1>   0.1500 
 32 H       -4.9230     1.2120     2.3860 H     1 <1>   0.0800 
 33 H        4.9830     3.2030    -1.1560 H     1 <1>   0.1500 
 34 H        3.0560     5.4250     1.9210 H     1 <1>   0.1500 
 35 H       -5.9010    -1.3120     0.0360 H     1 <1>   0.0800 
 36 H       -5.6400    -0.9210     1.7320 H     1 <1>   0.0800 
 37 H       -6.5450     2.8180     1.9130 H     1 <1>   0.0800 
 38 H        5.0650     4.9410     0.5860 H     1 <1>   0.1500 
 39 H       -7.4790     2.0750    -0.5200 H     1 <1>   0.0800 
 40 H       -7.5830     0.4530     1.7290 H     1 <1>   0.0800 
 41 H       -7.9210    -0.1890     0.1310 H     1 <1>   0.0800 
 42 H       -4.7660     3.4920    -0.4510 H     1 <1>   0.0800 
 43 H       -4.9770     4.4710     0.9740 H     1 <1>   0.0800 
 44 H       -7.0380     3.8850    -1.0430 H     1 <1>   0.4500 
 45 H       -5.4750     6.3580    -0.6530 H     1 <1>   0.0800 
 46 H       -6.7630     6.1360    -1.8200 H     1 <1>   0.0800 
 47 H       -5.2860     5.2080    -1.9610 H     1 <1>   0.0800 
 48 H       -7.1320     5.8190     1.2140 H     1 <1>   0.0800 
 49 H       -8.0620     4.3390     1.1050 H     1 <1>   0.0800 
 50 H       -8.3650     5.6450    -0.0170 H     1 <1>   0.0800 
@<TRIPOS>BOND
  1   1   2  1   
  2   1   3  1   
  3   2   4  2   
  4   3   5  2   
  5   3   6  1   
  6   4   5  1   
  7   4   7  1   
  8   6   8  1   
  9   6   9  1   
 10   7  10  ar  
 11   7  11  ar  
 12   8  12  1   
 13   8  26  1   
 14   8  27  1   
 15   9  13  1   
 16   9  28  1   
 17   9  29  1   
 18  10  14  ar  
 19  10  30  1   
 20  11  15  ar  
 21  11  31  1   
 22  12  13  1   
 23  12  16  1   
 24  12  17  1   
 25  13  18  1   
 26  13  32  1   
 27  14  19  ar  
 28  14  33  1   
 29  15  19  ar  
 30  15  34  1   
 31  16  20  1   
 32  17  21  1   
 33  17  35  1   
 34  17  36  1   
 35  18  20  1   
 36  18  22  1   
 37  18  37  1   
 38  19  38  1   
 39  20  21  1   
 40  20  39  1   
 41  21  40  1   
 42  21  41  1   
 43  22  23  1   
 44  22  42  1   
 45  22  43  1   
 46  23  24  1   
 47  23  25  1   
 48  23  44  1   
 49  24  45  1   
 50  24  46  1   
 51  24  47  1   
 52  25  48  1   
 53  25  49  1   
 54  25  50  1   
@<TRIPOS>SUBSTRUCTURE
  1 ****   6 GROUP 4 **** **** 0

# MOE 2024.06 (io_trps.svl 2023.06)
