@<TRIPOS>MOLECULE
NONAME
54 57 1 0 0 
SMALL
USER_CHARGES


@<TRIPOS>ATOM
  1 O       -1.3270    -0.2850    -1.6100 O.2   1 <1>  -0.5700 
  2 C       -1.6670     0.1950    -0.5470 C.2   1 <1>   0.5440 
  3 N       -2.0880    -0.6580     0.4350 N.am  1 <1>  -0.7300 
  4 C       -1.6350     1.6220    -0.3490 C.ar  1 <1>   0.0860 
  5 C       -2.1720    -2.1340     0.3090 C.3   1 <1>   0.2200 
  6 C       -2.3020     2.2670     0.6790 C.ar  1 <1>   0.1600 
  7 C       -0.9300     2.4620    -1.1950 C.ar  1 <1>   0.1600 
  8 C       -3.6200    -2.5890     0.1840 C.3   1 <1>  -0.0800 
  9 C       -1.8060    -2.7550     1.6500 C.3   1 <1>   0.1200 
 10 N       -2.2750     3.5630     0.8610 N.ar  1 <1>  -0.6200 
 11 N       -0.8790     3.7630    -1.0440 N.ar  1 <1>  -0.6200 
 12 C       -4.0940    -2.6280     1.6420 C.3   1 <1>   0.1200 
 13 C       -4.5010    -1.7690    -0.7800 C.3   1 <1>  -0.0170 
 14 O       -2.9440    -2.5910     2.4400 O.3   1 <1>  -0.5600 
 15 C       -1.5590     4.2560    -0.0140 C.ar  1 <1>   0.7200 
 16 C       -5.9070    -2.3550    -0.8740 C.ar  1 <1>  -0.1430 
 17 N       -1.5480     5.5840     0.2000 N.pl3 1 <1>  -0.8690 
 18 C       -7.0130    -1.8720    -0.1300 C.ar  1 <1>   0.0000 
 19 C       -6.1260    -3.4070    -1.7150 C.ar  1 <1>  -0.1500 
 20 C       -0.8650     6.6170    -0.5800 C.3   1 <1>   0.2890 
 21 C       -8.2540    -2.5360    -0.2970 C.ar  1 <1>   0.3100 
 22 C       -6.9720    -0.7760     0.7640 C.ar  1 <1>  -0.1500 
 23 C       -7.3980    -3.9840    -1.8120 C.ar  1 <1>   0.1600 
 24 C        0.0870     7.3550     0.3520 C.3   1 <1>  -0.2400 
 25 C       -1.9250     7.5530    -1.1460 C.3   1 <1>  -0.2400 
 26 N       -8.4290    -3.5860    -1.1380 N.ar  1 <1>  -0.6200 
 27 C       -9.3680    -2.0970     0.4370 C.ar  1 <1>  -0.1500 
 28 C       -8.0770    -0.3710     1.4620 C.ar  1 <1>  -0.1500 
 29 C       -9.2920    -1.0400     1.3010 C.ar  1 <1>  -0.1500 
 30 H       -2.3130    -0.3310     1.3770 H     1 <1>   0.3700 
 31 H       -1.5480    -2.4930    -0.4930 H     1 <1>   0.0800 
 32 H       -2.8850     1.6900     1.3740 H     1 <1>   0.1500 
 33 H       -0.3910     2.0320    -2.0240 H     1 <1>   0.1500 
 34 H       -3.6100    -3.6060    -0.1680 H     1 <1>   0.0800 
 35 H       -0.9640    -2.2770     2.1180 H     1 <1>   0.0800 
 36 H       -1.6220    -3.8100     1.5480 H     1 <1>   0.0800 
 37 H       -4.6440    -3.5290     1.8590 H     1 <1>   0.0800 
 38 H       -4.6880    -1.7710     1.8970 H     1 <1>   0.0800 
 39 H       -4.0480    -1.7950    -1.7560 H     1 <1>   0.0800 
 40 H       -4.5360    -0.7350    -0.4970 H     1 <1>   0.0800 
 41 H       -2.0910     5.8970     1.0000 H     1 <1>   0.4000 
 42 H       -5.3370    -3.8190    -2.3170 H     1 <1>   0.1500 
 43 H       -0.3070     6.1730    -1.3880 H     1 <1>   0.0800 
 44 H       -6.0560    -0.2370     0.9060 H     1 <1>   0.1500 
 45 H       -7.5240    -4.8120    -2.4880 H     1 <1>   0.1500 
 46 H       -0.4500     7.8090     1.1650 H     1 <1>   0.0800 
 47 H        0.6080     8.1220    -0.1900 H     1 <1>   0.0800 
 48 H        0.8130     6.6660     0.7460 H     1 <1>   0.0800 
 49 H       -2.4920     8.0100    -0.3560 H     1 <1>   0.0800 
 50 H       -2.5880     7.0030    -1.7880 H     1 <1>   0.0800 
 51 H       -1.4570     8.3270    -1.7270 H     1 <1>   0.0800 
 52 H      -10.2920    -2.6260     0.2930 H     1 <1>   0.1500 
 53 H       -8.0280     0.4650     2.1390 H     1 <1>   0.1500 
 54 H      -10.1550    -0.7140     1.8560 H     1 <1>   0.1500 
@<TRIPOS>BOND
  1   1   2  2   
  2   2   3  am  
  3   2   4  1   
  4   3   5  1   
  5   3  30  1   
  6   4   6  ar  
  7   4   7  ar  
  8   5   8  1   
  9   5   9  1   
 10   5  31  1   
 11   6  10  ar  
 12   6  32  1   
 13   7  11  ar  
 14   7  33  1   
 15   8  12  1   
 16   8  13  1   
 17   8  34  1   
 18   9  14  1   
 19   9  35  1   
 20   9  36  1   
 21  10  15  ar  
 22  11  15  ar  
 23  12  14  1   
 24  12  37  1   
 25  12  38  1   
 26  13  16  1   
 27  13  39  1   
 28  13  40  1   
 29  15  17  1   
 30  16  18  ar  
 31  16  19  ar  
 32  17  20  1   
 33  17  41  1   
 34  18  21  ar  
 35  18  22  ar  
 36  19  23  ar  
 37  19  42  1   
 38  20  24  1   
 39  20  25  1   
 40  20  43  1   
 41  21  26  ar  
 42  21  27  ar  
 43  22  28  ar  
 44  22  44  1   
 45  23  26  ar  
 46  23  45  1   
 47  24  46  1   
 48  24  47  1   
 49  24  48  1   
 50  25  49  1   
 51  25  50  1   
 52  25  51  1   
 53  27  29  ar  
 54  27  52  1   
 55  28  29  ar  
 56  28  53  1   
 57  29  54  1   
@<TRIPOS>SUBSTRUCTURE
  1 ****   3 GROUP 4 **** **** 0

# MOE 2024.06 (io_trps.svl 2023.06)
