@<TRIPOS>MOLECULE
NONAME
49 51 1 0 0 
SMALL
USER_CHARGES


@<TRIPOS>ATOM
  1 O       -0.1470    -1.0930    -1.0310 O.2   1 <1>  -0.5700 
  2 C       -0.0180    -1.4880     0.1040 C.2   1 <1>   0.5690 
  3 N        1.1970    -1.6520     0.7230 N.am  1 <1>  -0.5470 
  4 C       -1.3130    -1.8130     0.8700 C.3   1 <1>   0.4040 
  5 C        2.4970    -1.3970     0.2530 C.ar  1 <1>   0.1170 
  6 N       -2.5340    -1.1400     0.2860 N.4   1 <1>  -0.9590 
  7 C        2.7780    -0.5130    -0.7850 C.ar  1 <1>  -0.1500 
  8 C        3.5600    -2.0480     0.8700 C.ar  1 <1>  -0.1500 
  9 C       -3.8290    -1.7480     0.7110 C.3   1 <1>   0.3430 
 10 C       -2.5060     0.3470     0.4650 C.3   1 <1>   0.3430 
 11 C        4.0800    -0.2920    -1.1970 C.ar  1 <1>  -0.1500 
 12 C        4.8640    -1.8280     0.4610 C.ar  1 <1>  -0.1500 
 13 C       -4.9830    -1.2970    -0.2170 C.3   1 <1>   0.0000 
 14 C       -3.8790     0.9740     0.1810 C.3   1 <1>  -0.1600 
 15 C        5.1250    -0.9490    -0.5740 C.ar  1 <1>  -0.1500 
 16 C       -6.3010    -1.4550     0.5750 C.3   1 <1>   0.2000 
 17 C       -4.7190     0.1280    -0.7870 C.3   1 <1>  -0.1600 
 18 C       -5.1530    -2.3210    -1.3510 C.3   1 <1>  -0.1600 
 19 O       -7.3300    -0.8000    -0.1000 O.3   1 <1>  -0.5600 
 20 C       -6.5870    -2.9620     0.5380 C.3   1 <1>  -0.1600 
 21 C       -5.9470    -3.4900    -0.7540 C.3   1 <1>  -0.1600 
 22 C       -8.4370    -0.4550     0.6740 C.3   1 <1>   0.0400 
 23 H        1.1980    -2.0730     1.6520 H     1 <1>   0.3700 
 24 H       -1.1960    -1.5210     1.8990 H     1 <1>   0.0800 
 25 H       -1.4470    -2.8800     0.8350 H     1 <1>   0.0800 
 26 H       -2.4550    -1.2800    -0.7370 H     1 <1>   0.4500 
 27 H        1.9880     0.0160    -1.2840 H     1 <1>   0.1500 
 28 H        3.3800    -2.7360     1.6740 H     1 <1>   0.1500 
 29 H       -3.7650    -2.8240     0.6950 H     1 <1>   0.0800 
 30 H       -4.0460    -1.4400     1.7200 H     1 <1>   0.0800 
 31 H       -2.2060     0.6010     1.4680 H     1 <1>   0.0800 
 32 H       -1.7790     0.7650    -0.2160 H     1 <1>   0.0800 
 33 H        4.2800     0.3920    -2.0030 H     1 <1>   0.1500 
 34 H        5.6770    -2.3400     0.9460 H     1 <1>   0.1500 
 35 H       -4.4150     1.0940     1.1070 H     1 <1>   0.0800 
 36 H       -3.7350     1.9600    -0.2270 H     1 <1>   0.0800 
 37 H        6.1390    -0.7770    -0.8950 H     1 <1>   0.1500 
 38 H       -6.2310    -1.0610     1.5750 H     1 <1>   0.0800 
 39 H       -4.1810     0.0480    -1.7160 H     1 <1>   0.0800 
 40 H       -5.6380     0.6400    -1.0160 H     1 <1>   0.0800 
 41 H       -5.7490    -1.8790    -2.1340 H     1 <1>   0.0800 
 42 H       -4.2190    -2.6420    -1.7790 H     1 <1>   0.0800 
 43 H       -6.1240    -3.4370     1.3840 H     1 <1>   0.0800 
 44 H       -7.6410    -3.1760     0.5690 H     1 <1>   0.0800 
 45 H       -5.3050    -4.3270    -0.5400 H     1 <1>   0.0800 
 46 H       -6.7070    -3.8090    -1.4480 H     1 <1>   0.0800 
 47 H       -9.1590     0.0160     0.0300 H     1 <1>   0.0800 
 48 H       -8.1350     0.2360     1.4420 H     1 <1>   0.0800 
 49 H       -8.8680    -1.3400     1.1090 H     1 <1>   0.0800 
@<TRIPOS>BOND
  1   1   2  2   
  2   2   3  am  
  3   2   4  1   
  4   3   5  1   
  5   3  23  1   
  6   4   6  1   
  7   4  24  1   
  8   4  25  1   
  9   5   7  ar  
 10   5   8  ar  
 11   6   9  1   
 12   6  10  1   
 13   6  26  1   
 14   7  11  ar  
 15   7  27  1   
 16   8  12  ar  
 17   8  28  1   
 18   9  13  1   
 19   9  29  1   
 20   9  30  1   
 21  10  14  1   
 22  10  31  1   
 23  10  32  1   
 24  11  15  ar  
 25  11  33  1   
 26  12  15  ar  
 27  12  34  1   
 28  13  16  1   
 29  13  17  1   
 30  13  18  1   
 31  14  17  1   
 32  14  35  1   
 33  14  36  1   
 34  15  37  1   
 35  16  19  1   
 36  16  20  1   
 37  16  38  1   
 38  17  39  1   
 39  17  40  1   
 40  18  21  1   
 41  18  41  1   
 42  18  42  1   
 43  19  22  1   
 44  20  21  1   
 45  20  43  1   
 46  20  44  1   
 47  21  45  1   
 48  21  46  1   
 49  22  47  1   
 50  22  48  1   
 51  22  49  1   
@<TRIPOS>SUBSTRUCTURE
  1 ****   6 GROUP 4 **** **** 0

# MOE 2024.06 (io_trps.svl 2023.06)
