@<TRIPOS>MOLECULE
NONAME
54 55 1 0 0 
SMALL
USER_CHARGES


@<TRIPOS>ATOM
  1 S        2.2050     2.1850    -2.1070 S.o2  1 <1>   1.3330 
  2 O        2.5740     3.1330    -3.1340 O.2   1 <1>  -0.6500 
  3 O        1.7190     0.8750    -2.4790 O.2   1 <1>  -0.6500 
  4 N        1.0220     2.9300    -1.1430 N.am  1 <1>  -0.8490 
  5 C        3.5920     1.9710    -0.9930 C.3   1 <1>  -0.0550 
  6 C       -0.3190     2.7730    -1.7100 C.3   1 <1>   0.1160 
  7 C        1.2870     4.3530    -0.8830 C.3   1 <1>   0.1160 
  8 C        3.4380     0.8460     0.0560 C.3   1 <1>  -0.0800 
  9 C        4.6070     0.7190     1.0280 C.3   1 <1>   0.2200 
 10 C        2.2390     0.9900     1.0020 C.3   1 <1>   0.1200 
 11 N        5.0090     2.0600     1.5080 N.am  1 <1>  -0.7300 
 12 C        3.9370    -0.0300     2.1700 C.3   1 <1>   0.1200 
 13 O        2.6460     0.4960     2.2470 O.3   1 <1>  -0.5600 
 14 C        6.0030     2.8170     0.9760 C.2   1 <1>   0.5690 
 15 O        6.8560     2.3380     0.2680 O.2   1 <1>  -0.5700 
 16 C        5.9730     4.3200     1.2080 C.3   1 <1>   0.1810 
 17 O        4.6420     4.7880     1.0270 O.3   1 <1>  -0.3630 
 18 C        4.4910     6.0990     0.7440 C.ar  1 <1>   0.0820 
 19 C        4.5630     6.5490    -0.5760 C.ar  1 <1>  -0.1440 
 20 C        4.2340     6.9770     1.7930 C.ar  1 <1>  -0.1440 
 21 C        4.3920     7.9060    -0.8340 C.ar  1 <1>  -0.1440 
 22 C        4.8160     5.5890    -1.7410 C.3   1 <1>  -0.0970 
 23 C        4.0740     8.3220     1.5160 C.ar  1 <1>  -0.1500 
 24 C        4.1220     6.4910     3.2310 C.3   1 <1>  -0.0970 
 25 C        4.1540     8.7810     0.2140 C.ar  1 <1>  -0.1500 
 26 C        4.4560     8.4700    -2.2480 C.3   1 <1>  -0.0970 
 27 H        4.4670     1.7590    -1.5760 H     1 <1>   0.0800 
 28 H        3.7580     2.9040    -0.5010 H     1 <1>   0.0800 
 29 H       -1.0520     3.2300    -1.0670 H     1 <1>   0.0800 
 30 H       -0.5600     1.7270    -1.8030 H     1 <1>   0.0800 
 31 H       -0.3690     3.2270    -2.6860 H     1 <1>   0.0800 
 32 H        0.5340     4.7550    -0.2260 H     1 <1>   0.0800 
 33 H        1.2820     4.9150    -1.8030 H     1 <1>   0.0800 
 34 H        2.2430     4.4810    -0.4070 H     1 <1>   0.0800 
 35 H        3.3270    -0.0890    -0.4650 H     1 <1>   0.0800 
 36 H        5.4500     0.1880     0.6160 H     1 <1>   0.0800 
 37 H        1.3860     0.4290     0.6590 H     1 <1>   0.0800 
 38 H        1.9630     2.0200     1.1430 H     1 <1>   0.0800 
 39 H        4.2810     2.5240     2.0590 H     1 <1>   0.3700 
 40 H        4.4420     0.1030     3.1100 H     1 <1>   0.0800 
 41 H        3.8520    -1.0790     1.9420 H     1 <1>   0.0800 
 42 H        6.6160     4.8110     0.5000 H     1 <1>   0.0800 
 43 H        6.2860     4.5540     2.2070 H     1 <1>   0.0800 
 44 H        5.6580     5.9230    -2.3190 H     1 <1>   0.0800 
 45 H        3.9520     5.5500    -2.3790 H     1 <1>   0.0800 
 46 H        5.0280     4.5900    -1.4150 H     1 <1>   0.0800 
 47 H        3.8830     9.0230     2.3090 H     1 <1>   0.1500 
 48 H        3.6910     7.2490     3.8600 H     1 <1>   0.0800 
 49 H        5.0960     6.2430     3.6110 H     1 <1>   0.0800 
 50 H        3.4950     5.6190     3.2780 H     1 <1>   0.0800 
 51 H        4.0250     9.8320     0.0250 H     1 <1>   0.1500 
 52 H        4.2340     9.5220    -2.2560 H     1 <1>   0.0800 
 53 H        3.7420     7.9740    -2.8800 H     1 <1>   0.0800 
 54 H        5.4410     8.3320    -2.6560 H     1 <1>   0.0800 
@<TRIPOS>BOND
  1   1   2  2   
  2   1   3  2   
  3   1   4  am  
  4   1   5  1   
  5   4   6  1   
  6   4   7  1   
  7   5   8  1   
  8   5  27  1   
  9   5  28  1   
 10   6  29  1   
 11   6  30  1   
 12   6  31  1   
 13   7  32  1   
 14   7  33  1   
 15   7  34  1   
 16   8   9  1   
 17   8  10  1   
 18   8  35  1   
 19   9  11  1   
 20   9  12  1   
 21   9  36  1   
 22  10  13  1   
 23  10  37  1   
 24  10  38  1   
 25  11  14  am  
 26  11  39  1   
 27  12  13  1   
 28  12  40  1   
 29  12  41  1   
 30  14  15  2   
 31  14  16  1   
 32  16  17  1   
 33  16  42  1   
 34  16  43  1   
 35  17  18  1   
 36  18  19  ar  
 37  18  20  ar  
 38  19  21  ar  
 39  19  22  1   
 40  20  23  ar  
 41  20  24  1   
 42  21  25  ar  
 43  21  26  1   
 44  22  44  1   
 45  22  45  1   
 46  22  46  1   
 47  23  25  ar  
 48  23  47  1   
 49  24  48  1   
 50  24  49  1   
 51  24  50  1   
 52  25  51  1   
 53  26  52  1   
 54  26  53  1   
 55  26  54  1   
@<TRIPOS>SUBSTRUCTURE
  1 ****  17 GROUP 4 **** **** 0

# MOE 2024.06 (io_trps.svl 2023.06)
