@<TRIPOS>MOLECULE
NONAME
37 38 1 0 0 
SMALL
USER_CHARGES


@<TRIPOS>ATOM
  1 F        0.6490     1.9640     1.6810 F     1 <1>  -0.3400 
  2 C       -0.1880     2.9980     1.7010 C.3   1 <1>   1.1640 
  3 F       -1.4100     2.4670     1.7350 F     1 <1>  -0.3400 
  4 F       -0.0240     3.5850     2.8840 F     1 <1>  -0.3400 
  5 C        0.0260     3.9710     0.5060 C.ar  1 <1>   0.1660 
  6 N        1.2050     4.5960     0.4000 N.ar  1 <1>  -0.6200 
  7 C       -1.0010     4.1630    -0.4150 C.ar  1 <1>  -0.1500 
  8 C        1.3710     5.4190    -0.6260 C.ar  1 <1>   0.4100 
  9 C       -0.8300     5.0230    -1.4810 C.ar  1 <1>  -0.1500 
 10 N        2.5940     6.0460    -0.7320 N.pl3 1 <1>  -0.8380 
 11 C        0.3840     5.6570    -1.5750 C.ar  1 <1>  -0.1500 
 12 C        3.3250     6.3690     0.5430 C.3   1 <1>   0.3890 
 13 C        3.4440     5.7230    -1.9120 C.3   1 <1>   0.1290 
 14 C        4.3130     7.5270     0.4220 C.2   1 <1>   0.2980 
 15 O        5.4360     7.3240    -0.2240 O.3   1 <1>  -0.0190 
 16 N        4.1740     8.6970     0.9120 N.2   1 <1>  -0.5650 
 17 N        6.0550     8.4610    -0.1480 N.2   1 <1>  -0.4100 
 18 C        5.3080     9.2530     0.5150 C.2   1 <1>   0.3350 
 19 C        5.6140    10.6990     0.8580 C.3   1 <1>   0.0210 
 20 C        6.9710    11.1480     0.3180 C.3   1 <1>   0.1200 
 21 O        7.1700    12.4770     0.6820 O.3   1 <1>  -0.5600 
 22 C        8.3800    13.0040     0.2440 C.3   1 <1>   0.0400 
 23 H       -1.9430     3.6510    -0.3150 H     1 <1>   0.1500 
 24 H       -1.6110     5.1900    -2.2020 H     1 <1>   0.1500 
 25 H        0.5870     6.3450    -2.3730 H     1 <1>   0.1500 
 26 H        3.8510     5.4930     0.8790 H     1 <1>   0.0800 
 27 H        2.6060     6.6290     1.2990 H     1 <1>   0.0800 
 28 H        2.8760     5.1880    -2.6520 H     1 <1>   0.0800 
 29 H        4.2760     5.1100    -1.6120 H     1 <1>   0.0800 
 30 H        3.8150     6.6330    -2.3520 H     1 <1>   0.0800 
 31 H        5.6030    10.8050     1.9270 H     1 <1>   0.0800 
 32 H        4.8420    11.3190     0.4400 H     1 <1>   0.0800 
 33 H        6.9910    11.0740    -0.7560 H     1 <1>   0.0800 
 34 H        7.7600    10.5490     0.7410 H     1 <1>   0.0800 
 35 H        8.4380    14.0270     0.5720 H     1 <1>   0.0800 
 36 H        8.4170    12.9660    -0.8310 H     1 <1>   0.0800 
 37 H        9.1910    12.4400     0.6720 H     1 <1>   0.0800 
@<TRIPOS>BOND
  1   1   2  1   
  2   2   3  1   
  3   2   4  1   
  4   2   5  1   
  5   5   6  ar  
  6   5   7  ar  
  7   6   8  ar  
  8   7   9  ar  
  9   7  23  1   
 10   8  10  1   
 11   8  11  ar  
 12   9  11  ar  
 13   9  24  1   
 14  10  12  1   
 15  10  13  1   
 16  11  25  1   
 17  12  14  1   
 18  12  26  1   
 19  12  27  1   
 20  13  28  1   
 21  13  29  1   
 22  13  30  1   
 23  14  15  1   
 24  14  16  2   
 25  15  17  1   
 26  16  18  1   
 27  17  18  2   
 28  18  19  1   
 29  19  20  1   
 30  19  31  1   
 31  19  32  1   
 32  20  21  1   
 33  20  33  1   
 34  20  34  1   
 35  21  22  1   
 36  22  35  1   
 37  22  36  1   
 38  22  37  1   
@<TRIPOS>SUBSTRUCTURE
  1 ****  12 GROUP 4 **** **** 0

# MOE 2024.06 (io_trps.svl 2023.06)
