@<TRIPOS>MOLECULE
NONAME
53 55 1 0 0 
SMALL
USER_CHARGES


@<TRIPOS>ATOM
  1 O       -1.1450     1.5710    -1.0680 O.2   1 <1>  -0.5700 
  2 C       -0.6440     2.6660    -1.0650 C.2   1 <1>   0.5690 
  3 N       -0.8870     3.5340    -0.0540 N.am  1 <1>  -0.7300 
  4 C        0.2630     3.1010    -2.2290 C.3   1 <1>   0.1810 
  5 C       -0.2310     4.8520     0.0310 C.3   1 <1>   0.3640 
  6 O        0.9850     4.2960    -1.9740 O.3   1 <1>  -0.5600 
  7 C       -1.1400     5.8290     0.7700 C.ar  1 <1>  -0.1440 
  8 C        0.2020     5.3150    -1.3770 C.3   1 <1>   0.2610 
  9 C       -2.2650     6.3770     0.1690 C.ar  1 <1>  -0.1500 
 10 C       -0.8440     6.1710     2.0840 C.ar  1 <1>  -0.1500 
 11 C        0.9770     6.6280    -1.2850 C.2   1 <1>   0.5690 
 12 C       -3.0720     7.2600     0.8640 C.ar  1 <1>  -0.1500 
 13 C       -1.6540     7.0500     2.7810 C.ar  1 <1>  -0.1500 
 14 O        0.4070     7.6690    -1.5080 O.2   1 <1>  -0.5700 
 15 N        2.2930     6.6160    -0.9340 N.am  1 <1>  -0.7300 
 16 C       -2.7680     7.5970     2.1710 C.ar  1 <1>  -0.1500 
 17 C        3.2190     7.7880    -0.8980 C.3   1 <1>   0.1400 
 18 C        2.9440     8.7330     0.2930 C.3   1 <1>   0.3430 
 19 N        1.6640     9.4870     0.1320 N.4   1 <1>  -0.9590 
 20 C        1.8690    10.7780    -0.5840 C.3   1 <1>   0.3430 
 21 C        0.9290     9.5850     1.4200 C.3   1 <1>   0.3430 
 22 C        0.6110    11.1580    -1.3630 C.3   1 <1>  -0.1600 
 23 C       -0.4940    10.1160     1.2430 C.3   1 <1>  -0.1600 
 24 C       -0.4350    11.9530    -0.5640 C.3   1 <1>  -0.1600 
 25 C       -0.5480    11.6170     0.9290 C.3   1 <1>  -0.1600 
 26 H       -1.5090     3.2550     0.7080 H     1 <1>   0.3700 
 27 H       -0.3400     3.2530    -3.1060 H     1 <1>   0.0800 
 28 H        0.9750     2.3230    -2.4340 H     1 <1>   0.0800 
 29 H        0.6650     4.7280     0.6150 H     1 <1>   0.0800 
 30 H       -0.6610     5.4790    -1.9980 H     1 <1>   0.0800 
 31 H       -2.5320     6.1200    -0.8420 H     1 <1>   0.1500 
 32 H        0.0110     5.7460     2.5810 H     1 <1>   0.1500 
 33 H       -3.9430     7.6800     0.3900 H     1 <1>   0.1500 
 34 H       -1.4270     7.3020     3.8040 H     1 <1>   0.1500 
 35 H        2.7510     5.6950    -0.9780 H     1 <1>   0.3700 
 36 H       -3.4050     8.2760     2.7120 H     1 <1>   0.1500 
 37 H        4.2270     7.4180    -0.8160 H     1 <1>   0.0800 
 38 H        3.1470     8.3320    -1.8240 H     1 <1>   0.0800 
 39 H        3.7590     9.4310     0.3920 H     1 <1>   0.0800 
 40 H        2.9110     8.1380     1.1900 H     1 <1>   0.0800 
 41 H        1.0630     8.9050    -0.4900 H     1 <1>   0.4500 
 42 H        2.1380    11.5610     0.1060 H     1 <1>   0.0800 
 43 H        2.6730    10.6620    -1.2920 H     1 <1>   0.0800 
 44 H        0.8630     8.6020     1.8590 H     1 <1>   0.0800 
 45 H        1.4670    10.2210     2.1050 H     1 <1>   0.0800 
 46 H        0.9070    11.7670    -2.1990 H     1 <1>   0.0800 
 47 H        0.1580    10.2740    -1.7770 H     1 <1>   0.0800 
 48 H       -1.0280     9.5400     0.5060 H     1 <1>   0.0800 
 49 H       -1.0000     9.9660     2.1800 H     1 <1>   0.0800 
 50 H       -0.2170    13.0050    -0.6500 H     1 <1>   0.0800 
 51 H       -1.3950    11.8000    -1.0290 H     1 <1>   0.0800 
 52 H       -1.4900    12.0070     1.2780 H     1 <1>   0.0800 
 53 H        0.2210    12.1320     1.4790 H     1 <1>   0.0800 
@<TRIPOS>BOND
  1   1   2  2   
  2   2   3  am  
  3   2   4  1   
  4   3   5  1   
  5   3  26  1   
  6   4   6  1   
  7   4  27  1   
  8   4  28  1   
  9   5   7  1   
 10   5   8  1   
 11   5  29  1   
 12   6   8  1   
 13   7   9  ar  
 14   7  10  ar  
 15   8  11  1   
 16   8  30  1   
 17   9  12  ar  
 18   9  31  1   
 19  10  13  ar  
 20  10  32  1   
 21  11  14  2   
 22  11  15  am  
 23  12  16  ar  
 24  12  33  1   
 25  13  16  ar  
 26  13  34  1   
 27  15  17  1   
 28  15  35  1   
 29  16  36  1   
 30  17  18  1   
 31  17  37  1   
 32  17  38  1   
 33  18  19  1   
 34  18  39  1   
 35  18  40  1   
 36  19  20  1   
 37  19  21  1   
 38  19  41  1   
 39  20  22  1   
 40  20  42  1   
 41  20  43  1   
 42  21  23  1   
 43  21  44  1   
 44  21  45  1   
 45  22  24  1   
 46  22  46  1   
 47  22  47  1   
 48  23  25  1   
 49  23  48  1   
 50  23  49  1   
 51  24  25  1   
 52  24  50  1   
 53  24  51  1   
 54  25  52  1   
 55  25  53  1   
@<TRIPOS>SUBSTRUCTURE
  1 ****  14 GROUP 4 **** **** 0

# MOE 2024.06 (io_trps.svl 2023.06)
