@<TRIPOS>MOLECULE
NONAME
58 60 1 0 0 
SMALL
USER_CHARGES


@<TRIPOS>ATOM
  1 O       -0.2010     1.4120     3.6150 O.2   1 <1>  -0.5700 
  2 C        0.4180     2.1170     2.8510 C.2   1 <1>   0.5690 
  3 N       -0.2120     2.8580     1.8790 N.am  1 <1>  -0.6600 
  4 C        1.9350     2.1320     3.0110 C.3   1 <1>   0.0440 
  5 C       -1.6710     2.6870     1.5970 C.3   1 <1>   0.1400 
  6 C        0.4570     3.7620     0.9050 C.3   1 <1>   0.1400 
  7 C        2.6550     1.5460     1.7990 C.ar  1 <1>  -0.1440 
  8 C       -1.8890     2.0860     0.1830 C.3   1 <1>   0.0000 
  9 C        0.3160     3.1820    -0.5060 C.3   1 <1>  -0.1600 
 10 C        3.6580     2.2540     1.1520 C.ar  1 <1>  -0.1500 
 11 C        2.2900     0.2960     1.3250 C.ar  1 <1>  -0.1500 
 12 C       -3.3870     1.9480    -0.1390 C.3   1 <1>   0.2000 
 13 C       -1.1610     2.9520    -0.8710 C.3   1 <1>  -0.1600 
 14 C       -1.4320     0.6180     0.1430 C.3   1 <1>  -0.1600 
 15 C        4.2830     1.7320     0.0210 C.ar  1 <1>   0.0830 
 16 C        2.8890    -0.2310     0.1940 C.ar  1 <1>   0.0830 
 17 O       -4.1090     3.0590     0.3040 O.3   1 <1>  -0.5600 
 18 C       -3.8460     0.6640     0.5600 C.3   1 <1>  -0.1600 
 19 C       -2.5830    -0.1880     0.7520 C.3   1 <1>  -0.1600 
 20 O        5.2740     2.3950    -0.6440 O.3   1 <1>  -0.3620 
 21 C        3.8950     0.4820    -0.4600 C.ar  1 <1>   0.0830 
 22 O        2.4600    -1.4460    -0.2290 O.3   1 <1>  -0.3630 
 23 C       -5.4030     3.1590    -0.2010 C.3   1 <1>   0.0400 
 24 C        5.7490     3.6500    -0.2140 C.3   1 <1>   0.0400 
 25 O        4.5000    -0.0320    -1.5640 O.3   1 <1>  -0.3630 
 26 C        1.7670    -1.4690    -1.4570 C.3   1 <1>   0.0400 
 27 C        5.5360    -0.9460    -1.3000 C.3   1 <1>   0.0400 
 28 H        2.2500     3.1410     3.1960 H     1 <1>   0.0800 
 29 H        2.1940     1.5510     3.8770 H     1 <1>   0.0800 
 30 H       -2.1300     2.0610     2.3410 H     1 <1>   0.0800 
 31 H       -2.1410     3.6520     1.6580 H     1 <1>   0.0800 
 32 H       -0.0190     4.7270     0.9460 H     1 <1>   0.0800 
 33 H        1.4940     3.8990     1.1430 H     1 <1>   0.0800 
 34 H        0.7590     3.8600    -1.2130 H     1 <1>   0.0800 
 35 H        0.8600     2.2550    -0.5610 H     1 <1>   0.0800 
 36 H        3.9400     3.2150     1.5360 H     1 <1>   0.1500 
 37 H        1.5270    -0.2770     1.8210 H     1 <1>   0.1500 
 38 H       -3.5110     1.8510    -1.2050 H     1 <1>   0.0800 
 39 H       -1.2260     2.4930    -1.8420 H     1 <1>   0.0800 
 40 H       -1.6550     3.9070    -0.9290 H     1 <1>   0.0800 
 41 H       -1.2960     0.3080    -0.8790 H     1 <1>   0.0800 
 42 H       -0.5120     0.4520     0.6730 H     1 <1>   0.0800 
 43 H       -4.2720     0.8940     1.5210 H     1 <1>   0.0800 
 44 H       -4.5690     0.1450    -0.0430 H     1 <1>   0.0800 
 45 H       -2.4030    -0.3330     1.8040 H     1 <1>   0.0800 
 46 H       -2.6740    -1.1510     0.2800 H     1 <1>   0.0800 
 47 H       -5.8450     4.0570     0.1920 H     1 <1>   0.0800 
 48 H       -5.9790     2.3060     0.1140 H     1 <1>   0.0800 
 49 H       -5.3620     3.2150    -1.2750 H     1 <1>   0.0800 
 50 H        6.5290     3.9580    -0.8870 H     1 <1>   0.0800 
 51 H        6.1450     3.5510     0.7820 H     1 <1>   0.0800 
 52 H        4.9410     4.3590    -0.2430 H     1 <1>   0.0800 
 53 H        1.3580    -2.4540    -1.5930 H     1 <1>   0.0800 
 54 H        2.4500    -1.2430    -2.2550 H     1 <1>   0.0800 
 55 H        0.9760    -0.7410    -1.4230 H     1 <1>   0.0800 
 56 H        5.9430    -1.2740    -2.2390 H     1 <1>   0.0800 
 57 H        5.1330    -1.7830    -0.7570 H     1 <1>   0.0800 
 58 H        6.2950    -0.4500    -0.7210 H     1 <1>   0.0800 
@<TRIPOS>BOND
  1   1   2  2   
  2   2   3  am  
  3   2   4  1   
  4   3   5  1   
  5   3   6  1   
  6   4   7  1   
  7   4  28  1   
  8   4  29  1   
  9   5   8  1   
 10   5  30  1   
 11   5  31  1   
 12   6   9  1   
 13   6  32  1   
 14   6  33  1   
 15   7  10  ar  
 16   7  11  ar  
 17   8  12  1   
 18   8  13  1   
 19   8  14  1   
 20   9  13  1   
 21   9  34  1   
 22   9  35  1   
 23  10  15  ar  
 24  10  36  1   
 25  11  16  ar  
 26  11  37  1   
 27  12  17  1   
 28  12  18  1   
 29  12  38  1   
 30  13  39  1   
 31  13  40  1   
 32  14  19  1   
 33  14  41  1   
 34  14  42  1   
 35  15  20  1   
 36  15  21  ar  
 37  16  21  ar  
 38  16  22  1   
 39  17  23  1   
 40  18  19  1   
 41  18  43  1   
 42  18  44  1   
 43  19  45  1   
 44  19  46  1   
 45  20  24  1   
 46  21  25  1   
 47  22  26  1   
 48  23  47  1   
 49  23  48  1   
 50  23  49  1   
 51  24  50  1   
 52  24  51  1   
 53  24  52  1   
 54  25  27  1   
 55  26  53  1   
 56  26  54  1   
 57  26  55  1   
 58  27  56  1   
 59  27  57  1   
 60  27  58  1   
@<TRIPOS>SUBSTRUCTURE
  1 ****   9 GROUP 4 **** **** 0

# MOE 2024.06 (io_trps.svl 2023.06)
