@<TRIPOS>MOLECULE
NONAME
45 47 1 0 0 
SMALL
USER_CHARGES


@<TRIPOS>ATOM
  1 CL      -0.2880    -0.6070    -0.2720 Cl    1 <1>  -0.1770 
  2 C       -1.8360    -1.3310     0.0820 C.ar  1 <1>   0.1770 
  3 C       -1.9530    -2.7090     0.0960 C.ar  1 <1>  -0.1500 
  4 C       -2.9210    -0.5150     0.3410 C.ar  1 <1>  -0.1500 
  5 C       -3.1810    -3.2890     0.3770 C.ar  1 <1>  -0.1440 
  6 C       -4.1470    -1.0930     0.6210 C.ar  1 <1>  -0.1500 
  7 C       -4.2740    -2.4740     0.6380 C.ar  1 <1>  -0.1500 
  8 C       -3.3240    -4.8020     0.3920 C.3   1 <1>  -0.0160 
  9 C       -3.6050    -5.3270    -1.0200 C.3   1 <1>  -0.0990 
 10 C       -3.8040    -6.8300    -1.0090 C.2   1 <1>   0.5690 
 11 O       -2.8210    -7.5240    -1.1080 O.2   1 <1>  -0.5700 
 12 N       -5.0550    -7.3670    -0.8730 N.am  1 <1>  -0.6600 
 13 C       -6.3270    -6.6280    -0.6840 C.3   1 <1>   0.1400 
 14 C       -5.2930    -8.8300    -0.8260 C.3   1 <1>   0.1400 
 15 C       -7.3930    -7.7050    -0.4690 C.3   1 <1>   0.2000 
 16 C       -6.6370    -8.9840    -0.1140 C.3   1 <1>  -0.0800 
 17 O       -8.2540    -7.3640     0.5620 O.3   1 <1>  -0.6800 
 18 C       -7.4120   -10.2560    -0.4990 C.3   1 <1>  -0.0170 
 19 C       -6.6520   -11.5160    -0.1190 C.ar  1 <1>   0.1670 
 20 N       -5.7400   -11.9340    -0.9830 N.ar  1 <1>  -0.6200 
 21 C       -6.9350   -12.1530     1.0800 C.ar  1 <1>  -0.1500 
 22 C       -5.0810   -13.0280    -0.6370 C.ar  1 <1>   0.1600 
 23 C       -6.2410   -13.2930     1.4270 C.ar  1 <1>  -0.1500 
 24 C       -5.2880   -13.7340     0.5350 C.ar  1 <1>  -0.1500 
 25 H       -1.0880    -3.3130    -0.1110 H     1 <1>   0.1500 
 26 H       -2.8030     0.5530     0.3240 H     1 <1>   0.1500 
 27 H       -5.0010    -0.4710     0.8260 H     1 <1>   0.1500 
 28 H       -5.2330    -2.9100     0.8570 H     1 <1>   0.1500 
 29 H       -2.4190    -5.2500     0.7660 H     1 <1>   0.0800 
 30 H       -4.1230    -5.0850     1.0540 H     1 <1>   0.0800 
 31 H       -2.7670    -5.1020    -1.6550 H     1 <1>   0.0800 
 32 H       -4.4640    -4.8380    -1.4360 H     1 <1>   0.0800 
 33 H       -6.2490    -5.9860     0.1750 H     1 <1>   0.0800 
 34 H       -6.5530    -6.0500    -1.5630 H     1 <1>   0.0800 
 35 H       -5.3440    -9.2110    -1.8320 H     1 <1>   0.0800 
 36 H       -4.5030    -9.3390    -0.2980 H     1 <1>   0.0800 
 37 H       -7.9720    -7.8270    -1.3690 H     1 <1>   0.0800 
 38 H       -6.4310    -9.0010     0.9420 H     1 <1>   0.0800 
 39 H       -7.7700    -7.3230     1.4090 H     1 <1>   0.4000 
 40 H       -7.5980   -10.2680    -1.5590 H     1 <1>   0.0800 
 41 H       -8.3670   -10.2520    -0.0040 H     1 <1>   0.0800 
 42 H       -7.6890   -11.7640     1.7390 H     1 <1>   0.1500 
 43 H       -4.3330   -13.3810    -1.3270 H     1 <1>   0.1500 
 44 H       -6.4340   -13.8120     2.3500 H     1 <1>   0.1500 
 45 H       -4.7090   -14.6150     0.7430 H     1 <1>   0.1500 
@<TRIPOS>BOND
  1   1   2  1   
  2   2   3  ar  
  3   2   4  ar  
  4   3   5  ar  
  5   3  25  1   
  6   4   6  ar  
  7   4  26  1   
  8   5   7  ar  
  9   5   8  1   
 10   6   7  ar  
 11   6  27  1   
 12   7  28  1   
 13   8   9  1   
 14   8  29  1   
 15   8  30  1   
 16   9  10  1   
 17   9  31  1   
 18   9  32  1   
 19  10  11  2   
 20  10  12  am  
 21  12  13  1   
 22  12  14  1   
 23  13  15  1   
 24  13  33  1   
 25  13  34  1   
 26  14  16  1   
 27  14  35  1   
 28  14  36  1   
 29  15  16  1   
 30  15  17  1   
 31  15  37  1   
 32  16  18  1   
 33  16  38  1   
 34  17  39  1   
 35  18  19  1   
 36  18  40  1   
 37  18  41  1   
 38  19  20  ar  
 39  19  21  ar  
 40  20  22  ar  
 41  21  23  ar  
 42  21  42  1   
 43  22  24  ar  
 44  22  43  1   
 45  23  24  ar  
 46  23  44  1   
 47  24  45  1   
@<TRIPOS>SUBSTRUCTURE
  1 ****  12 GROUP 4 **** **** 0

# MOE 2024.06 (io_trps.svl 2023.06)
