@<TRIPOS>MOLECULE
NONAME
51 53 1 0 0 
SMALL
USER_CHARGES


@<TRIPOS>ATOM
  1 O        0.7040     0.1470    -1.7370 O.2   1 <1>  -0.5700 
  2 C        1.8540     0.0850    -1.3630 C.2   1 <1>   0.7150 
  3 N        2.4170    -1.1480    -1.4570 N.am  1 <1>  -0.7300 
  4 C        2.5120     1.2620    -0.8770 C.2   1 <1>  -0.2370 
  5 C        3.6160    -1.7810    -0.8410 C.3   1 <1>   0.1400 
  6 N        3.8420     1.4290    -0.6910 N.pl3 1 <1>   0.3140 
  7 C        1.9580     2.4520    -0.5280 C.2   1 <1>  -0.1500 
  8 C        4.5820    -0.8290    -0.1180 C.3   1 <1>   0.2000 
  9 N        4.1510     2.6480    -0.2400 N.2   1 <1>  -0.7070 
 10 C        4.9020     0.4360    -0.9090 C.3   1 <1>   0.0960 
 11 C        2.9980     3.2890    -0.1360 C.2   1 <1>   0.2030 
 12 O        5.7670    -1.5170     0.1150 O.3   1 <1>  -0.6800 
 13 C        2.8370     4.6620     0.3190 C.2   1 <1>   0.7160 
 14 O        1.7430     5.1950     0.3990 O.2   1 <1>  -0.5700 
 15 N        3.9460     5.3780     0.6720 N.am  1 <1>  -0.7300 
 16 C        3.9920     6.7870     1.1020 C.3   1 <1>   0.1400 
 17 C        5.0980     7.5050     0.3330 C.3   1 <1>  -0.1600 
 18 C        5.1470     8.9820     0.7130 C.3   1 <1>   0.1200 
 19 O        6.1980     9.5610     0.0130 O.3   1 <1>  -0.5600 
 20 C        6.3720    10.9260     0.2160 C.3   1 <1>   0.2000 
 21 C        5.4590    11.7030    -0.7430 C.3   1 <1>  -0.1600 
 22 C        7.8480    11.2380    -0.0500 C.3   1 <1>  -0.1600 
 23 C        5.7320    13.2140    -0.6710 C.3   1 <1>  -0.1600 
 24 C        8.1230    12.7470     0.0290 C.3   1 <1>  -0.1600 
 25 C        7.2120    13.5250    -0.9300 C.3   1 <1>  -0.1600 
 26 H        1.7610    -1.8180    -1.8670 H     1 <1>   0.3700 
 27 H        4.1520    -2.2840    -1.6280 H     1 <1>   0.0800 
 28 H        3.2840    -2.5250    -0.1380 H     1 <1>   0.0800 
 29 H        0.9160     2.7240    -0.5460 H     1 <1>   0.1500 
 30 H        4.1860    -0.5670     0.8500 H     1 <1>   0.0800 
 31 H        5.8260     0.8610    -0.5590 H     1 <1>   0.0800 
 32 H        4.9750     0.2320    -1.9610 H     1 <1>   0.0800 
 33 H        6.2220    -1.7540    -0.7160 H     1 <1>   0.4000 
 34 H        4.8350     4.8790     0.5830 H     1 <1>   0.3700 
 35 H        4.1870     6.8260     2.1610 H     1 <1>   0.0800 
 36 H        3.0420     7.2580     0.9100 H     1 <1>   0.0800 
 37 H        4.9080     7.4250    -0.7220 H     1 <1>   0.0800 
 38 H        6.0470     7.0550     0.5620 H     1 <1>   0.0800 
 39 H        5.3310     9.1000     1.7680 H     1 <1>   0.0800 
 40 H        4.2280     9.4720     0.4400 H     1 <1>   0.0800 
 41 H        6.1390    11.1670     1.2400 H     1 <1>   0.0800 
 42 H        4.4280    11.5240    -0.5000 H     1 <1>   0.0800 
 43 H        5.6370    11.3610    -1.7480 H     1 <1>   0.0800 
 44 H        8.1100    10.8830    -1.0310 H     1 <1>   0.0800 
 45 H        8.4550    10.7240     0.6730 H     1 <1>   0.0800 
 46 H        5.4570    13.5790     0.3040 H     1 <1>   0.0800 
 47 H        5.1240    13.7240    -1.3980 H     1 <1>   0.0800 
 48 H        9.1540    12.9380    -0.2180 H     1 <1>   0.0800 
 49 H        7.9570    13.0890     1.0370 H     1 <1>   0.0800 
 50 H        7.3840    14.5820    -0.8140 H     1 <1>   0.0800 
 51 H        7.4580    13.2610    -1.9440 H     1 <1>   0.0800 
@<TRIPOS>BOND
  1   1   2  2   
  2   2   3  am  
  3   2   4  1   
  4   3   5  1   
  5   3  26  1   
  6   4   6  1   
  7   4   7  2   
  8   5   8  1   
  9   5  27  1   
 10   5  28  1   
 11   6   9  1   
 12   6  10  1   
 13   7  11  1   
 14   7  29  1   
 15   8  10  1   
 16   8  12  1   
 17   8  30  1   
 18   9  11  2   
 19  10  31  1   
 20  10  32  1   
 21  11  13  1   
 22  12  33  1   
 23  13  14  2   
 24  13  15  am  
 25  15  16  1   
 26  15  34  1   
 27  16  17  1   
 28  16  35  1   
 29  16  36  1   
 30  17  18  1   
 31  17  37  1   
 32  17  38  1   
 33  18  19  1   
 34  18  39  1   
 35  18  40  1   
 36  19  20  1   
 37  20  21  1   
 38  20  22  1   
 39  20  41  1   
 40  21  23  1   
 41  21  42  1   
 42  21  43  1   
 43  22  24  1   
 44  22  44  1   
 45  22  45  1   
 46  23  25  1   
 47  23  46  1   
 48  23  47  1   
 49  24  25  1   
 50  24  48  1   
 51  24  49  1   
 52  25  50  1   
 53  25  51  1   
@<TRIPOS>SUBSTRUCTURE
  1 ****  15 GROUP 4 **** **** 0

# MOE 2024.06 (io_trps.svl 2023.06)
