@<TRIPOS>MOLECULE
NONAME
51 54 1 0 0 
SMALL
USER_CHARGES


@<TRIPOS>ATOM
  1 O       -1.9080     0.4200     2.4050 O.2   1 <1>  -0.5700 
  2 C       -1.9390     0.8920     1.2830 C.2   1 <1>   0.7150 
  3 N       -2.4430     0.1470     0.2460 N.am  1 <1>  -0.6600 
  4 C       -1.5340     2.2610     1.0940 C.2   1 <1>  -0.2370 
  5 C       -2.5170    -1.3460     0.4030 C.3   1 <1>   0.3640 
  6 C       -3.3540     0.8080    -0.7340 C.3   1 <1>   0.1400 
  7 N       -1.8570     3.2010     2.0410 N.pl3 1 <1>   0.0330 
  8 C       -0.8280     2.8960     0.1080 C.2   1 <1>  -0.1810 
  9 C       -1.0930    -1.9030     0.3150 C.ar  1 <1>  -0.1440 
 10 C       -3.4220    -2.1010    -0.6200 C.3   1 <1>   0.2000 
 11 C       -3.8310    -0.1420    -1.8320 C.3   1 <1>   0.1200 
 12 C       -1.4020     4.4260     1.6400 C.ar  1 <1>  -0.1520 
 13 C       -0.7510     4.2660     0.4240 C.ar  1 <1>   0.0000 
 14 C       -0.1690     2.2910    -1.1170 C.3   1 <1>  -0.0590 
 15 C       -0.3200    -1.7220    -0.8250 C.ar  1 <1>  -0.1500 
 16 C       -0.5560    -2.6040     1.3850 C.ar  1 <1>  -0.1500 
 17 O       -4.3710    -1.2800    -1.2460 O.3   1 <1>  -0.5600 
 18 C       -4.2000    -3.2590     0.0260 C.3   1 <1>   0.1200 
 19 C       -1.5010     5.6810     2.2440 C.ar  1 <1>  -0.1500 
 20 C       -0.1870     5.3840    -0.2050 C.ar  1 <1>  -0.1500 
 21 C        0.9610    -2.2420    -0.8980 C.ar  1 <1>  -0.1500 
 22 C        0.7250    -3.1250     1.3140 C.ar  1 <1>  -0.1500 
 23 O       -3.3540    -4.1220     0.7170 O.3   1 <1>  -0.6800 
 24 C       -0.9430     6.7680     1.6120 C.ar  1 <1>  -0.1500 
 25 C       -0.2830     6.6240     0.3840 C.ar  1 <1>  -0.1440 
 26 C        1.4840    -2.9450     0.1720 C.ar  1 <1>  -0.1500 
 27 C        0.3180     7.8530    -0.2740 C.3   1 <1>  -0.0970 
 28 H       -2.9050    -1.5550     1.3860 H     1 <1>   0.0800 
 29 H       -4.2140     1.1840    -0.2080 H     1 <1>   0.0800 
 30 H       -2.8590     1.6460    -1.1890 H     1 <1>   0.0800 
 31 H       -2.3150     2.9860     2.9330 H     1 <1>   0.2700 
 32 H       -2.8120    -2.5110    -1.4040 H     1 <1>   0.0800 
 33 H       -3.0230    -0.4240    -2.4860 H     1 <1>   0.0800 
 34 H       -4.6040     0.3270    -2.4160 H     1 <1>   0.0800 
 35 H        0.8710     2.5640    -1.1380 H     1 <1>   0.0800 
 36 H       -0.6440     2.6550    -2.0090 H     1 <1>   0.0800 
 37 H       -0.2350     1.2190    -1.0920 H     1 <1>   0.0800 
 38 H       -0.7130    -1.1720    -1.6610 H     1 <1>   0.1500 
 39 H       -1.1360    -2.7460     2.2810 H     1 <1>   0.1500 
 40 H       -4.7150    -3.8280    -0.7280 H     1 <1>   0.0800 
 41 H       -4.9150    -2.8730     0.7320 H     1 <1>   0.0800 
 42 H       -2.0060     5.7860     3.1870 H     1 <1>   0.1500 
 43 H        0.3150     5.2450    -1.1430 H     1 <1>   0.1500 
 44 H        1.5530    -2.0970    -1.7850 H     1 <1>   0.1500 
 45 H        1.1290    -3.6660     2.1520 H     1 <1>   0.1500 
 46 H       -2.6520    -4.4780     0.1360 H     1 <1>   0.4000 
 47 H       -1.0090     7.7430     2.0620 H     1 <1>   0.1500 
 48 H        2.4800    -3.3490     0.1190 H     1 <1>   0.1500 
 49 H        1.0530     8.2930     0.3760 H     1 <1>   0.0800 
 50 H       -0.4530     8.5760    -0.4710 H     1 <1>   0.0800 
 51 H        0.7930     7.5960    -1.2040 H     1 <1>   0.0800 
@<TRIPOS>BOND
  1   1   2  2   
  2   2   3  am  
  3   2   4  1   
  4   3   5  1   
  5   3   6  1   
  6   4   7  1   
  7   4   8  2   
  8   5   9  1   
  9   5  10  1   
 10   5  28  1   
 11   6  11  1   
 12   6  29  1   
 13   6  30  1   
 14   7  12  1   
 15   7  31  1   
 16   8  13  1   
 17   8  14  1   
 18   9  15  ar  
 19   9  16  ar  
 20  10  17  1   
 21  10  18  1   
 22  10  32  1   
 23  11  17  1   
 24  11  33  1   
 25  11  34  1   
 26  12  13  ar  
 27  12  19  ar  
 28  13  20  ar  
 29  14  35  1   
 30  14  36  1   
 31  14  37  1   
 32  15  21  ar  
 33  15  38  1   
 34  16  22  ar  
 35  16  39  1   
 36  18  23  1   
 37  18  40  1   
 38  18  41  1   
 39  19  24  ar  
 40  19  42  1   
 41  20  25  ar  
 42  20  43  1   
 43  21  26  ar  
 44  21  44  1   
 45  22  26  ar  
 46  22  45  1   
 47  23  46  1   
 48  24  25  ar  
 49  24  47  1   
 50  25  27  1   
 51  26  48  1   
 52  27  49  1   
 53  27  50  1   
 54  27  51  1   
@<TRIPOS>SUBSTRUCTURE
  1 ****   2 GROUP 4 **** **** 0

# MOE 2024.06 (io_trps.svl 2023.06)
