@<TRIPOS>MOLECULE
NONAME
54 55 1 0 0 
SMALL
USER_CHARGES


@<TRIPOS>ATOM
  1 O        2.2060     0.2210     2.4300 O.2   1 <1>  -0.5700 
  2 C        2.3240     0.7100     1.3090 C.2   1 <1>   0.6300 
  3 N        2.2980     2.0610     1.2180 N.am  1 <1>  -0.4900 
  4 C        2.4710    -0.0110     0.0890 C.2   1 <1>   0.3890 
  5 C        2.3880     2.6360     0.0070 C.2   1 <1>   0.5600 
  6 N        2.5460     0.5940    -1.0620 N.2   1 <1>  -0.4500 
  7 C        2.5320    -1.5330     0.1000 C.3   1 <1>  -0.0990 
  8 N        2.4980     1.9400    -1.1020 N.2   1 <1>  -0.4500 
  9 N        2.3640     3.9700    -0.0640 N.pl3 1 <1>  -0.8500 
 10 C        1.1510    -2.1520    -0.1840 C.3   1 <1>  -0.0990 
 11 C        1.1460    -3.6760    -0.2100 C.2   1 <1>   0.5690 
 12 O        2.1460    -4.2600     0.1340 O.2   1 <1>  -0.5700 
 13 N        0.0230    -4.3540    -0.6110 N.am  1 <1>  -0.6600 
 14 C       -1.2860    -3.7350    -0.9890 C.3   1 <1>   0.1400 
 15 C       -0.0010    -5.8480    -0.6760 C.3   1 <1>   0.1400 
 16 C       -2.4590    -4.4160    -0.2490 C.3   1 <1>   0.2000 
 17 C       -1.2440    -6.4140     0.0410 C.3   1 <1>   0.2000 
 18 O       -2.3980    -5.8000    -0.4550 O.3   1 <1>  -0.5600 
 19 C       -3.8480    -3.9200    -0.7180 C.3   1 <1>  -0.0800 
 20 C       -1.4250    -7.9240    -0.1620 C.3   1 <1>  -0.1600 
 21 C       -4.0240    -2.4040    -0.5240 C.3   1 <1>  -0.2400 
 22 C       -4.9840    -4.6450     0.0240 C.3   1 <1>  -0.2400 
 23 C       -0.2960    -8.7570     0.4660 C.3   1 <1>  -0.1600 
 24 C       -0.5730   -10.2570     0.3180 C.3   1 <1>  -0.1600 
 25 C        0.5510   -11.0890     0.9420 C.3   1 <1>  -0.2400 
 26 H        2.2030     2.5920     2.0730 H     1 <1>   0.3700 
 27 H        3.2300    -1.8590    -0.6520 H     1 <1>   0.0800 
 28 H        2.8970    -1.8780     1.0520 H     1 <1>   0.0800 
 29 H        2.4420     4.4040    -0.9860 H     1 <1>   0.4000 
 30 H        2.3070     4.6070     0.7280 H     1 <1>   0.4000 
 31 H        0.8100    -1.7960    -1.1390 H     1 <1>   0.0800 
 32 H        0.4600    -1.8280     0.5720 H     1 <1>   0.0800 
 33 H       -1.2880    -2.6880    -0.7560 H     1 <1>   0.0800 
 34 H       -1.4310    -3.8410    -2.0500 H     1 <1>   0.0800 
 35 H       -0.0150    -6.1550    -1.7070 H     1 <1>   0.0800 
 36 H        0.8850    -6.2550    -0.2230 H     1 <1>   0.0800 
 37 H       -2.3650    -4.2340     0.8080 H     1 <1>   0.0800 
 38 H       -1.1800    -6.2040     1.0960 H     1 <1>   0.0800 
 39 H       -3.9410    -4.1350    -1.7700 H     1 <1>   0.0800 
 40 H       -2.3590    -8.2110     0.2890 H     1 <1>   0.0800 
 41 H       -1.4830    -8.1330    -1.2160 H     1 <1>   0.0800 
 42 H       -3.8650    -2.1330     0.5050 H     1 <1>   0.0800 
 43 H       -5.0210    -2.1080    -0.8010 H     1 <1>   0.0800 
 44 H       -3.3410    -1.8500    -1.1410 H     1 <1>   0.0800 
 45 H       -4.9140    -4.4750     1.0840 H     1 <1>   0.0800 
 46 H       -4.9330    -5.7050    -0.1550 H     1 <1>   0.0800 
 47 H       -5.9420    -4.2980    -0.3200 H     1 <1>   0.0800 
 48 H        0.6410    -8.5270    -0.0100 H     1 <1>   0.0800 
 49 H       -0.2100    -8.5130     1.5120 H     1 <1>   0.0800 
 50 H       -1.5040   -10.5030     0.8010 H     1 <1>   0.0800 
 51 H       -0.6620   -10.5080    -0.7250 H     1 <1>   0.0800 
 52 H        0.6430   -10.8700     1.9910 H     1 <1>   0.0800 
 53 H        1.4890   -10.8770     0.4590 H     1 <1>   0.0800 
 54 H        0.3380   -12.1380     0.8290 H     1 <1>   0.0800 
@<TRIPOS>BOND
  1   1   2  2   
  2   2   3  am  
  3   2   4  1   
  4   3   5  1   
  5   3  26  1   
  6   4   6  2   
  7   4   7  1   
  8   5   8  2   
  9   5   9  1   
 10   6   8  1   
 11   7  10  1   
 12   7  27  1   
 13   7  28  1   
 14   9  29  1   
 15   9  30  1   
 16  10  11  1   
 17  10  31  1   
 18  10  32  1   
 19  11  12  2   
 20  11  13  am  
 21  13  14  1   
 22  13  15  1   
 23  14  16  1   
 24  14  33  1   
 25  14  34  1   
 26  15  17  1   
 27  15  35  1   
 28  15  36  1   
 29  16  18  1   
 30  16  19  1   
 31  16  37  1   
 32  17  18  1   
 33  17  20  1   
 34  17  38  1   
 35  19  21  1   
 36  19  22  1   
 37  19  39  1   
 38  20  23  1   
 39  20  40  1   
 40  20  41  1   
 41  21  42  1   
 42  21  43  1   
 43  21  44  1   
 44  22  45  1   
 45  22  46  1   
 46  22  47  1   
 47  23  24  1   
 48  23  48  1   
 49  23  49  1   
 50  24  25  1   
 51  24  50  1   
 52  24  51  1   
 53  25  52  1   
 54  25  53  1   
 55  25  54  1   
@<TRIPOS>SUBSTRUCTURE
  1 ****  11 GROUP 4 **** **** 0

# MOE 2024.06 (io_trps.svl 2023.06)
