@<TRIPOS>MOLECULE
NONAME
50 53 1 0 0 
SMALL
USER_CHARGES


@<TRIPOS>ATOM
  1 O        1.1420     0.8780     1.2900 O.3   1 <1>  -0.3630 
  2 C        2.3510     1.3050     0.8500 C.ar  1 <1>   0.0830 
  3 C        0.0850     0.6940     0.3700 C.3   1 <1>   0.1200 
  4 C        2.6880     1.3040    -0.5000 C.ar  1 <1>  -0.1440 
  5 C        3.2630     1.7420     1.7940 C.ar  1 <1>  -0.1500 
  6 C        0.5960    -0.0190    -0.8840 C.3   1 <1>  -0.1600 
  7 C        3.9410     1.7530    -0.8870 C.ar  1 <1>  -0.1500 
  8 C        1.6950     0.8170    -1.5430 C.3   1 <1>  -0.0160 
  9 C        4.5120     2.1860     1.4010 C.ar  1 <1>  -0.1500 
 10 C        4.8590     2.1940     0.0570 C.ar  1 <1>  -0.1440 
 11 C        6.2250     2.6840    -0.3750 C.3   1 <1>   0.3530 
 12 N        6.2420     4.1530    -0.2200 N.pl3 1 <1>  -0.8690 
 13 C        7.1540     5.0340     0.1950 C.ar  1 <1>   0.7710 
 14 N        6.7410     6.2760     0.3160 N.ar  1 <1>  -0.6200 
 15 N        8.4150     4.6520     0.4640 N.ar  1 <1>  -0.1790 
 16 C        7.6070     7.1880     0.7190 C.ar  1 <1>   0.4100 
 17 C        9.3320     5.5500     0.8990 C.ar  1 <1>   0.2110 
 18 N        7.1750     8.4740     0.8180 N.pl3 1 <1>  -0.8380 
 19 C        8.9350     6.8370     1.0370 C.ar  1 <1>  -0.1500 
 20 C        8.0430     9.6780     0.5870 C.3   1 <1>   0.2090 
 21 C        5.7310     8.8250     1.0050 C.3   1 <1>   0.2090 
 22 C        7.5350    10.4940    -0.6160 C.3   1 <1>   0.2000 
 23 C        5.2190     9.5860    -0.2240 C.3   1 <1>  -0.1600 
 24 O        8.2560    11.6710    -0.7150 O.3   1 <1>  -0.6800 
 25 C        6.0490    10.8500    -0.4970 C.3   1 <1>  -0.1600 
 26 H       -0.3100     1.6650     0.1260 H     1 <1>   0.0800 
 27 H       -0.6770     0.1140     0.8600 H     1 <1>   0.0800 
 28 H        2.9840     1.7310     2.8320 H     1 <1>   0.1500 
 29 H       -0.2130    -0.1720    -1.5750 H     1 <1>   0.0800 
 30 H        0.9850    -0.9830    -0.6020 H     1 <1>   0.0800 
 31 H        4.1940     1.7560    -1.9330 H     1 <1>   0.1500 
 32 H        2.1970     0.2290    -2.2910 H     1 <1>   0.0800 
 33 H        1.2550     1.6730    -2.0240 H     1 <1>   0.0800 
 34 H        5.2040     2.5270     2.1510 H     1 <1>   0.1500 
 35 H        6.3990     2.4260    -1.4070 H     1 <1>   0.0800 
 36 H        6.9800     2.2190     0.2340 H     1 <1>   0.0800 
 37 H        5.3100     4.5580    -0.3730 H     1 <1>   0.4000 
 38 H        8.6340     3.6720     0.3250 H     1 <1>   0.4570 
 39 H       10.3340     5.2200     1.1230 H     1 <1>   0.1500 
 40 H        9.6070     7.5920     1.3970 H     1 <1>   0.1500 
 41 H        9.0570     9.3900     0.3840 H     1 <1>   0.0800 
 42 H        8.0260    10.2910     1.4720 H     1 <1>   0.0800 
 43 H        5.6310     9.4430     1.8810 H     1 <1>   0.0800 
 44 H        5.1320     7.9440     1.1610 H     1 <1>   0.0800 
 45 H        7.7100     9.9320    -1.5170 H     1 <1>   0.0800 
 46 H        4.1900     9.8570    -0.0680 H     1 <1>   0.0800 
 47 H        5.2580     8.9290    -1.0760 H     1 <1>   0.0800 
 48 H        7.9370    12.3240    -0.0640 H     1 <1>   0.4000 
 49 H        5.7150    11.3080    -1.4120 H     1 <1>   0.0800 
 50 H        5.9030    11.5420     0.3130 H     1 <1>   0.0800 
@<TRIPOS>BOND
  1   1   2  1   
  2   1   3  1   
  3   2   4  ar  
  4   2   5  ar  
  5   3   6  1   
  6   3  26  1   
  7   3  27  1   
  8   4   7  ar  
  9   4   8  1   
 10   5   9  ar  
 11   5  28  1   
 12   6   8  1   
 13   6  29  1   
 14   6  30  1   
 15   7  10  ar  
 16   7  31  1   
 17   8  32  1   
 18   8  33  1   
 19   9  10  ar  
 20   9  34  1   
 21  10  11  1   
 22  11  12  1   
 23  11  35  1   
 24  11  36  1   
 25  12  13  1   
 26  12  37  1   
 27  13  14  ar  
 28  13  15  ar  
 29  14  16  ar  
 30  15  17  ar  
 31  15  38  1   
 32  16  18  1   
 33  16  19  ar  
 34  17  19  ar  
 35  17  39  1   
 36  18  20  1   
 37  18  21  1   
 38  19  40  1   
 39  20  22  1   
 40  20  41  1   
 41  20  42  1   
 42  21  23  1   
 43  21  43  1   
 44  21  44  1   
 45  22  24  1   
 46  22  25  1   
 47  22  45  1   
 48  23  25  1   
 49  23  46  1   
 50  23  47  1   
 51  24  48  1   
 52  25  49  1   
 53  25  50  1   
@<TRIPOS>SUBSTRUCTURE
  1 ****  12 GROUP 4 **** **** 0

# MOE 2024.06 (io_trps.svl 2023.06)
