@<TRIPOS>MOLECULE
NONAME
19 19 1 0 0 
SMALL
USER_CHARGES


@<TRIPOS>ATOM
  1 BR      -0.3020    -0.1060    -0.0210 Br    1 <1>  -0.0570 
  2 C        1.5890    -0.4940    -0.0050 C.2   1 <1>   0.0570 
  3 C        2.5580     0.4370    -0.0070 C.2   1 <1>  -0.1400 
  4 C        2.0140    -1.8560     0.0100 C.2   1 <1>  -0.1500 
  5 S        4.1160    -0.3790     0.0100 S.3   1 <1>  -0.0800 
  6 C        2.5580     1.9520    -0.0210 C.3   1 <1>  -0.0600 
  7 C        3.3570    -1.9730     0.0190 C.2   1 <1>  -0.1400 
  8 C        4.3010    -3.1630     0.0360 C.3   1 <1>   0.0200 
  9 C        3.5430    -4.4910    -0.0010 C.3   1 <1>   0.1200 
 10 O        4.4490    -5.5400    -0.0100 O.3   1 <1>  -0.6800 
 11 H        1.2920    -2.6520     0.0140 H     1 <1>   0.1500 
 12 H        1.5510     2.3260    -0.0310 H     1 <1>   0.0800 
 13 H        3.0710     2.3100    -0.8960 H     1 <1>   0.0800 
 14 H        3.0590     2.3250     0.8540 H     1 <1>   0.0800 
 15 H        4.8970    -3.1200     0.9300 H     1 <1>   0.0800 
 16 H        4.9510    -3.0960    -0.8180 H     1 <1>   0.0800 
 17 H        2.9300    -4.5640    -0.8830 H     1 <1>   0.0800 
 18 H        2.9240    -4.5960     0.8740 H     1 <1>   0.0800 
 19 H        4.9760    -5.5400    -0.8320 H     1 <1>   0.4000 
@<TRIPOS>BOND
  1   1   2  1   
  2   2   3  2   
  3   2   4  1   
  4   3   5  1   
  5   3   6  1   
  6   4   7  2   
  7   4  11  1   
  8   5   7  1   
  9   6  12  1   
 10   6  13  1   
 11   6  14  1   
 12   7   8  1   
 13   8   9  1   
 14   8  15  1   
 15   8  16  1   
 16   9  10  1   
 17   9  17  1   
 18   9  18  1   
 19  10  19  1   
@<TRIPOS>SUBSTRUCTURE
  1 ****   7 GROUP 4 **** **** 0

# MOE 2024.06 (io_trps.svl 2023.06)
