@<TRIPOS>MOLECULE
NONAME
36 37 1 0 0 
SMALL
USER_CHARGES


@<TRIPOS>ATOM
  1 O        0.8670     1.1950     0.3760 O.3   1 <1>  -0.2800 
  2 C        1.5280     2.0200    -0.3690 C.2   1 <1>   0.5620 
  3 C        0.0880     0.5780    -0.4630 C.2   1 <1>   0.2980 
  4 N        1.1870     1.9300    -1.6090 N.2   1 <1>  -0.3380 
  5 N        2.4560     2.8300     0.2380 N.pl3 1 <1>  -0.8530 
  6 N        0.2490     0.9810    -1.6640 N.2   1 <1>  -0.3380 
  7 C       -0.8550    -0.5120     0.0250 C.3   1 <1>   0.3000 
  8 C        3.7560     3.1820    -0.3590 C.3   1 <1>   0.4330 
  9 O       -1.7300    -0.0180     1.0010 O.3   1 <1>  -0.5600 
 10 C        4.6480     1.9440    -0.4380 C.ar  1 <1>  -0.1440 
 11 C        3.6060     3.9280    -1.6840 C.3   1 <1>  -0.2400 
 12 C       -2.6400    -0.9540     1.4800 C.3   1 <1>   0.0400 
 13 C        5.6740     1.7880     0.4830 C.ar  1 <1>  -0.1500 
 14 C        4.4640     0.9600    -1.4020 C.ar  1 <1>  -0.1500 
 15 C        6.5050     0.6800     0.4520 C.ar  1 <1>   0.0820 
 16 C        5.2900    -0.1510    -1.4430 C.ar  1 <1>  -0.1500 
 17 O        7.4770     0.6220     1.3960 O.3   1 <1>  -0.3630 
 18 C        6.3100    -0.2950    -0.5210 C.ar  1 <1>  -0.1500 
 19 C        8.3830    -0.4580     1.4480 C.3   1 <1>   0.0400 
 20 H        2.5670     2.5780     1.2190 H     1 <1>   0.4000 
 21 H       -0.2820    -1.3150     0.4530 H     1 <1>   0.0800 
 22 H       -1.4360    -0.8790    -0.8030 H     1 <1>   0.0800 
 23 H        4.2240     3.8750     0.3200 H     1 <1>   0.0800 
 24 H        3.2260     3.2930    -2.4600 H     1 <1>   0.0800 
 25 H        4.5670     4.2920    -1.9970 H     1 <1>   0.0800 
 26 H        2.9440     4.7660    -1.5580 H     1 <1>   0.0800 
 27 H       -3.2560    -0.4730     2.2190 H     1 <1>   0.0800 
 28 H       -2.1060    -1.7730     1.9320 H     1 <1>   0.0800 
 29 H       -3.2560    -1.3020     0.6680 H     1 <1>   0.0800 
 30 H        5.8460     2.5260     1.2460 H     1 <1>   0.1500 
 31 H        3.6740     1.0480    -2.1270 H     1 <1>   0.1500 
 32 H        5.1330    -0.9030    -2.1960 H     1 <1>   0.1500 
 33 H        6.9350    -1.1650    -0.5750 H     1 <1>   0.1500 
 34 H        9.0580    -0.2880     2.2670 H     1 <1>   0.0800 
 35 H        8.9320    -0.4980     0.5240 H     1 <1>   0.0800 
 36 H        7.8330    -1.3680     1.6100 H     1 <1>   0.0800 
@<TRIPOS>BOND
  1   1   2  1   
  2   1   3  1   
  3   2   4  2   
  4   2   5  1   
  5   3   6  2   
  6   3   7  1   
  7   4   6  1   
  8   5   8  1   
  9   5  20  1   
 10   7   9  1   
 11   7  21  1   
 12   7  22  1   
 13   8  10  1   
 14   8  11  1   
 15   8  23  1   
 16   9  12  1   
 17  10  13  ar  
 18  10  14  ar  
 19  11  24  1   
 20  11  25  1   
 21  11  26  1   
 22  12  27  1   
 23  12  28  1   
 24  12  29  1   
 25  13  15  ar  
 26  13  30  1   
 27  14  16  ar  
 28  14  31  1   
 29  15  17  1   
 30  15  18  ar  
 31  16  18  ar  
 32  16  32  1   
 33  17  19  1   
 34  18  33  1   
 35  19  34  1   
 36  19  35  1   
 37  19  36  1   
@<TRIPOS>SUBSTRUCTURE
  1 ****   2 GROUP 4 **** **** 0

# MOE 2024.06 (io_trps.svl 2023.06)
