@<TRIPOS>MOLECULE
NONAME
41 43 1 0 0 
SMALL
USER_CHARGES


@<TRIPOS>ATOM
  1 F        0.7300     0.3350    -1.4010 F     1 <1>  -0.1900 
  2 C        1.6580     1.0890    -0.8450 C.ar  1 <1>   0.1900 
  3 C        2.8690     0.5630    -0.3900 C.ar  1 <1>   0.4100 
  4 C        1.4230     2.4300    -0.7260 C.ar  1 <1>   0.1600 
  5 N        3.7650     1.3800     0.1380 N.ar  1 <1>  -0.6200 
  6 N        3.2210    -0.7840    -0.4630 N.pl3 1 <1>  -0.8380 
  7 N        2.3130     3.2450    -0.1930 N.ar  1 <1>  -0.6200 
  8 C        3.4330     2.6560     0.2120 C.ar  1 <1>   0.7200 
  9 C        2.2330    -1.8840    -0.3570 C.3   1 <1>   0.2090 
 10 C        4.5680    -1.2610    -0.0620 C.3   1 <1>   0.2090 
 11 N        4.3780     3.4380     0.7720 N.pl3 1 <1>  -0.8690 
 12 C        2.9850    -3.0360     0.2990 C.3   1 <1>  -0.1600 
 13 C        4.4510    -2.7790    -0.0340 C.3   1 <1>  -0.1600 
 14 C        4.5940     4.8370     0.3150 C.3   1 <1>   0.3900 
 15 C        6.0730     5.2330     0.3110 C.2   1 <1>   0.3350 
 16 N        7.0580     4.4470     0.5180 N.2   1 <1>  -0.4100 
 17 N        6.4460     6.4860     0.0760 N.2   1 <1>  -0.5650 
 18 O        8.1410     5.1560     0.4300 O.3   1 <1>  -0.0190 
 19 C        7.7130     6.3660     0.1650 C.2   1 <1>   0.2980 
 20 C        8.7560     7.4730    -0.0020 C.3   1 <1>   0.1000 
 21 C        8.1390     8.8800     0.0530 C.3   1 <1>  -0.2400 
 22 C        9.5290     7.2960    -1.3160 C.3   1 <1>  -0.2400 
 23 H        0.4940     2.8440    -1.0740 H     1 <1>   0.1500 
 24 H        1.9110    -2.1620    -1.3460 H     1 <1>   0.0800 
 25 H        1.3810    -1.5920     0.2350 H     1 <1>   0.0800 
 26 H        4.8040    -0.8880     0.9210 H     1 <1>   0.0800 
 27 H        5.3140    -0.9290    -0.7640 H     1 <1>   0.0800 
 28 H        5.2580     2.9320     0.8870 H     1 <1>   0.4000 
 29 H        2.6430    -3.9910    -0.0590 H     1 <1>   0.0800 
 30 H        2.8390    -2.9850     1.3630 H     1 <1>   0.0800 
 31 H        5.1210    -3.2170     0.6830 H     1 <1>   0.0800 
 32 H        4.6790    -3.1620    -1.0130 H     1 <1>   0.0800 
 33 H        4.0580     5.5010     0.9690 H     1 <1>   0.0800 
 34 H        4.2080     4.9630    -0.6810 H     1 <1>   0.0800 
 35 H        9.4500     7.3850     0.8160 H     1 <1>   0.0800 
 36 H        7.4450     9.0170    -0.7570 H     1 <1>   0.0800 
 37 H        8.9060     9.6310    -0.0150 H     1 <1>   0.0800 
 38 H        7.6100     9.0130     0.9800 H     1 <1>   0.0800 
 39 H        8.8580     7.3660    -2.1540 H     1 <1>   0.0800 
 40 H       10.0060     6.3320    -1.3400 H     1 <1>   0.0800 
 41 H       10.2870     8.0530    -1.4130 H     1 <1>   0.0800 
@<TRIPOS>BOND
  1   1   2  1   
  2   2   3  ar  
  3   2   4  ar  
  4   3   5  ar  
  5   3   6  1   
  6   4   7  ar  
  7   4  23  1   
  8   5   8  ar  
  9   6   9  1   
 10   6  10  1   
 11   7   8  ar  
 12   8  11  1   
 13   9  12  1   
 14   9  24  1   
 15   9  25  1   
 16  10  13  1   
 17  10  26  1   
 18  10  27  1   
 19  11  14  1   
 20  11  28  1   
 21  12  13  1   
 22  12  29  1   
 23  12  30  1   
 24  13  31  1   
 25  13  32  1   
 26  14  15  1   
 27  14  33  1   
 28  14  34  1   
 29  15  16  2   
 30  15  17  1   
 31  16  18  1   
 32  17  19  2   
 33  18  19  1   
 34  19  20  1   
 35  20  21  1   
 36  20  22  1   
 37  20  35  1   
 38  21  36  1   
 39  21  37  1   
 40  21  38  1   
 41  22  39  1   
 42  22  40  1   
 43  22  41  1   
@<TRIPOS>SUBSTRUCTURE
  1 ****  11 GROUP 4 **** **** 0

# MOE 2024.06 (io_trps.svl 2023.06)
