@<TRIPOS>MOLECULE
NONAME
55 58 1 0 0 
SMALL
USER_CHARGES


@<TRIPOS>ATOM
  1 O       -0.8980    -0.1590     0.7890 O.3   1 <1>  -0.3630 
  2 C       -1.7830     0.8620     0.9470 C.ar  1 <1>   0.0820 
  3 C        0.3970     0.0160     0.2440 C.3   1 <1>   0.2000 
  4 C       -3.1050     0.5200     1.2180 C.ar  1 <1>  -0.1440 
  5 C       -1.4270     2.2030     0.8380 C.ar  1 <1>  -0.1500 
  6 C        0.2860     0.2120    -1.2670 C.3   1 <1>  -0.1600 
  7 C        1.1220    -1.3180     0.3700 C.3   1 <1>  -0.1600 
  8 C       -4.0580     1.5150     1.3740 C.ar  1 <1>  -0.1500 
  9 C       -3.5070    -0.9380     1.3350 C.3   1 <1>   0.4860 
 10 C       -2.3840     3.1890     0.9940 C.ar  1 <1>  -0.1500 
 11 C        0.1080    -1.1910    -1.8590 C.3   1 <1>  -0.1600 
 12 C        0.6220    -2.1740    -0.7990 C.3   1 <1>  -0.1600 
 13 C       -3.6980     2.8460     1.2610 C.ar  1 <1>  -0.1500 
 14 N       -3.1570    -1.6210     0.0640 N.4   1 <1>  -0.9590 
 15 C       -4.0240    -1.1430    -1.0570 C.3   1 <1>   0.3430 
 16 C       -3.3190    -3.0990     0.1650 C.3   1 <1>   0.3430 
 17 C       -5.0600    -2.2500    -1.2670 C.3   1 <1>   0.2000 
 18 C       -4.2460    -3.5110    -0.9820 C.3   1 <1>  -0.0800 
 19 O       -6.0560    -2.1050    -0.3040 O.3   1 <1>  -0.6800 
 20 C       -5.0450    -4.7910    -0.6760 C.3   1 <1>  -0.0170 
 21 C       -4.0980    -5.9150    -0.2910 C.ar  1 <1>  -0.1430 
 22 C       -3.3020    -6.5500    -1.2240 C.ar  1 <1>  -0.1500 
 23 C       -3.9770    -6.3550     1.0130 C.ar  1 <1>  -0.1500 
 24 C       -2.4340    -7.5500    -0.8180 C.ar  1 <1>   0.1600 
 25 C       -3.0790    -7.3650     1.3150 C.ar  1 <1>   0.1600 
 26 N       -2.2980    -7.9630     0.4310 N.ar  1 <1>  -0.6200 
 27 H        0.9090     0.8070     0.7640 H     1 <1>   0.0800 
 28 H       -0.4160     2.5030     0.6350 H     1 <1>   0.1500 
 29 H       -0.5050     0.8850    -1.5470 H     1 <1>   0.0800 
 30 H        1.2170     0.6200    -1.6220 H     1 <1>   0.0800 
 31 H        2.1770    -1.1450     0.2480 H     1 <1>   0.0800 
 32 H        0.9610    -1.7810     1.3280 H     1 <1>   0.0800 
 33 H       -5.0850     1.2700     1.5860 H     1 <1>   0.1500 
 34 H       -4.5650    -1.0240     1.5250 H     1 <1>   0.0800 
 35 H       -2.9670    -1.3840     2.1540 H     1 <1>   0.0800 
 36 H       -2.1080     4.2260     0.9110 H     1 <1>   0.1500 
 37 H       -0.9310    -1.3810    -2.0640 H     1 <1>   0.0800 
 38 H        0.6630    -1.2860    -2.7770 H     1 <1>   0.0800 
 39 H        1.4170    -2.7890    -1.1870 H     1 <1>   0.0800 
 40 H       -0.1770    -2.8130    -0.4690 H     1 <1>   0.0800 
 41 H       -4.4380     3.6200     1.3840 H     1 <1>   0.1500 
 42 H       -2.1700    -1.3480    -0.1000 H     1 <1>   0.4500 
 43 H       -4.4960    -0.1990    -0.8380 H     1 <1>   0.0800 
 44 H       -3.4280    -1.0410    -1.9480 H     1 <1>   0.0800 
 45 H       -2.3700    -3.6070     0.0970 H     1 <1>   0.0800 
 46 H       -3.7840    -3.3520     1.1040 H     1 <1>   0.0800 
 47 H       -5.5060    -2.2200    -2.2470 H     1 <1>   0.0800 
 48 H       -3.6230    -3.7050    -1.8380 H     1 <1>   0.0800 
 49 H       -6.8630    -2.6060    -0.5500 H     1 <1>   0.4000 
 50 H       -5.6140    -5.0850    -1.5420 H     1 <1>   0.0800 
 51 H       -5.7390    -4.6260     0.1300 H     1 <1>   0.0800 
 52 H       -3.3450    -6.2840    -2.2650 H     1 <1>   0.1500 
 53 H       -4.5720    -5.9310     1.8020 H     1 <1>   0.1500 
 54 H       -1.8190    -8.0360    -1.5570 H     1 <1>   0.1500 
 55 H       -2.9970    -7.7000     2.3350 H     1 <1>   0.1500 
@<TRIPOS>BOND
  1   1   2  1   
  2   1   3  1   
  3   2   4  ar  
  4   2   5  ar  
  5   3   6  1   
  6   3   7  1   
  7   3  27  1   
  8   4   8  ar  
  9   4   9  1   
 10   5  10  ar  
 11   5  28  1   
 12   6  11  1   
 13   6  29  1   
 14   6  30  1   
 15   7  12  1   
 16   7  31  1   
 17   7  32  1   
 18   8  13  ar  
 19   8  33  1   
 20   9  14  1   
 21   9  34  1   
 22   9  35  1   
 23  10  13  ar  
 24  10  36  1   
 25  11  12  1   
 26  11  37  1   
 27  11  38  1   
 28  12  39  1   
 29  12  40  1   
 30  13  41  1   
 31  14  15  1   
 32  14  16  1   
 33  14  42  1   
 34  15  17  1   
 35  15  43  1   
 36  15  44  1   
 37  16  18  1   
 38  16  45  1   
 39  16  46  1   
 40  17  18  1   
 41  17  19  1   
 42  17  47  1   
 43  18  20  1   
 44  18  48  1   
 45  19  49  1   
 46  20  21  1   
 47  20  50  1   
 48  20  51  1   
 49  21  22  ar  
 50  21  23  ar  
 51  22  24  ar  
 52  22  52  1   
 53  23  25  ar  
 54  23  53  1   
 55  24  26  ar  
 56  24  54  1   
 57  25  26  ar  
 58  25  55  1   
@<TRIPOS>SUBSTRUCTURE
  1 ****  14 GROUP 4 **** **** 0

# MOE 2024.06 (io_trps.svl 2023.06)
