@<TRIPOS>MOLECULE
NONAME
46 48 1 0 0 
SMALL
USER_CHARGES


@<TRIPOS>ATOM
  1 F       -3.7460    -0.2390     1.4840 F     1 <1>  -0.1900 
  2 C       -3.2190     0.5390     0.5740 C.ar  1 <1>   0.1900 
  3 C       -3.1770     1.9040     0.7960 C.ar  1 <1>   0.1900 
  4 C       -2.7190    -0.0210    -0.6000 C.ar  1 <1>   0.0860 
  5 F       -3.6660     2.4070     1.9010 F     1 <1>  -0.1900 
  6 C       -2.6280     2.7660    -0.1340 C.ar  1 <1>  -0.1500 
  7 C       -2.7540    -1.4420    -0.8580 C.2   1 <1>   0.5440 
  8 C       -2.1580     0.8620    -1.5270 C.ar  1 <1>  -0.1500 
  9 C       -2.1130     2.2310    -1.3050 C.ar  1 <1>  -0.1500 
 10 O       -1.7000    -2.0380    -0.9700 O.2   1 <1>  -0.5700 
 11 N       -3.9330    -2.1390    -1.0120 N.am  1 <1>  -0.6600 
 12 C       -5.2990    -1.5310    -1.0280 C.3   1 <1>   0.1400 
 13 C       -3.9730    -3.6340    -1.0720 C.3   1 <1>   0.1400 
 14 C       -6.1980    -2.1980     0.0280 C.3   1 <1>   0.2950 
 15 C       -4.9680    -4.2020    -0.0350 C.3   1 <1>   0.2000 
 16 O       -6.2170    -3.5830    -0.1680 O.3   1 <1>  -0.5600 
 17 C       -7.6410    -1.6940    -0.0630 C.3   1 <1>  -0.1950 
 18 C       -5.2050    -5.7100    -0.1900 C.3   1 <1>  -0.1600 
 19 C       -8.0640    -0.4430     0.6420 C.3   1 <1>  -0.2000 
 20 C       -8.5670    -1.7800     1.1090 C.3   1 <1>  -0.2000 
 21 C       -3.9460    -6.5490     0.0820 C.3   1 <1>  -0.1600 
 22 C       -4.2590    -8.0480     0.0080 C.3   1 <1>  -0.1600 
 23 C       -3.0060    -8.8860     0.2750 C.3   1 <1>  -0.2400 
 24 H       -2.6020     3.8250     0.0560 H     1 <1>   0.1500 
 25 H       -1.7460     0.4560    -2.4370 H     1 <1>   0.1500 
 26 H       -1.6730     2.8820    -2.0430 H     1 <1>   0.1500 
 27 H       -5.2590    -0.4740    -0.8440 H     1 <1>   0.0800 
 28 H       -5.7360    -1.6770    -2.0000 H     1 <1>   0.0800 
 29 H       -4.2710    -3.9390    -2.0590 H     1 <1>   0.0800 
 30 H       -2.9950    -4.0400    -0.8830 H     1 <1>   0.0800 
 31 H       -5.8100    -2.0040     1.0140 H     1 <1>   0.0800 
 32 H       -4.6030    -4.0020     0.9590 H     1 <1>   0.0800 
 33 H       -8.0680    -1.8770    -1.0330 H     1 <1>   0.1000 
 34 H       -5.9710    -6.0000     0.5080 H     1 <1>   0.0800 
 35 H       -5.5640    -5.9100    -1.1840 H     1 <1>   0.0800 
 36 H       -7.3620     0.0810     1.2690 H     1 <1>   0.1000 
 37 H       -8.7550     0.2220     0.1520 H     1 <1>   0.1000 
 38 H       -9.5940    -2.0460     0.9290 H     1 <1>   0.1000 
 39 H       -8.1920    -2.1890     2.0320 H     1 <1>   0.1000 
 40 H       -3.1840    -6.3160    -0.6420 H     1 <1>   0.0800 
 41 H       -3.5620    -6.3140     1.0600 H     1 <1>   0.0800 
 42 H       -5.0130    -8.2970     0.7360 H     1 <1>   0.0800 
 43 H       -4.6450    -8.2890    -0.9680 H     1 <1>   0.0800 
 44 H       -2.6150    -8.6760     1.2550 H     1 <1>   0.0800 
 45 H       -2.2460    -8.6710    -0.4550 H     1 <1>   0.0800 
 46 H       -3.2460    -9.9340     0.2200 H     1 <1>   0.0800 
@<TRIPOS>BOND
  1   1   2  1   
  2   2   3  ar  
  3   2   4  ar  
  4   3   5  1   
  5   3   6  ar  
  6   4   7  1   
  7   4   8  ar  
  8   6   9  ar  
  9   6  24  1   
 10   7  10  2   
 11   7  11  am  
 12   8   9  ar  
 13   8  25  1   
 14   9  26  1   
 15  11  12  1   
 16  11  13  1   
 17  12  14  1   
 18  12  27  1   
 19  12  28  1   
 20  13  15  1   
 21  13  29  1   
 22  13  30  1   
 23  14  16  1   
 24  14  17  1   
 25  14  31  1   
 26  15  16  1   
 27  15  18  1   
 28  15  32  1   
 29  17  19  1   
 30  17  20  1   
 31  17  33  1   
 32  18  21  1   
 33  18  34  1   
 34  18  35  1   
 35  19  20  1   
 36  19  36  1   
 37  19  37  1   
 38  20  38  1   
 39  20  39  1   
 40  21  22  1   
 41  21  40  1   
 42  21  41  1   
 43  22  23  1   
 44  22  42  1   
 45  22  43  1   
 46  23  44  1   
 47  23  45  1   
 48  23  46  1   
@<TRIPOS>SUBSTRUCTURE
  1 ****  11 GROUP 4 **** **** 0

# MOE 2024.06 (io_trps.svl 2023.06)
