@<TRIPOS>MOLECULE
NONAME
48 50 1 0 0 
SMALL
USER_CHARGES


@<TRIPOS>ATOM
  1 O        0.5910    -1.6760     1.4140 O.3   1 <1>  -0.5600 
  2 C        0.8950    -2.4280     0.2780 C.3   1 <1>   0.2000 
  3 C       -0.7000    -1.8630     1.9090 C.3   1 <1>   0.0400 
  4 C        2.1570    -1.8710    -0.3980 C.3   1 <1>   0.0000 
  5 C        1.2190    -3.8810     0.6500 C.3   1 <1>  -0.1600 
  6 C        3.1400    -1.3820     0.6880 C.3   1 <1>   0.3430 
  7 C        1.8290    -0.7150    -1.3640 C.3   1 <1>  -0.1600 
  8 C        2.7150    -3.1070    -1.1230 C.3   1 <1>  -0.1600 
  9 C        2.4490    -4.2790    -0.1770 C.3   1 <1>  -0.1600 
 10 N        4.3670    -0.7760     0.0860 N.4   1 <1>  -0.9590 
 11 C        3.1070    -0.0610    -1.9120 C.3   1 <1>  -0.1600 
 12 C        4.0470     0.3840    -0.7900 C.3   1 <1>   0.3430 
 13 C        5.4100    -0.4870     1.1150 C.3   1 <1>   0.3430 
 14 C        6.8270    -0.4600     0.5220 C.3   1 <1>   0.0960 
 15 N        7.1420    -1.7510    -0.1230 N.pl3 1 <1>   0.3140 
 16 N        6.4400    -2.1820    -1.1930 N.2   1 <1>  -0.7070 
 17 C        8.0880    -2.6480     0.2340 C.2   1 <1>  -0.3320 
 18 C        6.9670    -3.3300    -1.4980 C.2   1 <1>   0.1390 
 19 C        7.9990    -3.6750    -0.6380 C.2   1 <1>  -0.1500 
 20 C        9.0650    -2.5050     1.3920 C.3   1 <1>  -0.0600 
 21 H        0.0660    -2.3930    -0.4100 H     1 <1>   0.0800 
 22 H       -0.8230    -1.2370     2.7740 H     1 <1>   0.0800 
 23 H       -0.8350    -2.8940     2.1890 H     1 <1>   0.0800 
 24 H       -1.4160    -1.5810     1.1550 H     1 <1>   0.0800 
 25 H        1.4370    -3.9740     1.7000 H     1 <1>   0.0800 
 26 H        0.3840    -4.5140     0.4040 H     1 <1>   0.0800 
 27 H        3.4070    -2.2160     1.3160 H     1 <1>   0.0800 
 28 H        2.6430    -0.6500     1.3030 H     1 <1>   0.0800 
 29 H        1.2230    -1.0700    -2.1810 H     1 <1>   0.0800 
 30 H        1.2540     0.0280    -0.8360 H     1 <1>   0.0800 
 31 H        2.1610    -3.2720    -2.0320 H     1 <1>   0.0800 
 32 H        3.7580    -3.0300    -1.3760 H     1 <1>   0.0800 
 33 H        3.2930    -4.4240     0.4760 H     1 <1>   0.0800 
 34 H        2.2810    -5.1910    -0.7240 H     1 <1>   0.0800 
 35 H        4.7890    -1.4990    -0.5400 H     1 <1>   0.4500 
 36 H        2.8400     0.7970    -2.5050 H     1 <1>   0.0800 
 37 H        3.6280    -0.7460    -2.5590 H     1 <1>   0.0800 
 38 H        3.5730     1.1600    -0.2100 H     1 <1>   0.0800 
 39 H        4.9510     0.7810    -1.2230 H     1 <1>   0.0800 
 40 H        5.1960     0.4550     1.5930 H     1 <1>   0.0800 
 41 H        5.3830    -1.2530     1.8730 H     1 <1>   0.0800 
 42 H        7.5400    -0.2720     1.3010 H     1 <1>   0.0800 
 43 H        6.9150     0.3200    -0.2110 H     1 <1>   0.0800 
 44 H        6.6390    -3.9410    -2.3240 H     1 <1>   0.1500 
 45 H        8.5850    -4.5770    -0.6870 H     1 <1>   0.1500 
 46 H        9.7080    -3.3670     1.4390 H     1 <1>   0.0800 
 47 H        8.5370    -2.4270     2.3250 H     1 <1>   0.0800 
 48 H        9.6810    -1.6340     1.2580 H     1 <1>   0.0800 
@<TRIPOS>BOND
  1   1   2  1   
  2   1   3  1   
  3   2   4  1   
  4   2   5  1   
  5   2  21  1   
  6   3  22  1   
  7   3  23  1   
  8   3  24  1   
  9   4   6  1   
 10   4   7  1   
 11   4   8  1   
 12   5   9  1   
 13   5  25  1   
 14   5  26  1   
 15   6  10  1   
 16   6  27  1   
 17   6  28  1   
 18   7  11  1   
 19   7  29  1   
 20   7  30  1   
 21   8   9  1   
 22   8  31  1   
 23   8  32  1   
 24   9  33  1   
 25   9  34  1   
 26  10  12  1   
 27  10  13  1   
 28  10  35  1   
 29  11  12  1   
 30  11  36  1   
 31  11  37  1   
 32  12  38  1   
 33  12  39  1   
 34  13  14  1   
 35  13  40  1   
 36  13  41  1   
 37  14  15  1   
 38  14  42  1   
 39  14  43  1   
 40  15  16  1   
 41  15  17  1   
 42  16  18  2   
 43  17  19  2   
 44  17  20  1   
 45  18  19  1   
 46  18  44  1   
 47  19  45  1   
 48  20  46  1   
 49  20  47  1   
 50  20  48  1   
@<TRIPOS>SUBSTRUCTURE
  1 ****  10 GROUP 4 **** **** 0

# MOE 2024.06 (io_trps.svl 2023.06)
