@<TRIPOS>MOLECULE
NONAME
44 47 1 0 0 
SMALL
USER_CHARGES


@<TRIPOS>ATOM
  1 O       -0.4200     0.2510     0.0040 O.2   1 <1>  -0.5700 
  2 C       -1.4650     0.8790    -0.0470 C.2   1 <1>   0.7160 
  3 N       -2.6290     0.1550    -0.2370 N.am  1 <1>  -0.6600 
  4 C       -1.4230     2.3320     0.0920 C.2   1 <1>   0.2030 
  5 C       -4.0050     0.7060    -0.3400 C.3   1 <1>   0.1400 
  6 C       -2.6530    -1.3240    -0.3420 C.3   1 <1>   0.1400 
  7 N       -2.4150     3.1770     0.0990 N.2   1 <1>  -0.4100 
  8 C       -0.2500     3.0580     0.2470 C.2   1 <1>  -0.1500 
  9 C       -4.9100    -0.5090    -0.5560 C.3   1 <1>   0.2000 
 10 C       -4.1070    -1.7150    -0.0720 C.3   1 <1>  -0.0800 
 11 O       -1.9760     4.4030     0.2470 O.3   1 <1>  -0.0190 
 12 C       -0.6670     4.3230     0.3360 C.2   1 <1>  -0.0400 
 13 O       -6.0880    -0.4060     0.1670 O.3   1 <1>  -0.6800 
 14 C       -4.5350    -3.0270    -0.7490 C.3   1 <1>  -0.0170 
 15 C        0.1290     5.5990     0.5150 C.3   1 <1>  -0.0600 
 16 C       -3.6990    -4.1960    -0.2610 C.ar  1 <1>   0.1670 
 17 N       -2.5920    -4.4430    -0.8920 N.ar  1 <1>  -0.6200 
 18 C       -4.1480    -4.9390     0.8430 C.ar  1 <1>  -0.1500 
 19 C       -1.8280    -5.4740    -0.4490 C.ar  1 <1>   0.3100 
 20 C       -3.4030    -5.9810     1.3060 C.ar  1 <1>  -0.1500 
 21 C       -2.1950    -6.2760     0.6540 C.ar  1 <1>   0.0000 
 22 C       -0.6200    -5.7550    -1.1080 C.ar  1 <1>  -0.1500 
 23 C       -1.3420    -7.3250     1.0510 C.ar  1 <1>  -0.1500 
 24 C        0.1950    -6.7800    -0.7060 C.ar  1 <1>  -0.1500 
 25 C       -0.1710    -7.5730     0.3860 C.ar  1 <1>  -0.1500 
 26 H       -4.2550     1.2170     0.5740 H     1 <1>   0.0800 
 27 H       -4.0740     1.3840    -1.1730 H     1 <1>   0.0800 
 28 H       -2.3560    -1.6100    -1.3380 H     1 <1>   0.0800 
 29 H       -1.9840    -1.7800     0.3690 H     1 <1>   0.0800 
 30 H        0.7420     2.6450     0.2820 H     1 <1>   0.1500 
 31 H       -5.1580    -0.5970    -1.6010 H     1 <1>   0.0800 
 32 H       -4.2140    -1.8130     0.9940 H     1 <1>   0.0800 
 33 H       -5.8930    -0.2760     1.1150 H     1 <1>   0.4000 
 34 H       -4.4260    -2.9410    -1.8170 H     1 <1>   0.0800 
 35 H       -5.5740    -3.2150    -0.5450 H     1 <1>   0.0800 
 36 H        1.1800     5.3780     0.5720 H     1 <1>   0.0800 
 37 H       -0.1740     6.0930     1.4210 H     1 <1>   0.0800 
 38 H       -0.0450     6.2570    -0.3170 H     1 <1>   0.0800 
 39 H       -5.0780    -4.6740     1.3120 H     1 <1>   0.1500 
 40 H       -3.7140    -6.5730     2.1480 H     1 <1>   0.1500 
 41 H       -0.3560    -5.1330    -1.9430 H     1 <1>   0.1500 
 42 H       -1.6290    -7.9310     1.8910 H     1 <1>   0.1500 
 43 H        1.1190    -6.9840    -1.2190 H     1 <1>   0.1500 
 44 H        0.4790    -8.3750     0.6920 H     1 <1>   0.1500 
@<TRIPOS>BOND
  1   1   2  2   
  2   2   3  am  
  3   2   4  1   
  4   3   5  1   
  5   3   6  1   
  6   4   7  2   
  7   4   8  1   
  8   5   9  1   
  9   5  26  1   
 10   5  27  1   
 11   6  10  1   
 12   6  28  1   
 13   6  29  1   
 14   7  11  1   
 15   8  12  2   
 16   8  30  1   
 17   9  10  1   
 18   9  13  1   
 19   9  31  1   
 20  10  14  1   
 21  10  32  1   
 22  11  12  1   
 23  12  15  1   
 24  13  33  1   
 25  14  16  1   
 26  14  34  1   
 27  14  35  1   
 28  15  36  1   
 29  15  37  1   
 30  15  38  1   
 31  16  17  ar  
 32  16  18  ar  
 33  17  19  ar  
 34  18  20  ar  
 35  18  39  1   
 36  19  21  ar  
 37  19  22  ar  
 38  20  21  ar  
 39  20  40  1   
 40  21  23  ar  
 41  22  24  ar  
 42  22  41  1   
 43  23  25  ar  
 44  23  42  1   
 45  24  25  ar  
 46  24  43  1   
 47  25  44  1   
@<TRIPOS>SUBSTRUCTURE
  1 ****   6 GROUP 4 **** **** 0

# MOE 2024.06 (io_trps.svl 2023.06)
