@<TRIPOS>MOLECULE
NONAME
49 51 1 0 0 
SMALL
USER_CHARGES


@<TRIPOS>ATOM
  1 O        2.1200     1.8470     0.9030 O.3   1 <1>  -0.0190 
  2 N        2.7460     0.7110     0.8630 N.2   1 <1>  -0.4100 
  3 C        0.9930     1.8080     0.2430 C.2   1 <1>  -0.0400 
  4 C        2.0010    -0.0830     0.1810 C.2   1 <1>   0.1080 
  5 C        0.8490     0.5700    -0.2510 C.2   1 <1>  -0.1500 
  6 C        0.1280     3.0500     0.1520 C.3   1 <1>   0.0200 
  7 C        2.3390    -1.5290    -0.1090 C.3   1 <1>  -0.0590 
  8 C        0.8370     4.1540    -0.6560 C.3   1 <1>  -0.0800 
  9 C        0.0380     5.4450    -0.8210 C.3   1 <1>   0.2000 
 10 C        2.1670     4.6030    -0.0360 C.3   1 <1>   0.3430 
 11 O       -0.5340     5.7770     0.4120 O.3   1 <1>  -0.5600 
 12 C        1.1360     6.4600    -1.1460 C.3   1 <1>   0.3430 
 13 N        2.3050     6.0710    -0.2910 N.4   1 <1>  -0.9590 
 14 C       -1.6710     6.5840     0.3380 C.3   1 <1>   0.0400 
 15 C        2.3000     6.8090     1.0060 C.3   1 <1>   0.4860 
 16 C        2.4260     8.2950     0.7310 C.ar  1 <1>  -0.1440 
 17 C        1.3050     9.1030     0.8510 C.ar  1 <1>  -0.1500 
 18 C        3.6370     8.8610     0.3550 C.ar  1 <1>  -0.1500 
 19 C        1.3960    10.4520     0.5720 C.ar  1 <1>   0.0820 
 20 C        3.7280    10.2190     0.0850 C.ar  1 <1>  -0.1500 
 21 O        0.2960    11.2150     0.6710 O.3   1 <1>  -0.5330 
 22 C        2.6020    11.0290     0.1880 C.ar  1 <1>   0.0820 
 23 O        2.6020    12.3690    -0.0650 O.3   1 <1>  -0.3630 
 24 C        3.7930    13.0470    -0.4000 C.3   1 <1>   0.0400 
 25 H        0.0590     0.1430    -0.8400 H     1 <1>   0.1500 
 26 H       -0.8030     2.7970    -0.3240 H     1 <1>   0.0800 
 27 H       -0.0950     3.3870     1.1510 H     1 <1>   0.0800 
 28 H        1.5730    -2.1700     0.2870 H     1 <1>   0.0800 
 29 H        3.2780    -1.7860     0.3480 H     1 <1>   0.0800 
 30 H        2.4160    -1.6820    -1.1700 H     1 <1>   0.0800 
 31 H        1.0540     3.7640    -1.6350 H     1 <1>   0.0800 
 32 H       -0.7240     5.3720    -1.5800 H     1 <1>   0.0800 
 33 H        2.9870     4.0510    -0.4690 H     1 <1>   0.0800 
 34 H        2.1490     4.4110     1.0250 H     1 <1>   0.0800 
 35 H        0.8050     7.4690    -0.9680 H     1 <1>   0.0800 
 36 H        1.4050     6.3610    -2.1840 H     1 <1>   0.0800 
 37 H        3.1820     6.2920    -0.7760 H     1 <1>   0.4500 
 38 H       -1.9990     6.7970     1.3410 H     1 <1>   0.0800 
 39 H       -2.4500     6.0570    -0.1860 H     1 <1>   0.0800 
 40 H       -1.4350     7.5060    -0.1660 H     1 <1>   0.0800 
 41 H        1.3820     6.6150     1.5380 H     1 <1>   0.0800 
 42 H        3.1230     6.4870     1.6210 H     1 <1>   0.0800 
 43 H        0.3540     8.7060     1.1580 H     1 <1>   0.1500 
 44 H        4.5250     8.2570     0.2710 H     1 <1>   0.1500 
 45 H        4.6800    10.6260    -0.2020 H     1 <1>   0.1500 
 46 H        0.5250    12.1460     0.4700 H     1 <1>   0.4500 
 47 H        3.5600    14.0890    -0.5320 H     1 <1>   0.0800 
 48 H        4.1810    12.6430    -1.3190 H     1 <1>   0.0800 
 49 H        4.5000    12.9320     0.4020 H     1 <1>   0.0800 
@<TRIPOS>BOND
  1   1   2  1   
  2   1   3  1   
  3   2   4  2   
  4   3   5  2   
  5   3   6  1   
  6   4   5  1   
  7   4   7  1   
  8   5  25  1   
  9   6   8  1   
 10   6  26  1   
 11   6  27  1   
 12   7  28  1   
 13   7  29  1   
 14   7  30  1   
 15   8   9  1   
 16   8  10  1   
 17   8  31  1   
 18   9  11  1   
 19   9  12  1   
 20   9  32  1   
 21  10  13  1   
 22  10  33  1   
 23  10  34  1   
 24  11  14  1   
 25  12  13  1   
 26  12  35  1   
 27  12  36  1   
 28  13  15  1   
 29  13  37  1   
 30  14  38  1   
 31  14  39  1   
 32  14  40  1   
 33  15  16  1   
 34  15  41  1   
 35  15  42  1   
 36  16  17  ar  
 37  16  18  ar  
 38  17  19  ar  
 39  17  43  1   
 40  18  20  ar  
 41  18  44  1   
 42  19  21  1   
 43  19  22  ar  
 44  20  22  ar  
 45  20  45  1   
 46  21  46  1   
 47  22  23  1   
 48  23  24  1   
 49  24  47  1   
 50  24  48  1   
 51  24  49  1   
@<TRIPOS>SUBSTRUCTURE
  1 ****  13 GROUP 4 **** **** 0

# MOE 2024.06 (io_trps.svl 2023.06)
