@<TRIPOS>MOLECULE
NONAME
45 48 1 0 0 
SMALL
USER_CHARGES


@<TRIPOS>ATOM
  1 S       -0.0210     0.3430    -0.4590 S.3   1 <1>  -0.0800 
  2 C        0.6710    -1.1160     0.2430 C.2   1 <1>   0.3250 
  3 C        1.5020     1.1610    -0.3030 C.2   1 <1>  -0.1400 
  4 N        1.9120    -0.9670     0.5480 N.2   1 <1>  -0.5650 
  5 C       -0.1930    -2.2690     0.3930 C.ar  1 <1>   0.0530 
  6 C        2.3730     0.2980     0.2440 C.2   1 <1>   0.0770 
  7 C        1.5380     2.6040    -0.7880 C.3   1 <1>   0.2900 
  8 C        0.2000    -3.5700     0.0450 C.ar  1 <1>  -0.1440 
  9 C       -1.4810    -2.1000     0.9060 C.ar  1 <1>  -0.1500 
 10 N        2.8370     3.2750    -0.6050 N.3   1 <1>  -0.8100 
 11 C       -0.6720    -4.6350     0.2110 C.ar  1 <1>  -0.1500 
 12 C        1.5840    -3.8520    -0.5270 C.3   1 <1>  -0.0970 
 13 C       -2.3470    -3.1640     1.0670 C.ar  1 <1>  -0.1500 
 14 C        3.1810     3.4900     0.8270 C.3   1 <1>   0.1100 
 15 C        3.8940     2.7280    -1.4870 C.3   1 <1>   0.1100 
 16 C       -1.9420    -4.4370     0.7190 C.ar  1 <1>  -0.1500 
 17 C        4.3740     4.4400     1.1140 C.3   1 <1>   0.2200 
 18 C        5.1710     3.5870    -1.5750 C.3   1 <1>  -0.0190 
 19 N        4.6160     5.4090     0.0140 N.am  1 <1>  -0.7300 
 20 C        5.6640     3.6600     1.4430 C.3   1 <1>   0.1200 
 21 C        4.9310     5.0490    -1.2470 C.2   1 <1>   0.5690 
 22 C        6.3330     3.0230    -0.7420 C.3   1 <1>   0.1200 
 23 O        5.9280     2.6280     0.5350 O.3   1 <1>  -0.5600 
 24 O        5.0520     5.8850    -2.1080 O.2   1 <1>  -0.5700 
 25 H        3.4050     0.5080     0.4670 H     1 <1>   0.1500 
 26 H        0.7830     3.1650    -0.2630 H     1 <1>   0.0800 
 27 H        1.2790     2.6270    -1.8320 H     1 <1>   0.0800 
 28 H       -1.8110    -1.1170     1.1910 H     1 <1>   0.1500 
 29 H       -0.3670    -5.6320    -0.0540 H     1 <1>   0.1500 
 30 H        1.6580    -4.8600    -0.8920 H     1 <1>   0.0800 
 31 H        2.3290    -3.7100     0.2350 H     1 <1>   0.0800 
 32 H        1.7920    -3.1820    -1.3430 H     1 <1>   0.0800 
 33 H       -3.3350    -3.0040     1.4650 H     1 <1>   0.1500 
 34 H        2.3200     3.9190     1.3100 H     1 <1>   0.0800 
 35 H        3.3640     2.5480     1.3090 H     1 <1>   0.0800 
 36 H        4.1540     1.7290    -1.1860 H     1 <1>   0.0800 
 37 H        3.4870     2.6640    -2.4810 H     1 <1>   0.0800 
 38 H       -2.6110    -5.2720     0.8430 H     1 <1>   0.1500 
 39 H        4.1330     5.0090     1.9940 H     1 <1>   0.0800 
 40 H        5.5020     3.5560    -2.5960 H     1 <1>   0.0800 
 41 H        4.3320     6.3780     0.1510 H     1 <1>   0.3700 
 42 H        5.5520     3.1930     2.4050 H     1 <1>   0.0800 
 43 H        6.5130     4.3200     1.4870 H     1 <1>   0.0800 
 44 H        7.1350     3.7370    -0.6550 H     1 <1>   0.0800 
 45 H        6.7180     2.1420    -1.2260 H     1 <1>   0.0800 
@<TRIPOS>BOND
  1   1   2  1   
  2   1   3  1   
  3   2   4  2   
  4   2   5  1   
  5   3   6  2   
  6   3   7  1   
  7   4   6  1   
  8   5   8  ar  
  9   5   9  ar  
 10   6  25  1   
 11   7  10  1   
 12   7  26  1   
 13   7  27  1   
 14   8  11  ar  
 15   8  12  1   
 16   9  13  ar  
 17   9  28  1   
 18  10  14  1   
 19  10  15  1   
 20  11  16  ar  
 21  11  29  1   
 22  12  30  1   
 23  12  31  1   
 24  12  32  1   
 25  13  16  ar  
 26  13  33  1   
 27  14  17  1   
 28  14  34  1   
 29  14  35  1   
 30  15  18  1   
 31  15  36  1   
 32  15  37  1   
 33  16  38  1   
 34  17  19  1   
 35  17  20  1   
 36  17  39  1   
 37  18  21  1   
 38  18  22  1   
 39  18  40  1   
 40  19  21  am  
 41  19  41  1   
 42  20  23  1   
 43  20  42  1   
 44  20  43  1   
 45  21  24  2   
 46  22  23  1   
 47  22  44  1   
 48  22  45  1   
@<TRIPOS>SUBSTRUCTURE
  1 ****   6 GROUP 4 **** **** 0

# MOE 2024.06 (io_trps.svl 2023.06)
