@<TRIPOS>MOLECULE
NONAME
48 50 1 0 0 
SMALL
USER_CHARGES


@<TRIPOS>ATOM
  1 F        0.9450     0.1370     1.5330 F     1 <1>  -0.1900 
  2 C        1.8380     0.8440     0.8940 C.ar  1 <1>   0.1900 
  3 C        1.6500     2.2090     0.7850 C.ar  1 <1>  -0.1500 
  4 C        2.9340     0.2000     0.3590 C.ar  1 <1>  -0.1500 
  5 C        2.5860     2.9870     0.1050 C.ar  1 <1>  -0.1440 
  6 C        3.8750     0.9630    -0.3060 C.ar  1 <1>  -0.1500 
  7 C        3.7010     2.3330    -0.4250 C.ar  1 <1>  -0.1500 
  8 C        2.4470     4.5240    -0.0440 C.3   1 <1>   0.1440 
  9 C        0.9860     4.9790     0.2240 C.3   1 <1>  -0.1600 
 10 C        2.8140     4.9320    -1.4950 C.3   1 <1>  -0.1600 
 11 C        3.4360     5.1070     1.0060 C.3   1 <1>   0.2090 
 12 C        0.6520     6.3790    -0.3010 C.3   1 <1>   0.1200 
 13 C        2.3300     6.3270    -1.9100 C.3   1 <1>   0.1200 
 14 N        3.5060     6.5960     1.0880 N.pl3 1 <1>  -0.8690 
 15 O        0.9690     6.4430    -1.6500 O.3   1 <1>  -0.5600 
 16 C        4.5430     7.3660     0.6160 C.ar  1 <1>   0.4100 
 17 N        5.4480     6.7640    -0.1280 N.ar  1 <1>  -0.6200 
 18 C        4.6200     8.7250     0.8970 C.ar  1 <1>  -0.1430 
 19 C        6.4260     7.5200    -0.5770 C.ar  1 <1>   0.4770 
 20 C        5.6940     9.3980     0.3640 C.ar  1 <1>   0.1600 
 21 C        3.5440     9.4010     1.7520 C.3   1 <1>  -0.0170 
 22 N        6.6100     8.8090    -0.3780 N.ar  1 <1>  -0.6200 
 23 C        7.4680     6.8350    -1.4280 C.3   1 <1>  -0.0970 
 24 C        3.7190    10.9110     1.9580 C.3   1 <1>  -0.2400 
 25 H        0.7720     2.6230     1.2430 H     1 <1>   0.1500 
 26 H        3.0440    -0.8640     0.4640 H     1 <1>   0.1500 
 27 H        4.7450     0.4930    -0.7320 H     1 <1>   0.1500 
 28 H        4.4650     2.8880    -0.9400 H     1 <1>   0.1500 
 29 H        0.7710     4.9400     1.2750 H     1 <1>   0.0800 
 30 H        0.3130     4.3060    -0.2770 H     1 <1>   0.0800 
 31 H        2.3750     4.2270    -2.1790 H     1 <1>   0.0800 
 32 H        3.8780     4.9010    -1.6340 H     1 <1>   0.0800 
 33 H        4.4190     4.7170     0.8030 H     1 <1>   0.0800 
 34 H        3.1600     4.7330     1.9760 H     1 <1>   0.0800 
 35 H        1.1880     7.1530     0.2170 H     1 <1>   0.0800 
 36 H       -0.4030     6.5700    -0.2070 H     1 <1>   0.0800 
 37 H        2.4740     6.4700    -2.9670 H     1 <1>   0.0800 
 38 H        2.8510     7.1090    -1.3880 H     1 <1>   0.0800 
 39 H        2.8780     7.0210     1.7680 H     1 <1>   0.4000 
 40 H        5.8280    10.4510     0.5350 H     1 <1>   0.1500 
 41 H        3.5280     8.9270     2.7190 H     1 <1>   0.0800 
 42 H        2.5870     9.2340     1.2880 H     1 <1>   0.0800 
 43 H        7.2430     5.7890    -1.5320 H     1 <1>   0.0800 
 44 H        8.4310     6.9430    -0.9670 H     1 <1>   0.0800 
 45 H        7.4880     7.2880    -2.4000 H     1 <1>   0.0800 
 46 H        4.6460    11.1190     2.4630 H     1 <1>   0.0800 
 47 H        2.9140    11.2920     2.5600 H     1 <1>   0.0800 
 48 H        3.7060    11.4240     1.0120 H     1 <1>   0.0800 
@<TRIPOS>BOND
  1   1   2  1   
  2   2   3  ar  
  3   2   4  ar  
  4   3   5  ar  
  5   3  25  1   
  6   4   6  ar  
  7   4  26  1   
  8   5   7  ar  
  9   5   8  1   
 10   6   7  ar  
 11   6  27  1   
 12   7  28  1   
 13   8   9  1   
 14   8  10  1   
 15   8  11  1   
 16   9  12  1   
 17   9  29  1   
 18   9  30  1   
 19  10  13  1   
 20  10  31  1   
 21  10  32  1   
 22  11  14  1   
 23  11  33  1   
 24  11  34  1   
 25  12  15  1   
 26  12  35  1   
 27  12  36  1   
 28  13  15  1   
 29  13  37  1   
 30  13  38  1   
 31  14  16  1   
 32  14  39  1   
 33  16  17  ar  
 34  16  18  ar  
 35  17  19  ar  
 36  18  20  ar  
 37  18  21  1   
 38  19  22  ar  
 39  19  23  1   
 40  20  22  ar  
 41  20  40  1   
 42  21  24  1   
 43  21  41  1   
 44  21  42  1   
 45  23  43  1   
 46  23  44  1   
 47  23  45  1   
 48  24  46  1   
 49  24  47  1   
 50  24  48  1   
@<TRIPOS>SUBSTRUCTURE
  1 ****  11 GROUP 4 **** **** 0

# MOE 2024.06 (io_trps.svl 2023.06)
