@<TRIPOS>MOLECULE
NONAME
45 48 1 0 0 
SMALL
USER_CHARGES


@<TRIPOS>ATOM
  1 F        1.2010    -1.4770     1.8970 F     1 <1>  -0.1900 
  2 C        1.9010    -1.8450     0.8550 C.ar  1 <1>   0.1900 
  3 C        1.2980    -2.5670    -0.1670 C.ar  1 <1>  -0.0320 
  4 C        3.2360    -1.4830     0.8230 C.ar  1 <1>  -0.1500 
  5 C        2.0880    -2.9360    -1.2470 C.ar  1 <1>  -0.1500 
  6 C       -0.1790    -2.9700    -0.1310 C.3   1 <1>   0.0320 
  7 C        4.0040    -1.8560    -0.2670 C.ar  1 <1>  -0.1500 
  8 C        3.4280    -2.5820    -1.2980 C.ar  1 <1>  -0.1500 
  9 C       -0.3830    -4.3430     0.5620 C.2   1 <1>   0.6300 
 10 C       -1.2090    -1.8910     0.0820 C.3   1 <1>  -0.2000 
 11 C       -0.9850    -2.4360    -1.2910 C.3   1 <1>  -0.2000 
 12 O        0.4570    -4.6830     1.3640 O.2   1 <1>  -0.5700 
 13 N       -1.4400    -5.1940     0.3190 N.am  1 <1>  -0.6600 
 14 C       -2.7500    -4.9260    -0.3250 C.3   1 <1>   0.1400 
 15 C       -1.4530    -6.5650     0.9040 C.3   1 <1>   0.1400 
 16 C       -3.7030    -5.9470     0.2930 C.3   1 <1>   0.2000 
 17 C       -2.8260    -7.1680     0.5690 C.3   1 <1>  -0.0800 
 18 O       -4.1430    -5.4530     1.5100 O.3   1 <1>  -0.6800 
 19 C       -2.7750    -8.0970    -0.6610 C.3   1 <1>  -0.0160 
 20 C       -1.9970    -9.3730    -0.3820 C.ar  1 <1>   0.1670 
 21 N       -0.7430    -9.4060    -0.8000 N.ar  1 <1>  -0.6200 
 22 C       -2.6140   -10.4320     0.2820 C.ar  1 <1>   0.1600 
 23 C       -0.1510   -10.5530    -0.5100 C.ar  1 <1>   0.1600 
 24 N       -2.0250   -11.5800     0.5740 N.ar  1 <1>  -0.6200 
 25 C       -0.7710   -11.6040     0.1550 C.ar  1 <1>   0.1600 
 26 H        3.6600    -0.9240     1.6370 H     1 <1>   0.1500 
 27 H        1.6600    -3.5070    -2.0520 H     1 <1>   0.1500 
 28 H        5.0450    -1.5860    -0.3110 H     1 <1>   0.1500 
 29 H        4.0270    -2.8770    -2.1420 H     1 <1>   0.1500 
 30 H       -2.1020    -2.1380     0.6250 H     1 <1>   0.1000 
 31 H       -0.8700    -0.8940     0.3030 H     1 <1>   0.1000 
 32 H       -0.4970    -1.7930    -2.0030 H     1 <1>   0.1000 
 33 H       -1.7370    -3.0350    -1.7620 H     1 <1>   0.1000 
 34 H       -3.1030    -3.9270    -0.1510 H     1 <1>   0.0800 
 35 H       -2.6640    -5.1060    -1.3820 H     1 <1>   0.0800 
 36 H       -0.6370    -7.1440     0.5070 H     1 <1>   0.0800 
 37 H       -1.3310    -6.4910     1.9720 H     1 <1>   0.0800 
 38 H       -4.5640    -6.1520    -0.3190 H     1 <1>   0.0800 
 39 H       -3.2070    -7.7290     1.4050 H     1 <1>   0.0800 
 40 H       -3.3680    -5.1560     2.0290 H     1 <1>   0.4000 
 41 H       -2.3270    -7.5860    -1.4950 H     1 <1>   0.0800 
 42 H       -3.7770    -8.3650    -0.9470 H     1 <1>   0.0800 
 43 H       -3.6400   -10.3250     0.5870 H     1 <1>   0.1500 
 44 H        0.8750   -10.6670    -0.8120 H     1 <1>   0.1500 
 45 H       -0.2060   -12.4990     0.3470 H     1 <1>   0.1500 
@<TRIPOS>BOND
  1   1   2  1   
  2   2   3  ar  
  3   2   4  ar  
  4   3   5  ar  
  5   3   6  1   
  6   4   7  ar  
  7   4  26  1   
  8   5   8  ar  
  9   5  27  1   
 10   6   9  1   
 11   6  10  1   
 12   6  11  1   
 13   7   8  ar  
 14   7  28  1   
 15   8  29  1   
 16   9  12  2   
 17   9  13  am  
 18  10  11  1   
 19  10  30  1   
 20  10  31  1   
 21  11  32  1   
 22  11  33  1   
 23  13  14  1   
 24  13  15  1   
 25  14  16  1   
 26  14  34  1   
 27  14  35  1   
 28  15  17  1   
 29  15  36  1   
 30  15  37  1   
 31  16  17  1   
 32  16  18  1   
 33  16  38  1   
 34  17  19  1   
 35  17  39  1   
 36  18  40  1   
 37  19  20  1   
 38  19  41  1   
 39  19  42  1   
 40  20  21  ar  
 41  20  22  ar  
 42  21  23  ar  
 43  22  24  ar  
 44  22  43  1   
 45  23  25  ar  
 46  23  44  1   
 47  24  25  ar  
 48  25  45  1   
@<TRIPOS>SUBSTRUCTURE
  1 ****  13 GROUP 4 **** **** 0

# MOE 2024.06 (io_trps.svl 2023.06)
