@<TRIPOS>MOLECULE
NONAME
45 48 1 0 0 
SMALL
USER_CHARGES


@<TRIPOS>ATOM
  1 S        0.2360     1.2740    -2.3440 S.3   1 <1>  -0.0800 
  2 C        0.1640     2.2410    -0.8860 C.2   1 <1>  -0.1400 
  3 C        1.7420     2.0540    -2.8080 C.2   1 <1>  -0.1100 
  4 C        1.2140     3.0650    -0.7790 C.2   1 <1>  -0.1810 
  5 C       -0.9640     2.1370     0.1040 C.3   1 <1>   0.0200 
  6 C        2.1190     2.9640    -1.8890 C.2   1 <1>  -0.1500 
  7 C        1.3700     3.9930     0.4280 C.3   1 <1>   0.4610 
  8 C       -0.9260     3.4090     0.9670 C.3   1 <1>   0.1200 
  9 O        0.3840     3.6910     1.4000 O.3   1 <1>  -0.5600 
 10 C        2.7200     3.7510     1.1150 C.3   1 <1>  -0.1600 
 11 C        1.2310     5.4670     0.0170 C.3   1 <1>  -0.1600 
 12 C        2.9490     4.7210     2.2760 C.3   1 <1>   0.1400 
 13 C        1.4730     6.4000     1.2040 C.3   1 <1>   0.1400 
 14 N        2.8230     6.1140     1.7650 N.am  1 <1>  -0.6600 
 15 C        3.9070     6.9650     1.7180 C.2   1 <1>   0.5690 
 16 O        4.9520     6.6590     2.2520 O.2   1 <1>  -0.5700 
 17 C        3.8240     8.3380     1.0250 C.3   1 <1>   0.2610 
 18 O        3.3730     8.2200    -0.3200 O.3   1 <1>  -0.2170 
 19 C        5.1330     9.1260     0.8860 C.3   1 <1>  -0.0990 
 20 N        4.0680     8.9760    -1.1480 N.2   1 <1>  -0.5130 
 21 C        5.0440     9.4980    -0.5610 C.2   1 <1>   0.3280 
 22 C        6.0720    10.4280    -1.1820 C.3   1 <1>  -0.0990 
 23 C        7.4810     9.8190    -1.1990 C.3   1 <1>  -0.2400 
 24 H        2.1910     1.7440    -3.7340 H     1 <1>   0.1500 
 25 H       -0.8370     1.2640     0.7170 H     1 <1>   0.0800 
 26 H       -1.9080     2.0710    -0.4070 H     1 <1>   0.0800 
 27 H        3.0030     3.5740    -1.9470 H     1 <1>   0.1500 
 28 H       -1.5420     3.2830     1.8400 H     1 <1>   0.0800 
 29 H       -1.2900     4.2520     0.4070 H     1 <1>   0.0800 
 30 H        3.5180     3.8800     0.4070 H     1 <1>   0.0800 
 31 H        2.7600     2.7380     1.4690 H     1 <1>   0.0800 
 32 H        0.2610     5.6460    -0.4050 H     1 <1>   0.0800 
 33 H        1.9540     5.6930    -0.7460 H     1 <1>   0.0800 
 34 H        3.9230     4.5520     2.7030 H     1 <1>   0.0800 
 35 H        2.2150     4.5570     3.0470 H     1 <1>   0.0800 
 36 H        0.7320     6.2220     1.9650 H     1 <1>   0.0800 
 37 H        1.3800     7.4240     0.8920 H     1 <1>   0.0800 
 38 H        3.0990     8.9400     1.5390 H     1 <1>   0.0800 
 39 H        6.0040     8.5220     1.0600 H     1 <1>   0.0800 
 40 H        5.1410     9.9860     1.5280 H     1 <1>   0.0800 
 41 H        6.0820    11.3560    -0.6400 H     1 <1>   0.0800 
 42 H        5.7710    10.6410    -2.1930 H     1 <1>   0.0800 
 43 H        7.8390     9.6520    -0.1990 H     1 <1>   0.0800 
 44 H        8.1630    10.4840    -1.6990 H     1 <1>   0.0800 
 45 H        7.4720     8.8800    -1.7260 H     1 <1>   0.0800 
@<TRIPOS>BOND
  1   1   2  1   
  2   1   3  1   
  3   2   4  2   
  4   2   5  1   
  5   3   6  2   
  6   3  24  1   
  7   4   6  1   
  8   4   7  1   
  9   5   8  1   
 10   5  25  1   
 11   5  26  1   
 12   6  27  1   
 13   7   9  1   
 14   7  10  1   
 15   7  11  1   
 16   8   9  1   
 17   8  28  1   
 18   8  29  1   
 19  10  12  1   
 20  10  30  1   
 21  10  31  1   
 22  11  13  1   
 23  11  32  1   
 24  11  33  1   
 25  12  14  1   
 26  12  34  1   
 27  12  35  1   
 28  13  14  1   
 29  13  36  1   
 30  13  37  1   
 31  14  15  am  
 32  15  16  2   
 33  15  17  1   
 34  17  18  1   
 35  17  19  1   
 36  17  38  1   
 37  18  20  1   
 38  19  21  1   
 39  19  39  1   
 40  19  40  1   
 41  20  21  2   
 42  21  22  1   
 43  22  23  1   
 44  22  41  1   
 45  22  42  1   
 46  23  43  1   
 47  23  44  1   
 48  23  45  1   
@<TRIPOS>SUBSTRUCTURE
  1 ****  11 GROUP 4 **** **** 0

# MOE 2024.06 (io_trps.svl 2023.06)
