@<TRIPOS>MOLECULE
NONAME
47 50 1 0 0 
SMALL
USER_CHARGES


@<TRIPOS>ATOM
  1 O       -1.9210     0.3410    -2.5810 O.2   1 <1>  -0.5700 
  2 C       -2.0570     1.5030    -2.2230 C.2   1 <1>   0.7160 
  3 N       -3.3150     2.0700    -2.3430 N.am  1 <1>  -0.6600 
  4 C       -0.9340     2.2260    -1.6350 C.2   1 <1>   0.2030 
  5 C       -4.4940     1.2610    -2.7660 C.3   1 <1>   0.1400 
  6 C       -3.6430     3.4030    -1.7750 C.3   1 <1>   0.1400 
  7 N       -0.3780     3.3370    -2.0970 N.2   1 <1>  -0.7070 
  8 C       -0.2930     1.8360    -0.4500 C.2   1 <1>  -0.1810 
  9 C       -5.0390     0.3630    -1.6360 C.3   1 <1>   0.1400 
 10 C       -4.0640     3.2820    -0.3070 C.3   1 <1>  -0.1600 
 11 N        0.6000     3.6380    -1.2280 N.pl3 1 <1>   0.3000 
 12 C        0.6600     2.7510    -0.2190 C.2   1 <1>  -0.3320 
 13 C       -0.5670     0.6520     0.4600 C.3   1 <1>   0.0210 
 14 N       -4.8420     0.9170    -0.2550 N.am  1 <1>  -0.6600 
 15 C       -5.2510     2.3410    -0.0700 C.3   1 <1>   0.1400 
 16 C        1.6120     2.7540     0.9620 C.3   1 <1>   0.0200 
 17 C        0.6020     0.4530     1.4430 C.3   1 <1>  -0.1600 
 18 C       -4.3740     0.1810     0.8210 C.2   1 <1>   0.7160 
 19 C        1.0910     1.7880     2.0430 C.3   1 <1>  -0.1600 
 20 O       -4.3000     0.7240     1.9080 O.2   1 <1>  -0.5700 
 21 C       -3.9980    -1.2130     0.7460 C.2   1 <1>  -0.0860 
 22 C       -4.3810    -2.1980     1.6020 C.2   1 <1>  -0.0100 
 23 C       -3.1410    -1.8760    -0.1610 C.2   1 <1>  -0.1500 
 24 O       -3.8550    -3.3550     1.2790 O.3   1 <1>  -0.2800 
 25 C       -3.1020    -3.1690     0.2180 C.2   1 <1>  -0.0100 
 26 H       -4.2220     0.6440    -3.6050 H     1 <1>   0.0800 
 27 H       -5.2750     1.9190    -3.1020 H     1 <1>   0.0800 
 28 H       -4.4380     3.8470    -2.3480 H     1 <1>   0.0800 
 29 H       -2.7950     4.0610    -1.8540 H     1 <1>   0.0800 
 30 H       -4.5700    -0.5950    -1.7310 H     1 <1>   0.0800 
 31 H       -6.0910     0.2040    -1.7990 H     1 <1>   0.0800 
 32 H       -4.3390     4.2630     0.0370 H     1 <1>   0.0800 
 33 H       -3.2260     2.9660     0.2900 H     1 <1>   0.0800 
 34 H        1.2100     4.4550    -1.3460 H     1 <1>   0.2700 
 35 H       -0.6980    -0.2390    -0.1260 H     1 <1>   0.0800 
 36 H       -1.4740     0.8400     1.0080 H     1 <1>   0.0800 
 37 H       -6.0590     2.5820    -0.7380 H     1 <1>   0.0800 
 38 H       -5.6150     2.4830     0.9340 H     1 <1>   0.0800 
 39 H        1.6970     3.7440     1.3750 H     1 <1>   0.0800 
 40 H        2.5840     2.4350     0.6290 H     1 <1>   0.0800 
 41 H        1.4190    -0.0120     0.9190 H     1 <1>   0.0800 
 42 H        0.2930    -0.2120     2.2300 H     1 <1>   0.0800 
 43 H        0.2680     2.2540     2.5580 H     1 <1>   0.0800 
 44 H        1.8690     1.6030     2.7630 H     1 <1>   0.0800 
 45 H       -5.0220    -2.1350     2.4640 H     1 <1>   0.1500 
 46 H       -2.6240    -1.4160    -0.9840 H     1 <1>   0.1500 
 47 H       -2.5730    -4.0070    -0.2000 H     1 <1>   0.1500 
@<TRIPOS>BOND
  1   1   2  2   
  2   2   3  am  
  3   2   4  1   
  4   3   5  1   
  5   3   6  1   
  6   4   7  2   
  7   4   8  1   
  8   5   9  1   
  9   5  26  1   
 10   5  27  1   
 11   6  10  1   
 12   6  28  1   
 13   6  29  1   
 14   7  11  1   
 15   8  12  2   
 16   8  13  1   
 17   9  14  1   
 18   9  30  1   
 19   9  31  1   
 20  10  15  1   
 21  10  32  1   
 22  10  33  1   
 23  11  12  1   
 24  11  34  1   
 25  12  16  1   
 26  13  17  1   
 27  13  35  1   
 28  13  36  1   
 29  14  15  1   
 30  14  18  am  
 31  15  37  1   
 32  15  38  1   
 33  16  19  1   
 34  16  39  1   
 35  16  40  1   
 36  17  19  1   
 37  17  41  1   
 38  17  42  1   
 39  18  20  2   
 40  18  21  1   
 41  19  43  1   
 42  19  44  1   
 43  21  22  2   
 44  21  23  1   
 45  22  24  1   
 46  22  45  1   
 47  23  25  2   
 48  23  46  1   
 49  24  25  1   
 50  25  47  1   
@<TRIPOS>SUBSTRUCTURE
  1 ****   2 GROUP 4 **** **** 0

# MOE 2024.06 (io_trps.svl 2023.06)
