@<TRIPOS>MOLECULE
NONAME
47 48 1 0 0 
SMALL
USER_CHARGES


@<TRIPOS>ATOM
  1 S        0.3190     0.4150    -1.2840 S.o2  1 <1>   1.3330 
  2 O       -0.7310     1.3250    -1.6820 O.2   1 <1>  -0.6500 
  3 O        0.5750    -0.7720    -2.0690 O.2   1 <1>  -0.6500 
  4 N       -0.0230    -0.0810     0.3060 N.am  1 <1>  -0.8490 
  5 C        1.8610     1.3180    -1.1340 C.3   1 <1>  -0.0550 
  6 C       -0.6530     0.9670     1.1180 C.3   1 <1>   0.1160 
  7 C       -0.8470    -1.2930     0.3400 C.3   1 <1>   0.1160 
  8 C        3.0710     0.4450    -0.7380 C.3   1 <1>  -0.0800 
  9 C        4.4190     1.1460    -0.8210 C.3   1 <1>   0.2200 
 10 C        3.0500    -0.0840     0.7020 C.3   1 <1>   0.1200 
 11 N        4.3330     2.5260    -0.2860 N.am  1 <1>  -0.7300 
 12 C        5.2370     0.2940     0.1380 C.3   1 <1>   0.1200 
 13 O        4.3630    -0.0140     1.1790 O.3   1 <1>  -0.5600 
 14 C        4.2640     3.6460    -1.0430 C.2   1 <1>   0.5690 
 15 O        4.2200     3.6010    -2.2460 O.2   1 <1>  -0.5700 
 16 C        4.2430     4.9910    -0.3640 C.3   1 <1>  -0.0990 
 17 C        5.6300     5.6250    -0.4560 C.3   1 <1>   0.1400 
 18 N        5.6380     6.9450     0.2270 N.am  1 <1>  -0.4690 
 19 C        5.7840     7.0050     1.6070 C.2   1 <1>   0.6900 
 20 C        5.5340     8.1140    -0.5200 C.2   1 <1>  -0.0410 
 21 O        5.8480     6.0050     2.2930 O.2   1 <1>  -0.5700 
 22 N        5.8400     8.2250     2.2030 N.am  1 <1>  -0.4900 
 23 C        5.5860     9.3150     0.1000 C.2   1 <1>  -0.1360 
 24 C        5.7470     9.3930     1.5130 C.2   1 <1>   0.6160 
 25 O        5.8030    10.4410     2.1200 O.2   1 <1>  -0.5700 
 26 H        2.0760     1.7690    -2.0840 H     1 <1>   0.0800 
 27 H        1.7380     2.1130    -0.4260 H     1 <1>   0.0800 
 28 H       -0.7640     0.6300     2.1340 H     1 <1>   0.0800 
 29 H       -1.6250     1.2170     0.7230 H     1 <1>   0.0800 
 30 H       -0.0440     1.8540     1.1190 H     1 <1>   0.0800 
 31 H       -1.0370    -1.5880     1.3580 H     1 <1>   0.0800 
 32 H       -0.3340    -2.1020    -0.1530 H     1 <1>   0.0800 
 33 H       -1.7850    -1.1230    -0.1620 H     1 <1>   0.0800 
 34 H        3.1060    -0.4070    -1.3960 H     1 <1>   0.0800 
 35 H        4.8270     1.1480    -1.8180 H     1 <1>   0.0800 
 36 H        2.7140    -1.1060     0.7470 H     1 <1>   0.0800 
 37 H        2.4400     0.5260     1.3450 H     1 <1>   0.0800 
 38 H        4.3670     2.5780     0.7370 H     1 <1>   0.3700 
 39 H        6.1000     0.8070     0.5260 H     1 <1>   0.0800 
 40 H        5.5360    -0.6290    -0.3280 H     1 <1>   0.0800 
 41 H        3.5230     5.6150    -0.8590 H     1 <1>   0.0800 
 42 H        3.9560     4.8720     0.6640 H     1 <1>   0.0800 
 43 H        5.9060     5.7480    -1.4900 H     1 <1>   0.0800 
 44 H        6.3580     4.9800     0.0070 H     1 <1>   0.0800 
 45 H        5.4140     8.0180    -1.5880 H     1 <1>   0.1500 
 46 H        5.9510     8.2640     3.2090 H     1 <1>   0.3700 
 47 H        5.5110    10.2480    -0.4250 H     1 <1>   0.1500 
@<TRIPOS>BOND
  1   1   2  2   
  2   1   3  2   
  3   1   4  am  
  4   1   5  1   
  5   4   6  1   
  6   4   7  1   
  7   5   8  1   
  8   5  26  1   
  9   5  27  1   
 10   6  28  1   
 11   6  29  1   
 12   6  30  1   
 13   7  31  1   
 14   7  32  1   
 15   7  33  1   
 16   8   9  1   
 17   8  10  1   
 18   8  34  1   
 19   9  11  1   
 20   9  12  1   
 21   9  35  1   
 22  10  13  1   
 23  10  36  1   
 24  10  37  1   
 25  11  14  am  
 26  11  38  1   
 27  12  13  1   
 28  12  39  1   
 29  12  40  1   
 30  14  15  2   
 31  14  16  1   
 32  16  17  1   
 33  16  41  1   
 34  16  42  1   
 35  17  18  1   
 36  17  43  1   
 37  17  44  1   
 38  18  19  am  
 39  18  20  1   
 40  19  21  2   
 41  19  22  am  
 42  20  23  2   
 43  20  45  1   
 44  22  24  am  
 45  22  46  1   
 46  23  24  1   
 47  23  47  1   
 48  24  25  2   
@<TRIPOS>SUBSTRUCTURE
  1 ****  14 GROUP 4 **** **** 0

# MOE 2024.06 (io_trps.svl 2023.06)
