@<TRIPOS>MOLECULE
NONAME
64 65 1 0 0 
SMALL
USER_CHARGES


@<TRIPOS>ATOM
  1 S       -1.0870    -0.9460     1.5320 S.o2  1 <1>   1.3330 
  2 O        0.3360    -0.8000     1.7310 O.2   1 <1>  -0.6500 
  3 O       -1.9120    -1.5990     2.5230 O.2   1 <1>  -0.6500 
  4 N       -1.7480     0.5850     1.2070 N.am  1 <1>  -0.8490 
  5 C       -1.3700    -1.8180    -0.0140 C.3   1 <1>  -0.0550 
  6 C       -0.7870     1.5080     0.5900 C.3   1 <1>   0.1160 
  7 C       -2.3130     1.2070     2.4110 C.3   1 <1>   0.1160 
  8 C       -2.8660    -1.9380    -0.3720 C.3   1 <1>  -0.1600 
  9 C       -3.0840    -2.7670    -1.6380 C.3   1 <1>   0.3430 
 10 N       -4.5460    -2.9220    -1.8950 N.4   1 <1>  -0.9590 
 11 C       -4.8240    -4.0930    -2.7930 C.3   1 <1>   0.3430 
 12 C       -5.1450    -1.6710    -2.4490 C.3   1 <1>   0.3430 
 13 C       -6.1100    -4.8600    -2.3990 C.3   1 <1>   0.1400 
 14 C       -6.6280    -1.5710    -2.0980 C.3   1 <1>  -0.1600 
 15 N       -7.1830    -3.9840    -1.8200 N.am  1 <1>  -0.6600 
 16 C       -7.4880    -2.7380    -2.5900 C.3   1 <1>   0.1400 
 17 C       -7.9660    -4.2990    -0.7300 C.2   1 <1>   0.5690 
 18 O       -8.6150    -3.4470    -0.1690 O.2   1 <1>  -0.5700 
 19 C       -8.0920    -5.7310    -0.1640 C.3   1 <1>   0.4040 
 20 N       -9.3660    -5.9500     0.6220 N.4   1 <1>  -0.9590 
 21 C       -9.2580    -7.1070     1.5530 C.3   1 <1>   0.3430 
 22 C      -10.5600    -5.9760    -0.2730 C.3   1 <1>   0.3430 
 23 C      -10.4090    -7.1500     2.5590 C.3   1 <1>  -0.1600 
 24 C      -11.7680    -5.4010     0.4650 C.3   1 <1>  -0.1600 
 25 C      -11.7480    -7.5660     1.9320 C.3   1 <1>  -0.1600 
 26 C      -12.5510    -6.4060     1.3270 C.3   1 <1>  -0.1600 
 27 H       -0.9470    -2.8000     0.0760 H     1 <1>   0.0800 
 28 H       -0.8490    -1.3080    -0.8010 H     1 <1>   0.0800 
 29 H       -0.3740     1.0750    -0.3050 H     1 <1>   0.0800 
 30 H        0.0210     1.7220     1.2710 H     1 <1>   0.0800 
 31 H       -1.2750     2.4320     0.3280 H     1 <1>   0.0800 
 32 H       -3.0980     0.5910     2.8150 H     1 <1>   0.0800 
 33 H       -2.7320     2.1700     2.1740 H     1 <1>   0.0800 
 34 H       -1.5500     1.3290     3.1630 H     1 <1>   0.0800 
 35 H       -3.2630    -0.9460    -0.4960 H     1 <1>   0.0800 
 36 H       -3.3750    -2.4070     0.4530 H     1 <1>   0.0800 
 37 H       -2.6360    -3.7370    -1.4940 H     1 <1>   0.0800 
 38 H       -2.6040    -2.2950    -2.4810 H     1 <1>   0.0800 
 39 H       -5.0240    -3.0930    -0.9980 H     1 <1>   0.4500 
 40 H       -3.9980    -4.7840    -2.7680 H     1 <1>   0.0800 
 41 H       -4.9170    -3.7500    -3.8110 H     1 <1>   0.0800 
 42 H       -5.0160    -1.6420    -3.5190 H     1 <1>   0.0800 
 43 H       -4.6450    -0.8090    -2.0370 H     1 <1>   0.0800 
 44 H       -5.8360    -5.6170    -1.6850 H     1 <1>   0.0800 
 45 H       -6.4930    -5.3650    -3.2700 H     1 <1>   0.0800 
 46 H       -7.0060    -0.6720    -2.5520 H     1 <1>   0.0800 
 47 H       -6.7520    -1.4500    -1.0360 H     1 <1>   0.0800 
 48 H       -7.3410    -2.9020    -3.6450 H     1 <1>   0.0800 
 49 H       -8.5270    -2.4800    -2.4540 H     1 <1>   0.0800 
 50 H       -7.2480    -5.8980     0.4820 H     1 <1>   0.0800 
 51 H       -8.0420    -6.4370    -0.9740 H     1 <1>   0.0800 
 52 H       -9.4780    -5.0900     1.1870 H     1 <1>   0.4500 
 53 H       -8.3340    -7.0310     2.1040 H     1 <1>   0.0800 
 54 H       -9.2360    -8.0290     0.9940 H     1 <1>   0.0800 
 55 H      -10.7660    -6.9760    -0.6190 H     1 <1>   0.0800 
 56 H      -10.3740    -5.3510    -1.1320 H     1 <1>   0.0800 
 57 H      -10.4990    -6.2150     3.0850 H     1 <1>   0.0800 
 58 H      -10.1530    -7.8950     3.2920 H     1 <1>   0.0800 
 59 H      -12.4500    -5.0090    -0.2700 H     1 <1>   0.0800 
 60 H      -11.4590    -4.5630     1.0660 H     1 <1>   0.0800 
 61 H      -12.3590    -8.0150     2.6980 H     1 <1>   0.0800 
 62 H      -11.5830    -8.3270     1.1880 H     1 <1>   0.0800 
 63 H      -13.3410    -6.8330     0.7300 H     1 <1>   0.0800 
 64 H      -13.0320    -5.8620     2.1230 H     1 <1>   0.0800 
@<TRIPOS>BOND
  1   1   2  2   
  2   1   3  2   
  3   1   4  am  
  4   1   5  1   
  5   4   6  1   
  6   4   7  1   
  7   5   8  1   
  8   5  27  1   
  9   5  28  1   
 10   6  29  1   
 11   6  30  1   
 12   6  31  1   
 13   7  32  1   
 14   7  33  1   
 15   7  34  1   
 16   8   9  1   
 17   8  35  1   
 18   8  36  1   
 19   9  10  1   
 20   9  37  1   
 21   9  38  1   
 22  10  11  1   
 23  10  12  1   
 24  10  39  1   
 25  11  13  1   
 26  11  40  1   
 27  11  41  1   
 28  12  14  1   
 29  12  42  1   
 30  12  43  1   
 31  13  15  1   
 32  13  44  1   
 33  13  45  1   
 34  14  16  1   
 35  14  46  1   
 36  14  47  1   
 37  15  16  1   
 38  15  17  am  
 39  16  48  1   
 40  16  49  1   
 41  17  18  2   
 42  17  19  1   
 43  19  20  1   
 44  19  50  1   
 45  19  51  1   
 46  20  21  1   
 47  20  22  1   
 48  20  52  1   
 49  21  23  1   
 50  21  53  1   
 51  21  54  1   
 52  22  24  1   
 53  22  55  1   
 54  22  56  1   
 55  23  25  1   
 56  23  57  1   
 57  23  58  1   
 58  24  26  1   
 59  24  59  1   
 60  24  60  1   
 61  25  26  1   
 62  25  61  1   
 63  25  62  1   
 64  26  63  1   
 65  26  64  1   
@<TRIPOS>SUBSTRUCTURE
  1 ****  15 GROUP 4 **** **** 0

# MOE 2024.06 (io_trps.svl 2023.06)
