@<TRIPOS>MOLECULE
NONAME
53 55 1 0 0 
SMALL
USER_CHARGES


@<TRIPOS>ATOM
  1 O        1.6460     0.5290     2.1250 O.2   1 <1>  -0.5700 
  2 C        2.0090    -0.5130     1.6210 C.2   1 <1>   0.5690 
  3 N        3.3560    -0.6700     1.3250 N.am  1 <1>  -0.6600 
  4 C        0.9190    -1.5780     1.2700 C.3   1 <1>   0.3410 
  5 C        4.3370     0.4190     1.6490 C.3   1 <1>   0.1400 
  6 C        3.9620    -1.7830     0.5320 C.3   1 <1>   0.1400 
  7 O        1.0940    -1.9270    -0.1080 O.3   1 <1>  -0.3630 
  8 C       -0.5090    -1.0120     1.4250 C.3   1 <1>  -0.2400 
  9 C        1.0520    -2.8150     2.1800 C.3   1 <1>  -0.2400 
 10 C        4.8570     1.2140     0.4170 C.3   1 <1>   0.4230 
 11 C        4.2880    -1.3300    -0.9080 C.3   1 <1>  -0.0800 
 12 C        0.3760    -2.9040    -0.7070 C.ar  1 <1>   0.0820 
 13 N        3.9490     1.2360    -0.8030 N.4   1 <1>  -0.9590 
 14 C        6.2930     0.7940     0.0310 C.3   1 <1>   0.1200 
 15 C        5.7960    -1.1960    -1.1790 C.3   1 <1>   0.1200 
 16 C        3.4820    -0.0940    -1.3420 C.3   1 <1>   0.3430 
 17 C        0.8300    -4.2150    -0.6810 C.ar  1 <1>  -0.1500 
 18 C       -0.7830    -2.5830    -1.3960 C.ar  1 <1>  -0.1500 
 19 C        2.7540     2.0960    -0.5350 C.3   1 <1>   0.2630 
 20 O        6.4430    -0.5850    -0.1100 O.3   1 <1>  -0.5600 
 21 C        0.1120    -5.2130    -1.3190 C.ar  1 <1>  -0.1430 
 22 C       -1.5000    -3.5770    -2.0360 C.ar  1 <1>  -0.1500 
 23 C       -1.0540    -4.8880    -1.9950 C.ar  1 <1>  -0.1500 
 24 C        0.5980    -6.6510    -1.2870 C.3   1 <1>  -0.0970 
 25 H        3.8970     1.1210     2.3350 H     1 <1>   0.0800 
 26 H        5.1720    -0.0140     2.1750 H     1 <1>   0.0800 
 27 H        4.8510    -2.1330     1.0310 H     1 <1>   0.0800 
 28 H        3.2970    -2.6230     0.4880 H     1 <1>   0.0800 
 29 H       -0.6610    -0.6720     2.4340 H     1 <1>   0.0800 
 30 H       -1.2500    -1.7620     1.2200 H     1 <1>   0.0800 
 31 H       -0.6530    -0.1740     0.7670 H     1 <1>   0.0800 
 32 H        0.9550    -2.5110     3.2070 H     1 <1>   0.0800 
 33 H        2.0080    -3.2890     2.0720 H     1 <1>   0.0800 
 34 H        0.2750    -3.5300     1.9780 H     1 <1>   0.0800 
 35 H        4.9550     2.2340     0.7490 H     1 <1>   0.0800 
 36 H        3.9520    -2.1270    -1.5480 H     1 <1>   0.0800 
 37 H        4.4880     1.6820    -1.5550 H     1 <1>   0.4500 
 38 H        6.9630     1.0880     0.8200 H     1 <1>   0.0800 
 39 H        6.6190     1.2770    -0.8730 H     1 <1>   0.0800 
 40 H        6.0040    -0.6540    -2.0860 H     1 <1>   0.0800 
 41 H        6.2270    -2.1790    -1.2710 H     1 <1>   0.0800 
 42 H        2.4610    -0.2550    -1.0390 H     1 <1>   0.0800 
 43 H        3.4810    -0.0480    -2.4190 H     1 <1>   0.0800 
 44 H        1.7390    -4.4530    -0.1640 H     1 <1>   0.1500 
 45 H       -1.1220    -1.5640    -1.4320 H     1 <1>   0.1500 
 46 H        2.1490     1.6670     0.2470 H     1 <1>   0.0800 
 47 H        2.1480     2.1860    -1.4220 H     1 <1>   0.0800 
 48 H        3.0590     3.0820    -0.2250 H     1 <1>   0.0800 
 49 H       -2.4050    -3.3350    -2.5660 H     1 <1>   0.1500 
 50 H       -1.6190    -5.6540    -2.4960 H     1 <1>   0.1500 
 51 H       -0.2370    -7.3280    -1.2760 H     1 <1>   0.0800 
 52 H        1.1910    -6.8310    -0.4090 H     1 <1>   0.0800 
 53 H        1.1960    -6.8520    -2.1580 H     1 <1>   0.0800 
@<TRIPOS>BOND
  1   1   2  2   
  2   2   3  am  
  3   2   4  1   
  4   3   5  1   
  5   3   6  1   
  6   4   7  1   
  7   4   8  1   
  8   4   9  1   
  9   5  10  1   
 10   5  25  1   
 11   5  26  1   
 12   6  11  1   
 13   6  27  1   
 14   6  28  1   
 15   7  12  1   
 16   8  29  1   
 17   8  30  1   
 18   8  31  1   
 19   9  32  1   
 20   9  33  1   
 21   9  34  1   
 22  10  13  1   
 23  10  14  1   
 24  10  35  1   
 25  11  15  1   
 26  11  16  1   
 27  11  36  1   
 28  12  17  ar  
 29  12  18  ar  
 30  13  16  1   
 31  13  19  1   
 32  13  37  1   
 33  14  20  1   
 34  14  38  1   
 35  14  39  1   
 36  15  20  1   
 37  15  40  1   
 38  15  41  1   
 39  16  42  1   
 40  16  43  1   
 41  17  21  ar  
 42  17  44  1   
 43  18  22  ar  
 44  18  45  1   
 45  19  46  1   
 46  19  47  1   
 47  19  48  1   
 48  21  23  ar  
 49  21  24  1   
 50  22  23  ar  
 51  22  49  1   
 52  23  50  1   
 53  24  51  1   
 54  24  52  1   
 55  24  53  1   
@<TRIPOS>SUBSTRUCTURE
  1 ****   7 GROUP 4 **** **** 0

# MOE 2024.06 (io_trps.svl 2023.06)
