@<TRIPOS>MOLECULE
NONAME
47 49 1 0 0 
SMALL
USER_CHARGES


@<TRIPOS>ATOM
  1 O       -0.3200     0.7090    -0.3130 O.2   1 <1>  -0.5700 
  2 C       -0.4090     1.9100    -0.3370 C.2   1 <1>   0.5690 
  3 N       -1.1720     2.5670     0.5620 N.am  1 <1>  -0.7300 
  4 C        0.3160     2.7150    -1.4150 C.3   1 <1>   0.1810 
  5 C       -1.4190     4.0300     0.5320 C.3   1 <1>   0.3640 
  6 O        0.4860     4.0690    -1.0530 O.3   1 <1>  -0.5600 
  7 C       -2.9310     4.2420     0.4820 C.ar  1 <1>  -0.1440 
  8 C       -0.7100     4.7390    -0.6590 C.3   1 <1>   0.2610 
  9 C       -3.7250     3.5520    -0.4260 C.ar  1 <1>  -0.1500 
 10 C       -3.5350     5.1390     1.3530 C.ar  1 <1>  -0.1500 
 11 C       -0.3870     6.2020    -0.3160 C.2   1 <1>   0.5690 
 12 C       -5.0940     3.7550    -0.4620 C.ar  1 <1>  -0.1500 
 13 C       -4.9040     5.3420     1.3190 C.ar  1 <1>  -0.1500 
 14 O       -1.2150     6.9030     0.2180 O.2   1 <1>  -0.5700 
 15 N        0.8480     6.6860    -0.6350 N.am  1 <1>  -0.7300 
 16 C       -5.6840     4.6500     0.4110 C.ar  1 <1>  -0.1500 
 17 C        1.3770     8.0550    -0.4860 C.3   1 <1>   0.2200 
 18 C        1.4200     8.4530     0.9930 C.3   1 <1>  -0.1600 
 19 C        0.5430     9.0350    -1.3180 C.3   1 <1>  -0.1600 
 20 C        1.8400     9.9100     1.1610 C.3   1 <1>   0.3430 
 21 C        0.9870    10.4750    -1.0870 C.3   1 <1>   0.3430 
 22 N        0.9310    10.7870     0.3700 N.4   1 <1>  -0.9590 
 23 C        1.2150    12.2320     0.6240 C.3   1 <1>   0.2630 
 24 H       -1.7100     2.0210     1.2380 H     1 <1>   0.3700 
 25 H       -0.2420     2.6730    -2.3330 H     1 <1>   0.0800 
 26 H        1.2900     2.2930    -1.5800 H     1 <1>   0.0800 
 27 H       -1.0380     4.4450     1.4490 H     1 <1>   0.0800 
 28 H       -1.3690     4.7420    -1.5080 H     1 <1>   0.0800 
 29 H       -3.2870     2.8470    -1.1110 H     1 <1>   0.1500 
 30 H       -2.9440     5.6920     2.0630 H     1 <1>   0.1500 
 31 H       -5.7000     3.2150    -1.1690 H     1 <1>   0.1500 
 32 H       -5.3610     6.0410     1.9970 H     1 <1>   0.1500 
 33 H        1.4910     5.9920    -1.0390 H     1 <1>   0.3700 
 34 H       -6.7480     4.8090     0.3830 H     1 <1>   0.1500 
 35 H        2.3860     8.0620    -0.8670 H     1 <1>   0.0800 
 36 H        0.4560     8.3230     1.4520 H     1 <1>   0.0800 
 37 H        2.1200     7.8230     1.5110 H     1 <1>   0.0800 
 38 H        0.6510     8.7980    -2.3610 H     1 <1>   0.0800 
 39 H       -0.5000     8.9580    -1.0680 H     1 <1>   0.0800 
 40 H        2.8570    10.0370     0.8240 H     1 <1>   0.0800 
 41 H        1.7940    10.1760     2.2060 H     1 <1>   0.0800 
 42 H        0.3370    11.1400    -1.6330 H     1 <1>   0.0800 
 43 H        1.9930    10.6090    -1.4520 H     1 <1>   0.0800 
 44 H       -0.0330    10.5820     0.6820 H     1 <1>   0.4500 
 45 H        2.2160    12.4790     0.3070 H     1 <1>   0.0800 
 46 H        1.1220    12.4520     1.6760 H     1 <1>   0.0800 
 47 H        0.5180    12.8510     0.0830 H     1 <1>   0.0800 
@<TRIPOS>BOND
  1   1   2  2   
  2   2   3  am  
  3   2   4  1   
  4   3   5  1   
  5   3  24  1   
  6   4   6  1   
  7   4  25  1   
  8   4  26  1   
  9   5   7  1   
 10   5   8  1   
 11   5  27  1   
 12   6   8  1   
 13   7   9  ar  
 14   7  10  ar  
 15   8  11  1   
 16   8  28  1   
 17   9  12  ar  
 18   9  29  1   
 19  10  13  ar  
 20  10  30  1   
 21  11  14  2   
 22  11  15  am  
 23  12  16  ar  
 24  12  31  1   
 25  13  16  ar  
 26  13  32  1   
 27  15  17  1   
 28  15  33  1   
 29  16  34  1   
 30  17  18  1   
 31  17  19  1   
 32  17  35  1   
 33  18  20  1   
 34  18  36  1   
 35  18  37  1   
 36  19  21  1   
 37  19  38  1   
 38  19  39  1   
 39  20  22  1   
 40  20  40  1   
 41  20  41  1   
 42  21  22  1   
 43  21  42  1   
 44  21  43  1   
 45  22  23  1   
 46  22  44  1   
 47  23  45  1   
 48  23  46  1   
 49  23  47  1   
@<TRIPOS>SUBSTRUCTURE
  1 ****  11 GROUP 4 **** **** 0

# MOE 2024.06 (io_trps.svl 2023.06)
