@<TRIPOS>MOLECULE
NONAME
52 55 1 0 0 
SMALL
USER_CHARGES


@<TRIPOS>ATOM
  1 O       -4.6960     1.6280    -1.9340 O.2   1 <1>  -0.5700 
  2 C       -3.5690     1.5790    -1.4930 C.2   1 <1>   0.5690 
  3 N       -2.8240     0.4470    -1.6390 N.am  1 <1>  -0.7300 
  4 C       -2.9700     2.7990    -0.7530 C.3   1 <1>   0.3170 
  5 C       -3.3490    -0.8460    -2.1210 C.3   1 <1>   0.2200 
  6 N       -2.0200     2.2880     0.2960 N.pl3 1 <1>   0.0480 
  7 C       -2.2380     3.7020    -1.7670 C.3   1 <1>  -0.2400 
  8 C       -4.0540     3.6460    -0.0520 C.3   1 <1>  -0.2400 
  9 C       -3.8650    -1.6260    -0.9260 C.3   1 <1>  -0.0800 
 10 C       -2.2050    -1.7300    -2.6130 C.3   1 <1>   0.1200 
 11 C       -0.6580     2.3960     0.3380 C.2   1 <1>  -0.3020 
 12 C       -2.3700     1.4980     1.3540 C.2   1 <1>  -0.3020 
 13 C       -2.5830    -2.2730    -0.4020 C.3   1 <1>   0.1200 
 14 C       -4.9220    -2.6680    -1.3390 C.3   1 <1>  -0.0170 
 15 O       -1.7500    -2.4570    -1.5080 O.3   1 <1>  -0.5600 
 16 C       -0.1690     1.6990     1.3960 C.2   1 <1>  -0.1500 
 17 C       -1.2630     1.1250     2.0450 C.2   1 <1>  -0.1500 
 18 C       -5.5330    -3.3460    -0.1170 C.ar  1 <1>  -0.1440 
 19 C       -6.4840    -2.6990     0.7080 C.ar  1 <1>   0.0000 
 20 C       -5.1660    -4.6160     0.2170 C.ar  1 <1>  -0.1500 
 21 C       -6.9700    -3.4120     1.8310 C.ar  1 <1>   0.3100 
 22 C       -6.9810    -1.3930     0.4880 C.ar  1 <1>  -0.1500 
 23 C       -5.7140    -5.2340     1.3480 C.ar  1 <1>   0.1600 
 24 N       -6.5760    -4.6750     2.1360 N.ar  1 <1>  -0.6200 
 25 C       -7.9070    -2.7940     2.6750 C.ar  1 <1>  -0.1500 
 26 C       -7.8950    -0.8200     1.3290 C.ar  1 <1>  -0.1500 
 27 C       -8.3650    -1.5270     2.4380 C.ar  1 <1>  -0.1500 
 28 H       -1.9280     0.3820    -1.1400 H     1 <1>   0.3700 
 29 H       -4.0960    -0.6810    -2.8810 H     1 <1>   0.0800 
 30 H       -2.9380     4.0710    -2.4970 H     1 <1>   0.0800 
 31 H       -1.4820     3.1460    -2.2910 H     1 <1>   0.0800 
 32 H       -1.7890     4.5450    -1.2730 H     1 <1>   0.0800 
 33 H       -4.7230     4.0690    -0.7810 H     1 <1>   0.0800 
 34 H       -3.6050     4.4480     0.5060 H     1 <1>   0.0800 
 35 H       -4.6380     3.0360     0.6130 H     1 <1>   0.0800 
 36 H       -4.2870    -0.9700    -0.1850 H     1 <1>   0.0800 
 37 H       -1.3940    -1.1610    -3.0310 H     1 <1>   0.0800 
 38 H       -2.5630    -2.4390    -3.3390 H     1 <1>   0.0800 
 39 H       -0.0900     2.9610    -0.3790 H     1 <1>   0.1500 
 40 H       -3.3920     1.2340     1.5640 H     1 <1>   0.1500 
 41 H       -2.7490    -3.2200     0.0800 H     1 <1>   0.0800 
 42 H       -2.0770    -1.6100     0.2790 H     1 <1>   0.0800 
 43 H       -4.4710    -3.4090    -1.9780 H     1 <1>   0.0800 
 44 H       -5.7040    -2.1980    -1.9090 H     1 <1>   0.0800 
 45 H        0.8580     1.5910     1.7010 H     1 <1>   0.1500 
 46 H       -1.2070     0.5070     2.9260 H     1 <1>   0.1500 
 47 H       -4.4520    -5.1690    -0.3660 H     1 <1>   0.1500 
 48 H       -6.6380    -0.8290    -0.3610 H     1 <1>   0.1500 
 49 H       -5.3950    -6.2360     1.5770 H     1 <1>   0.1500 
 50 H       -8.2560    -3.3580     3.5210 H     1 <1>   0.1500 
 51 H       -8.2630     0.1760     1.1480 H     1 <1>   0.1500 
 52 H       -9.0840    -1.0660     3.0940 H     1 <1>   0.1500 
@<TRIPOS>BOND
  1   1   2  2   
  2   2   3  am  
  3   2   4  1   
  4   3   5  1   
  5   3  28  1   
  6   4   6  1   
  7   4   7  1   
  8   4   8  1   
  9   5   9  1   
 10   5  10  1   
 11   5  29  1   
 12   6  11  1   
 13   6  12  1   
 14   7  30  1   
 15   7  31  1   
 16   7  32  1   
 17   8  33  1   
 18   8  34  1   
 19   8  35  1   
 20   9  13  1   
 21   9  14  1   
 22   9  36  1   
 23  10  15  1   
 24  10  37  1   
 25  10  38  1   
 26  11  16  2   
 27  11  39  1   
 28  12  17  2   
 29  12  40  1   
 30  13  15  1   
 31  13  41  1   
 32  13  42  1   
 33  14  18  1   
 34  14  43  1   
 35  14  44  1   
 36  16  17  1   
 37  16  45  1   
 38  17  46  1   
 39  18  19  ar  
 40  18  20  ar  
 41  19  21  ar  
 42  19  22  ar  
 43  20  23  ar  
 44  20  47  1   
 45  21  24  ar  
 46  21  25  ar  
 47  22  26  ar  
 48  22  48  1   
 49  23  24  ar  
 50  23  49  1   
 51  25  27  ar  
 52  25  50  1   
 53  26  27  ar  
 54  26  51  1   
 55  27  52  1   
@<TRIPOS>SUBSTRUCTURE
  1 ****   9 GROUP 4 **** **** 0

# MOE 2024.06 (io_trps.svl 2023.06)
