@<TRIPOS>MOLECULE
NONAME
47 49 1 0 0 
SMALL
USER_CHARGES


@<TRIPOS>ATOM
  1 S       -0.7830     0.5510     2.2130 S.3   1 <1>  -0.0800 
  2 C        0.5270     0.3920     1.0730 C.2   1 <1>   0.1980 
  3 C       -0.9260    -1.1790     2.2430 C.2   1 <1>  -0.1100 
  4 N        0.7960    -0.8090     0.7500 N.2   1 <1>  -0.5650 
  5 C        1.2270     1.6610     0.6020 C.3   1 <1>   0.5230 
  6 C       -0.0200    -1.7440     1.4120 C.2   1 <1>   0.1410 
  7 N        2.3140     1.2990    -0.3690 N.4   1 <1>  -0.9590 
  8 C        0.1700    -3.1760     1.1900 C.2   1 <1>   0.7160 
  9 C        3.4360     2.2820    -0.3820 C.3   1 <1>   0.2630 
 10 C        1.7680     1.0440    -1.7380 C.3   1 <1>   0.2630 
 11 O        1.2950    -3.6350     1.1160 O.2   1 <1>  -0.5700 
 12 N       -0.8950    -4.0430     1.0580 N.am  1 <1>  -0.6600 
 13 C       -2.2710    -3.6550     0.6480 C.3   1 <1>   0.1400 
 14 C       -0.7050    -5.5070     0.8700 C.3   1 <1>   0.1400 
 15 C       -3.0470    -4.9700     0.6140 C.3   1 <1>   0.2000 
 16 C       -1.9940    -6.0030     0.2030 C.3   1 <1>  -0.0800 
 17 O       -3.4870    -5.2390     1.9010 O.3   1 <1>  -0.6800 
 18 C       -2.3480    -7.4640     0.5400 C.3   1 <1>   0.0200 
 19 C       -1.3350    -8.4620     0.0050 C.2   1 <1>  -0.0400 
 20 O       -1.4370    -9.7120     0.3690 O.3   1 <1>  -0.0190 
 21 C       -0.2780    -8.3630    -0.8190 C.2   1 <1>  -0.1500 
 22 N       -0.5060   -10.4520    -0.1600 N.2   1 <1>  -0.4100 
 23 C        0.2080    -9.6650    -0.8810 C.2   1 <1>   0.1080 
 24 C        1.4120   -10.1050    -1.6840 C.3   1 <1>  -0.0590 
 25 H       -1.6670    -1.6100     2.8910 H     1 <1>   0.1500 
 26 H        1.6510     2.1490     1.4630 H     1 <1>   0.0800 
 27 H        0.5160     2.3270     0.1430 H     1 <1>   0.0800 
 28 H        2.6550     0.3810    -0.0210 H     1 <1>   0.4500 
 29 H        3.0910     3.2440    -0.7270 H     1 <1>   0.0800 
 30 H        4.2200     1.9420    -1.0410 H     1 <1>   0.0800 
 31 H        3.8490     2.3950     0.6070 H     1 <1>   0.0800 
 32 H        1.3390     1.9430    -2.1490 H     1 <1>   0.0800 
 33 H        1.0070     0.2810    -1.6980 H     1 <1>   0.0800 
 34 H        2.5530     0.7040    -2.3940 H     1 <1>   0.0800 
 35 H       -2.7250    -2.9580     1.3310 H     1 <1>   0.0800 
 36 H       -2.2370    -3.2260    -0.3380 H     1 <1>   0.0800 
 37 H        0.1580    -5.7100     0.2570 H     1 <1>   0.0800 
 38 H       -0.5660    -5.9680     1.8330 H     1 <1>   0.0800 
 39 H       -3.9020    -4.9420    -0.0410 H     1 <1>   0.0800 
 40 H       -1.8630    -5.9230    -0.8620 H     1 <1>   0.0800 
 41 H       -2.7330    -5.1730     2.5200 H     1 <1>   0.4000 
 42 H       -3.3120    -7.7030     0.1260 H     1 <1>   0.0800 
 43 H       -2.4140    -7.5900     1.6060 H     1 <1>   0.0800 
 44 H        0.1340    -7.5140    -1.3310 H     1 <1>   0.1500 
 45 H        2.2810    -9.5580    -1.3690 H     1 <1>   0.0800 
 46 H        1.2380    -9.9270    -2.7290 H     1 <1>   0.0800 
 47 H        1.5880   -11.1550    -1.5350 H     1 <1>   0.0800 
@<TRIPOS>BOND
  1   1   2  1   
  2   1   3  1   
  3   2   4  2   
  4   2   5  1   
  5   3   6  2   
  6   3  25  1   
  7   4   6  1   
  8   5   7  1   
  9   5  26  1   
 10   5  27  1   
 11   6   8  1   
 12   7   9  1   
 13   7  10  1   
 14   7  28  1   
 15   8  11  2   
 16   8  12  am  
 17   9  29  1   
 18   9  30  1   
 19   9  31  1   
 20  10  32  1   
 21  10  33  1   
 22  10  34  1   
 23  12  13  1   
 24  12  14  1   
 25  13  15  1   
 26  13  35  1   
 27  13  36  1   
 28  14  16  1   
 29  14  37  1   
 30  14  38  1   
 31  15  16  1   
 32  15  17  1   
 33  15  39  1   
 34  16  18  1   
 35  16  40  1   
 36  17  41  1   
 37  18  19  1   
 38  18  42  1   
 39  18  43  1   
 40  19  20  1   
 41  19  21  2   
 42  20  22  1   
 43  21  23  1   
 44  21  44  1   
 45  22  23  2   
 46  23  24  1   
 47  24  45  1   
 48  24  46  1   
 49  24  47  1   
@<TRIPOS>SUBSTRUCTURE
  1 ****  12 GROUP 4 **** **** 0

# MOE 2024.06 (io_trps.svl 2023.06)
