@<TRIPOS>MOLECULE
NONAME
50 53 1 0 0 
SMALL
USER_CHARGES


@<TRIPOS>ATOM
  1 O       -1.9330     0.8310    -0.5660 O.2   1 <1>  -0.5700 
  2 C       -1.3300     1.7670    -0.0630 C.2   1 <1>   0.7150 
  3 N       -2.0980     2.6560     0.6570 N.am  1 <1>  -0.6600 
  4 C        0.0800     1.9920    -0.2920 C.2   1 <1>   0.0550 
  5 C       -3.2470     2.1690     1.4980 C.3   1 <1>   0.1400 
  6 C       -2.0960     4.1050     0.3130 C.3   1 <1>   0.1400 
  7 O        0.6870     1.4820    -1.3590 O.3   1 <1>  -0.2800 
  8 C        0.9980     2.6980     0.4270 C.2   1 <1>  -0.1500 
  9 C       -4.6110     2.2100     0.7570 C.3   1 <1>   0.4230 
 10 C       -3.3350     4.5370    -0.5090 C.3   1 <1>  -0.0800 
 11 C        1.9520     1.8360    -1.3390 C.2   1 <1>  -0.0100 
 12 C        2.2110     2.5960    -0.2540 C.2   1 <1>  -0.1500 
 13 N       -4.3800     2.1770    -0.7390 N.4   1 <1>  -0.9590 
 14 C       -5.5000     3.3800     1.2290 C.3   1 <1>   0.1200 
 15 C       -4.3880     5.2780     0.3320 C.3   1 <1>   0.1200 
 16 C       -3.9880     3.4630    -1.4040 C.3   1 <1>   0.3430 
 17 C       -5.4000     1.4300    -1.5300 C.3   1 <1>   0.4860 
 18 O       -4.7610     4.5440     1.4470 O.3   1 <1>  -0.5600 
 19 C       -5.8040     0.1500    -0.8270 C.ar  1 <1>  -0.1430 
 20 C       -4.8950    -0.8810    -0.6510 C.ar  1 <1>   0.1600 
 21 C       -7.0880    -0.0020    -0.3350 C.ar  1 <1>  -0.1500 
 22 N       -5.1540    -2.0070    -0.0160 N.ar  1 <1>  -0.6200 
 23 C       -7.3740    -1.1810     0.3170 C.ar  1 <1>  -0.1500 
 24 C       -6.3820    -2.1500     0.4560 C.ar  1 <1>   0.3930 
 25 O       -6.5970    -3.3210     1.0900 O.3   1 <1>  -0.3620 
 26 C       -7.8740    -3.7440     1.5150 C.3   1 <1>   0.0400 
 27 H       -3.0560     1.1480     1.7840 H     1 <1>   0.0800 
 28 H       -3.2950     2.7380     2.4110 H     1 <1>   0.0800 
 29 H       -2.0310     4.6830     1.2200 H     1 <1>   0.0800 
 30 H       -1.2120     4.3260    -0.2630 H     1 <1>   0.0800 
 31 H        0.8480     3.2340     1.3480 H     1 <1>   0.1500 
 32 H       -5.1290     1.3130     1.0480 H     1 <1>   0.0800 
 33 H       -2.9770     5.2880    -1.1910 H     1 <1>   0.0800 
 34 H        2.6010     1.5040    -2.1320 H     1 <1>   0.1500 
 35 H        3.1460     3.0370     0.0470 H     1 <1>   0.1500 
 36 H       -3.5180     1.5940    -0.7870 H     1 <1>   0.4500 
 37 H       -5.9290     3.1180     2.1810 H     1 <1>   0.0800 
 38 H       -6.3050     3.5790     0.5440 H     1 <1>   0.0800 
 39 H       -5.2680     5.5180    -0.2410 H     1 <1>   0.0800 
 40 H       -3.9700     6.2010     0.6990 H     1 <1>   0.0800 
 41 H       -3.3020     3.2330    -2.2040 H     1 <1>   0.0800 
 42 H       -4.8620     3.9040    -1.8550 H     1 <1>   0.0800 
 43 H       -6.2730     2.0460    -1.6680 H     1 <1>   0.0800 
 44 H       -5.0020     1.1900    -2.5040 H     1 <1>   0.0800 
 45 H       -3.8930    -0.7860    -1.0420 H     1 <1>   0.1500 
 46 H       -7.8460     0.7550    -0.4480 H     1 <1>   0.1500 
 47 H       -8.3590    -1.3390     0.7120 H     1 <1>   0.1500 
 48 H       -7.7750    -4.7340     1.9240 H     1 <1>   0.0800 
 49 H       -8.5370    -3.7650     0.6690 H     1 <1>   0.0800 
 50 H       -8.2320    -3.0720     2.2750 H     1 <1>   0.0800 
@<TRIPOS>BOND
  1   1   2  2   
  2   2   3  am  
  3   2   4  1   
  4   3   5  1   
  5   3   6  1   
  6   4   7  1   
  7   4   8  2   
  8   5   9  1   
  9   5  27  1   
 10   5  28  1   
 11   6  10  1   
 12   6  29  1   
 13   6  30  1   
 14   7  11  1   
 15   8  12  1   
 16   8  31  1   
 17   9  13  1   
 18   9  14  1   
 19   9  32  1   
 20  10  15  1   
 21  10  16  1   
 22  10  33  1   
 23  11  12  2   
 24  11  34  1   
 25  12  35  1   
 26  13  16  1   
 27  13  17  1   
 28  13  36  1   
 29  14  18  1   
 30  14  37  1   
 31  14  38  1   
 32  15  18  1   
 33  15  39  1   
 34  15  40  1   
 35  16  41  1   
 36  16  42  1   
 37  17  19  1   
 38  17  43  1   
 39  17  44  1   
 40  19  20  ar  
 41  19  21  ar  
 42  20  22  ar  
 43  20  45  1   
 44  21  23  ar  
 45  21  46  1   
 46  22  24  ar  
 47  23  24  ar  
 48  23  47  1   
 49  24  25  1   
 50  25  26  1   
 51  26  48  1   
 52  26  49  1   
 53  26  50  1   
@<TRIPOS>SUBSTRUCTURE
  1 ****  13 GROUP 4 **** **** 0

# MOE 2024.06 (io_trps.svl 2023.06)
