@<TRIPOS>MOLECULE
NONAME
53 55 1 0 0 
SMALL
USER_CHARGES


@<TRIPOS>ATOM
  1 F       -3.3020    -0.4880     1.7900 F     1 <1>  -0.1900 
  2 C       -2.3790    -0.3700     0.8680 C.ar  1 <1>   0.1900 
  3 C       -1.0580    -0.2020     1.2700 C.ar  1 <1>   0.0830 
  4 C       -2.7590    -0.4400    -0.4680 C.ar  1 <1>   0.0860 
  5 O       -0.7580    -0.2220     2.5960 O.3   1 <1>  -0.3630 
  6 C       -0.0820    -0.0390     0.2920 C.ar  1 <1>  -0.1500 
  7 C       -4.1160    -0.7200    -0.8840 C.2   1 <1>   0.5440 
  8 C       -1.7540    -0.2530    -1.4190 C.ar  1 <1>  -0.1500 
  9 C        0.4880    -0.7340     3.0170 C.3   1 <1>   0.0400 
 10 C       -0.4360    -0.0570    -1.0460 C.ar  1 <1>  -0.1500 
 11 O       -4.6890     0.1180    -1.5560 O.2   1 <1>  -0.5700 
 12 N       -4.7850    -1.8980    -0.5920 N.am  1 <1>  -0.6600 
 13 C       -4.1490    -3.0870     0.1020 C.3   1 <1>   0.3640 
 14 C       -6.2760    -1.9220    -0.7100 C.3   1 <1>   0.1400 
 15 C       -2.7770    -3.3730    -0.5200 C.ar  1 <1>  -0.1430 
 16 C       -4.9950    -4.4010     0.0630 C.3   1 <1>   0.2000 
 17 C       -6.8050    -3.3290    -0.9760 C.3   1 <1>   0.1200 
 18 C       -1.6490    -3.4400     0.2870 C.ar  1 <1>  -0.1500 
 19 C       -2.6300    -3.5480    -1.8890 C.ar  1 <1>  -0.1500 
 20 O       -6.3790    -4.1740     0.0420 O.3   1 <1>  -0.5600 
 21 C       -4.7510    -5.3180     1.2750 C.3   1 <1>   0.1200 
 22 C       -0.3980    -3.6630    -0.2580 C.ar  1 <1>   0.0830 
 23 C       -1.3820    -3.7730    -2.4450 C.ar  1 <1>  -0.1500 
 24 O       -3.4130    -5.6700     1.4130 O.3   1 <1>  -0.6800 
 25 O        0.6560    -3.6930     0.5940 O.3   1 <1>  -0.3630 
 26 C       -0.2480    -3.8240    -1.6380 C.ar  1 <1>   0.0830 
 27 C        1.2480    -4.9540     0.8070 C.3   1 <1>   0.0400 
 28 O        1.0050    -4.0140    -2.1430 O.3   1 <1>  -0.3630 
 29 C        1.2490    -4.0030    -3.5320 C.3   1 <1>   0.0400 
 30 H        0.9490     0.1030     0.5560 H     1 <1>   0.1500 
 31 H       -2.0200    -0.2750    -2.4610 H     1 <1>   0.1500 
 32 H        0.4400    -0.8950     4.0790 H     1 <1>   0.0800 
 33 H        1.2560    -0.0180     2.7910 H     1 <1>   0.0800 
 34 H        0.6720    -1.6680     2.5130 H     1 <1>   0.0800 
 35 H        0.3210     0.0720    -1.8010 H     1 <1>   0.1500 
 36 H       -4.0160    -2.8250     1.1360 H     1 <1>   0.0800 
 37 H       -6.7060    -1.5480     0.2030 H     1 <1>   0.0800 
 38 H       -6.5980    -1.2820    -1.5120 H     1 <1>   0.0800 
 39 H       -4.7620    -4.9500    -0.8320 H     1 <1>   0.0800 
 40 H       -6.4580    -3.7030    -1.9240 H     1 <1>   0.0800 
 41 H       -7.8800    -3.3250    -0.9720 H     1 <1>   0.0800 
 42 H       -1.7300    -3.3140     1.3520 H     1 <1>   0.1500 
 43 H       -3.4930    -3.4940    -2.5310 H     1 <1>   0.1500 
 44 H       -5.3220    -6.2240     1.1710 H     1 <1>   0.0800 
 45 H       -5.0480    -4.8160     2.1800 H     1 <1>   0.0800 
 46 H       -1.3150    -3.8990    -3.5090 H     1 <1>   0.1500 
 47 H       -3.0740    -6.1040     0.6050 H     1 <1>   0.4000 
 48 H        2.0030    -4.8470     1.5640 H     1 <1>   0.0800 
 49 H        1.6940    -5.2950    -0.1100 H     1 <1>   0.0800 
 50 H        0.4900    -5.6420     1.1360 H     1 <1>   0.0800 
 51 H        2.3100    -4.0950    -3.6840 H     1 <1>   0.0800 
 52 H        0.9020    -3.0710    -3.9400 H     1 <1>   0.0800 
 53 H        0.7430    -4.8380    -3.9830 H     1 <1>   0.0800 
@<TRIPOS>BOND
  1   1   2  1   
  2   2   3  ar  
  3   2   4  ar  
  4   3   5  1   
  5   3   6  ar  
  6   4   7  1   
  7   4   8  ar  
  8   5   9  1   
  9   6  10  ar  
 10   6  30  1   
 11   7  11  2   
 12   7  12  am  
 13   8  10  ar  
 14   8  31  1   
 15   9  32  1   
 16   9  33  1   
 17   9  34  1   
 18  10  35  1   
 19  12  13  1   
 20  12  14  1   
 21  13  15  1   
 22  13  16  1   
 23  13  36  1   
 24  14  17  1   
 25  14  37  1   
 26  14  38  1   
 27  15  18  ar  
 28  15  19  ar  
 29  16  20  1   
 30  16  21  1   
 31  16  39  1   
 32  17  20  1   
 33  17  40  1   
 34  17  41  1   
 35  18  22  ar  
 36  18  42  1   
 37  19  23  ar  
 38  19  43  1   
 39  21  24  1   
 40  21  44  1   
 41  21  45  1   
 42  22  25  1   
 43  22  26  ar  
 44  23  26  ar  
 45  23  46  1   
 46  24  47  1   
 47  25  27  1   
 48  26  28  1   
 49  27  48  1   
 50  27  49  1   
 51  27  50  1   
 52  28  29  1   
 53  29  51  1   
 54  29  52  1   
 55  29  53  1   
@<TRIPOS>SUBSTRUCTURE
  1 ****  15 GROUP 4 **** **** 0

# MOE 2024.06 (io_trps.svl 2023.06)
