@<TRIPOS>MOLECULE
NONAME
52 55 1 0 0 
SMALL
USER_CHARGES


@<TRIPOS>ATOM
  1 F       -2.2480    -0.1190    -2.1490 F     1 <1>  -0.1900 
  2 C       -3.1120    -0.6110    -1.2980 C.ar  1 <1>   0.1900 
  3 C       -4.4480    -0.5940    -1.6200 C.ar  1 <1>  -0.1500 
  4 C       -2.6220    -1.1320    -0.0960 C.ar  1 <1>  -0.1500 
  5 C       -5.3380    -1.1250    -0.6900 C.ar  1 <1>   0.2270 
  6 C       -3.5060    -1.6570     0.8210 C.ar  1 <1>  -0.1500 
  7 N       -6.6940    -1.2300    -0.7560 N.2   1 <1>  -0.5650 
  8 C       -4.8690    -1.6450     0.5050 C.ar  1 <1>  -0.1520 
  9 C       -7.0260    -1.7910     0.3540 C.2   1 <1>   0.0060 
 10 N       -5.9750    -2.0710     1.1660 N.pl3 1 <1>   0.0330 
 11 C       -8.4570    -2.1060     0.7360 C.3   1 <1>   0.0200 
 12 C       -9.0510    -0.9600     1.5590 C.3   1 <1>  -0.0990 
 13 C      -10.5130    -1.2270     1.8600 C.2   1 <1>   0.5690 
 14 O      -10.7550    -1.7480     2.9230 O.2   1 <1>  -0.5700 
 15 N      -11.4970    -0.9220     0.9540 N.am  1 <1>  -0.6600 
 16 C      -12.9090    -1.3590     1.2160 C.3   1 <1>   0.1400 
 17 C      -11.2440    -0.2570    -0.3630 C.3   1 <1>   0.1400 
 18 C      -13.6080    -1.8710    -0.0660 C.3   1 <1>   0.0000 
 19 C      -12.5330     0.3210    -0.9510 C.3   1 <1>  -0.1600 
 20 C      -15.0140    -2.3930     0.2980 C.3   1 <1>   0.2000 
 21 C      -13.6390    -0.7360    -1.1280 C.3   1 <1>  -0.1600 
 22 C      -12.9160    -3.1510    -0.5800 C.3   1 <1>  -0.1600 
 23 O      -15.7870    -2.5020    -0.8640 O.3   1 <1>  -0.5600 
 24 C      -14.7880    -3.8030     0.8610 C.3   1 <1>  -0.1600 
 25 C      -13.4560    -4.2960     0.2810 C.3   1 <1>  -0.1600 
 26 C      -17.1640    -2.4580    -0.6650 C.3   1 <1>   0.0400 
 27 H       -4.8120    -0.1920    -2.5450 H     1 <1>   0.1500 
 28 H       -1.5630    -1.1120     0.0900 H     1 <1>   0.1500 
 29 H       -3.1650    -2.0660     1.7560 H     1 <1>   0.1500 
 30 H       -6.0050    -2.5100     2.0900 H     1 <1>   0.2700 
 31 H       -9.0300    -2.2430    -0.1640 H     1 <1>   0.0800 
 32 H       -8.5000    -3.0250     1.2950 H     1 <1>   0.0800 
 33 H       -8.9300    -0.0280     1.0430 H     1 <1>   0.0800 
 34 H       -8.5210    -0.8790     2.4900 H     1 <1>   0.0800 
 35 H      -12.9170    -2.1300     1.9670 H     1 <1>   0.0800 
 36 H      -13.4560    -0.5200     1.6110 H     1 <1>   0.0800 
 37 H      -10.5370     0.5450    -0.2430 H     1 <1>   0.0800 
 38 H      -10.8310    -0.9750    -1.0500 H     1 <1>   0.0800 
 39 H      -12.8820     1.0970    -0.2920 H     1 <1>   0.0800 
 40 H      -12.3220     0.7790    -1.9010 H     1 <1>   0.0800 
 41 H      -15.5120    -1.7390     0.9950 H     1 <1>   0.0800 
 42 H      -13.5740    -1.1640    -2.1130 H     1 <1>   0.0800 
 43 H      -14.5840    -0.2240    -1.0790 H     1 <1>   0.0800 
 44 H      -13.2140    -3.3330    -1.5990 H     1 <1>   0.0800 
 45 H      -11.8430    -3.1010    -0.5450 H     1 <1>   0.0800 
 46 H      -14.7050    -3.7480     1.9320 H     1 <1>   0.0800 
 47 H      -15.5950    -4.4690     0.6140 H     1 <1>   0.0800 
 48 H      -12.7670    -4.5140     1.0800 H     1 <1>   0.0800 
 49 H      -13.5940    -5.1830    -0.3130 H     1 <1>   0.0800 
 50 H      -17.6430    -2.5830    -1.6200 H     1 <1>   0.0800 
 51 H      -17.4300    -1.5020    -0.2490 H     1 <1>   0.0800 
 52 H      -17.4600    -3.2540    -0.0050 H     1 <1>   0.0800 
@<TRIPOS>BOND
  1   1   2  1   
  2   2   3  ar  
  3   2   4  ar  
  4   3   5  ar  
  5   3  27  1   
  6   4   6  ar  
  7   4  28  1   
  8   5   7  1   
  9   5   8  ar  
 10   6   8  ar  
 11   6  29  1   
 12   7   9  2   
 13   8  10  1   
 14   9  10  1   
 15   9  11  1   
 16  10  30  1   
 17  11  12  1   
 18  11  31  1   
 19  11  32  1   
 20  12  13  1   
 21  12  33  1   
 22  12  34  1   
 23  13  14  2   
 24  13  15  am  
 25  15  16  1   
 26  15  17  1   
 27  16  18  1   
 28  16  35  1   
 29  16  36  1   
 30  17  19  1   
 31  17  37  1   
 32  17  38  1   
 33  18  20  1   
 34  18  21  1   
 35  18  22  1   
 36  19  21  1   
 37  19  39  1   
 38  19  40  1   
 39  20  23  1   
 40  20  24  1   
 41  20  41  1   
 42  21  42  1   
 43  21  43  1   
 44  22  25  1   
 45  22  44  1   
 46  22  45  1   
 47  23  26  1   
 48  24  25  1   
 49  24  46  1   
 50  24  47  1   
 51  25  48  1   
 52  25  49  1   
 53  26  50  1   
 54  26  51  1   
 55  26  52  1   
@<TRIPOS>SUBSTRUCTURE
  1 ****  11 GROUP 4 **** **** 0

# MOE 2024.06 (io_trps.svl 2023.06)
