@<TRIPOS>MOLECULE
NONAME
47 50 1 0 0 
SMALL
USER_CHARGES


@<TRIPOS>ATOM
  1 O        0.6570    -0.3580     0.7230 O.2   1 <1>  -0.5700 
  2 C        1.7590    -0.3600     0.2260 C.2   1 <1>   0.5690 
  3 N        2.6090    -1.4240     0.2850 N.am  1 <1>  -0.6600 
  4 C        2.2520     0.8680    -0.5180 C.3   1 <1>  -0.0190 
  5 C        3.9650    -1.2710    -0.3030 C.3   1 <1>   0.2200 
  6 C        2.2250    -2.7280     0.8800 C.3   1 <1>   0.1400 
  7 C        3.2340     1.6400     0.3870 C.3   1 <1>   0.1100 
  8 C        2.8370     0.4390    -1.8830 C.3   1 <1>  -0.1600 
  9 C        4.8160    -0.3410     0.6020 C.3   1 <1>   0.1100 
 10 C        3.8180    -0.7530    -1.7490 C.3   1 <1>  -0.1600 
 11 C        2.8920    -2.9040     2.2470 C.3   1 <1>  -0.1600 
 12 N        4.6290     1.1280     0.4510 N.3   1 <1>  -0.8100 
 13 C        2.4610    -4.2160     2.9110 C.3   1 <1>  -0.2400 
 14 C        5.5750     1.7830    -0.4870 C.3   1 <1>   0.2900 
 15 C        5.7760     3.2450    -0.1250 C.2   1 <1>   0.0060 
 16 N        5.9640     4.2020    -0.9690 N.2   1 <1>  -0.5650 
 17 N        5.7640     3.6460     1.1690 N.pl3 1 <1>   0.0330 
 18 C        6.0830     5.3150    -0.1900 C.ar  1 <1>   0.2270 
 19 C        5.9580     4.9870     1.1480 C.ar  1 <1>  -0.1520 
 20 C        6.2960     6.6410    -0.5610 C.ar  1 <1>  -0.1500 
 21 C        6.0360     5.9610     2.1460 C.ar  1 <1>  -0.1500 
 22 C        6.3760     7.6100     0.4160 C.ar  1 <1>  -0.1500 
 23 C        6.2460     7.2690     1.7680 C.ar  1 <1>  -0.1500 
 24 H        1.4020     1.5020    -0.6910 H     1 <1>   0.0800 
 25 H        4.4400    -2.2370    -0.3260 H     1 <1>   0.0800 
 26 H        1.1550    -2.7670     0.9970 H     1 <1>   0.0800 
 27 H        2.5140    -3.5240     0.2160 H     1 <1>   0.0800 
 28 H        2.8320     1.6420     1.3860 H     1 <1>   0.0800 
 29 H        3.2490     2.6660     0.0610 H     1 <1>   0.0800 
 30 H        2.0180     0.1290    -2.5080 H     1 <1>   0.0800 
 31 H        3.3030     1.2760    -2.3700 H     1 <1>   0.0800 
 32 H        5.8520    -0.5740     0.4350 H     1 <1>   0.0800 
 33 H        4.6100    -0.5990     1.6260 H     1 <1>   0.0800 
 34 H        4.7850    -0.4830    -2.1320 H     1 <1>   0.0800 
 35 H        3.4590    -1.5640    -2.3580 H     1 <1>   0.0800 
 36 H        3.9610    -2.9040     2.1350 H     1 <1>   0.0800 
 37 H        2.6100    -2.0800     2.8810 H     1 <1>   0.0800 
 38 H        2.7400    -5.0580     2.3030 H     1 <1>   0.0800 
 39 H        1.3950    -4.2300     3.0570 H     1 <1>   0.0800 
 40 H        2.9360    -4.3150     3.8720 H     1 <1>   0.0800 
 41 H        6.5350     1.3010    -0.4320 H     1 <1>   0.0800 
 42 H        5.2290     1.7160    -1.5000 H     1 <1>   0.0800 
 43 H        5.5730     3.0380     1.9690 H     1 <1>   0.2700 
 44 H        6.3920     6.8740    -1.6050 H     1 <1>   0.1500 
 45 H        5.9340     5.6870     3.1810 H     1 <1>   0.1500 
 46 H        6.5400     8.6390     0.1460 H     1 <1>   0.1500 
 47 H        6.3120     8.0440     2.5120 H     1 <1>   0.1500 
@<TRIPOS>BOND
  1   1   2  2   
  2   2   3  am  
  3   2   4  1   
  4   3   5  1   
  5   3   6  1   
  6   4   7  1   
  7   4   8  1   
  8   4  24  1   
  9   5   9  1   
 10   5  10  1   
 11   5  25  1   
 12   6  11  1   
 13   6  26  1   
 14   6  27  1   
 15   7  12  1   
 16   7  28  1   
 17   7  29  1   
 18   8  10  1   
 19   8  30  1   
 20   8  31  1   
 21   9  12  1   
 22   9  32  1   
 23   9  33  1   
 24  10  34  1   
 25  10  35  1   
 26  11  13  1   
 27  11  36  1   
 28  11  37  1   
 29  12  14  1   
 30  13  38  1   
 31  13  39  1   
 32  13  40  1   
 33  14  15  1   
 34  14  41  1   
 35  14  42  1   
 36  15  16  2   
 37  15  17  1   
 38  16  18  1   
 39  17  19  1   
 40  17  43  1   
 41  18  19  ar  
 42  18  20  ar  
 43  19  21  ar  
 44  20  22  ar  
 45  20  44  1   
 46  21  23  ar  
 47  21  45  1   
 48  22  23  ar  
 49  22  46  1   
 50  23  47  1   
@<TRIPOS>SUBSTRUCTURE
  1 ****  12 GROUP 4 **** **** 0

# MOE 2024.06 (io_trps.svl 2023.06)
