@<TRIPOS>MOLECULE
NONAME
48 51 1 0 0 
SMALL
USER_CHARGES


@<TRIPOS>ATOM
  1 S        1.2580    -0.7330    -0.6830 S.3   1 <1>  -0.0800 
  2 C        0.6510    -2.2940    -0.1300 C.ar  1 <1>   0.2970 
  3 C       -0.3310    -0.2790    -1.3050 C.2   1 <1>  -0.1100 
  4 N        1.3940    -3.1960     0.4730 N.ar  1 <1>  -0.5670 
  5 C       -0.6830    -2.4140    -0.4190 C.ar  1 <1>   0.0000 
  6 C       -1.2240    -1.2610    -1.0890 C.2   1 <1>  -0.1500 
  7 C        0.7250    -4.2830     0.7950 C.ar  1 <1>   0.4770 
  8 C       -1.2640    -3.6130    -0.0190 C.ar  1 <1>   0.4100 
  9 N       -0.5600    -4.5580     0.5860 N.ar  1 <1>  -0.6200 
 10 C        1.5210    -5.3610     1.4940 C.3   1 <1>  -0.0960 
 11 N       -2.6040    -3.8550    -0.2090 N.pl3 1 <1>  -0.8380 
 12 C       -2.9960    -5.1560    -0.7940 C.3   1 <1>   0.2090 
 13 C       -3.5030    -3.3800     0.8690 C.3   1 <1>   0.2090 
 14 C       -3.7330    -5.9510     0.3080 C.3   1 <1>   0.4230 
 15 C       -4.9010    -4.0700     0.8310 C.3   1 <1>  -0.1600 
 16 N       -3.2710    -7.3930     0.4050 N.4   1 <1>  -0.9590 
 17 C       -5.2830    -5.5540     0.2810 C.3   1 <1>   0.0000 
 18 C       -3.5050    -8.1240    -0.8560 C.3   1 <1>   0.3430 
 19 C       -1.8420    -7.4820     0.8460 C.3   1 <1>   0.2630 
 20 C       -5.7350    -6.9900    -0.3210 C.3   1 <1>  -0.1600 
 21 C       -6.8260    -5.1230     0.3400 C.3   1 <1>   0.1200 
 22 C       -4.8600    -7.6910    -1.3890 C.3   1 <1>  -0.1600 
 23 O       -7.2430    -4.6550    -0.9070 O.3   1 <1>  -0.6800 
 24 H       -0.4160     0.6880    -1.7710 H     1 <1>   0.1500 
 25 H       -2.2620    -1.2430    -1.3730 H     1 <1>   0.1500 
 26 H        0.9860    -5.7090     2.3570 H     1 <1>   0.0800 
 27 H        2.4730    -4.9760     1.8130 H     1 <1>   0.0800 
 28 H        1.6880    -6.1780     0.8190 H     1 <1>   0.0800 
 29 H       -3.6470    -4.9790    -1.6320 H     1 <1>   0.0800 
 30 H       -2.1230    -5.6740    -1.1490 H     1 <1>   0.0800 
 31 H       -3.0330    -3.5750     1.8200 H     1 <1>   0.0800 
 32 H       -3.6170    -2.3100     0.7880 H     1 <1>   0.0800 
 33 H       -3.3580    -5.5630     1.2380 H     1 <1>   0.0800 
 34 H       -5.2420    -3.9910     1.8520 H     1 <1>   0.0800 
 35 H       -5.4410    -3.3230     0.2680 H     1 <1>   0.0800 
 36 H       -3.8610    -7.8300     1.1240 H     1 <1>   0.4500 
 37 H       -2.7390    -7.8970    -1.5800 H     1 <1>   0.0800 
 38 H       -3.5010    -9.1870    -0.6700 H     1 <1>   0.0800 
 39 H       -1.1900    -7.0470     0.1060 H     1 <1>   0.0800 
 40 H       -1.5570    -8.5100     0.9970 H     1 <1>   0.0800 
 41 H       -1.7030    -6.9440     1.7710 H     1 <1>   0.0800 
 42 H       -5.8840    -7.6690     0.5030 H     1 <1>   0.0800 
 43 H       -6.6800    -7.0050    -0.8470 H     1 <1>   0.0800 
 44 H       -7.0990    -4.3630     1.0560 H     1 <1>   0.0800 
 45 H       -7.4920    -5.9240     0.6260 H     1 <1>   0.0800 
 46 H       -4.7260    -7.0360    -2.2330 H     1 <1>   0.0800 
 47 H       -5.3690    -8.5640    -1.7610 H     1 <1>   0.0800 
 48 H       -6.8870    -3.7650    -1.1010 H     1 <1>   0.4000 
@<TRIPOS>BOND
  1   1   2  1   
  2   1   3  1   
  3   2   4  ar  
  4   2   5  ar  
  5   3   6  2   
  6   3  24  1   
  7   4   7  ar  
  8   5   6  1   
  9   5   8  ar  
 10   6  25  1   
 11   7   9  ar  
 12   7  10  1   
 13   8   9  ar  
 14   8  11  1   
 15  10  26  1   
 16  10  27  1   
 17  10  28  1   
 18  11  12  1   
 19  11  13  1   
 20  12  14  1   
 21  12  29  1   
 22  12  30  1   
 23  13  15  1   
 24  13  31  1   
 25  13  32  1   
 26  14  16  1   
 27  14  17  1   
 28  14  33  1   
 29  15  17  1   
 30  15  34  1   
 31  15  35  1   
 32  16  18  1   
 33  16  19  1   
 34  16  36  1   
 35  17  20  1   
 36  17  21  1   
 37  18  22  1   
 38  18  37  1   
 39  18  38  1   
 40  19  39  1   
 41  19  40  1   
 42  19  41  1   
 43  20  22  1   
 44  20  42  1   
 45  20  43  1   
 46  21  23  1   
 47  21  44  1   
 48  21  45  1   
 49  22  46  1   
 50  22  47  1   
 51  23  48  1   
@<TRIPOS>SUBSTRUCTURE
  1 ****  11 GROUP 4 **** **** 0

# MOE 2024.06 (io_trps.svl 2023.06)
