@<TRIPOS>MOLECULE
NONAME
55 56 1 0 0 
SMALL
USER_CHARGES


@<TRIPOS>ATOM
  1 O        2.3740     0.1980     2.6120 O.co2 1 <1>  -0.9000 
  2 C        2.4140    -0.2590     1.4670 C.2   1 <1>   0.9060 
  3 O        2.3190    -1.4710     1.2310 O.co2 1 <1>  -0.9000 
  4 C        2.6720     0.6880     0.2860 C.3   1 <1>  -0.1060 
  5 C        3.9020     0.1120    -0.4540 C.3   1 <1>   0.2000 
  6 C        3.0730     2.1040     0.7910 C.3   1 <1>  -0.1600 
  7 C        1.4200     0.7570    -0.6480 C.3   1 <1>  -0.1600 
  8 O        3.5870    -1.0940    -1.0450 O.3   1 <1>  -0.6800 
  9 C        4.4380     1.0490    -1.5430 C.3   1 <1>   0.3430 
 10 C        3.5300     3.0260    -0.3330 C.3   1 <1>   0.3430 
 11 C        0.1630     1.3610     0.0020 C.3   1 <1>  -0.1600 
 12 N        4.7150     2.4190    -1.0030 N.4   1 <1>  -0.9590 
 13 C       -1.0440     1.2490    -0.9330 C.3   1 <1>  -0.2400 
 14 C        5.3400     3.3090    -2.0060 C.3   1 <1>   0.4860 
 15 C        5.8390     4.5620    -1.3060 C.ar  1 <1>  -0.1430 
 16 C        6.7740     4.4740    -0.2760 C.ar  1 <1>   0.0830 
 17 C        5.3470     5.7970    -1.6960 C.ar  1 <1>  -0.1500 
 18 O        7.1780     3.2090     0.0620 O.3   1 <1>  -0.3620 
 19 C        7.2320     5.6480     0.3400 C.ar  1 <1>   0.0830 
 20 C        5.7730     6.9510    -1.0670 C.ar  1 <1>  -0.1500 
 21 C        7.5430     2.8810     1.3900 C.3   1 <1>   0.0400 
 22 O        8.1810     5.5980     1.3150 O.3   1 <1>  -0.3630 
 23 C        6.7110     6.8880    -0.0420 C.ar  1 <1>   0.0830 
 24 C        9.4770     6.0170     0.9430 C.3   1 <1>   0.0400 
 25 O        7.1430     8.0040     0.6140 O.3   1 <1>  -0.3630 
 26 C        6.6170     9.2850     0.3460 C.3   1 <1>   0.0400 
 27 H        4.6850    -0.0900     0.2580 H     1 <1>   0.0800 
 28 H        3.8680     2.0160     1.5120 H     1 <1>   0.0800 
 29 H        2.2520     2.5550     1.3190 H     1 <1>   0.0800 
 30 H        1.6420     1.3030    -1.5460 H     1 <1>   0.0800 
 31 H        1.1710    -0.2480    -0.9480 H     1 <1>   0.0800 
 32 H        3.0810    -1.6080    -0.3430 H     1 <1>   0.4000 
 33 H        3.7020     1.1120    -2.3270 H     1 <1>   0.0800 
 34 H        5.3400     0.6220    -1.9470 H     1 <1>   0.0800 
 35 H        3.7890     3.9870     0.0800 H     1 <1>   0.0800 
 36 H        2.7290     3.1600    -1.0410 H     1 <1>   0.0800 
 37 H       -0.0560     0.8370     0.9190 H     1 <1>   0.0800 
 38 H        0.3160     2.3980     0.2410 H     1 <1>   0.0800 
 39 H        5.4430     2.3300    -0.2730 H     1 <1>   0.4500 
 40 H       -1.2470     0.2160    -1.1550 H     1 <1>   0.0800 
 41 H       -0.8620     1.7740    -1.8540 H     1 <1>   0.0800 
 42 H       -1.9130     1.6710    -0.4610 H     1 <1>   0.0800 
 43 H        6.1790     2.8110    -2.4640 H     1 <1>   0.0800 
 44 H        4.6280     3.5650    -2.7720 H     1 <1>   0.0800 
 45 H        4.6250     5.8780    -2.4930 H     1 <1>   0.1500 
 46 H        5.3650     7.8910    -1.3910 H     1 <1>   0.1500 
 47 H        7.4540     1.8170     1.5170 H     1 <1>   0.0800 
 48 H        6.8890     3.3900     2.0780 H     1 <1>   0.0800 
 49 H        8.5640     3.1760     1.5540 H     1 <1>   0.0800 
 50 H       10.1330     5.8640     1.7810 H     1 <1>   0.0800 
 51 H        9.4550     7.0600     0.6860 H     1 <1>   0.0800 
 52 H        9.8060     5.4300     0.1040 H     1 <1>   0.0800 
 53 H        7.0930     9.9850     1.0090 H     1 <1>   0.0800 
 54 H        5.5570     9.2750     0.5280 H     1 <1>   0.0800 
 55 H        6.8340     9.5470    -0.6750 H     1 <1>   0.0800 
@<TRIPOS>BOND
  1   1   2  ar  
  2   2   3  ar  
  3   2   4  1   
  4   4   5  1   
  5   4   6  1   
  6   4   7  1   
  7   5   8  1   
  8   5   9  1   
  9   5  27  1   
 10   6  10  1   
 11   6  28  1   
 12   6  29  1   
 13   7  11  1   
 14   7  30  1   
 15   7  31  1   
 16   8  32  1   
 17   9  12  1   
 18   9  33  1   
 19   9  34  1   
 20  10  12  1   
 21  10  35  1   
 22  10  36  1   
 23  11  13  1   
 24  11  37  1   
 25  11  38  1   
 26  12  14  1   
 27  12  39  1   
 28  13  40  1   
 29  13  41  1   
 30  13  42  1   
 31  14  15  1   
 32  14  43  1   
 33  14  44  1   
 34  15  16  ar  
 35  15  17  ar  
 36  16  18  1   
 37  16  19  ar  
 38  17  20  ar  
 39  17  45  1   
 40  18  21  1   
 41  19  22  1   
 42  19  23  ar  
 43  20  23  ar  
 44  20  46  1   
 45  21  47  1   
 46  21  48  1   
 47  21  49  1   
 48  22  24  1   
 49  23  25  1   
 50  24  50  1   
 51  24  51  1   
 52  24  52  1   
 53  25  26  1   
 54  26  53  1   
 55  26  54  1   
 56  26  55  1   
@<TRIPOS>SUBSTRUCTURE
  1 ****  12 GROUP 4 **** **** 0

# MOE 2024.06 (io_trps.svl 2023.06)
