@<TRIPOS>MOLECULE
NONAME
54 57 1 0 0 
SMALL
USER_CHARGES


@<TRIPOS>ATOM
  1 O       -1.8270     0.5460     0.3700 O.2   1 <1>  -0.5700 
  2 C       -1.2540     1.6070     0.2980 C.2   1 <1>   0.5690 
  3 N       -1.9680     2.7590     0.4770 N.am  1 <1>  -0.6600 
  4 C        0.2090     1.6190    -0.0920 C.3   1 <1>  -0.0990 
  5 C       -3.1920     2.7670     1.3540 C.3   1 <1>   0.1400 
  6 C       -1.8280     3.9320    -0.4350 C.3   1 <1>   0.1400 
  7 C        1.0460     2.5170     0.8340 C.3   1 <1>   0.0960 
  8 C       -4.4990     2.5140     0.5580 C.3   1 <1>   0.4230 
  9 C       -2.9880     4.0300    -1.4560 C.3   1 <1>  -0.0800 
 10 N        2.0000     3.3200     0.0450 N.pl3 1 <1>   0.3140 
 11 N       -4.1580     1.8260    -0.7470 N.4   1 <1>  -0.9590 
 12 C       -5.3440     3.7960     0.3920 C.3   1 <1>   0.1200 
 13 C       -4.0250     5.1060    -1.0960 C.3   1 <1>   0.1200 
 14 C       -3.6690     2.7060    -1.8640 C.3   1 <1>   0.3430 
 15 N        1.5640     4.3410    -0.7180 N.2   1 <1>  -0.7070 
 16 C        3.3410     3.1680    -0.0540 C.2   1 <1>  -0.3320 
 17 C       -5.1410     0.8090    -1.2190 C.3   1 <1>   0.4860 
 18 O       -4.5480     4.9210     0.1760 O.3   1 <1>  -0.5600 
 19 C        2.6350     4.8200    -1.2750 C.2   1 <1>   0.1390 
 20 C        3.7770     4.1260    -0.8990 C.2   1 <1>  -0.1500 
 21 C        4.1640     2.1110     0.6630 C.3   1 <1>  -0.0600 
 22 C       -5.6040    -0.0670    -0.0770 C.ar  1 <1>  -0.1440 
 23 C       -6.8990     0.0070     0.3850 C.ar  1 <1>   0.1600 
 24 C       -4.7630    -0.9560     0.5560 C.ar  1 <1>   0.1600 
 25 N       -7.3200    -0.7100     1.3990 N.ar  1 <1>  -0.6200 
 26 N       -5.1620    -1.6860     1.5700 N.ar  1 <1>  -0.6200 
 27 C       -6.4240    -1.5250     1.9350 C.ar  1 <1>   0.4700 
 28 H        0.5920     0.6160    -0.0410 H     1 <1>   0.0800 
 29 H        0.2830     1.9410    -1.1150 H     1 <1>   0.0800 
 30 H       -3.0940     1.9880     2.0910 H     1 <1>   0.0800 
 31 H       -3.2460     3.6950     1.8970 H     1 <1>   0.0800 
 32 H       -1.7620     4.8350     0.1500 H     1 <1>   0.0800 
 33 H       -0.9080     3.8510    -0.9850 H     1 <1>   0.0800 
 34 H        1.5810     1.9240     1.5520 H     1 <1>   0.0800 
 35 H        0.4240     3.2080     1.3720 H     1 <1>   0.0800 
 36 H       -5.0900     1.8460     1.1600 H     1 <1>   0.0800 
 37 H       -2.5370     4.4030    -2.3590 H     1 <1>   0.0800 
 38 H       -3.3120     1.2920    -0.4530 H     1 <1>   0.4500 
 39 H       -5.8700     3.9780     1.3130 H     1 <1>   0.0800 
 40 H       -6.0710     3.7060    -0.3950 H     1 <1>   0.0800 
 41 H       -4.8360     5.1360    -1.8040 H     1 <1>   0.0800 
 42 H       -3.5520     6.0740    -1.0950 H     1 <1>   0.0800 
 43 H       -2.9680     2.1400    -2.4560 H     1 <1>   0.0800 
 44 H       -4.5000     2.9520    -2.5050 H     1 <1>   0.0800 
 45 H       -5.9930     1.3040    -1.6550 H     1 <1>   0.0800 
 46 H       -4.6880     0.1910    -1.9780 H     1 <1>   0.0800 
 47 H        2.6310     5.6590    -1.9500 H     1 <1>   0.1500 
 48 H        4.7800     4.3350    -1.2290 H     1 <1>   0.1500 
 49 H        5.2020     2.2090     0.3970 H     1 <1>   0.0800 
 50 H        3.8330     1.1260     0.3840 H     1 <1>   0.0800 
 51 H        4.0740     2.2260     1.7280 H     1 <1>   0.0800 
 52 H       -7.6160     0.6680    -0.0740 H     1 <1>   0.1500 
 53 H       -3.7390    -1.0780     0.2390 H     1 <1>   0.1500 
 54 H       -6.7610    -2.1260     2.7650 H     1 <1>   0.1500 
@<TRIPOS>BOND
  1   1   2  2   
  2   2   3  am  
  3   2   4  1   
  4   3   5  1   
  5   3   6  1   
  6   4   7  1   
  7   4  28  1   
  8   4  29  1   
  9   5   8  1   
 10   5  30  1   
 11   5  31  1   
 12   6   9  1   
 13   6  32  1   
 14   6  33  1   
 15   7  10  1   
 16   7  34  1   
 17   7  35  1   
 18   8  11  1   
 19   8  12  1   
 20   8  36  1   
 21   9  13  1   
 22   9  14  1   
 23   9  37  1   
 24  10  15  1   
 25  10  16  1   
 26  11  14  1   
 27  11  17  1   
 28  11  38  1   
 29  12  18  1   
 30  12  39  1   
 31  12  40  1   
 32  13  18  1   
 33  13  41  1   
 34  13  42  1   
 35  14  43  1   
 36  14  44  1   
 37  15  19  2   
 38  16  20  2   
 39  16  21  1   
 40  17  22  1   
 41  17  45  1   
 42  17  46  1   
 43  19  20  1   
 44  19  47  1   
 45  20  48  1   
 46  21  49  1   
 47  21  50  1   
 48  21  51  1   
 49  22  23  ar  
 50  22  24  ar  
 51  23  25  ar  
 52  23  52  1   
 53  24  26  ar  
 54  24  53  1   
 55  25  27  ar  
 56  26  27  ar  
 57  27  54  1   
@<TRIPOS>SUBSTRUCTURE
  1 ****   3 GROUP 4 **** **** 0

# MOE 2024.06 (io_trps.svl 2023.06)
