@<TRIPOS>MOLECULE
NONAME
53 56 1 0 0 
SMALL
USER_CHARGES


@<TRIPOS>ATOM
  1 S       -1.4260    -0.3450     0.2880 S.3   1 <1>  -0.0800 
  2 C       -2.7880    -1.1810    -0.4480 C.2   1 <1>  -0.1400 
  3 C       -2.4150     1.0620     0.6370 C.2   1 <1>  -0.1100 
  4 C       -3.8870    -0.4020    -0.4090 C.2   1 <1>  -0.1500 
  5 C       -2.5340    -2.5800    -0.9930 C.3   1 <1>   0.3800 
  6 C       -3.6770     0.8720     0.2100 C.2   1 <1>  -0.1500 
  7 O       -3.6530    -2.9890    -1.7010 O.3   1 <1>  -0.6800 
  8 C       -2.1960    -3.6090     0.1140 C.3   1 <1>  -0.0800 
  9 C       -2.0150    -5.0360    -0.4640 C.3   1 <1>  -0.1600 
 10 C       -3.2050    -3.5670     1.2920 C.3   1 <1>  -0.1600 
 11 C       -1.8620    -6.0960     0.6280 C.3   1 <1>   0.1400 
 12 C       -2.9830    -4.6930     2.3050 C.3   1 <1>   0.1400 
 13 N       -3.0050    -5.9750     1.5650 N.am  1 <1>  -0.6600 
 14 C       -4.1490    -6.7370     1.5620 C.2   1 <1>   0.5690 
 15 O       -4.9350    -6.6890     2.4810 O.2   1 <1>  -0.5700 
 16 C       -4.5090    -7.6520     0.3960 C.3   1 <1>   0.0390 
 17 C       -5.8790    -7.3000    -0.1770 C.2   1 <1>  -0.1240 
 18 C       -6.9490    -8.1130    -0.2560 C.2   1 <1>  -0.1670 
 19 C       -6.1500    -6.0000    -0.6810 C.2   1 <1>   0.4950 
 20 C       -7.0950    -9.4940     0.1130 C.ar  1 <1>   0.0280 
 21 C       -8.1370    -7.3630    -0.8390 C.3   1 <1>  -0.0220 
 22 O       -5.4040    -5.0620    -0.8080 O.2   1 <1>  -0.5700 
 23 C       -7.5990    -5.9410    -1.1080 C.3   1 <1>  -0.0990 
 24 C       -8.0250    -9.8920     1.0700 C.ar  1 <1>  -0.1500 
 25 C       -6.3060   -10.4770    -0.4790 C.ar  1 <1>  -0.1500 
 26 C       -8.1640   -11.2210     1.4220 C.ar  1 <1>  -0.1500 
 27 C       -6.4400   -11.8090    -0.1300 C.ar  1 <1>  -0.1500 
 28 C       -7.3710   -12.1840     0.8220 C.ar  1 <1>  -0.1500 
 29 H       -1.9410     1.8910     1.1310 H     1 <1>   0.1500 
 30 H       -4.8510    -0.6780    -0.7990 H     1 <1>   0.1500 
 31 H       -1.7240    -2.5300    -1.7010 H     1 <1>   0.0800 
 32 H       -4.4830     1.5790     0.3000 H     1 <1>   0.1500 
 33 H       -4.2120    -3.5850    -1.1480 H     1 <1>   0.4000 
 34 H       -1.2440    -3.3200     0.5250 H     1 <1>   0.0800 
 35 H       -1.1480    -5.0570    -1.1000 H     1 <1>   0.0800 
 36 H       -2.8580    -5.3100    -1.0710 H     1 <1>   0.0800 
 37 H       -4.2120    -3.6380     0.9260 H     1 <1>   0.0800 
 38 H       -3.1250    -2.6270     1.8080 H     1 <1>   0.0800 
 39 H       -0.9470    -5.9310     1.1700 H     1 <1>   0.0800 
 40 H       -1.8110    -7.0820     0.2020 H     1 <1>   0.0800 
 41 H       -3.7570    -4.6680     3.0540 H     1 <1>   0.0800 
 42 H       -2.0340    -4.5760     2.7990 H     1 <1>   0.0800 
 43 H       -4.5080    -8.6610     0.7610 H     1 <1>   0.0800 
 44 H       -3.7930    -7.5820    -0.3970 H     1 <1>   0.0800 
 45 H       -8.9520    -7.3350    -0.1370 H     1 <1>   0.0800 
 46 H       -8.4630    -7.8310    -1.7510 H     1 <1>   0.0800 
 47 H       -7.6640    -5.6880    -2.1500 H     1 <1>   0.0800 
 48 H       -8.1190    -5.2090    -0.5170 H     1 <1>   0.0800 
 49 H       -8.6360    -9.1480     1.5480 H     1 <1>   0.1500 
 50 H       -5.5850   -10.1920    -1.2230 H     1 <1>   0.1500 
 51 H       -8.8870   -11.5090     2.1660 H     1 <1>   0.1500 
 52 H       -5.8220   -12.5550    -0.5990 H     1 <1>   0.1500 
 53 H       -7.4770   -13.2190     1.0970 H     1 <1>   0.1500 
@<TRIPOS>BOND
  1   1   2  1   
  2   1   3  1   
  3   2   4  2   
  4   2   5  1   
  5   3   6  2   
  6   3  29  1   
  7   4   6  1   
  8   4  30  1   
  9   5   7  1   
 10   5   8  1   
 11   5  31  1   
 12   6  32  1   
 13   7  33  1   
 14   8   9  1   
 15   8  10  1   
 16   8  34  1   
 17   9  11  1   
 18   9  35  1   
 19   9  36  1   
 20  10  12  1   
 21  10  37  1   
 22  10  38  1   
 23  11  13  1   
 24  11  39  1   
 25  11  40  1   
 26  12  13  1   
 27  12  41  1   
 28  12  42  1   
 29  13  14  am  
 30  14  15  2   
 31  14  16  1   
 32  16  17  1   
 33  16  43  1   
 34  16  44  1   
 35  17  18  2   
 36  17  19  1   
 37  18  20  1   
 38  18  21  1   
 39  19  22  2   
 40  19  23  1   
 41  20  24  ar  
 42  20  25  ar  
 43  21  23  1   
 44  21  45  1   
 45  21  46  1   
 46  23  47  1   
 47  23  48  1   
 48  24  26  ar  
 49  24  49  1   
 50  25  27  ar  
 51  25  50  1   
 52  26  28  ar  
 53  26  51  1   
 54  27  28  ar  
 55  27  52  1   
 56  28  53  1   
@<TRIPOS>SUBSTRUCTURE
  1 ****  22 GROUP 4 **** **** 0

# MOE 2024.06 (io_trps.svl 2023.06)
