@<TRIPOS>MOLECULE
NONAME
61 64 1 0 0 
SMALL
USER_CHARGES


@<TRIPOS>ATOM
  1 O       -1.6640     1.1050     3.1940 O.2   1 <1>  -0.5700 
  2 C       -2.4680     1.5970     2.4250 C.2   1 <1>   0.5440 
  3 N       -3.6240     0.9030     2.1340 N.am  1 <1>  -0.6600 
  4 C       -2.1730     2.8890     1.8300 C.ar  1 <1>   0.0860 
  5 C       -4.0980    -0.2250     2.9850 C.3   1 <1>   0.1400 
  6 C       -4.4110     1.0870     0.8840 C.3   1 <1>   0.1400 
  7 C       -0.9180     3.1510     1.2870 C.ar  1 <1>  -0.1500 
  8 C       -3.1200     3.9120     1.7930 C.ar  1 <1>  -0.1500 
  9 C       -4.0520    -1.5260     2.1810 C.3   1 <1>  -0.1600 
 10 C       -4.3610    -0.2040     0.0630 C.3   1 <1>  -0.1600 
 11 C       -0.6020     4.3700     0.7050 C.ar  1 <1>   0.1170 
 12 C       -2.8280     5.1350     1.2180 C.ar  1 <1>  -0.1500 
 13 C       -4.8480    -1.4200     0.8720 C.3   1 <1>   0.4240 
 14 N        0.6900     4.5580     0.1910 N.am  1 <1>  -0.5470 
 15 C       -1.5770     5.3620     0.6770 C.ar  1 <1>  -0.1500 
 16 O       -6.1800    -1.1770     1.2640 O.3   1 <1>  -0.5600 
 17 C       -4.7190    -2.7240     0.0540 C.ar  1 <1>  -0.1430 
 18 C        1.1540     5.4150    -0.7710 C.2   1 <1>   0.5690 
 19 C       -7.1870    -1.4770     0.3480 C.3   1 <1>   0.1200 
 20 C       -5.8410    -3.4670    -0.2990 C.ar  1 <1>  -0.1430 
 21 C       -3.4690    -3.1800    -0.3530 C.ar  1 <1>  -0.1500 
 22 O        0.4390     6.1620    -1.3940 O.2   1 <1>  -0.5700 
 23 C        2.6580     5.4030    -1.0670 C.3   1 <1>  -0.0190 
 24 C       -7.2150    -2.9860     0.1230 C.3   1 <1>  -0.0170 
 25 C       -5.7150    -4.6380    -1.0300 C.ar  1 <1>  -0.1500 
 26 C       -3.3420    -4.3460    -1.0850 C.ar  1 <1>  -0.1500 
 27 C        3.2980     6.7750    -0.7990 C.3   1 <1>  -0.2400 
 28 C        2.9440     4.9640    -2.5130 C.3   1 <1>  -0.2400 
 29 C       -4.4600    -5.0840    -1.4280 C.ar  1 <1>   0.0830 
 30 O       -4.2490    -6.2160    -2.1450 O.3   1 <1>  -0.3630 
 31 C       -5.3190    -7.0510    -2.5280 C.3   1 <1>   0.0400 
 32 H       -5.1060    -0.0260     3.3030 H     1 <1>   0.0800 
 33 H       -3.4860    -0.3210     3.8660 H     1 <1>   0.0800 
 34 H       -4.0140     1.8930     0.2930 H     1 <1>   0.0800 
 35 H       -5.4300     1.3230     1.1400 H     1 <1>   0.0800 
 36 H       -0.1780     2.3720     1.3260 H     1 <1>   0.1500 
 37 H       -4.0910     3.7420     2.2230 H     1 <1>   0.1500 
 38 H       -4.4490    -2.3330     2.7690 H     1 <1>   0.0800 
 39 H       -3.0230    -1.7510     1.9760 H     1 <1>   0.0800 
 40 H       -3.3450    -0.3640    -0.2450 H     1 <1>   0.0800 
 41 H       -4.9460    -0.0970    -0.8300 H     1 <1>   0.0800 
 42 H       -3.5710     5.9140     1.1940 H     1 <1>   0.1500 
 43 H        1.3930     3.9350     0.5820 H     1 <1>   0.3700 
 44 H       -1.3600     6.3190     0.2380 H     1 <1>   0.1500 
 45 H       -6.9990    -0.9520    -0.5720 H     1 <1>   0.0800 
 46 H       -8.1200    -1.1410     0.7620 H     1 <1>   0.0800 
 47 H       -2.5790    -2.6310    -0.1030 H     1 <1>   0.1500 
 48 H        3.1280     4.6910    -0.4110 H     1 <1>   0.0800 
 49 H       -7.9410    -3.2170    -0.6350 H     1 <1>   0.0800 
 50 H       -7.5070    -3.4770     1.0340 H     1 <1>   0.0800 
 51 H       -6.5990    -5.1900    -1.2820 H     1 <1>   0.1500 
 52 H       -2.3730    -4.6920    -1.3940 H     1 <1>   0.1500 
 53 H        2.8690     7.5190    -1.4490 H     1 <1>   0.0800 
 54 H        4.3590     6.7380    -0.9680 H     1 <1>   0.0800 
 55 H        3.1210     7.0740     0.2190 H     1 <1>   0.0800 
 56 H        2.5060     5.6620    -3.2070 H     1 <1>   0.0800 
 57 H        2.5190     3.9930    -2.6970 H     1 <1>   0.0800 
 58 H        4.0030     4.9160    -2.6930 H     1 <1>   0.0800 
 59 H       -4.9130    -7.8840    -3.0740 H     1 <1>   0.0800 
 60 H       -5.9890    -6.4930    -3.1570 H     1 <1>   0.0800 
 61 H       -5.8200    -7.4030    -1.6440 H     1 <1>   0.0800 
@<TRIPOS>BOND
  1   1   2  2   
  2   2   3  am  
  3   2   4  1   
  4   3   5  1   
  5   3   6  1   
  6   4   7  ar  
  7   4   8  ar  
  8   5   9  1   
  9   5  32  1   
 10   5  33  1   
 11   6  10  1   
 12   6  34  1   
 13   6  35  1   
 14   7  11  ar  
 15   7  36  1   
 16   8  12  ar  
 17   8  37  1   
 18   9  13  1   
 19   9  38  1   
 20   9  39  1   
 21  10  13  1   
 22  10  40  1   
 23  10  41  1   
 24  11  14  1   
 25  11  15  ar  
 26  12  15  ar  
 27  12  42  1   
 28  13  16  1   
 29  13  17  1   
 30  14  18  am  
 31  14  43  1   
 32  15  44  1   
 33  16  19  1   
 34  17  20  ar  
 35  17  21  ar  
 36  18  22  2   
 37  18  23  1   
 38  19  24  1   
 39  19  45  1   
 40  19  46  1   
 41  20  24  1   
 42  20  25  ar  
 43  21  26  ar  
 44  21  47  1   
 45  23  27  1   
 46  23  28  1   
 47  23  48  1   
 48  24  49  1   
 49  24  50  1   
 50  25  29  ar  
 51  25  51  1   
 52  26  29  ar  
 53  26  52  1   
 54  27  53  1   
 55  27  54  1   
 56  27  55  1   
 57  28  56  1   
 58  28  57  1   
 59  28  58  1   
 60  29  30  1   
 61  30  31  1   
 62  31  59  1   
 63  31  60  1   
 64  31  61  1   
@<TRIPOS>SUBSTRUCTURE
  1 ****  10 GROUP 4 **** **** 0

# MOE 2024.06 (io_trps.svl 2023.06)
