@<TRIPOS>MOLECULE
NONAME
47 50 1 0 0 
SMALL
USER_CHARGES


@<TRIPOS>ATOM
  1 O        1.1760    -0.1170     1.9340 O.3   1 <1>  -0.0190 
  2 N        1.5920     1.0500     1.5530 N.2   1 <1>  -0.4100 
  3 C        1.4900    -0.9060     0.9410 C.2   1 <1>   0.2980 
  4 C        2.1220     0.9200     0.3890 C.2   1 <1>   0.4620 
  5 N        2.0730    -0.3460    -0.0390 N.2   1 <1>  -0.5650 
  6 C        1.1390    -2.3870     1.0430 C.3   1 <1>   0.2900 
  7 C        2.6830     2.0060    -0.3960 C.ar  1 <1>   0.0540 
  8 N       -0.3200    -2.6420     0.9880 N.3   1 <1>  -0.8100 
  9 C        3.9280     1.9440    -1.0420 C.ar  1 <1>  -0.1440 
 10 C        1.9500     3.1870    -0.5180 C.ar  1 <1>  -0.1500 
 11 C       -0.9390    -2.1240    -0.2410 C.3   1 <1>   0.1100 
 12 C       -0.6460    -4.0770     1.0560 C.3   1 <1>   0.1100 
 13 C        4.3850     3.0220    -1.7850 C.ar  1 <1>  -0.1500 
 14 C        4.8170     0.7100    -0.9450 C.3   1 <1>  -0.0970 
 15 C        2.4120     4.2600    -1.2570 C.ar  1 <1>  -0.1500 
 16 C       -2.2200    -2.9340    -0.3840 C.3   1 <1>   0.2000 
 17 C       -1.7930    -4.3310     0.0590 C.3   1 <1>  -0.0800 
 18 C        3.6330     4.1770    -1.8950 C.ar  1 <1>  -0.1500 
 19 O       -3.1250    -2.4550     0.5420 O.3   1 <1>  -0.6800 
 20 C       -1.3430    -5.1750    -1.1500 C.3   1 <1>  -0.0160 
 21 C       -0.9400    -6.5860    -0.7490 C.ar  1 <1>   0.1670 
 22 N        0.3550    -6.8180    -0.6050 N.ar  1 <1>  -0.6200 
 23 C       -1.9220    -7.5570    -0.5570 C.ar  1 <1>   0.1600 
 24 C        0.5990    -8.0730    -0.2630 C.ar  1 <1>   0.1600 
 25 N       -1.6800    -8.8100    -0.2100 N.ar  1 <1>  -0.6200 
 26 C       -0.3840    -9.0350    -0.0720 C.ar  1 <1>   0.1600 
 27 H        1.5280    -2.7660     1.9710 H     1 <1>   0.0800 
 28 H        1.6250    -2.9090     0.2370 H     1 <1>   0.0800 
 29 H        0.9970     3.2620    -0.0240 H     1 <1>   0.1500 
 30 H       -1.1380    -1.0680    -0.1720 H     1 <1>   0.0800 
 31 H       -0.2990    -2.3100    -1.0870 H     1 <1>   0.0800 
 32 H        0.2160    -4.6780     0.8190 H     1 <1>   0.0800 
 33 H       -0.9620    -4.3180     2.0570 H     1 <1>   0.0800 
 34 H        5.3360     2.9710    -2.2850 H     1 <1>   0.1500 
 35 H        5.8140     0.9230    -1.2830 H     1 <1>   0.0800 
 36 H        4.4110    -0.0800    -1.5510 H     1 <1>   0.0800 
 37 H        4.8750     0.3720     0.0740 H     1 <1>   0.0800 
 38 H        1.8220     5.1570    -1.3340 H     1 <1>   0.1500 
 39 H       -2.6660    -2.8860    -1.3630 H     1 <1>   0.0800 
 40 H       -2.6090    -4.8390     0.5450 H     1 <1>   0.0800 
 41 H        3.9990     5.0070    -2.4740 H     1 <1>   0.1500 
 42 H       -2.6150    -2.2800     1.3630 H     1 <1>   0.4000 
 43 H       -0.5150    -4.7000    -1.6470 H     1 <1>   0.0800 
 44 H       -2.1500    -5.2380    -1.8590 H     1 <1>   0.0800 
 45 H       -2.9540    -7.2840    -0.6940 H     1 <1>   0.1500 
 46 H        1.6280    -8.3550    -0.1280 H     1 <1>   0.1500 
 47 H       -0.0870   -10.0310     0.2070 H     1 <1>   0.1500 
@<TRIPOS>BOND
  1   1   2  1   
  2   1   3  1   
  3   2   4  2   
  4   3   5  2   
  5   3   6  1   
  6   4   5  1   
  7   4   7  1   
  8   6   8  1   
  9   6  27  1   
 10   6  28  1   
 11   7   9  ar  
 12   7  10  ar  
 13   8  11  1   
 14   8  12  1   
 15   9  13  ar  
 16   9  14  1   
 17  10  15  ar  
 18  10  29  1   
 19  11  16  1   
 20  11  30  1   
 21  11  31  1   
 22  12  17  1   
 23  12  32  1   
 24  12  33  1   
 25  13  18  ar  
 26  13  34  1   
 27  14  35  1   
 28  14  36  1   
 29  14  37  1   
 30  15  18  ar  
 31  15  38  1   
 32  16  17  1   
 33  16  19  1   
 34  16  39  1   
 35  17  20  1   
 36  17  40  1   
 37  18  41  1   
 38  19  42  1   
 39  20  21  1   
 40  20  43  1   
 41  20  44  1   
 42  21  22  ar  
 43  21  23  ar  
 44  22  24  ar  
 45  23  25  ar  
 46  23  45  1   
 47  24  26  ar  
 48  24  46  1   
 49  25  26  ar  
 50  26  47  1   
@<TRIPOS>SUBSTRUCTURE
  1 ****   6 GROUP 4 **** **** 0

# MOE 2024.06 (io_trps.svl 2023.06)
