@<TRIPOS>MOLECULE
NONAME
52 55 1 0 0 
SMALL
USER_CHARGES


@<TRIPOS>ATOM
  1 O        1.8690    -1.4470     0.2080 O.2   1 <1>  -0.5700 
  2 C        1.1380    -2.4190     0.0980 C.2   1 <1>   0.5440 
  3 N       -0.0820    -2.3720     0.7500 N.am  1 <1>  -0.6600 
  4 C        1.5660    -3.5420    -0.7360 C.ar  1 <1>   0.3960 
  5 C       -1.1770    -3.3660     0.6270 C.3   1 <1>   0.1400 
  6 C       -0.4960    -1.2340     1.5990 C.3   1 <1>   0.1400 
  7 N        1.1840    -4.7960    -0.4470 N.ar  1 <1>  -0.6200 
  8 C        2.3700    -3.2680    -1.8490 C.ar  1 <1>   0.1600 
  9 C       -2.4020    -2.6640     1.1980 C.3   1 <1>  -0.1600 
 10 C       -1.8370    -1.6530     2.1920 C.3   1 <1>  -0.1600 
 11 C        1.5770    -5.6860    -1.3280 C.ar  1 <1>   0.4100 
 12 N        2.8030    -4.1620    -2.7310 N.ar  1 <1>  -0.6200 
 13 N        1.1000    -6.9370    -1.0720 N.pl3 1 <1>  -0.8690 
 14 C        2.3810    -5.3740    -2.4330 C.ar  1 <1>   0.1600 
 15 C       -0.0280    -7.3940    -1.8890 C.3   1 <1>   0.4330 
 16 C       -1.3260    -6.9160    -1.2430 C.ar  1 <1>  -0.1430 
 17 C        0.0400    -8.9130    -1.9890 C.3   1 <1>  -0.2400 
 18 C       -1.6820    -7.3000     0.0430 C.ar  1 <1>  -0.1500 
 19 C       -2.1710    -6.0670    -1.9410 C.ar  1 <1>  -0.1500 
 20 C       -2.8610    -6.8600     0.6230 C.ar  1 <1>  -0.1430 
 21 C       -3.3490    -5.6240    -1.3690 C.ar  1 <1>  -0.1500 
 22 C       -3.7050    -6.0160    -0.0890 C.ar  1 <1>  -0.1430 
 23 C       -3.1910    -7.3120     2.0410 C.3   1 <1>  -0.0170 
 24 C       -5.0320    -5.5270     0.4830 C.3   1 <1>  -0.0170 
 25 C       -4.6780    -7.1530     2.3760 C.3   1 <1>  -0.1600 
 26 C       -5.1590    -5.7500     1.9960 C.3   1 <1>  -0.1600 
 27 H       -0.9360    -4.2360     1.2150 H     1 <1>   0.0800 
 28 H       -1.3310    -3.6590    -0.3970 H     1 <1>   0.0800 
 29 H       -0.6080    -0.3600     0.9800 H     1 <1>   0.0800 
 30 H        0.2380    -1.0430     2.3630 H     1 <1>   0.0800 
 31 H        2.6630    -2.2460    -2.0160 H     1 <1>   0.1500 
 32 H       -3.0760    -3.3620     1.6590 H     1 <1>   0.0800 
 33 H       -2.9130    -2.1540     0.4010 H     1 <1>   0.0800 
 34 H       -2.4890    -0.8110     2.3380 H     1 <1>   0.0800 
 35 H       -1.6630    -2.1320     3.1390 H     1 <1>   0.0800 
 36 H        0.7870    -6.9560    -0.0990 H     1 <1>   0.4000 
 37 H        2.6700    -6.1810    -3.0800 H     1 <1>   0.1500 
 38 H        0.0540    -6.9790    -2.8800 H     1 <1>   0.0800 
 39 H        0.0120    -9.3630    -1.0140 H     1 <1>   0.0800 
 40 H        0.9450    -9.2050    -2.4880 H     1 <1>   0.0800 
 41 H       -0.7980    -9.2720    -2.5580 H     1 <1>   0.0800 
 42 H       -1.0360    -7.9520     0.6030 H     1 <1>   0.1500 
 43 H       -1.9180    -5.7450    -2.9360 H     1 <1>   0.1500 
 44 H       -3.9950    -4.9710    -1.9300 H     1 <1>   0.1500 
 45 H       -2.6090    -6.7230     2.7270 H     1 <1>   0.0800 
 46 H       -2.9110    -8.3430     2.1680 H     1 <1>   0.0800 
 47 H       -5.8220    -6.0620    -0.0140 H     1 <1>   0.0800 
 48 H       -5.1580    -4.4800     0.2680 H     1 <1>   0.0800 
 49 H       -4.8310    -7.3230     3.4270 H     1 <1>   0.0800 
 50 H       -5.2470    -7.8870     1.8310 H     1 <1>   0.0800 
 51 H       -6.1850    -5.6200     2.2920 H     1 <1>   0.0800 
 52 H       -4.5670    -5.0200     2.5190 H     1 <1>   0.0800 
@<TRIPOS>BOND
  1   1   2  2   
  2   2   3  am  
  3   2   4  1   
  4   3   5  1   
  5   3   6  1   
  6   4   7  ar  
  7   4   8  ar  
  8   5   9  1   
  9   5  27  1   
 10   5  28  1   
 11   6  10  1   
 12   6  29  1   
 13   6  30  1   
 14   7  11  ar  
 15   8  12  ar  
 16   8  31  1   
 17   9  10  1   
 18   9  32  1   
 19   9  33  1   
 20  10  34  1   
 21  10  35  1   
 22  11  13  1   
 23  11  14  ar  
 24  12  14  ar  
 25  13  15  1   
 26  13  36  1   
 27  14  37  1   
 28  15  16  1   
 29  15  17  1   
 30  15  38  1   
 31  16  18  ar  
 32  16  19  ar  
 33  17  39  1   
 34  17  40  1   
 35  17  41  1   
 36  18  20  ar  
 37  18  42  1   
 38  19  21  ar  
 39  19  43  1   
 40  20  22  ar  
 41  20  23  1   
 42  21  22  ar  
 43  21  44  1   
 44  22  24  1   
 45  23  25  1   
 46  23  45  1   
 47  23  46  1   
 48  24  26  1   
 49  24  47  1   
 50  24  48  1   
 51  25  26  1   
 52  25  49  1   
 53  25  50  1   
 54  26  51  1   
 55  26  52  1   
@<TRIPOS>SUBSTRUCTURE
  1 ****   5 GROUP 4 **** **** 0

# MOE 2024.06 (io_trps.svl 2023.06)
