@<TRIPOS>MOLECULE
NONAME
50 52 1 0 0 
SMALL
USER_CHARGES


@<TRIPOS>ATOM
  1 O        0.2950    -0.1410    -0.6410 O.2   1 <1>  -0.5700 
  2 C        1.2700    -0.5490    -0.0550 C.2   1 <1>   0.5690 
  3 N        2.3420     0.2700     0.2080 N.am  1 <1>  -0.6600 
  4 C        1.2950    -2.0140     0.3740 C.3   1 <1>  -0.0990 
  5 C        2.3100     1.7120    -0.1890 C.3   1 <1>   0.1400 
  6 C        3.6160    -0.1720     0.8380 C.3   1 <1>   0.1400 
  7 C        0.0180    -2.8040     0.0230 C.3   1 <1>  -0.1600 
  8 C        3.3910     2.0680    -1.2240 C.3   1 <1>   0.2090 
  9 C        4.6570    -0.4230    -0.2560 C.3   1 <1>  -0.1600 
 10 C        0.1300    -4.2740     0.4530 C.3   1 <1>   0.0960 
 11 N        4.7700     2.1060    -0.6200 N.pl3 1 <1>  -0.8380 
 12 C        5.5090     0.8020    -0.6170 C.3   1 <1>   0.2090 
 13 N       -1.1270    -5.0060     0.1990 N.pl3 1 <1>   0.3140 
 14 C        5.3660     3.2790    -0.2530 C.ar  1 <1>   0.1000 
 15 N       -1.8790    -5.4880     1.2050 N.2   1 <1>  -0.7070 
 16 C       -1.6670    -5.3010    -1.0000 C.2   1 <1>  -0.3020 
 17 C        6.7560     3.4650    -0.3310 C.ar  1 <1>  -0.1500 
 18 C        4.6250     4.3720     0.2200 C.ar  1 <1>  -0.1500 
 19 C       -2.8810    -6.0720     0.6210 C.2   1 <1>   0.1390 
 20 C       -2.8040    -5.9890    -0.7640 C.2   1 <1>  -0.1500 
 21 C        7.3480     4.6440     0.0450 C.ar  1 <1>   0.2180 
 22 C        5.2370     5.5400     0.5890 C.ar  1 <1>   0.2110 
 23 N        6.5840     5.6660     0.5000 N.ar  1 <1>  -0.1790 
 24 C        8.8520     4.8500    -0.0380 C.3   1 <1>  -0.0970 
 25 H        1.4320    -2.0460     1.4400 H     1 <1>   0.0800 
 26 H        2.1390    -2.4840    -0.0950 H     1 <1>   0.0800 
 27 H        2.4330     2.3200     0.6880 H     1 <1>   0.0800 
 28 H        1.3520     1.9540    -0.6130 H     1 <1>   0.0800 
 29 H        3.4610    -1.0740     1.4000 H     1 <1>   0.0800 
 30 H        3.9650     0.5790     1.5270 H     1 <1>   0.0800 
 31 H       -0.1500    -2.7510    -1.0400 H     1 <1>   0.0800 
 32 H       -0.8230    -2.3510     0.5210 H     1 <1>   0.0800 
 33 H        3.1640     3.0340    -1.6380 H     1 <1>   0.0800 
 34 H        3.3580     1.3640    -2.0370 H     1 <1>   0.0800 
 35 H        4.1780    -0.8090    -1.1380 H     1 <1>   0.0800 
 36 H        5.3310    -1.1870     0.0870 H     1 <1>   0.0800 
 37 H        0.3400    -4.3340     1.5060 H     1 <1>   0.0800 
 38 H        0.9200    -4.7650    -0.0840 H     1 <1>   0.0800 
 39 H        5.9560     0.6480    -1.5850 H     1 <1>   0.0800 
 40 H        6.3040     0.8630     0.1060 H     1 <1>   0.0800 
 41 H       -1.2240    -5.0110    -1.9350 H     1 <1>   0.1500 
 42 H        7.3630     2.6630    -0.7080 H     1 <1>   0.1500 
 43 H        3.5580     4.2860     0.3040 H     1 <1>   0.1500 
 44 H       -3.6750    -6.5620     1.1590 H     1 <1>   0.1500 
 45 H       -3.5110    -6.3940    -1.4650 H     1 <1>   0.1500 
 46 H        4.6610     6.3750     0.9550 H     1 <1>   0.1500 
 47 H        7.0340     6.5440     0.7790 H     1 <1>   0.4570 
 48 H        9.3350     3.9670    -0.4170 H     1 <1>   0.0800 
 49 H        9.2570     5.0610     0.9360 H     1 <1>   0.0800 
 50 H        9.0830     5.6660    -0.7000 H     1 <1>   0.0800 
@<TRIPOS>BOND
  1   1   2  2   
  2   2   3  am  
  3   2   4  1   
  4   3   5  1   
  5   3   6  1   
  6   4   7  1   
  7   4  25  1   
  8   4  26  1   
  9   5   8  1   
 10   5  27  1   
 11   5  28  1   
 12   6   9  1   
 13   6  29  1   
 14   6  30  1   
 15   7  10  1   
 16   7  31  1   
 17   7  32  1   
 18   8  11  1   
 19   8  33  1   
 20   8  34  1   
 21   9  12  1   
 22   9  35  1   
 23   9  36  1   
 24  10  13  1   
 25  10  37  1   
 26  10  38  1   
 27  11  12  1   
 28  11  14  1   
 29  12  39  1   
 30  12  40  1   
 31  13  15  1   
 32  13  16  1   
 33  14  17  ar  
 34  14  18  ar  
 35  15  19  2   
 36  16  20  2   
 37  16  41  1   
 38  17  21  ar  
 39  17  42  1   
 40  18  22  ar  
 41  18  43  1   
 42  19  20  1   
 43  19  44  1   
 44  20  45  1   
 45  21  23  ar  
 46  21  24  1   
 47  22  23  ar  
 48  22  46  1   
 49  23  47  1   
 50  24  48  1   
 51  24  49  1   
 52  24  50  1   
@<TRIPOS>SUBSTRUCTURE
  1 ****   3 GROUP 4 **** **** 0

# MOE 2024.06 (io_trps.svl 2023.06)
