@<TRIPOS>MOLECULE
NONAME
50 52 1 0 0 
SMALL
USER_CHARGES


@<TRIPOS>ATOM
  1 O       -1.6520     0.5580    -0.7580 O.co2 1 <1>  -0.9000 
  2 C       -1.9790    -0.5740    -1.1280 C.2   1 <1>   0.9060 
  3 O       -1.9290    -0.9560    -2.2970 O.co2 1 <1>  -0.9000 
  4 C       -2.6340    -1.5010    -0.1020 C.3   1 <1>   0.2370 
  5 N       -4.1230    -1.2620     0.0970 N.4   1 <1>  -0.9590 
  6 C       -4.7680    -2.2980     0.9560 C.3   1 <1>   0.3430 
  7 C       -4.3420     0.1530     0.5400 C.3   1 <1>   0.3430 
  8 C       -6.3110    -2.2920     0.8490 C.3   1 <1>   0.2200 
  9 C       -5.8190     0.5870     0.5730 C.3   1 <1>  -0.0800 
 10 N       -6.7890    -1.5980    -0.4090 N.am  1 <1>  -0.6600 
 11 C       -6.9440    -1.7110     2.1250 C.3   1 <1>   0.1200 
 12 C       -6.4040     0.5750     1.9920 C.3   1 <1>   0.1200 
 13 C       -6.7340    -0.0980    -0.4590 C.3   1 <1>   0.1400 
 14 C       -7.3700    -2.2440    -1.4770 C.2   1 <1>   0.5690 
 15 O       -6.1900    -0.6440     2.6190 O.3   1 <1>  -0.5600 
 16 O       -7.9710    -1.6220    -2.3180 O.2   1 <1>  -0.5700 
 17 C       -7.2840    -3.7460    -1.6940 C.3   1 <1>  -0.0990 
 18 C       -8.5960    -4.4670    -1.3520 C.3   1 <1>   0.0210 
 19 C       -8.8830    -4.3960     0.1370 C.2   1 <1>  -0.1810 
 20 C       -8.4750    -5.2170     1.1190 C.2   1 <1>  -0.0400 
 21 C       -9.6250    -3.4270     0.8180 C.2   1 <1>   0.1080 
 22 O       -8.9140    -4.7390     2.2510 O.3   1 <1>  -0.0190 
 23 C       -7.6540    -6.4910     1.1240 C.3   1 <1>  -0.0600 
 24 N       -9.6050    -3.6510     2.0820 N.2   1 <1>  -0.4100 
 25 C      -10.3710    -2.2630     0.1970 C.3   1 <1>  -0.0590 
 26 H       -2.1140    -1.3640     0.8280 H     1 <1>   0.0800 
 27 H       -2.4680    -2.5060    -0.4440 H     1 <1>   0.0800 
 28 H       -4.5550    -1.3250    -0.8400 H     1 <1>   0.4500 
 29 H       -4.4180    -3.2690     0.6500 H     1 <1>   0.0800 
 30 H       -4.4760    -2.1580     1.9840 H     1 <1>   0.0800 
 31 H       -3.9020     0.3020     1.5120 H     1 <1>   0.0800 
 32 H       -3.8260     0.8080    -0.1450 H     1 <1>   0.0800 
 33 H       -6.6260    -3.3140     0.8250 H     1 <1>   0.0800 
 34 H       -5.8130     1.6270     0.2980 H     1 <1>   0.0800 
 35 H       -6.9450    -2.4660     2.8920 H     1 <1>   0.0800 
 36 H       -7.9630    -1.4040     1.9640 H     1 <1>   0.0800 
 37 H       -7.4600     0.7910     1.9910 H     1 <1>   0.0800 
 38 H       -5.9110     1.3210     2.5930 H     1 <1>   0.0800 
 39 H       -6.4040     0.1920    -1.4440 H     1 <1>   0.0800 
 40 H       -7.7360     0.2790    -0.3460 H     1 <1>   0.0800 
 41 H       -7.0780    -3.9050    -2.7370 H     1 <1>   0.0800 
 42 H       -6.4660    -4.1740    -1.1490 H     1 <1>   0.0800 
 43 H       -8.5200    -5.4980    -1.6470 H     1 <1>   0.0800 
 44 H       -9.4090    -4.0340    -1.9090 H     1 <1>   0.0800 
 45 H       -7.3550    -6.7560     0.1270 H     1 <1>   0.0800 
 46 H       -8.2410    -7.2940     1.5330 H     1 <1>   0.0800 
 47 H       -6.7780    -6.3600     1.7310 H     1 <1>   0.0800 
 48 H      -10.8850    -2.5800    -0.6910 H     1 <1>   0.0800 
 49 H       -9.6900    -1.4730    -0.0540 H     1 <1>   0.0800 
 50 H      -11.0970    -1.8840     0.8930 H     1 <1>   0.0800 
@<TRIPOS>BOND
  1   1   2  ar  
  2   2   3  ar  
  3   2   4  1   
  4   4   5  1   
  5   4  26  1   
  6   4  27  1   
  7   5   6  1   
  8   5   7  1   
  9   5  28  1   
 10   6   8  1   
 11   6  29  1   
 12   6  30  1   
 13   7   9  1   
 14   7  31  1   
 15   7  32  1   
 16   8  10  1   
 17   8  11  1   
 18   8  33  1   
 19   9  12  1   
 20   9  13  1   
 21   9  34  1   
 22  10  13  1   
 23  10  14  am  
 24  11  15  1   
 25  11  35  1   
 26  11  36  1   
 27  12  15  1   
 28  12  37  1   
 29  12  38  1   
 30  13  39  1   
 31  13  40  1   
 32  14  16  2   
 33  14  17  1   
 34  17  18  1   
 35  17  41  1   
 36  17  42  1   
 37  18  19  1   
 38  18  43  1   
 39  18  44  1   
 40  19  20  2   
 41  19  21  1   
 42  20  22  1   
 43  20  23  1   
 44  21  24  2   
 45  21  25  1   
 46  22  24  1   
 47  23  45  1   
 48  23  46  1   
 49  23  47  1   
 50  25  48  1   
 51  25  49  1   
 52  25  50  1   
@<TRIPOS>SUBSTRUCTURE
  1 ****   8 GROUP 4 **** **** 0

# MOE 2024.06 (io_trps.svl 2023.06)
