@<TRIPOS>MOLECULE
NONAME
35 36 1 0 0 
SMALL
USER_CHARGES


@<TRIPOS>ATOM
  1 CL      -0.4870     0.7200     1.1520 Cl    1 <1>  -0.1770 
  2 C       -1.6370     1.9830     0.7540 C.ar  1 <1>   0.1770 
  3 C       -1.2170     3.1250     0.0590 C.ar  1 <1>   0.4100 
  4 C       -2.9490     1.8300     1.1300 C.ar  1 <1>  -0.1500 
  5 N       -2.0460     4.1130    -0.2610 N.ar  1 <1>  -0.6200 
  6 N        0.1030     3.2850    -0.3160 N.pl3 1 <1>  -0.8690 
  7 C       -3.8080     2.8560     0.7850 C.ar  1 <1>  -0.1500 
  8 C       -3.3110     3.9540     0.1020 C.ar  1 <1>   0.1600 
  9 C        0.4990     3.9990    -1.5600 C.3   1 <1>   0.3890 
 10 C        1.6480     4.9530    -1.2860 C.2   1 <1>   0.0070 
 11 N        2.8020     4.8770    -1.8600 N.2   1 <1>  -0.3380 
 12 N        1.5910     5.9830    -0.4330 N.pl3 1 <1>   0.0480 
 13 N        3.5430     5.8790    -1.3850 N.2   1 <1>  -0.3380 
 14 C        2.8070     6.5180    -0.5440 C.2   1 <1>   0.0370 
 15 C        0.4890     6.4370     0.4420 C.3   1 <1>   0.0960 
 16 C       -0.5080     7.3040    -0.3350 C.3   1 <1>  -0.1600 
 17 C       -1.6900     7.6840     0.5520 C.3   1 <1>   0.1200 
 18 O       -2.5210     8.5130    -0.1860 O.3   1 <1>  -0.5600 
 19 C       -3.6480     8.9470     0.5030 C.3   1 <1>   0.0400 
 20 H       -3.2830     0.9560     1.6620 H     1 <1>   0.1500 
 21 H        0.7300     2.5070    -0.0900 H     1 <1>   0.4000 
 22 H       -4.8510     2.8050     1.0440 H     1 <1>   0.1500 
 23 H       -3.9910     4.7460    -0.1630 H     1 <1>   0.1500 
 24 H       -0.3260     4.5510    -1.9740 H     1 <1>   0.0800 
 25 H        0.8100     3.2770    -2.2950 H     1 <1>   0.0800 
 26 H        3.1220     7.3830     0.0110 H     1 <1>   0.1500 
 27 H        0.9060     7.0000     1.2570 H     1 <1>   0.0800 
 28 H       -0.0080     5.5780     0.8530 H     1 <1>   0.0800 
 29 H       -0.8820     6.7560    -1.1810 H     1 <1>   0.0800 
 30 H       -0.0190     8.1990    -0.6770 H     1 <1>   0.0800 
 31 H       -1.3580     8.2190     1.4260 H     1 <1>   0.0800 
 32 H       -2.2440     6.8060     0.8430 H     1 <1>   0.0800 
 33 H       -4.2220     9.5740    -0.1560 H     1 <1>   0.0800 
 34 H       -3.3410     9.5140     1.3660 H     1 <1>   0.0800 
 35 H       -4.2360     8.0950     0.7970 H     1 <1>   0.0800 
@<TRIPOS>BOND
  1   1   2  1   
  2   2   3  ar  
  3   2   4  ar  
  4   3   5  ar  
  5   3   6  1   
  6   4   7  ar  
  7   4  20  1   
  8   5   8  ar  
  9   6   9  1   
 10   6  21  1   
 11   7   8  ar  
 12   7  22  1   
 13   8  23  1   
 14   9  10  1   
 15   9  24  1   
 16   9  25  1   
 17  10  11  2   
 18  10  12  1   
 19  11  13  1   
 20  12  14  1   
 21  12  15  1   
 22  13  14  2   
 23  14  26  1   
 24  15  16  1   
 25  15  27  1   
 26  15  28  1   
 27  16  17  1   
 28  16  29  1   
 29  16  30  1   
 30  17  18  1   
 31  17  31  1   
 32  17  32  1   
 33  18  19  1   
 34  19  33  1   
 35  19  34  1   
 36  19  35  1   
@<TRIPOS>SUBSTRUCTURE
  1 ****   5 GROUP 4 **** **** 0

# MOE 2024.06 (io_trps.svl 2023.06)
