@<TRIPOS>MOLECULE
NONAME
38 39 1 0 0 
SMALL
USER_CHARGES


@<TRIPOS>ATOM
  1 S        0.0190     0.2330     0.1140 S.o2  1 <1>   1.3330 
  2 O       -0.2530    -0.4570     1.3550 O.2   1 <1>  -0.6500 
  3 O       -0.3160     1.6330    -0.0110 O.2   1 <1>  -0.6500 
  4 N       -0.7700    -0.6130    -1.1280 N.am  1 <1>  -0.8490 
  5 C        1.7460     0.0450    -0.3280 C.3   1 <1>  -0.0550 
  6 C       -2.1090    -0.0810    -1.3990 C.3   1 <1>   0.1160 
  7 C       -0.8480    -2.0590    -0.8880 C.3   1 <1>   0.1160 
  8 C        2.7090     0.7870     0.6190 C.3   1 <1>  -0.0800 
  9 C        4.1200     0.8080     0.0570 C.3   1 <1>   0.2890 
 10 C        2.9160     0.0350     1.9340 C.3   1 <1>   0.1200 
 11 N        4.8620     1.9500     0.6520 N.pl3 1 <1>  -0.8690 
 12 C        4.6930    -0.5130     0.5690 C.3   1 <1>   0.1200 
 13 O        3.9550    -0.8680     1.7040 O.3   1 <1>  -0.5600 
 14 C        4.8340     3.2460     0.1510 C.ar  1 <1>   0.4100 
 15 N        4.2890     3.3680    -1.0550 N.ar  1 <1>  -0.6200 
 16 C        5.3450     4.3550     0.8710 C.ar  1 <1>   0.3830 
 17 C        4.2770     4.6100    -1.4990 C.ar  1 <1>   0.1600 
 18 N        5.3300     5.6050     0.4040 N.ar  1 <1>  -0.6200 
 19 C        5.8960     4.1100     2.1710 C.1   1 <1>   0.4840 
 20 C        4.7810     5.6920    -0.7950 C.ar  1 <1>   0.1600 
 21 N        6.3110     3.8470     3.2040 N.1   1 <1>  -0.5570 
 22 H        1.9990    -0.9970    -0.3540 H     1 <1>   0.0800 
 23 H        1.8730     0.4380    -1.3190 H     1 <1>   0.0800 
 24 H       -2.5740    -0.6300    -2.1990 H     1 <1>   0.0800 
 25 H       -2.0420     0.9530    -1.6960 H     1 <1>   0.0800 
 26 H       -2.7240    -0.1480    -0.5170 H     1 <1>   0.0800 
 27 H       -1.2730    -2.5530    -1.7450 H     1 <1>   0.0800 
 28 H       -1.4610    -2.2650    -0.0250 H     1 <1>   0.0800 
 29 H        0.1350    -2.4620    -0.7170 H     1 <1>   0.0800 
 30 H        2.3390     1.7850     0.7840 H     1 <1>   0.0800 
 31 H        4.1530     0.8590    -1.0190 H     1 <1>   0.0800 
 32 H        2.0490    -0.5060     2.2700 H     1 <1>   0.0800 
 33 H        3.2360     0.7090     2.7100 H     1 <1>   0.0800 
 34 H        5.1420     1.7860     1.6270 H     1 <1>   0.4000 
 35 H        5.7340    -0.4350     0.8260 H     1 <1>   0.0800 
 36 H        4.5560    -1.2910    -0.1600 H     1 <1>   0.0800 
 37 H        3.8470     4.7800    -2.4700 H     1 <1>   0.1500 
 38 H        4.7280     6.6700    -1.2420 H     1 <1>   0.1500 
@<TRIPOS>BOND
  1   1   2  2   
  2   1   3  2   
  3   1   4  am  
  4   1   5  1   
  5   4   6  1   
  6   4   7  1   
  7   5   8  1   
  8   5  22  1   
  9   5  23  1   
 10   6  24  1   
 11   6  25  1   
 12   6  26  1   
 13   7  27  1   
 14   7  28  1   
 15   7  29  1   
 16   8   9  1   
 17   8  10  1   
 18   8  30  1   
 19   9  11  1   
 20   9  12  1   
 21   9  31  1   
 22  10  13  1   
 23  10  32  1   
 24  10  33  1   
 25  11  14  1   
 26  11  34  1   
 27  12  13  1   
 28  12  35  1   
 29  12  36  1   
 30  14  15  ar  
 31  14  16  ar  
 32  15  17  ar  
 33  16  18  ar  
 34  16  19  1   
 35  17  20  ar  
 36  17  37  1   
 37  18  20  ar  
 38  19  21  3   
 39  20  38  1   
@<TRIPOS>SUBSTRUCTURE
  1 ****   8 GROUP 4 **** **** 0

# MOE 2024.06 (io_trps.svl 2023.06)
