@<TRIPOS>MOLECULE
NONAME
49 52 1 0 0 
SMALL
USER_CHARGES


@<TRIPOS>ATOM
  1 O        2.4360    -0.8640     1.8060 O.2   1 <1>  -0.5700 
  2 C        2.7780    -0.9420     0.6400 C.2   1 <1>   0.7030 
  3 N        3.3730     0.1910     0.0810 N.am  1 <1>  -0.6600 
  4 C        2.4460    -2.1970    -0.0380 C.2   1 <1>   0.2770 
  5 C        3.8360     1.3150     1.0110 C.3   1 <1>   0.2200 
  6 C        3.6380     0.3350    -1.3960 C.3   1 <1>   0.1400 
  7 N        1.3540    -2.9600     0.3550 N.pl3 1 <1>  -0.7000 
  8 C        3.0190    -2.9070    -1.0460 C.2   1 <1>   0.2000 
  9 C        3.3860     2.7090     0.5440 C.3   1 <1>   0.1200 
 10 C        5.3670     1.2600     1.2470 C.3   1 <1>   0.3430 
 11 C        4.7020     1.3830    -1.8040 C.3   1 <1>  -0.0800 
 12 C        1.2880    -4.0770    -0.3780 C.cat 1 <1>   0.7910 
 13 N        2.2990    -4.0580    -1.2700 N.pl3 1 <1>  -0.6290 
 14 O        4.2990     3.2610    -0.3530 O.3   1 <1>  -0.5600 
 15 N        6.0280     0.5180     0.1390 N.4   1 <1>  -0.9590 
 16 C        4.1970     2.8250    -1.6640 C.3   1 <1>   0.1200 
 17 C        6.1020     1.1930    -1.1780 C.3   1 <1>   0.3430 
 18 C        0.3850    -5.1630    -0.3250 C.2   1 <1>  -0.1290 
 19 C        2.5010    -5.1150    -2.1270 C.2   1 <1>   0.2290 
 20 C        7.1860    -0.3950     0.4770 C.3   1 <1>   0.2370 
 21 C        0.5680    -6.2100    -1.1910 C.2   1 <1>  -0.1500 
 22 C       -0.7620    -5.1660     0.6790 C.3   1 <1>  -0.1020 
 23 C        1.6470    -6.1790    -2.0980 C.2   1 <1>  -0.1500 
 24 C        6.8010    -1.8230     0.0600 C.2   1 <1>   0.9060 
 25 O        5.5970    -1.9930    -0.2220 O.co2 1 <1>  -0.9000 
 26 O        7.6430    -2.7060    -0.0490 O.co2 1 <1>  -0.9000 
 27 H        3.3780     1.1980     1.9760 H     1 <1>   0.0800 
 28 H        3.9710    -0.6070    -1.7870 H     1 <1>   0.0800 
 29 H        2.7090     0.5740    -1.8860 H     1 <1>   0.0800 
 30 H        0.7730    -2.7290     1.1640 H     1 <1>   0.4500 
 31 H        3.9060    -2.6960    -1.6170 H     1 <1>   0.1500 
 32 H        3.3610     3.3690     1.3930 H     1 <1>   0.0800 
 33 H        2.4010     2.6870     0.1100 H     1 <1>   0.0800 
 34 H        5.5450     0.7430     2.1750 H     1 <1>   0.0800 
 35 H        5.7710     2.2550     1.3340 H     1 <1>   0.0800 
 36 H        4.8410     1.2520    -2.8620 H     1 <1>   0.0800 
 37 H        5.3260    -0.2410    -0.0410 H     1 <1>   0.4500 
 38 H        3.1770     2.9310    -1.9970 H     1 <1>   0.0800 
 39 H        4.8100     3.4840    -2.2560 H     1 <1>   0.0800 
 40 H        6.5980     2.1450    -1.0800 H     1 <1>   0.0800 
 41 H        6.6880     0.5780    -1.8420 H     1 <1>   0.0800 
 42 H        3.3440    -5.0710    -2.8000 H     1 <1>   0.1500 
 43 H        8.0780    -0.1060    -0.0480 H     1 <1>   0.0800 
 44 H        7.3780    -0.3970     1.5340 H     1 <1>   0.0800 
 45 H       -0.0890    -7.0660    -1.1970 H     1 <1>   0.1500 
 46 H       -1.4090    -4.3230     0.5120 H     1 <1>   0.0800 
 47 H       -0.3790    -5.1200     1.6840 H     1 <1>   0.0800 
 48 H       -1.3500    -6.0630     0.5860 H     1 <1>   0.0800 
 49 H        1.7870    -7.0130    -2.7650 H     1 <1>   0.1500 
@<TRIPOS>BOND
  1   1   2  2   
  2   2   3  am  
  3   2   4  1   
  4   3   5  1   
  5   3   6  1   
  6   4   7  1   
  7   4   8  2   
  8   5   9  1   
  9   5  10  1   
 10   5  27  1   
 11   6  11  1   
 12   6  28  1   
 13   6  29  1   
 14   7  12  ar  
 15   7  30  1   
 16   8  13  1   
 17   8  31  1   
 18   9  14  1   
 19   9  32  1   
 20   9  33  1   
 21  10  15  1   
 22  10  34  1   
 23  10  35  1   
 24  11  16  1   
 25  11  17  1   
 26  11  36  1   
 27  12  13  ar  
 28  12  18  1   
 29  13  19  1   
 30  14  16  1   
 31  15  17  1   
 32  15  20  1   
 33  15  37  1   
 34  16  38  1   
 35  16  39  1   
 36  17  40  1   
 37  17  41  1   
 38  18  21  2   
 39  18  22  1   
 40  19  23  2   
 41  19  42  1   
 42  20  24  1   
 43  20  43  1   
 44  20  44  1   
 45  21  23  1   
 46  21  45  1   
 47  22  46  1   
 48  22  47  1   
 49  22  48  1   
 50  23  49  1   
 51  24  25  ar  
 52  24  26  ar  
@<TRIPOS>SUBSTRUCTURE
  1 ****   2 GROUP 4 **** **** 0

# MOE 2024.06 (io_trps.svl 2023.06)
