@<TRIPOS>MOLECULE
NONAME
47 49 1 0 0 
SMALL
USER_CHARGES


@<TRIPOS>ATOM
  1 O       -1.1180    -0.7590    -0.4860 O.co2 1 <1>  -0.9000 
  2 C       -0.4290    -1.7440    -0.7990 C.2   1 <1>   1.0330 
  3 O       -0.4850    -2.1680    -1.9670 O.co2 1 <1>  -0.9000 
  4 C        0.3500    -2.4190     0.1860 C.2   1 <1>  -0.2330 
  5 C       -0.0260    -3.6130     0.7990 C.2   1 <1>   0.3720 
  6 C        1.5510    -2.1330     0.7480 C.2   1 <1>   0.0870 
  7 N        0.8630    -4.0110     1.6370 N.2   1 <1>  -0.4100 
  8 N       -1.2090    -4.3210     0.5700 N.pl3 1 <1>  -0.8210 
  9 O        1.8080    -3.1060     1.5940 O.3   1 <1>  -0.0190 
 10 C        2.4930    -1.0510     0.5800 C.ar  1 <1>   0.0530 
 11 C       -1.3310    -4.7770    -0.8320 C.3   1 <1>   0.2090 
 12 C       -2.3960    -3.5840     1.0740 C.3   1 <1>   0.2090 
 13 C        2.1150     0.1890     0.0640 C.ar  1 <1>  -0.1500 
 14 C        3.8340    -1.2070     0.9370 C.ar  1 <1>  -0.1500 
 15 C       -1.6540    -6.2640    -0.7970 C.3   1 <1>  -0.1600 
 16 C       -3.6820    -4.4160     0.9590 C.3   1 <1>  -0.1600 
 17 C        3.0260     1.2180    -0.0930 C.ar  1 <1>  -0.1500 
 18 C        4.7510    -0.1830     0.7850 C.ar  1 <1>  -0.1500 
 19 C       -3.0760    -6.5620    -0.3070 C.3   1 <1>   0.4230 
 20 C       -3.4760    -5.9410     1.0520 C.3   1 <1>  -0.1600 
 21 C        4.3480     1.0350     0.2670 C.ar  1 <1>  -0.1500 
 22 N       -3.2510    -8.0500    -0.3010 N.4   1 <1>  -0.9590 
 23 C       -4.6920    -8.4410    -0.3720 C.3   1 <1>   0.2630 
 24 C       -2.5660    -8.7210     0.8530 C.3   1 <1>   0.2630 
 25 H       -0.3920    -4.6370    -1.3460 H     1 <1>   0.0800 
 26 H       -2.0780    -4.2100    -1.3630 H     1 <1>   0.0800 
 27 H       -2.5180    -2.6530     0.5460 H     1 <1>   0.0800 
 28 H       -2.2220    -3.3470     2.1110 H     1 <1>   0.0800 
 29 H        1.0900     0.3590    -0.2170 H     1 <1>   0.1500 
 30 H        4.1620    -2.1490     1.3380 H     1 <1>   0.1500 
 31 H       -0.9170    -6.7360    -0.1740 H     1 <1>   0.0800 
 32 H       -1.5430    -6.6370    -1.7980 H     1 <1>   0.0800 
 33 H       -4.1750    -4.1620     0.0370 H     1 <1>   0.0800 
 34 H       -4.3350    -4.0970     1.7520 H     1 <1>   0.0800 
 35 H        2.6980     2.1590    -0.4980 H     1 <1>   0.1500 
 36 H        5.7780    -0.3330     1.0680 H     1 <1>   0.1500 
 37 H       -3.7460    -6.1510    -1.0450 H     1 <1>   0.0800 
 38 H       -4.4090    -6.3620     1.3760 H     1 <1>   0.0800 
 39 H       -2.7340    -6.1500     1.8030 H     1 <1>   0.0800 
 40 H        5.0570     1.8350     0.1450 H     1 <1>   0.1500 
 41 H       -2.7940    -8.3810    -1.1620 H     1 <1>   0.4500 
 42 H       -5.2100    -8.1360     0.5230 H     1 <1>   0.0800 
 43 H       -4.7840    -9.5110    -0.4730 H     1 <1>   0.0800 
 44 H       -5.1660    -7.9740    -1.2200 H     1 <1>   0.0800 
 45 H       -3.0190    -8.4240     1.7840 H     1 <1>   0.0800 
 46 H       -1.5230    -8.4500     0.8820 H     1 <1>   0.0800 
 47 H       -2.6390    -9.7930     0.7610 H     1 <1>   0.0800 
@<TRIPOS>BOND
  1   1   2  ar  
  2   2   3  ar  
  3   2   4  1   
  4   4   5  1   
  5   4   6  2   
  6   5   7  2   
  7   5   8  1   
  8   6   9  1   
  9   6  10  1   
 10   7   9  1   
 11   8  11  1   
 12   8  12  1   
 13  10  13  ar  
 14  10  14  ar  
 15  11  15  1   
 16  11  25  1   
 17  11  26  1   
 18  12  16  1   
 19  12  27  1   
 20  12  28  1   
 21  13  17  ar  
 22  13  29  1   
 23  14  18  ar  
 24  14  30  1   
 25  15  19  1   
 26  15  31  1   
 27  15  32  1   
 28  16  20  1   
 29  16  33  1   
 30  16  34  1   
 31  17  21  ar  
 32  17  35  1   
 33  18  21  ar  
 34  18  36  1   
 35  19  20  1   
 36  19  22  1   
 37  19  37  1   
 38  20  38  1   
 39  20  39  1   
 40  21  40  1   
 41  22  23  1   
 42  22  24  1   
 43  22  41  1   
 44  23  42  1   
 45  23  43  1   
 46  23  44  1   
 47  24  45  1   
 48  24  46  1   
 49  24  47  1   
@<TRIPOS>SUBSTRUCTURE
  1 ****   5 GROUP 4 **** **** 0

# MOE 2024.06 (io_trps.svl 2023.06)
