@<TRIPOS>MOLECULE
NONAME
58 61 1 0 0 
SMALL
USER_CHARGES


@<TRIPOS>ATOM
  1 O        2.4130    -0.3120     0.3470 O.3   1 <1>  -0.5600 
  2 C        1.4830    -1.3020     0.6790 C.3   1 <1>   0.2000 
  3 C        2.1170     0.9670     0.8210 C.3   1 <1>   0.0400 
  4 C        1.9030    -2.6880     0.1480 C.3   1 <1>   0.0000 
  5 C        0.0840    -1.0730     0.1080 C.3   1 <1>  -0.1600 
  6 C        3.0690    -3.2300     0.9850 C.3   1 <1>   0.3430 
  7 C        2.2850    -2.7430    -1.3620 C.3   1 <1>  -0.1600 
  8 C        0.5960    -3.4700     0.3500 C.3   1 <1>  -0.1600 
  9 C       -0.5250    -2.4790    -0.0080 C.3   1 <1>  -0.1600 
 10 N        4.2820    -2.4200     0.6910 N.4   1 <1>  -0.9590 
 11 C        3.6820    -2.1790    -1.6790 C.3   1 <1>  -0.1600 
 12 C        4.7570    -2.6520    -0.6990 C.3   1 <1>   0.3430 
 13 C        5.3520    -2.5840     1.7010 C.3   1 <1>   0.5240 
 14 C        6.4110    -1.5300     1.4730 C.2   1 <1>  -0.1810 
 15 C        7.6170    -1.7650     0.8070 C.2   1 <1>   0.2350 
 16 C        6.4340    -0.2260     1.8190 C.2   1 <1>  -0.3020 
 17 N        8.3250    -0.6700     0.7340 N.2   1 <1>  -0.7070 
 18 C        7.9990    -3.0400     0.2430 C.ar  1 <1>   0.0540 
 19 N        7.6030     0.2690     1.3650 N.pl3 1 <1>   0.3000 
 20 C        8.3240    -4.1510     1.0310 C.ar  1 <1>  -0.1440 
 21 C        8.0050    -3.1880    -1.1410 C.ar  1 <1>  -0.1500 
 22 C        8.5710    -5.3730     0.4300 C.ar  1 <1>  -0.1500 
 23 C        8.4460    -4.0480     2.5470 C.3   1 <1>  -0.0970 
 24 C        8.2540    -4.4080    -1.7410 C.ar  1 <1>  -0.1440 
 25 C        8.5280    -5.5060    -0.9460 C.ar  1 <1>  -0.1500 
 26 C        8.2490    -4.5540    -3.2530 C.3   1 <1>  -0.0970 
 27 H        1.4130    -1.3420     1.7540 H     1 <1>   0.0800 
 28 H        2.9450     1.6130     0.5870 H     1 <1>   0.0800 
 29 H        1.9710     0.9350     1.8870 H     1 <1>   0.0800 
 30 H        1.2320     1.3370     0.3310 H     1 <1>   0.0800 
 31 H       -0.5060    -0.4510     0.7580 H     1 <1>   0.0800 
 32 H        0.1470    -0.6210    -0.8670 H     1 <1>   0.0800 
 33 H        3.2470    -4.2650     0.7410 H     1 <1>   0.0800 
 34 H        2.8180    -3.1590     2.0310 H     1 <1>   0.0800 
 35 H        2.2750    -3.7720    -1.6800 H     1 <1>   0.0800 
 36 H        1.5560    -2.2260    -1.9610 H     1 <1>   0.0800 
 37 H        0.5380    -4.3650    -0.2470 H     1 <1>   0.0800 
 38 H        0.4890    -3.7470     1.3850 H     1 <1>   0.0800 
 39 H       -1.3640    -2.5990     0.6560 H     1 <1>   0.0800 
 40 H       -0.8640    -2.6450    -1.0180 H     1 <1>   0.0800 
 41 H        3.9690    -1.4290     0.7050 H     1 <1>   0.4500 
 42 H        3.6540    -1.1040    -1.6720 H     1 <1>   0.0800 
 43 H        3.9660    -2.4710    -2.6750 H     1 <1>   0.0800 
 44 H        5.6610    -2.0940    -0.8820 H     1 <1>   0.0800 
 45 H        4.9650    -3.6990    -0.8500 H     1 <1>   0.0800 
 46 H        4.9430    -2.4600     2.6900 H     1 <1>   0.0800 
 47 H        5.7860    -3.5680     1.6280 H     1 <1>   0.0800 
 48 H        5.7150     0.3770     2.3450 H     1 <1>   0.1500 
 49 H        7.9370     1.2380     1.4650 H     1 <1>   0.2700 
 50 H        7.8140    -2.3200    -1.7480 H     1 <1>   0.1500 
 51 H        8.8120    -6.2350     1.0290 H     1 <1>   0.1500 
 52 H        9.1430    -4.7800     2.9140 H     1 <1>   0.0800 
 53 H        7.4960    -4.2180     3.0180 H     1 <1>   0.0800 
 54 H        8.8160    -3.0790     2.8330 H     1 <1>   0.0800 
 55 H        8.7260    -6.4640    -1.3960 H     1 <1>   0.1500 
 56 H        7.5530    -5.3190    -3.5480 H     1 <1>   0.0800 
 57 H        9.2310    -4.8290    -3.5940 H     1 <1>   0.0800 
 58 H        7.9700    -3.6320    -3.7300 H     1 <1>   0.0800 
@<TRIPOS>BOND
  1   1   2  1   
  2   1   3  1   
  3   2   4  1   
  4   2   5  1   
  5   2  27  1   
  6   3  28  1   
  7   3  29  1   
  8   3  30  1   
  9   4   6  1   
 10   4   7  1   
 11   4   8  1   
 12   5   9  1   
 13   5  31  1   
 14   5  32  1   
 15   6  10  1   
 16   6  33  1   
 17   6  34  1   
 18   7  11  1   
 19   7  35  1   
 20   7  36  1   
 21   8   9  1   
 22   8  37  1   
 23   8  38  1   
 24   9  39  1   
 25   9  40  1   
 26  10  12  1   
 27  10  13  1   
 28  10  41  1   
 29  11  12  1   
 30  11  42  1   
 31  11  43  1   
 32  12  44  1   
 33  12  45  1   
 34  13  14  1   
 35  13  46  1   
 36  13  47  1   
 37  14  15  1   
 38  14  16  2   
 39  15  17  2   
 40  15  18  1   
 41  16  19  1   
 42  16  48  1   
 43  17  19  1   
 44  18  20  ar  
 45  18  21  ar  
 46  19  49  1   
 47  20  22  ar  
 48  20  23  1   
 49  21  24  ar  
 50  21  50  1   
 51  22  25  ar  
 52  22  51  1   
 53  23  52  1   
 54  23  53  1   
 55  23  54  1   
 56  24  25  ar  
 57  24  26  1   
 58  25  55  1   
 59  26  56  1   
 60  26  57  1   
 61  26  58  1   
@<TRIPOS>SUBSTRUCTURE
  1 ****  10 GROUP 4 **** **** 0

# MOE 2024.06 (io_trps.svl 2023.06)
