@<TRIPOS>MOLECULE
NONAME
39 40 1 0 0 
SMALL
USER_CHARGES


@<TRIPOS>ATOM
  1 F        1.1380     2.6180    -1.0820 F     1 <1>  -0.3400 
  2 C        1.2080     1.8600     0.0020 C.3   1 <1>   1.1640 
  3 F        0.0340     1.2490     0.0890 F     1 <1>  -0.3400 
  4 F        1.2640     2.6840     1.0420 F     1 <1>  -0.3400 
  5 C        2.3960     0.8820    -0.0090 C.ar  1 <1>  -0.1440 
  6 C        3.6820     1.3250    -0.3540 C.ar  1 <1>   0.0860 
  7 C        2.1970    -0.4580     0.3240 C.ar  1 <1>  -0.1500 
  8 C        4.0170     2.6940    -0.7010 C.2   1 <1>   0.5440 
  9 C        4.7100     0.3840    -0.3710 C.ar  1 <1>  -0.1500 
 10 C        3.2350    -1.3830     0.3150 C.ar  1 <1>  -0.1440 
 11 O        4.5290     2.9450    -1.7720 O.2   1 <1>  -0.5700 
 12 N        3.7970     3.7200     0.1710 N.am  1 <1>  -0.7300 
 13 C        4.5000    -0.9400    -0.0440 C.ar  1 <1>  -0.1500 
 14 C        2.9680    -2.8550     0.6850 C.3   1 <1>   1.1640 
 15 C        3.9320     5.1490    -0.1790 C.3   1 <1>   0.2200 
 16 F        2.3060    -3.4920    -0.2710 F     1 <1>  -0.3400 
 17 F        4.0760    -3.5520     0.9040 F     1 <1>  -0.3400 
 18 F        2.2350    -2.9660     1.7850 F     1 <1>  -0.3400 
 19 C        5.4050     5.5870    -0.0920 C.3   1 <1>   0.1400 
 20 C        3.0500     5.9620     0.7680 C.3   1 <1>  -0.1600 
 21 N        5.5830     7.0710    -0.0260 N.am  1 <1>  -0.6600 
 22 C        3.1390     7.4500     0.4010 C.3   1 <1>  -0.0990 
 23 C        4.5660     7.9510     0.2490 C.2   1 <1>   0.5690 
 24 C        6.9860     7.5330    -0.2150 C.3   1 <1>   0.0600 
 25 O        4.7500     9.1380     0.3690 O.2   1 <1>  -0.5700 
 26 H        1.2110    -0.8040     0.5960 H     1 <1>   0.1500 
 27 H        5.6990     0.7070    -0.6540 H     1 <1>   0.1500 
 28 H        3.4010     3.5360     1.0950 H     1 <1>   0.3700 
 29 H        5.3350    -1.6220    -0.0760 H     1 <1>   0.1500 
 30 H        3.5930     5.2910    -1.1930 H     1 <1>   0.0800 
 31 H        5.9250     5.2060    -0.9540 H     1 <1>   0.0800 
 32 H        5.8480     5.1590     0.7900 H     1 <1>   0.0800 
 33 H        3.3890     5.8320     1.7810 H     1 <1>   0.0800 
 34 H        2.0260     5.6380     0.6930 H     1 <1>   0.0800 
 35 H        2.6450     8.0370     1.1540 H     1 <1>   0.0800 
 36 H        2.6350     7.6230    -0.5320 H     1 <1>   0.0800 
 37 H        7.3450     7.2200    -1.1790 H     1 <1>   0.0800 
 38 H        7.6130     7.1150     0.5520 H     1 <1>   0.0800 
 39 H        7.0470     8.6070    -0.1600 H     1 <1>   0.0800 
@<TRIPOS>BOND
  1   1   2  1   
  2   2   3  1   
  3   2   4  1   
  4   2   5  1   
  5   5   6  ar  
  6   5   7  ar  
  7   6   8  1   
  8   6   9  ar  
  9   7  10  ar  
 10   7  26  1   
 11   8  11  2   
 12   8  12  am  
 13   9  13  ar  
 14   9  27  1   
 15  10  13  ar  
 16  10  14  1   
 17  12  15  1   
 18  12  28  1   
 19  13  29  1   
 20  14  16  1   
 21  14  17  1   
 22  14  18  1   
 23  15  19  1   
 24  15  20  1   
 25  15  30  1   
 26  19  21  1   
 27  19  31  1   
 28  19  32  1   
 29  20  22  1   
 30  20  33  1   
 31  20  34  1   
 32  21  23  am  
 33  21  24  1   
 34  22  23  1   
 35  22  35  1   
 36  22  36  1   
 37  23  25  2   
 38  24  37  1   
 39  24  38  1   
 40  24  39  1   
@<TRIPOS>SUBSTRUCTURE
  1 ****   8 GROUP 4 **** **** 0

# MOE 2024.06 (io_trps.svl 2023.06)
