@<TRIPOS>MOLECULE
NONAME
47 49 1 0 0 
SMALL
USER_CHARGES


@<TRIPOS>ATOM
  1 O       -2.1290    -1.5230    -3.0460 O.2   1 <1>  -0.5700 
  2 C       -2.3150    -1.5780    -1.8610 C.2   1 <1>   0.5690 
  3 N       -2.4730    -0.4510    -1.1380 N.am  1 <1>  -0.7300 
  4 C       -2.4600    -2.9230    -1.1910 C.3   1 <1>  -0.0190 
  5 C       -2.7020    -0.4010     0.3300 C.3   1 <1>   0.2200 
  6 C       -1.4120    -3.1930    -0.0930 C.3   1 <1>   0.1200 
  7 C       -3.9090    -3.0800    -0.7320 C.3   1 <1>   0.3430 
  8 C       -1.5720    -1.0890     1.1370 C.3   1 <1>   0.1200 
  9 C       -4.0950    -0.9810     0.6760 C.3   1 <1>   0.3430 
 10 O       -0.8300    -2.0260     0.4060 O.3   1 <1>  -0.5600 
 11 N       -4.1990    -2.4830     0.6180 N.4   1 <1>  -0.9590 
 12 C       -5.5220    -2.9460     1.1230 C.3   1 <1>   0.4860 
 13 C       -5.4150    -4.4330     1.3930 C.ar  1 <1>  -0.1440 
 14 C       -5.9920    -5.3450     0.5210 C.ar  1 <1>  -0.1500 
 15 C       -4.7200    -4.8890     2.5050 C.ar  1 <1>  -0.1500 
 16 C       -5.8550    -6.7120     0.7440 C.ar  1 <1>   0.0820 
 17 C       -4.5860    -6.2470     2.7310 C.ar  1 <1>  -0.1500 
 18 O       -6.3700    -7.6710    -0.0630 O.3   1 <1>  -0.3630 
 19 C       -5.1480    -7.1520     1.8500 C.ar  1 <1>  -0.1500 
 20 C       -7.2960    -7.4220    -1.0980 C.3   1 <1>   0.2000 
 21 C       -8.6710    -7.1520    -0.4830 C.3   1 <1>  -0.2400 
 22 C       -7.3250    -8.6680    -1.9790 C.3   1 <1>  -0.2400 
 23 H       -2.2120     0.4180    -1.6150 H     1 <1>   0.3700 
 24 H       -2.3120    -3.6650    -1.9560 H     1 <1>   0.0800 
 25 H       -2.7220     0.6360     0.6180 H     1 <1>   0.0800 
 26 H       -0.6030    -3.7560    -0.5290 H     1 <1>   0.0800 
 27 H       -1.8030    -3.7730     0.7240 H     1 <1>   0.0800 
 28 H       -4.1150    -4.1380    -0.6960 H     1 <1>   0.0800 
 29 H       -4.5610    -2.6490    -1.4750 H     1 <1>   0.0800 
 30 H       -1.9400    -1.5590     2.0310 H     1 <1>   0.0800 
 31 H       -0.8700    -0.3330     1.4440 H     1 <1>   0.0800 
 32 H       -4.8190    -0.5390     0.0100 H     1 <1>   0.0800 
 33 H       -4.3400    -0.6590     1.6750 H     1 <1>   0.0800 
 34 H       -3.5070    -2.8850     1.2640 H     1 <1>   0.4500 
 35 H       -5.7740    -2.4390     2.0410 H     1 <1>   0.0800 
 36 H       -6.2950    -2.7500     0.3980 H     1 <1>   0.0800 
 37 H       -6.5430    -4.9940    -0.3300 H     1 <1>   0.1500 
 38 H       -4.2790    -4.2060     3.2120 H     1 <1>   0.1500 
 39 H       -4.0480    -6.6070     3.5920 H     1 <1>   0.1500 
 40 H       -5.0470    -8.2100     2.0170 H     1 <1>   0.1500 
 41 H       -6.9530    -6.5890    -1.6840 H     1 <1>   0.0800 
 42 H       -8.9820    -7.9930     0.1120 H     1 <1>   0.0800 
 43 H       -9.3970    -7.0010    -1.2610 H     1 <1>   0.0800 
 44 H       -8.6510    -6.2740     0.1340 H     1 <1>   0.0800 
 45 H       -7.6330    -9.5250    -1.4060 H     1 <1>   0.0800 
 46 H       -6.3480    -8.8510    -2.3900 H     1 <1>   0.0800 
 47 H       -8.0150    -8.5320    -2.7910 H     1 <1>   0.0800 
@<TRIPOS>BOND
  1   1   2  2   
  2   2   3  am  
  3   2   4  1   
  4   3   5  1   
  5   3  23  1   
  6   4   6  1   
  7   4   7  1   
  8   4  24  1   
  9   5   8  1   
 10   5   9  1   
 11   5  25  1   
 12   6  10  1   
 13   6  26  1   
 14   6  27  1   
 15   7  11  1   
 16   7  28  1   
 17   7  29  1   
 18   8  10  1   
 19   8  30  1   
 20   8  31  1   
 21   9  11  1   
 22   9  32  1   
 23   9  33  1   
 24  11  12  1   
 25  11  34  1   
 26  12  13  1   
 27  12  35  1   
 28  12  36  1   
 29  13  14  ar  
 30  13  15  ar  
 31  14  16  ar  
 32  14  37  1   
 33  15  17  ar  
 34  15  38  1   
 35  16  18  1   
 36  16  19  ar  
 37  17  19  ar  
 38  17  39  1   
 39  18  20  1   
 40  19  40  1   
 41  20  21  1   
 42  20  22  1   
 43  20  41  1   
 44  21  42  1   
 45  21  43  1   
 46  21  44  1   
 47  22  45  1   
 48  22  46  1   
 49  22  47  1   
@<TRIPOS>SUBSTRUCTURE
  1 ****   7 GROUP 4 **** **** 0

# MOE 2024.06 (io_trps.svl 2023.06)
