@<TRIPOS>MOLECULE
NONAME
44 45 1 0 0 
SMALL
USER_CHARGES


@<TRIPOS>ATOM
  1 O       -0.3580    -1.7320    -0.9080 O.3   1 <1>  -0.5600 
  2 C       -0.1660    -1.2740     0.4090 C.3   1 <1>   0.2000 
  3 C        0.0420    -0.8350    -1.9040 C.3   1 <1>   0.1200 
  4 C        1.3400    -1.0690     0.6540 C.3   1 <1>  -0.1600 
  5 C       -0.8010    -2.3040     1.3700 C.3   1 <1>   0.3430 
  6 C        1.5520    -0.5950    -1.7990 C.3   1 <1>  -0.1600 
  7 C        1.9360    -0.1210    -0.3930 C.3   1 <1>  -0.1600 
  8 N       -0.7440    -3.6780     0.7740 N.4   1 <1>  -0.9590 
  9 C       -2.0240    -4.4160     1.0320 C.3   1 <1>   0.3430 
 10 C        0.4760    -4.4200     1.1760 C.3   1 <1>   0.3430 
 11 C       -2.1990    -5.6640     0.1610 C.3   1 <1>   0.0960 
 12 C        1.1850    -4.9030    -0.0820 C.3   1 <1>  -0.2400 
 13 N       -3.4970    -6.2800     0.4750 N.pl3 1 <1>   0.3140 
 14 N       -4.0790    -6.0980     1.6750 N.2   1 <1>  -0.7070 
 15 C       -4.2490    -7.0710    -0.3220 C.2   1 <1>  -0.3320 
 16 C       -5.1850    -6.7760     1.6150 C.2   1 <1>   0.1390 
 17 C       -5.3470    -7.4060     0.3890 C.2   1 <1>  -0.1500 
 18 C       -3.8960    -7.4900    -1.7410 C.3   1 <1>  -0.0600 
 19 H       -0.6760    -0.3320     0.5190 H     1 <1>   0.0800 
 20 H       -0.5070     0.0850    -1.7850 H     1 <1>   0.0800 
 21 H       -0.2050    -1.2650    -2.8600 H     1 <1>   0.0800 
 22 H        1.8560    -2.0100     0.6060 H     1 <1>   0.0800 
 23 H        1.4980    -0.6550     1.6350 H     1 <1>   0.0800 
 24 H       -1.8310    -2.0200     1.5120 H     1 <1>   0.0800 
 25 H       -0.3190    -2.2740     2.3320 H     1 <1>   0.0800 
 26 H        1.8490     0.1420    -2.5250 H     1 <1>   0.0800 
 27 H        2.0680    -1.5100    -2.0350 H     1 <1>   0.0800 
 28 H        3.0080    -0.0830    -0.2970 H     1 <1>   0.0800 
 29 H        1.5540     0.8740    -0.2380 H     1 <1>   0.0800 
 30 H       -0.6630    -3.4550    -0.2400 H     1 <1>   0.4500 
 31 H       -2.8580    -3.7610     0.8380 H     1 <1>   0.0800 
 32 H       -2.0690    -4.7080     2.0690 H     1 <1>   0.0800 
 33 H        0.2190    -5.2560     1.8080 H     1 <1>   0.0800 
 34 H        1.1390    -3.7740     1.7290 H     1 <1>   0.0800 
 35 H       -1.4360    -6.3880     0.3700 H     1 <1>   0.0800 
 36 H       -2.1870    -5.3980    -0.8790 H     1 <1>   0.0800 
 37 H        0.5750    -5.5900    -0.6380 H     1 <1>   0.0800 
 38 H        2.0900    -5.4150     0.1960 H     1 <1>   0.0800 
 39 H        1.4540    -4.0730    -0.7110 H     1 <1>   0.0800 
 40 H       -5.8920    -6.8380     2.4270 H     1 <1>   0.1500 
 41 H       -6.1800    -8.0220     0.1020 H     1 <1>   0.1500 
 42 H       -2.9600    -8.0210    -1.7540 H     1 <1>   0.0800 
 43 H       -3.8250    -6.6290    -2.3810 H     1 <1>   0.0800 
 44 H       -4.6580    -8.1400    -2.1330 H     1 <1>   0.0800 
@<TRIPOS>BOND
  1   1   2  1   
  2   1   3  1   
  3   2   4  1   
  4   2   5  1   
  5   2  19  1   
  6   3   6  1   
  7   3  20  1   
  8   3  21  1   
  9   4   7  1   
 10   4  22  1   
 11   4  23  1   
 12   5   8  1   
 13   5  24  1   
 14   5  25  1   
 15   6   7  1   
 16   6  26  1   
 17   6  27  1   
 18   7  28  1   
 19   7  29  1   
 20   8   9  1   
 21   8  10  1   
 22   8  30  1   
 23   9  11  1   
 24   9  31  1   
 25   9  32  1   
 26  10  12  1   
 27  10  33  1   
 28  10  34  1   
 29  11  13  1   
 30  11  35  1   
 31  11  36  1   
 32  12  37  1   
 33  12  38  1   
 34  12  39  1   
 35  13  14  1   
 36  13  15  1   
 37  14  16  2   
 38  15  17  2   
 39  15  18  1   
 40  16  17  1   
 41  16  40  1   
 42  17  41  1   
 43  18  42  1   
 44  18  43  1   
 45  18  44  1   
@<TRIPOS>SUBSTRUCTURE
  1 ****   8 GROUP 4 **** **** 0

# MOE 2024.06 (io_trps.svl 2023.06)
