@<TRIPOS>MOLECULE
NONAME
50 54 1 0 0 
SMALL
USER_CHARGES


@<TRIPOS>ATOM
  1 O       -0.7590    -0.7370    -0.6530 O.2   1 <1>  -0.5700 
  2 C       -1.2840    -0.2200     0.3140 C.2   1 <1>   0.7150 
  3 N       -1.9460    -1.0090     1.1980 N.am  1 <1>  -0.7300 
  4 C       -1.2600     1.1930     0.5390 C.2   1 <1>  -0.2370 
  5 C       -2.1850    -2.4620     1.0460 C.3   1 <1>   0.2200 
  6 N       -1.3290     2.1190    -0.4690 N.pl3 1 <1>   0.2940 
  7 C       -1.1790     1.8730     1.7300 C.2   1 <1>  -0.1500 
  8 C       -3.5460    -2.7350     0.4180 C.3   1 <1>  -0.0800 
  9 C       -2.3910    -3.0720     2.4250 C.3   1 <1>   0.1200 
 10 C       -1.2800     3.3500     0.0970 C.2   1 <1>  -0.3020 
 11 C       -1.4900     1.8520    -1.9210 C.3   1 <1>  -0.0910 
 12 C       -1.1890     3.2350     1.4480 C.2   1 <1>  -0.1500 
 13 C       -4.4970    -2.6450     1.6170 C.3   1 <1>   0.1200 
 14 C       -3.9210    -1.8540    -0.7910 C.3   1 <1>  -0.0160 
 15 O       -3.7090    -2.7630     2.7670 O.3   1 <1>  -0.5600 
 16 C       -2.3150     2.7560    -2.7910 C.3   1 <1>  -0.2000 
 17 C       -2.8290     1.3990    -2.4260 C.3   1 <1>  -0.2000 
 18 C       -5.2710    -2.2520    -1.3790 C.ar  1 <1>  -0.1440 
 19 C       -6.4860    -1.5900    -1.0750 C.ar  1 <1>   0.0000 
 20 C       -5.3260    -3.3020    -2.2490 C.ar  1 <1>  -0.1500 
 21 C       -7.6690    -2.0830    -1.6820 C.ar  1 <1>   0.3100 
 22 C       -6.6080    -0.4730    -0.2140 C.ar  1 <1>  -0.1500 
 23 C       -6.5480    -3.7020    -2.7990 C.ar  1 <1>   0.1600 
 24 N       -7.6820    -3.1350    -2.5380 N.ar  1 <1>  -0.6200 
 25 C       -8.8940    -1.4600    -1.3960 C.ar  1 <1>  -0.1500 
 26 C       -7.8180     0.1120     0.0420 C.ar  1 <1>  -0.1500 
 27 C       -8.9790    -0.3870    -0.5530 C.ar  1 <1>  -0.1500 
 28 H       -2.4600    -0.5690     1.9630 H     1 <1>   0.3700 
 29 H       -1.3750    -2.9270     0.5080 H     1 <1>   0.0800 
 30 H       -1.1100     1.4510     2.7190 H     1 <1>   0.1500 
 31 H       -3.5520    -3.7600     0.0900 H     1 <1>   0.0800 
 32 H       -1.7190    -2.6740     3.1640 H     1 <1>   0.0800 
 33 H       -2.3030    -4.1440     2.3860 H     1 <1>   0.0800 
 34 H       -1.3140     4.2490    -0.4910 H     1 <1>   0.1500 
 35 H       -0.6110     1.3920    -2.3380 H     1 <1>   0.1000 
 36 H       -1.1320     4.0270     2.1760 H     1 <1>   0.1500 
 37 H       -5.2300    -3.4350     1.6080 H     1 <1>   0.0800 
 38 H       -4.9920    -1.6930     1.6650 H     1 <1>   0.0800 
 39 H       -3.1640    -1.9760    -1.5470 H     1 <1>   0.0800 
 40 H       -3.9150    -0.8150    -0.5290 H     1 <1>   0.0800 
 41 H       -2.7990     3.6160    -2.3610 H     1 <1>   0.1000 
 42 H       -2.0070     2.9210    -3.8090 H     1 <1>   0.1000 
 43 H       -2.8630     0.6420    -3.1900 H     1 <1>   0.1000 
 44 H       -3.6600     1.3390    -1.7450 H     1 <1>   0.1000 
 45 H       -4.4420    -3.8450    -2.5310 H     1 <1>   0.1500 
 46 H       -5.7360    -0.0620     0.2550 H     1 <1>   0.1500 
 47 H       -6.5450    -4.5360    -3.4810 H     1 <1>   0.1500 
 48 H       -9.7720    -1.8600    -1.8680 H     1 <1>   0.1500 
 49 H       -7.8940     0.9600     0.7010 H     1 <1>   0.1500 
 50 H       -9.9250     0.0800    -0.3430 H     1 <1>   0.1500 
@<TRIPOS>BOND
  1   1   2  2   
  2   2   3  am  
  3   2   4  1   
  4   3   5  1   
  5   3  28  1   
  6   4   6  1   
  7   4   7  2   
  8   5   8  1   
  9   5   9  1   
 10   5  29  1   
 11   6  10  1   
 12   6  11  1   
 13   7  12  1   
 14   7  30  1   
 15   8  13  1   
 16   8  14  1   
 17   8  31  1   
 18   9  15  1   
 19   9  32  1   
 20   9  33  1   
 21  10  12  2   
 22  10  34  1   
 23  11  16  1   
 24  11  17  1   
 25  11  35  1   
 26  12  36  1   
 27  13  15  1   
 28  13  37  1   
 29  13  38  1   
 30  14  18  1   
 31  14  39  1   
 32  14  40  1   
 33  16  17  1   
 34  16  41  1   
 35  16  42  1   
 36  17  43  1   
 37  17  44  1   
 38  18  19  ar  
 39  18  20  ar  
 40  19  21  ar  
 41  19  22  ar  
 42  20  23  ar  
 43  20  45  1   
 44  21  24  ar  
 45  21  25  ar  
 46  22  26  ar  
 47  22  46  1   
 48  23  24  ar  
 49  23  47  1   
 50  25  27  ar  
 51  25  48  1   
 52  26  27  ar  
 53  26  49  1   
 54  27  50  1   
@<TRIPOS>SUBSTRUCTURE
  1 ****  14 GROUP 4 **** **** 0

# MOE 2024.06 (io_trps.svl 2023.06)
