@<TRIPOS>MOLECULE
NONAME
47 49 1 0 0 
SMALL
USER_CHARGES


@<TRIPOS>ATOM
  1 O       -3.3540    -1.3980     0.7190 O.co2 1 <1>  -0.9000 
  2 C       -3.5810    -0.2700     1.1760 C.2   1 <1>   0.9790 
  3 O       -4.3280    -0.1880     2.1650 O.co2 1 <1>  -0.9000 
  4 C       -3.4280     0.9070     0.3490 C.ar  1 <1>  -0.1790 
  5 C       -4.3090     1.1040    -0.7220 C.ar  1 <1>  -0.1440 
  6 C       -2.4650     1.8810     0.6040 C.ar  1 <1>  -0.1500 
  7 C       -4.2200     2.2440    -1.5040 C.ar  1 <1>  -0.1500 
  8 C       -5.3470     0.0280    -1.0160 C.3   1 <1>   0.4870 
  9 C       -2.3800     3.0160    -0.1790 C.ar  1 <1>  -0.1500 
 10 C       -3.2580     3.2000    -1.2330 C.ar  1 <1>  -0.1500 
 11 N       -6.2310    -0.1350     0.1660 N.4   1 <1>  -0.9590 
 12 C       -6.5210    -1.5790     0.4170 C.3   1 <1>   0.3430 
 13 C       -7.3330     0.8510     0.2570 C.3   1 <1>   0.3430 
 14 C       -7.1920    -1.8220     1.7780 C.3   1 <1>   0.1400 
 15 C       -7.6200     1.1630     1.7280 C.3   1 <1>  -0.1600 
 16 N       -8.5410    -1.1770     1.8200 N.am  1 <1>  -0.6600 
 17 C       -8.5760     0.1820     2.4230 C.3   1 <1>   0.1400 
 18 C       -9.5580    -1.6100     0.9990 C.2   1 <1>   0.7150 
 19 O      -10.2010    -0.7710     0.3950 O.2   1 <1>  -0.5700 
 20 C       -9.8060    -3.0110     0.8010 C.2   1 <1>  -0.2370 
 21 N      -10.3600    -3.5540    -0.3170 N.pl3 1 <1>   0.3140 
 22 C       -9.5700    -4.0690     1.6280 C.2   1 <1>  -0.1500 
 23 N      -10.4430    -4.8890    -0.2420 N.2   1 <1>  -0.7070 
 24 C      -10.8580    -2.8580    -1.5160 C.3   1 <1>   0.0160 
 25 C       -9.9760    -5.1890     0.9300 C.2   1 <1>   0.1390 
 26 H       -1.7860     1.7410     1.4290 H     1 <1>   0.1500 
 27 H       -4.8900     2.3990    -2.3320 H     1 <1>   0.1500 
 28 H       -4.8200    -0.8940    -1.2030 H     1 <1>   0.0800 
 29 H       -5.9250     0.2790    -1.8890 H     1 <1>   0.0800 
 30 H       -1.6300     3.7580     0.0330 H     1 <1>   0.1500 
 31 H       -3.1870     4.0860    -1.8400 H     1 <1>   0.1500 
 32 H       -5.5980     0.0820     0.9750 H     1 <1>   0.4500 
 33 H       -5.5870    -2.1220     0.4120 H     1 <1>   0.0800 
 34 H       -7.1430    -1.9770    -0.3660 H     1 <1>   0.0800 
 35 H       -8.2190     0.4860    -0.2370 H     1 <1>   0.0800 
 36 H       -7.0220     1.7640    -0.2240 H     1 <1>   0.0800 
 37 H       -6.5630    -1.4350     2.5620 H     1 <1>   0.0800 
 38 H       -7.2800    -2.8800     1.9360 H     1 <1>   0.0800 
 39 H       -8.0670     2.1380     1.7850 H     1 <1>   0.0800 
 40 H       -6.6950     1.2200     2.2770 H     1 <1>   0.0800 
 41 H       -9.5810     0.5670     2.3630 H     1 <1>   0.0800 
 42 H       -8.3240     0.1120     3.4680 H     1 <1>   0.0800 
 43 H       -9.1610    -4.0620     2.6220 H     1 <1>   0.1500 
 44 H      -10.0820    -2.2360    -1.9180 H     1 <1>   0.0800 
 45 H      -11.7050    -2.2550    -1.2450 H     1 <1>   0.0800 
 46 H      -11.1560    -3.5850    -2.2490 H     1 <1>   0.0800 
 47 H       -9.9210    -6.2000     1.3000 H     1 <1>   0.1500 
@<TRIPOS>BOND
  1   1   2  ar  
  2   2   3  ar  
  3   2   4  1   
  4   4   5  ar  
  5   4   6  ar  
  6   5   7  ar  
  7   5   8  1   
  8   6   9  ar  
  9   6  26  1   
 10   7  10  ar  
 11   7  27  1   
 12   8  11  1   
 13   8  28  1   
 14   8  29  1   
 15   9  10  ar  
 16   9  30  1   
 17  10  31  1   
 18  11  12  1   
 19  11  13  1   
 20  11  32  1   
 21  12  14  1   
 22  12  33  1   
 23  12  34  1   
 24  13  15  1   
 25  13  35  1   
 26  13  36  1   
 27  14  16  1   
 28  14  37  1   
 29  14  38  1   
 30  15  17  1   
 31  15  39  1   
 32  15  40  1   
 33  16  17  1   
 34  16  18  am  
 35  17  41  1   
 36  17  42  1   
 37  18  19  2   
 38  18  20  1   
 39  20  21  1   
 40  20  22  2   
 41  21  23  1   
 42  21  24  1   
 43  22  25  1   
 44  22  43  1   
 45  23  25  2   
 46  24  44  1   
 47  24  45  1   
 48  24  46  1   
 49  25  47  1   
@<TRIPOS>SUBSTRUCTURE
  1 ****  11 GROUP 4 **** **** 0

# MOE 2024.06 (io_trps.svl 2023.06)
