@<TRIPOS>MOLECULE
NONAME
46 49 1 0 0 
SMALL
USER_CHARGES


@<TRIPOS>ATOM
  1 O        2.6010    -0.6080    -1.3880 O.2   1 <1>  -0.5700 
  2 C        2.5880    -1.6900    -0.8250 C.2   1 <1>   0.5650 
  3 N        3.2990    -1.9500     0.3720 N.pl3 1 <1>   0.5610 
  4 C        1.8130    -2.7640    -1.3630 C.2   1 <1>  -0.1360 
  5 N        4.1040    -1.2040     1.1600 N.2   1 <1>  -0.7070 
  6 C        3.2120    -3.1740     0.9510 C.2   1 <1>   0.2700 
  7 C        1.7380    -3.9850    -0.7660 C.2   1 <1>  -0.0380 
  8 C        4.4200    -2.0250     2.1050 C.2   1 <1>   0.3660 
  9 N        3.8970    -3.2600     2.0300 N.2   1 <1>  -0.5650 
 10 N        2.4500    -4.1970     0.4030 N.pl3 1 <1>  -0.5840 
 11 C        0.8920    -5.1280    -1.3210 C.3   1 <1>   0.4810 
 12 N       -0.2150    -5.3990    -0.3670 N.4   1 <1>  -0.9590 
 13 C       -0.8130    -6.7540    -0.6110 C.3   1 <1>   0.3430 
 14 C       -1.2580    -4.3290    -0.3800 C.3   1 <1>   0.3430 
 15 C       -1.8740    -7.0960     0.4510 C.3   1 <1>   0.2000 
 16 C       -2.3190    -4.6230     0.6860 C.3   1 <1>  -0.1600 
 17 O       -2.4900    -8.2910     0.0950 O.3   1 <1>  -0.5600 
 18 C       -2.9540    -6.0130     0.5080 C.3   1 <1>  -0.1600 
 19 C       -2.0220    -9.4370     0.7650 C.3   1 <1>   0.2630 
 20 C       -0.5880    -9.7880     0.3640 C.ar  1 <1>   0.1670 
 21 N        0.4010    -9.1730     1.0110 N.ar  1 <1>  -0.6200 
 22 C       -0.3860   -10.7240    -0.6390 C.ar  1 <1>  -0.1500 
 23 C        1.6270    -9.5470     0.6720 C.ar  1 <1>   0.1600 
 24 C        0.8960   -11.0800    -0.9980 C.ar  1 <1>  -0.1500 
 25 C        1.9240   -10.4730    -0.3120 C.ar  1 <1>  -0.1500 
 26 H        1.2910    -2.5330    -2.2750 H     1 <1>   0.1500 
 27 H        5.0700    -1.7550     2.9250 H     1 <1>   0.1500 
 28 H        2.5560    -5.1000     0.8860 H     1 <1>   0.4000 
 29 H        1.5110    -6.0040    -1.4300 H     1 <1>   0.0800 
 30 H        0.4950    -4.8680    -2.2890 H     1 <1>   0.0800 
 31 H        0.1980    -5.4080     0.5740 H     1 <1>   0.4500 
 32 H       -0.0390    -7.5010    -0.5930 H     1 <1>   0.0800 
 33 H       -1.2850    -6.7730    -1.5790 H     1 <1>   0.0800 
 34 H       -1.7290    -4.2890    -1.3500 H     1 <1>   0.0800 
 35 H       -0.8080    -3.3690    -0.1810 H     1 <1>   0.0800 
 36 H       -1.4130    -7.2010     1.4200 H     1 <1>   0.0800 
 37 H       -3.0900    -3.8740     0.6260 H     1 <1>   0.0800 
 38 H       -1.8750    -4.5440     1.6630 H     1 <1>   0.0800 
 39 H       -3.6220    -6.2150     1.3280 H     1 <1>   0.0800 
 40 H       -3.5260    -6.0310    -0.4050 H     1 <1>   0.0800 
 41 H       -2.6820   -10.2470     0.5080 H     1 <1>   0.0800 
 42 H       -2.0900    -9.2760     1.8280 H     1 <1>   0.0800 
 43 H       -1.2250   -11.1780    -1.1360 H     1 <1>   0.1500 
 44 H        2.4440    -9.0950     1.2090 H     1 <1>   0.1500 
 45 H        1.0840   -11.8060    -1.7720 H     1 <1>   0.1500 
 46 H        2.9470   -10.7230    -0.5320 H     1 <1>   0.1500 
@<TRIPOS>BOND
  1   1   2  2   
  2   2   3  1   
  3   2   4  1   
  4   3   5  1   
  5   3   6  1   
  6   4   7  2   
  7   4  26  1   
  8   5   8  2   
  9   6   9  2   
 10   6  10  1   
 11   7  10  1   
 12   7  11  1   
 13   8   9  1   
 14   8  27  1   
 15  10  28  1   
 16  11  12  1   
 17  11  29  1   
 18  11  30  1   
 19  12  13  1   
 20  12  14  1   
 21  12  31  1   
 22  13  15  1   
 23  13  32  1   
 24  13  33  1   
 25  14  16  1   
 26  14  34  1   
 27  14  35  1   
 28  15  17  1   
 29  15  18  1   
 30  15  36  1   
 31  16  18  1   
 32  16  37  1   
 33  16  38  1   
 34  17  19  1   
 35  18  39  1   
 36  18  40  1   
 37  19  20  1   
 38  19  41  1   
 39  19  42  1   
 40  20  21  ar  
 41  20  22  ar  
 42  21  23  ar  
 43  22  24  ar  
 44  22  43  1   
 45  23  25  ar  
 46  23  44  1   
 47  24  25  ar  
 48  24  45  1   
 49  25  46  1   
@<TRIPOS>SUBSTRUCTURE
  1 ****  12 GROUP 4 **** **** 0

# MOE 2024.06 (io_trps.svl 2023.06)
