@<TRIPOS>MOLECULE
NONAME
55 58 1 0 0 
SMALL
USER_CHARGES


@<TRIPOS>ATOM
  1 O        0.6290     0.6470     0.2920 O.3   1 <1>  -0.0190 
  2 N        1.6300    -0.1690     0.4520 N.2   1 <1>  -0.4100 
  3 C        1.0250     1.8820     0.1290 C.2   1 <1>  -0.0400 
  4 C        2.6910     0.5510     0.3890 C.2   1 <1>   0.1080 
  5 C        2.3670     1.8880     0.1790 C.2   1 <1>  -0.1500 
  6 C       -0.0230     2.9640    -0.0750 C.3   1 <1>   0.0200 
  7 C        4.0960     0.0080     0.5260 C.3   1 <1>  -0.0590 
  8 C        0.5740     4.3830    -0.1080 C.3   1 <1>  -0.0800 
  9 C       -0.4100     5.4900    -0.4790 C.3   1 <1>   0.2000 
 10 C        1.1050     4.8520     1.2440 C.3   1 <1>   0.1100 
 11 O       -1.6610     5.1950     0.0770 O.3   1 <1>  -0.5600 
 12 C        0.1860     6.7440     0.1840 C.3   1 <1>   0.1100 
 13 N        1.2320     6.3080     1.1400 N.3   1 <1>  -0.8100 
 14 C       -2.7300     5.9150    -0.4530 C.3   1 <1>   0.0400 
 15 C        2.5870     6.7180     0.7240 C.3   1 <1>   0.2480 
 16 C        2.7720     8.2360     0.7460 C.2   1 <1>  -0.0380 
 17 N        3.7230     8.7730    -0.0830 N.pl3 1 <1>  -0.6000 
 18 C        2.0580     9.0700     1.5380 C.2   1 <1>  -0.1360 
 19 C        3.9840    10.1390    -0.1600 C.ar  1 <1>   0.1000 
 20 C        2.2480    10.4750     1.5290 C.2   1 <1>   0.4690 
 21 C        3.2520    11.0400     0.6450 C.ar  1 <1>   0.0860 
 22 C        4.9720    10.5970    -1.0410 C.ar  1 <1>  -0.1440 
 23 O        1.5420    11.1480     2.2710 O.2   1 <1>  -0.5700 
 24 C        3.5540    12.4160     0.5290 C.ar  1 <1>  -0.1440 
 25 C        5.2360    11.9440    -1.1260 C.ar  1 <1>  -0.1500 
 26 C        5.7670     9.6320    -1.9120 C.3   1 <1>  -0.0970 
 27 C        4.5300    12.8440    -0.3460 C.ar  1 <1>  -0.1500 
 28 C        2.8360    13.4880     1.3430 C.3   1 <1>  -0.0970 
 29 H        3.0640     2.6980     0.0840 H     1 <1>   0.1500 
 30 H       -0.5350     2.7700    -1.0000 H     1 <1>   0.0800 
 31 H       -0.7470     2.8930     0.7180 H     1 <1>   0.0800 
 32 H        4.5860     0.4710     1.3620 H     1 <1>   0.0800 
 33 H        4.6530     0.2080    -0.3710 H     1 <1>   0.0800 
 34 H        4.0630    -1.0550     0.6860 H     1 <1>   0.0800 
 35 H        1.3820     4.4050    -0.8180 H     1 <1>   0.0800 
 36 H       -0.5130     5.5930    -1.5460 H     1 <1>   0.0800 
 37 H        2.0340     4.3810     1.5150 H     1 <1>   0.0800 
 38 H        0.3750     4.6330     2.0070 H     1 <1>   0.0800 
 39 H       -0.5730     7.2890     0.7160 H     1 <1>   0.0800 
 40 H        0.6050     7.3880    -0.5700 H     1 <1>   0.0800 
 41 H       -3.6240     5.6070     0.0590 H     1 <1>   0.0800 
 42 H       -2.8210     5.6960    -1.5030 H     1 <1>   0.0800 
 43 H       -2.5710     6.9680    -0.2960 H     1 <1>   0.0800 
 44 H        3.3100     6.2840     1.3930 H     1 <1>   0.0800 
 45 H        2.7810     6.3490    -0.2680 H     1 <1>   0.0800 
 46 H        4.2890     8.1660    -0.6800 H     1 <1>   0.4000 
 47 H        1.3090     8.7000     2.2130 H     1 <1>   0.1500 
 48 H        5.9900    12.3170    -1.7960 H     1 <1>   0.1500 
 49 H        6.4790    10.1610    -2.5200 H     1 <1>   0.0800 
 50 H        5.1050     9.0930    -2.5650 H     1 <1>   0.0800 
 51 H        6.3060     8.9360    -1.2950 H     1 <1>   0.0800 
 52 H        4.7630    13.8910    -0.4380 H     1 <1>   0.1500 
 53 H        3.2050    14.4710     1.1170 H     1 <1>   0.0800 
 54 H        2.9800    13.3100     2.3940 H     1 <1>   0.0800 
 55 H        1.7820    13.4690     1.1300 H     1 <1>   0.0800 
@<TRIPOS>BOND
  1   1   2  1   
  2   1   3  1   
  3   2   4  2   
  4   3   5  2   
  5   3   6  1   
  6   4   5  1   
  7   4   7  1   
  8   5  29  1   
  9   6   8  1   
 10   6  30  1   
 11   6  31  1   
 12   7  32  1   
 13   7  33  1   
 14   7  34  1   
 15   8   9  1   
 16   8  10  1   
 17   8  35  1   
 18   9  11  1   
 19   9  12  1   
 20   9  36  1   
 21  10  13  1   
 22  10  37  1   
 23  10  38  1   
 24  11  14  1   
 25  12  13  1   
 26  12  39  1   
 27  12  40  1   
 28  13  15  1   
 29  14  41  1   
 30  14  42  1   
 31  14  43  1   
 32  15  16  1   
 33  15  44  1   
 34  15  45  1   
 35  16  17  1   
 36  16  18  2   
 37  17  19  1   
 38  17  46  1   
 39  18  20  1   
 40  18  47  1   
 41  19  21  ar  
 42  19  22  ar  
 43  20  21  1   
 44  20  23  2   
 45  21  24  ar  
 46  22  25  ar  
 47  22  26  1   
 48  24  27  ar  
 49  24  28  1   
 50  25  27  ar  
 51  25  48  1   
 52  26  49  1   
 53  26  50  1   
 54  26  51  1   
 55  27  52  1   
 56  28  53  1   
 57  28  54  1   
 58  28  55  1   
@<TRIPOS>SUBSTRUCTURE
  1 ****  15 GROUP 4 **** **** 0

# MOE 2024.06 (io_trps.svl 2023.06)
