@<TRIPOS>MOLECULE
NONAME
48 49 1 0 0 
SMALL
USER_CHARGES


@<TRIPOS>ATOM
  1 F       -2.6010    -0.4070     2.4630 F     1 <1>  -0.1900 
  2 C       -3.1570     0.3600     1.5630 C.ar  1 <1>   0.1900 
  3 C       -3.0770    -0.0020     0.2280 C.ar  1 <1>  -0.1440 
  4 C       -3.8050     1.5020     1.9880 C.ar  1 <1>  -0.1500 
  5 C       -3.6510     0.8480    -0.7090 C.ar  1 <1>  -0.1500 
  6 C       -2.3720    -1.2850    -0.1850 C.3   1 <1>   0.4870 
  7 C       -4.3920     2.3210     1.0410 C.ar  1 <1>  -0.1500 
  8 C       -4.3150     1.9980    -0.3060 C.ar  1 <1>  -0.1440 
  9 N       -3.3320    -2.4300    -0.2970 N.4   1 <1>  -0.9590 
 10 C       -4.9520     2.9150    -1.3370 C.3   1 <1>  -0.0970 
 11 C       -4.4210    -2.1850    -1.3090 C.3   1 <1>   0.3430 
 12 C       -3.8510    -2.8930     1.0370 C.3   1 <1>   0.3430 
 13 C       -5.5240    -3.2540    -1.1990 C.3   1 <1>   0.2000 
 14 C       -5.3220    -2.5120     1.2480 C.3   1 <1>  -0.1600 
 15 O       -4.8910    -4.4970    -1.3300 O.3   1 <1>  -0.6800 
 16 C       -6.2720    -3.1170     0.1680 C.3   1 <1>   0.0000 
 17 C       -6.7710    -4.5180     0.6320 C.3   1 <1>   0.1200 
 18 C       -7.5190    -2.1960    -0.0020 C.3   1 <1>  -0.1600 
 19 O       -7.5900    -4.4410     1.7500 O.3   1 <1>  -0.6800 
 20 C       -7.3080    -0.8190    -0.6680 C.3   1 <1>  -0.1600 
 21 C       -8.6150    -0.0240    -0.6840 C.3   1 <1>  -0.2400 
 22 H       -3.8480     1.7470     3.0350 H     1 <1>   0.1500 
 23 H       -3.5850     0.6290    -1.7610 H     1 <1>   0.1500 
 24 H       -1.6070    -1.5190     0.5380 H     1 <1>   0.0800 
 25 H       -1.8880    -1.1250    -1.1350 H     1 <1>   0.0800 
 26 H       -4.9030     3.2160     1.3560 H     1 <1>   0.1500 
 27 H       -2.8220    -3.2430    -0.6700 H     1 <1>   0.4500 
 28 H       -5.8200     3.3980    -0.9250 H     1 <1>   0.0800 
 29 H       -5.2570     2.3610    -2.2060 H     1 <1>   0.0800 
 30 H       -4.2490     3.6710    -1.6370 H     1 <1>   0.0800 
 31 H       -4.8670    -1.2220    -1.1370 H     1 <1>   0.0800 
 32 H       -4.0130    -2.1920    -2.3050 H     1 <1>   0.0800 
 33 H       -3.7770    -3.9680     1.0820 H     1 <1>   0.0800 
 34 H       -3.2480    -2.4930     1.8350 H     1 <1>   0.0800 
 35 H       -6.2150    -3.1590    -2.0200 H     1 <1>   0.0800 
 36 H       -5.6190    -2.8280     2.2310 H     1 <1>   0.0800 
 37 H       -5.3820    -1.4400     1.2610 H     1 <1>   0.0800 
 38 H       -5.5390    -5.1970    -1.5590 H     1 <1>   0.4000 
 39 H       -5.9500    -5.1710     0.8750 H     1 <1>   0.0800 
 40 H       -7.3560    -4.9780    -0.1460 H     1 <1>   0.0800 
 41 H       -8.2600    -2.7270    -0.5770 H     1 <1>   0.0800 
 42 H       -7.9570    -2.0260     0.9680 H     1 <1>   0.0800 
 43 H       -7.1010    -4.1640     2.5480 H     1 <1>   0.4000 
 44 H       -6.5750    -0.2390    -0.1360 H     1 <1>   0.0800 
 45 H       -6.9820    -0.9350    -1.6870 H     1 <1>   0.0800 
 46 H       -8.9670     0.1450     0.3190 H     1 <1>   0.0800 
 47 H       -9.3760    -0.5550    -1.2300 H     1 <1>   0.0800 
 48 H       -8.4630     0.9310    -1.1540 H     1 <1>   0.0800 
@<TRIPOS>BOND
  1   1   2  1   
  2   2   3  ar  
  3   2   4  ar  
  4   3   5  ar  
  5   3   6  1   
  6   4   7  ar  
  7   4  22  1   
  8   5   8  ar  
  9   5  23  1   
 10   6   9  1   
 11   6  24  1   
 12   6  25  1   
 13   7   8  ar  
 14   7  26  1   
 15   8  10  1   
 16   9  11  1   
 17   9  12  1   
 18   9  27  1   
 19  10  28  1   
 20  10  29  1   
 21  10  30  1   
 22  11  13  1   
 23  11  31  1   
 24  11  32  1   
 25  12  14  1   
 26  12  33  1   
 27  12  34  1   
 28  13  15  1   
 29  13  16  1   
 30  13  35  1   
 31  14  16  1   
 32  14  36  1   
 33  14  37  1   
 34  15  38  1   
 35  16  17  1   
 36  16  18  1   
 37  17  19  1   
 38  17  39  1   
 39  17  40  1   
 40  18  20  1   
 41  18  41  1   
 42  18  42  1   
 43  19  43  1   
 44  20  21  1   
 45  20  44  1   
 46  20  45  1   
 47  21  46  1   
 48  21  47  1   
 49  21  48  1   
@<TRIPOS>SUBSTRUCTURE
  1 ****  14 GROUP 4 **** **** 0

# MOE 2024.06 (io_trps.svl 2023.06)
