@<TRIPOS>MOLECULE
NONAME
45 46 1 0 0 
SMALL
USER_CHARGES


@<TRIPOS>ATOM
  1 O       -0.0450    -2.8750    -1.6780 O.3   1 <1>  -0.6800 
  2 C       -0.3060    -3.3620    -0.4010 C.3   1 <1>   0.1200 
  3 C       -1.6290    -2.7820     0.1600 C.3   1 <1>   0.0000 
  4 C       -2.7890    -3.0160    -0.8510 C.3   1 <1>   0.2090 
  5 C       -1.9450    -3.4840     1.5140 C.3   1 <1>  -0.1600 
  6 C       -1.4400    -1.2470     0.3480 C.3   1 <1>  -0.1600 
  7 N       -3.0870    -4.4720    -1.1470 N.pl3 1 <1>  -0.8380 
  8 C       -0.9400    -3.2400     2.6520 C.3   1 <1>  -0.2400 
  9 C       -2.6060    -0.4850     1.0040 C.3   1 <1>  -0.2400 
 10 C       -3.9110    -5.2800    -0.4340 C.ar  1 <1>   0.4610 
 11 C       -2.4880    -4.8950    -2.4600 C.3   1 <1>   0.1290 
 12 N       -4.9040    -4.6900     0.2400 N.ar  1 <1>  -0.1790 
 13 C       -3.8310    -6.7220    -0.3780 C.ar  1 <1>   0.0000 
 14 C       -5.9380    -5.3690     0.8380 C.ar  1 <1>   0.2110 
 15 C       -4.9070    -7.4430     0.1840 C.ar  1 <1>   0.0000 
 16 C       -2.7150    -7.4730    -0.7960 C.ar  1 <1>  -0.1500 
 17 C       -5.9650    -6.7200     0.7970 C.ar  1 <1>  -0.1500 
 18 C       -4.8970    -8.8440     0.1770 C.ar  1 <1>  -0.1500 
 19 C       -2.7090    -8.8460    -0.7750 C.ar  1 <1>  -0.1500 
 20 C       -3.8170    -9.5390    -0.3020 C.ar  1 <1>  -0.1500 
 21 H        0.8700    -3.0930    -1.9500 H     1 <1>   0.4000 
 22 H        0.5230    -3.0860     0.2270 H     1 <1>   0.0800 
 23 H       -0.3530    -4.4360    -0.4560 H     1 <1>   0.0800 
 24 H       -2.5480    -2.5060    -1.7700 H     1 <1>   0.0800 
 25 H       -3.6740    -2.5370    -0.4810 H     1 <1>   0.0800 
 26 H       -1.9840    -4.5470     1.3540 H     1 <1>   0.0800 
 27 H       -2.9160    -3.1800     1.8600 H     1 <1>   0.0800 
 28 H       -1.2550    -0.7980    -0.6140 H     1 <1>   0.0800 
 29 H       -0.5540    -1.0670     0.9320 H     1 <1>   0.0800 
 30 H        0.0470    -3.5690     2.3820 H     1 <1>   0.0800 
 31 H       -1.2420    -3.7920     3.5250 H     1 <1>   0.0800 
 32 H       -0.8970    -2.2000     2.9230 H     1 <1>   0.0800 
 33 H       -3.4990    -0.5350     0.4100 H     1 <1>   0.0800 
 34 H       -2.3380     0.5530     1.0970 H     1 <1>   0.0800 
 35 H       -2.8120    -0.8560     1.9920 H     1 <1>   0.0800 
 36 H       -2.6340    -4.1290    -3.2030 H     1 <1>   0.0800 
 37 H       -2.9550    -5.7930    -2.8260 H     1 <1>   0.0800 
 38 H       -1.4310    -5.0660    -2.3550 H     1 <1>   0.0800 
 39 H       -4.9140    -3.6750     0.2040 H     1 <1>   0.4570 
 40 H       -6.7150    -4.7910     1.3140 H     1 <1>   0.1500 
 41 H       -1.8280    -6.9730    -1.1330 H     1 <1>   0.1500 
 42 H       -6.7720    -7.2800     1.2380 H     1 <1>   0.1500 
 43 H       -5.7430    -9.3840     0.5650 H     1 <1>   0.1500 
 44 H       -1.8500    -9.3990    -1.1180 H     1 <1>   0.1500 
 45 H       -3.8100   -10.6170    -0.3030 H     1 <1>   0.1500 
@<TRIPOS>BOND
  1   1   2  1   
  2   1  21  1   
  3   2   3  1   
  4   2  22  1   
  5   2  23  1   
  6   3   4  1   
  7   3   5  1   
  8   3   6  1   
  9   4   7  1   
 10   4  24  1   
 11   4  25  1   
 12   5   8  1   
 13   5  26  1   
 14   5  27  1   
 15   6   9  1   
 16   6  28  1   
 17   6  29  1   
 18   7  10  1   
 19   7  11  1   
 20   8  30  1   
 21   8  31  1   
 22   8  32  1   
 23   9  33  1   
 24   9  34  1   
 25   9  35  1   
 26  10  12  ar  
 27  10  13  ar  
 28  11  36  1   
 29  11  37  1   
 30  11  38  1   
 31  12  14  ar  
 32  12  39  1   
 33  13  15  ar  
 34  13  16  ar  
 35  14  17  ar  
 36  14  40  1   
 37  15  17  ar  
 38  15  18  ar  
 39  16  19  ar  
 40  16  41  1   
 41  17  42  1   
 42  18  20  ar  
 43  18  43  1   
 44  19  20  ar  
 45  19  44  1   
 46  20  45  1   
@<TRIPOS>SUBSTRUCTURE
  1 ****  10 GROUP 4 **** **** 0

# MOE 2024.06 (io_trps.svl 2023.06)
