@<TRIPOS>MOLECULE
NONAME
52 54 1 0 0 
SMALL
USER_CHARGES


@<TRIPOS>ATOM
  1 F        2.0030     1.0280     1.4750 F     1 <1>  -0.1900 
  2 C        3.1370     1.6760     1.4290 C.ar  1 <1>   0.1900 
  3 C        3.1590     3.0010     1.0140 C.ar  1 <1>  -0.1440 
  4 C        4.2700     0.9820     1.8040 C.ar  1 <1>  -0.1500 
  5 C        4.3980     3.6590     0.9450 C.ar  1 <1>   0.0860 
  6 C        1.8500     3.7110     0.6620 C.3   1 <1>  -0.0970 
  7 C        5.4850     1.6360     1.7670 C.ar  1 <1>  -0.1500 
  8 C        4.5670     5.0240     0.4690 C.2   1 <1>   0.5440 
  9 C        5.5370     2.9530     1.3460 C.ar  1 <1>  -0.1500 
 10 O        5.3660     5.7800     0.9910 O.2   1 <1>  -0.5700 
 11 N        3.9700     5.4790    -0.6830 N.am  1 <1>  -0.6600 
 12 C        4.4060     4.9160    -1.9980 C.3   1 <1>   0.1400 
 13 C        3.3120     6.8170    -0.7420 C.3   1 <1>   0.1400 
 14 C        5.8430     5.3680    -2.3540 C.3   1 <1>   0.3430 
 15 C        4.3140     7.9740    -0.9030 C.3   1 <1>  -0.1600 
 16 N        6.2300     6.6140    -1.6150 N.4   1 <1>  -0.9590 
 17 C        5.3860     7.7820    -1.9780 C.3   1 <1>   0.3430 
 18 C        7.6980     6.8860    -1.6540 C.3   1 <1>   0.3430 
 19 C        8.1430     7.7140    -0.4470 C.3   1 <1>   0.1200 
 20 O        9.5170     7.9710    -0.5970 O.3   1 <1>  -0.3630 
 21 C       10.2050     8.6700     0.3400 C.ar  1 <1>   0.0830 
 22 C       11.5400     8.9270     0.0690 C.ar  1 <1>  -0.1500 
 23 C        9.6470     9.1300     1.5310 C.ar  1 <1>  -0.1500 
 24 C       12.3150     9.6350     0.9700 C.ar  1 <1>  -0.1500 
 25 C       10.4250     9.8380     2.4310 C.ar  1 <1>  -0.1500 
 26 C       11.7570    10.0910     2.1520 C.ar  1 <1>  -0.1500 
 27 H        4.1960    -0.0430     2.1210 H     1 <1>   0.1500 
 28 H        1.0000     3.2150     1.0960 H     1 <1>   0.0800 
 29 H        1.7170     3.7350    -0.4040 H     1 <1>   0.0800 
 30 H        1.8540     4.7180     1.0390 H     1 <1>   0.0800 
 31 H        6.3830     1.1220     2.0670 H     1 <1>   0.1500 
 32 H        6.4920     3.4510     1.3310 H     1 <1>   0.1500 
 33 H        3.7270     5.2350    -2.7700 H     1 <1>   0.0800 
 34 H        4.3680     3.8400    -1.9650 H     1 <1>   0.0800 
 35 H        2.7510     6.9670     0.1660 H     1 <1>   0.0800 
 36 H        2.6080     6.8260    -1.5570 H     1 <1>   0.0800 
 37 H        5.9300     5.5130    -3.4180 H     1 <1>   0.0800 
 38 H        6.5170     4.5740    -2.0770 H     1 <1>   0.0800 
 39 H        4.7890     8.1660     0.0430 H     1 <1>   0.0800 
 40 H        3.7540     8.8610    -1.1410 H     1 <1>   0.0800 
 41 H        5.9710     6.4030    -0.6230 H     1 <1>   0.4500 
 42 H        5.9920     8.6730    -2.0300 H     1 <1>   0.0800 
 43 H        4.9260     7.6310    -2.9410 H     1 <1>   0.0800 
 44 H        7.9510     7.4080    -2.5620 H     1 <1>   0.0800 
 45 H        8.2370     5.9530    -1.6310 H     1 <1>   0.0800 
 46 H        7.9990     7.1600     0.4650 H     1 <1>   0.0800 
 47 H        7.6310     8.6590    -0.4080 H     1 <1>   0.0800 
 48 H       11.9710     8.5710    -0.8490 H     1 <1>   0.1500 
 49 H        8.6190     8.9500     1.7820 H     1 <1>   0.1500 
 50 H       13.3510     9.8300     0.7530 H     1 <1>   0.1500 
 51 H        9.9960    10.1940     3.3510 H     1 <1>   0.1500 
 52 H       12.3590    10.6410     2.8530 H     1 <1>   0.1500 
@<TRIPOS>BOND
  1   1   2  1   
  2   2   3  ar  
  3   2   4  ar  
  4   3   5  ar  
  5   3   6  1   
  6   4   7  ar  
  7   4  27  1   
  8   5   8  1   
  9   5   9  ar  
 10   6  28  1   
 11   6  29  1   
 12   6  30  1   
 13   7   9  ar  
 14   7  31  1   
 15   8  10  2   
 16   8  11  am  
 17   9  32  1   
 18  11  12  1   
 19  11  13  1   
 20  12  14  1   
 21  12  33  1   
 22  12  34  1   
 23  13  15  1   
 24  13  35  1   
 25  13  36  1   
 26  14  16  1   
 27  14  37  1   
 28  14  38  1   
 29  15  17  1   
 30  15  39  1   
 31  15  40  1   
 32  16  17  1   
 33  16  18  1   
 34  16  41  1   
 35  17  42  1   
 36  17  43  1   
 37  18  19  1   
 38  18  44  1   
 39  18  45  1   
 40  19  20  1   
 41  19  46  1   
 42  19  47  1   
 43  20  21  1   
 44  21  22  ar  
 45  21  23  ar  
 46  22  24  ar  
 47  22  48  1   
 48  23  25  ar  
 49  23  49  1   
 50  24  26  ar  
 51  24  50  1   
 52  25  26  ar  
 53  25  51  1   
 54  26  52  1   
@<TRIPOS>SUBSTRUCTURE
  1 ****  10 GROUP 4 **** **** 0

# MOE 2024.06 (io_trps.svl 2023.06)
