@<TRIPOS>MOLECULE
NONAME
45 46 1 0 0 
SMALL
USER_CHARGES


@<TRIPOS>ATOM
  1 S        0.4640     0.2190    -0.5660 S.o2  1 <1>   1.3330 
  2 O       -0.5650     0.0380    -1.5610 O.2   1 <1>  -0.6500 
  3 O        1.7940     0.6130    -0.9750 O.2   1 <1>  -0.6500 
  4 N        0.5560    -1.1570     0.4180 N.am  1 <1>  -0.8490 
  5 C       -0.0930     1.4970     0.5600 C.3   1 <1>  -0.0550 
  6 C        1.6320    -2.0680     0.0110 C.3   1 <1>   0.1160 
  7 C       -0.7090    -1.8970     0.5070 C.3   1 <1>   0.1160 
  8 C       -0.2940     2.8560    -0.1490 C.3   1 <1>  -0.0800 
  9 C       -0.7510     4.0050     0.7520 C.3   1 <1>   0.2000 
 10 C        0.9770     3.3860    -0.8350 C.3   1 <1>   0.3430 
 11 O       -0.0210     3.9870     1.9390 O.3   1 <1>  -0.6800 
 12 C       -0.3380     5.2410    -0.0520 C.3   1 <1>   0.3430 
 13 N        0.9550     4.8690    -0.6970 N.4   1 <1>  -0.9590 
 14 C        2.1110     5.3710     0.1090 C.3   1 <1>   0.4860 
 15 C        2.1980     6.8900    -0.0170 C.ar  1 <1>   0.1670 
 16 N        1.9800     7.3950    -1.2270 N.ar  1 <1>  -0.6200 
 17 C        2.4780     7.6540     1.1050 C.ar  1 <1>  -0.1500 
 18 C        2.0580     8.7160    -1.3160 C.ar  1 <1>   0.1600 
 19 C        2.5480     9.0260     0.9930 C.ar  1 <1>  -0.1500 
 20 C        2.3310     9.5680    -0.2560 C.ar  1 <1>  -0.1440 
 21 C        2.4000    11.0740    -0.4520 C.3   1 <1>  -0.0970 
 22 H       -1.0200     1.1920     1.0040 H     1 <1>   0.0800 
 23 H        0.6320     1.5950     1.3450 H     1 <1>   0.0800 
 24 H        1.6750    -2.9160     0.6730 H     1 <1>   0.0800 
 25 H        2.5830    -1.5620     0.0540 H     1 <1>   0.0800 
 26 H        1.4710    -2.4140    -0.9970 H     1 <1>   0.0800 
 27 H       -0.6140    -2.7080     1.2090 H     1 <1>   0.0800 
 28 H       -0.9790    -2.2990    -0.4560 H     1 <1>   0.0800 
 29 H       -1.4990    -1.2480     0.8440 H     1 <1>   0.0800 
 30 H       -1.0350     2.7230    -0.9190 H     1 <1>   0.0800 
 31 H       -1.8040     3.9950     0.9830 H     1 <1>   0.0800 
 32 H        0.9980     3.0910    -1.8730 H     1 <1>   0.0800 
 33 H        1.8520     2.9830    -0.3490 H     1 <1>   0.0800 
 34 H       -0.4710     3.4510     2.6260 H     1 <1>   0.4000 
 35 H       -0.2500     6.1130     0.5750 H     1 <1>   0.0800 
 36 H       -1.0750     5.4290    -0.8150 H     1 <1>   0.0800 
 37 H        1.0480     5.3720    -1.5970 H     1 <1>   0.4500 
 38 H        2.0010     5.0880     1.1420 H     1 <1>   0.0800 
 39 H        3.0270     4.9490    -0.2700 H     1 <1>   0.0800 
 40 H        2.6420     7.1930     2.0640 H     1 <1>   0.1500 
 41 H        1.8950     9.1450    -2.2910 H     1 <1>   0.1500 
 42 H        2.7650     9.6470     1.8450 H     1 <1>   0.1500 
 43 H        1.8650    11.5760     0.3340 H     1 <1>   0.0800 
 44 H        1.9660    11.3600    -1.3930 H     1 <1>   0.0800 
 45 H        3.4250    11.3980    -0.4340 H     1 <1>   0.0800 
@<TRIPOS>BOND
  1   1   2  2   
  2   1   3  2   
  3   1   4  am  
  4   1   5  1   
  5   4   6  1   
  6   4   7  1   
  7   5   8  1   
  8   5  22  1   
  9   5  23  1   
 10   6  24  1   
 11   6  25  1   
 12   6  26  1   
 13   7  27  1   
 14   7  28  1   
 15   7  29  1   
 16   8   9  1   
 17   8  10  1   
 18   8  30  1   
 19   9  11  1   
 20   9  12  1   
 21   9  31  1   
 22  10  13  1   
 23  10  32  1   
 24  10  33  1   
 25  11  34  1   
 26  12  13  1   
 27  12  35  1   
 28  12  36  1   
 29  13  14  1   
 30  13  37  1   
 31  14  15  1   
 32  14  38  1   
 33  14  39  1   
 34  15  16  ar  
 35  15  17  ar  
 36  16  18  ar  
 37  17  19  ar  
 38  17  40  1   
 39  18  20  ar  
 40  18  41  1   
 41  19  20  ar  
 42  19  42  1   
 43  20  21  1   
 44  21  43  1   
 45  21  44  1   
 46  21  45  1   
@<TRIPOS>SUBSTRUCTURE
  1 ****  13 GROUP 4 **** **** 0

# MOE 2024.06 (io_trps.svl 2023.06)
