@<TRIPOS>MOLECULE
NONAME
34 35 1 0 0 
SMALL
USER_CHARGES


@<TRIPOS>ATOM
  1 CL       0.5210     3.1590    -2.0570 Cl    1 <1>  -0.1770 
  2 C       -1.0730     3.0350    -1.3490 C.ar  1 <1>   0.1770 
  3 C       -1.2220     2.8570     0.0240 C.ar  1 <1>  -0.1440 
  4 C       -2.1630     3.1330    -2.1920 C.ar  1 <1>  -0.1500 
  5 C       -2.5050     2.7870     0.5560 C.ar  1 <1>  -0.1500 
  6 C       -0.0210     2.7440     0.9630 C.3   1 <1>   0.0450 
  7 C       -3.4200     3.0550    -1.6290 C.ar  1 <1>   0.1900 
  8 C       -3.6130     2.8850    -0.2700 C.ar  1 <1>  -0.1500 
  9 C        0.4450     4.1020     1.4570 C.2   1 <1>   0.5690 
 10 F       -4.4640     3.1470    -2.4060 F     1 <1>  -0.1900 
 11 O        0.4140     4.3190     2.6410 O.2   1 <1>  -0.5700 
 12 N        0.8770     5.0060     0.5290 N.am  1 <1>  -0.4940 
 13 C        1.3290     6.2960     0.7020 C.2   1 <1>   0.4420 
 14 S        1.7450     7.1630    -0.7380 S.3   1 <1>  -0.0800 
 15 N        1.5040     6.9990     1.7610 N.2   1 <1>  -0.3380 
 16 C        2.1490     8.5090     0.2760 C.2   1 <1>   0.1980 
 17 N        1.9710     8.2600     1.5110 N.2   1 <1>  -0.3380 
 18 C        2.6420     9.8020    -0.3700 C.3   1 <1>   0.3800 
 19 O        1.7270    10.2710    -1.3180 O.3   1 <1>  -0.5600 
 20 C        3.9760     9.6180    -1.0920 C.3   1 <1>  -0.2400 
 21 C        0.5330    10.7630    -0.7890 C.3   1 <1>   0.0400 
 22 H       -2.0410     3.2680    -3.2510 H     1 <1>   0.1500 
 23 H       -2.6480     2.6590     1.6170 H     1 <1>   0.1500 
 24 H        0.7980     2.2440     0.4810 H     1 <1>   0.0800 
 25 H       -0.2900     2.1460     1.8160 H     1 <1>   0.0800 
 26 H       -4.6110     2.8320     0.1290 H     1 <1>   0.1500 
 27 H        0.8400     4.6960    -0.4400 H     1 <1>   0.3700 
 28 H        2.7570    10.5570     0.3900 H     1 <1>   0.0800 
 29 H        3.8740     8.9130    -1.8970 H     1 <1>   0.0800 
 30 H        4.7150     9.2520    -0.4030 H     1 <1>   0.0800 
 31 H        4.3100    10.5600    -1.4860 H     1 <1>   0.0800 
 32 H       -0.0710    11.1190    -1.6050 H     1 <1>   0.0800 
 33 H        0.7460    11.5760    -0.1170 H     1 <1>   0.0800 
 34 H        0.0100     9.9740    -0.2750 H     1 <1>   0.0800 
@<TRIPOS>BOND
  1   1   2  1   
  2   2   3  ar  
  3   2   4  ar  
  4   3   5  ar  
  5   3   6  1   
  6   4   7  ar  
  7   4  22  1   
  8   5   8  ar  
  9   5  23  1   
 10   6   9  1   
 11   6  24  1   
 12   6  25  1   
 13   7   8  ar  
 14   7  10  1   
 15   8  26  1   
 16   9  11  2   
 17   9  12  am  
 18  12  13  1   
 19  12  27  1   
 20  13  14  1   
 21  13  15  2   
 22  14  16  1   
 23  15  17  1   
 24  16  17  2   
 25  16  18  1   
 26  18  19  1   
 27  18  20  1   
 28  18  28  1   
 29  19  21  1   
 30  20  29  1   
 31  20  30  1   
 32  20  31  1   
 33  21  32  1   
 34  21  33  1   
 35  21  34  1   
@<TRIPOS>SUBSTRUCTURE
  1 ****  12 GROUP 4 **** **** 0

# MOE 2024.06 (io_trps.svl 2023.06)
