@<TRIPOS>MOLECULE
NONAME
47 50 1 0 0 
SMALL
USER_CHARGES


@<TRIPOS>ATOM
  1 O       -1.8840     2.4910     1.1060 O.2   1 <1>  -0.5700 
  2 C       -1.1100     2.5810     0.1600 C.2   1 <1>   0.5650 
  3 N        0.2070     3.0890     0.3320 N.pl3 1 <1>   0.5610 
  4 C       -1.4900     2.2000    -1.1680 C.2   1 <1>   0.0290 
  5 N        0.8350     3.5530     1.4650 N.2   1 <1>  -0.7070 
  6 C        1.0640     3.2050    -0.7350 C.2   1 <1>  -0.0680 
  7 C       -2.7990     1.6710    -1.3860 C.2   1 <1>   0.6160 
  8 C       -0.5940     2.3130    -2.2030 C.2   1 <1>  -0.0500 
  9 C        2.0150     3.9190     1.0840 C.2   1 <1>   0.1080 
 10 N        0.6610     2.8100    -2.0170 N.pl3 1 <1>  -0.5840 
 11 C        2.2220     3.7280    -0.2770 C.2   1 <1>  -0.1500 
 12 O       -2.8940     0.5200    -1.7770 O.2   1 <1>  -0.5700 
 13 N       -3.9580     2.4110    -1.2340 N.am  1 <1>  -0.6600 
 14 C        3.0300     4.4880     2.0480 C.3   1 <1>  -0.0590 
 15 C       -3.9810     3.8720    -0.9160 C.3   1 <1>   0.1400 
 16 C       -5.2760     1.7030    -1.2080 C.3   1 <1>   0.1400 
 17 C       -4.9530     4.1060     0.2360 C.3   1 <1>  -0.1600 
 18 C       -6.4460     2.6860    -1.2780 C.3   1 <1>  -0.1600 
 19 C       -6.3950     3.7540    -0.1720 C.3   1 <1>   0.4180 
 20 O       -6.9940     4.8920    -0.7420 O.3   1 <1>  -0.5600 
 21 C       -7.1930     3.2750     1.0400 C.2   1 <1>  -0.2880 
 22 C       -7.5470     5.8450     0.1250 C.3   1 <1>   0.1200 
 23 C       -8.2440     3.9190     1.5530 C.2   1 <1>  -0.2760 
 24 C       -8.6900     5.2350     0.9460 C.3   1 <1>  -0.0220 
 25 C       -9.0670     3.4270     2.7300 C.3   1 <1>  -0.1020 
 26 H       -0.8710     2.0010    -3.1990 H     1 <1>   0.1500 
 27 H        1.3350     2.8830    -2.7940 H     1 <1>   0.4000 
 28 H        3.1180     3.9570    -0.8230 H     1 <1>   0.1500 
 29 H        3.2280     3.7720     2.8240 H     1 <1>   0.0800 
 30 H        2.6360     5.3830     2.4960 H     1 <1>   0.0800 
 31 H        3.9470     4.7210     1.5400 H     1 <1>   0.0800 
 32 H       -4.3040     4.4230    -1.7840 H     1 <1>   0.0800 
 33 H       -3.0070     4.2300    -0.6380 H     1 <1>   0.0800 
 34 H       -5.3390     1.1270    -0.3010 H     1 <1>   0.0800 
 35 H       -5.3330     1.0210    -2.0400 H     1 <1>   0.0800 
 36 H       -4.8880     5.1230     0.5700 H     1 <1>   0.0800 
 37 H       -4.6430     3.4840     1.0570 H     1 <1>   0.0800 
 38 H       -7.3720     2.1450    -1.2140 H     1 <1>   0.0800 
 39 H       -6.4160     3.1610    -2.2430 H     1 <1>   0.0800 
 40 H       -6.8230     2.3470     1.4370 H     1 <1>   0.1500 
 41 H       -7.9100     6.6620    -0.4720 H     1 <1>   0.0800 
 42 H       -6.7740     6.2090     0.7770 H     1 <1>   0.0800 
 43 H       -9.5480     5.0770     0.3170 H     1 <1>   0.0800 
 44 H       -8.9630     5.9300     1.7200 H     1 <1>   0.0800 
 45 H       -9.0250     4.1370     3.5360 H     1 <1>   0.0800 
 46 H       -8.6880     2.4850     3.0860 H     1 <1>   0.0800 
 47 H      -10.0910     3.2930     2.4330 H     1 <1>   0.0800 
@<TRIPOS>BOND
  1   1   2  2   
  2   2   3  1   
  3   2   4  1   
  4   3   5  1   
  5   3   6  1   
  6   4   7  1   
  7   4   8  2   
  8   5   9  2   
  9   6  10  1   
 10   6  11  2   
 11   7  12  2   
 12   7  13  am  
 13   8  10  1   
 14   8  26  1   
 15   9  11  1   
 16   9  14  1   
 17  10  27  1   
 18  11  28  1   
 19  13  15  1   
 20  13  16  1   
 21  14  29  1   
 22  14  30  1   
 23  14  31  1   
 24  15  17  1   
 25  15  32  1   
 26  15  33  1   
 27  16  18  1   
 28  16  34  1   
 29  16  35  1   
 30  17  19  1   
 31  17  36  1   
 32  17  37  1   
 33  18  19  1   
 34  18  38  1   
 35  18  39  1   
 36  19  20  1   
 37  19  21  1   
 38  20  22  1   
 39  21  23  2   
 40  21  40  1   
 41  22  24  1   
 42  22  41  1   
 43  22  42  1   
 44  23  24  1   
 45  23  25  1   
 46  24  43  1   
 47  24  44  1   
 48  25  45  1   
 49  25  46  1   
 50  25  47  1   
@<TRIPOS>SUBSTRUCTURE
  1 ****  15 GROUP 4 **** **** 0

# MOE 2024.06 (io_trps.svl 2023.06)
