@<TRIPOS>MOLECULE
NONAME
44 45 1 0 0 
SMALL
USER_CHARGES


@<TRIPOS>ATOM
  1 O       -1.1110    -1.0820     1.5460 O.3   1 <1>  -0.3630 
  2 C       -2.0010    -1.1950     0.5310 C.ar  1 <1>   0.0820 
  3 C       -0.8080     0.1690     2.1260 C.3   1 <1>   0.0400 
  4 C       -2.7460    -0.1340     0.0270 C.ar  1 <1>  -0.1500 
  5 C       -2.1510    -2.4610    -0.0100 C.ar  1 <1>  -0.1500 
  6 C       -3.6370    -0.3530    -1.0190 C.ar  1 <1>   0.0820 
  7 C       -3.0430    -2.6870    -1.0470 C.ar  1 <1>  -0.1430 
  8 O       -4.4050     0.6140    -1.5750 O.3   1 <1>  -0.3630 
  9 C       -3.7770    -1.6250    -1.5500 C.ar  1 <1>  -0.1500 
 10 C       -3.2190    -4.0790    -1.6190 C.3   1 <1>   0.4860 
 11 C       -4.2960     1.9640    -1.1780 C.3   1 <1>   0.0400 
 12 N       -4.0050    -4.8880    -0.6490 N.4   1 <1>  -0.9590 
 13 C       -4.0020    -6.3390    -1.0330 C.3   1 <1>   0.3430 
 14 C       -5.3900    -4.3540    -0.4900 C.3   1 <1>   0.3430 
 15 C       -4.7920    -7.2130    -0.0410 C.3   1 <1>   0.2000 
 16 C       -6.1480    -5.1740     0.5530 C.3   1 <1>  -0.1600 
 17 O       -4.8580    -8.4860    -0.5790 O.3   1 <1>  -0.6800 
 18 C       -6.2160    -6.6730     0.1840 C.3   1 <1>  -0.0800 
 19 C       -6.9690    -7.4890     1.2490 C.3   1 <1>   0.1200 
 20 O       -8.2310    -6.9490     1.4140 O.3   1 <1>  -0.6800 
 21 H       -0.0580     0.0150     2.8810 H     1 <1>   0.0800 
 22 H       -1.6980     0.5730     2.5750 H     1 <1>   0.0800 
 23 H       -0.4270     0.8260     1.3640 H     1 <1>   0.0800 
 24 H       -2.6350     0.8460     0.4420 H     1 <1>   0.1500 
 25 H       -1.5500    -3.2550     0.3990 H     1 <1>   0.1500 
 26 H       -4.4710    -1.7560    -2.3620 H     1 <1>   0.1500 
 27 H       -2.2490    -4.5220    -1.7750 H     1 <1>   0.0800 
 28 H       -3.7290    -4.0280    -2.5670 H     1 <1>   0.0800 
 29 H       -4.9750     2.5440    -1.7770 H     1 <1>   0.0800 
 30 H       -3.2870     2.2980    -1.3450 H     1 <1>   0.0800 
 31 H       -4.5640     2.0470    -0.1400 H     1 <1>   0.0800 
 32 H       -3.5370    -4.7760     0.2600 H     1 <1>   0.4500 
 33 H       -4.4530    -6.4490    -2.0060 H     1 <1>   0.0800 
 34 H       -2.9900    -6.7040    -1.0840 H     1 <1>   0.0800 
 35 H       -5.3570    -3.3220    -0.1760 H     1 <1>   0.0800 
 36 H       -5.9130    -4.4030    -1.4320 H     1 <1>   0.0800 
 37 H       -4.2550    -7.2780     0.8910 H     1 <1>   0.0800 
 38 H       -5.6900    -5.0430     1.5180 H     1 <1>   0.0800 
 39 H       -7.1460    -4.7750     0.6200 H     1 <1>   0.0800 
 40 H       -5.2840    -9.1220     0.0310 H     1 <1>   0.4000 
 41 H       -6.7560    -6.7640    -0.7440 H     1 <1>   0.0800 
 42 H       -6.4630    -7.4540     2.2000 H     1 <1>   0.0800 
 43 H       -7.0880    -8.5140     0.9400 H     1 <1>   0.0800 
 44 H       -8.7650    -7.4760     2.0450 H     1 <1>   0.4000 
@<TRIPOS>BOND
  1   1   2  1   
  2   1   3  1   
  3   2   4  ar  
  4   2   5  ar  
  5   3  21  1   
  6   3  22  1   
  7   3  23  1   
  8   4   6  ar  
  9   4  24  1   
 10   5   7  ar  
 11   5  25  1   
 12   6   8  1   
 13   6   9  ar  
 14   7   9  ar  
 15   7  10  1   
 16   8  11  1   
 17   9  26  1   
 18  10  12  1   
 19  10  27  1   
 20  10  28  1   
 21  11  29  1   
 22  11  30  1   
 23  11  31  1   
 24  12  13  1   
 25  12  14  1   
 26  12  32  1   
 27  13  15  1   
 28  13  33  1   
 29  13  34  1   
 30  14  16  1   
 31  14  35  1   
 32  14  36  1   
 33  15  17  1   
 34  15  18  1   
 35  15  37  1   
 36  16  18  1   
 37  16  38  1   
 38  16  39  1   
 39  17  40  1   
 40  18  19  1   
 41  18  41  1   
 42  19  20  1   
 43  19  42  1   
 44  19  43  1   
 45  20  44  1   
@<TRIPOS>SUBSTRUCTURE
  1 ****  12 GROUP 4 **** **** 0

# MOE 2024.06 (io_trps.svl 2023.06)
