@<TRIPOS>MOLECULE
NONAME
47 50 1 0 0 
SMALL
USER_CHARGES


@<TRIPOS>ATOM
  1 O        1.4340    -1.4300    -1.4070 O.2   1 <1>  -0.5700 
  2 C        1.2550    -2.0590    -0.3900 C.2   1 <1>   0.6900 
  3 N        0.0510    -2.5310     0.0420 N.am  1 <1>  -0.4200 
  4 N        2.2400    -2.3920     0.4680 N.am  1 <1>  -0.7300 
  5 C        0.2200    -3.2280     1.2010 C.2   1 <1>   0.5690 
  6 C       -1.2310    -2.3680    -0.7010 C.3   1 <1>   0.2010 
  7 C        1.6930    -3.2000     1.5850 C.3   1 <1>   0.2010 
  8 O       -0.6480    -3.8020     1.8140 O.2   1 <1>  -0.5700 
  9 C       -1.7070    -3.6630    -1.3540 C.2   1 <1>   0.5690 
 10 O       -1.9830    -3.6660    -2.5290 O.2   1 <1>  -0.5700 
 11 N       -1.8180    -4.7860    -0.5990 N.am  1 <1>  -0.7300 
 12 C       -2.1350    -6.1380    -1.1060 C.3   1 <1>   0.2200 
 13 C       -3.1710    -6.7800    -0.2010 C.3   1 <1>  -0.0800 
 14 C       -0.9270    -7.0540    -0.9150 C.3   1 <1>   0.1200 
 15 C       -2.2910    -7.3270     0.9250 C.3   1 <1>   0.1200 
 16 C       -3.9380    -7.8990    -0.9350 C.3   1 <1>  -0.0170 
 17 O       -1.0640    -7.6540     0.3420 O.3   1 <1>  -0.5600 
 18 C       -5.0110    -8.5300    -0.0530 C.ar  1 <1>  -0.1440 
 19 C       -6.2540    -7.9030     0.2020 C.ar  1 <1>   0.0000 
 20 C       -4.7920    -9.7490     0.5190 C.ar  1 <1>  -0.1500 
 21 C       -7.1730    -8.5810     1.0410 C.ar  1 <1>   0.3100 
 22 C       -6.6410    -6.6490    -0.3260 C.ar  1 <1>  -0.1500 
 23 C       -5.7700   -10.3340     1.3320 C.ar  1 <1>   0.1600 
 24 N       -6.9160    -9.7920     1.5970 N.ar  1 <1>  -0.6200 
 25 C       -8.4120    -7.9810     1.3160 C.ar  1 <1>  -0.1500 
 26 C       -7.8580    -6.0930    -0.0380 C.ar  1 <1>  -0.1500 
 27 C       -8.7560    -6.7640     0.7940 C.ar  1 <1>  -0.1500 
 28 H        3.2290    -2.2250     0.2760 H     1 <1>   0.3700 
 29 H       -1.9890    -2.0280    -0.0210 H     1 <1>   0.0800 
 30 H       -1.1080    -1.6220    -1.4660 H     1 <1>   0.0800 
 31 H        2.1080    -4.1920     1.5890 H     1 <1>   0.0800 
 32 H        1.8370    -2.7080     2.5300 H     1 <1>   0.0800 
 33 H       -1.5440    -4.7470     0.3940 H     1 <1>   0.3700 
 34 H       -2.4440    -6.0880    -2.1370 H     1 <1>   0.0800 
 35 H       -3.8690    -6.0540     0.1760 H     1 <1>   0.0800 
 36 H        0.0050    -6.5190    -0.9600 H     1 <1>   0.0800 
 37 H       -0.9290    -7.8400    -1.6490 H     1 <1>   0.0800 
 38 H       -2.7000    -8.1980     1.4050 H     1 <1>   0.0800 
 39 H       -2.1050    -6.5670     1.6650 H     1 <1>   0.0800 
 40 H       -3.2480    -8.6610    -1.2530 H     1 <1>   0.0800 
 41 H       -4.3980    -7.5080    -1.8260 H     1 <1>   0.0800 
 42 H       -3.8730   -10.2860     0.3670 H     1 <1>   0.1500 
 43 H       -5.9690    -6.1160    -0.9710 H     1 <1>   0.1500 
 44 H       -5.5540   -11.2960     1.7660 H     1 <1>   0.1500 
 45 H       -9.0870    -8.5170     1.9580 H     1 <1>   0.1500 
 46 H       -8.1390    -5.1370    -0.4470 H     1 <1>   0.1500 
 47 H       -9.7110    -6.3170     1.0130 H     1 <1>   0.1500 
@<TRIPOS>BOND
  1   1   2  2   
  2   2   3  am  
  3   2   4  am  
  4   3   5  am  
  5   3   6  1   
  6   4   7  1   
  7   4  28  1   
  8   5   7  1   
  9   5   8  2   
 10   6   9  1   
 11   6  29  1   
 12   6  30  1   
 13   7  31  1   
 14   7  32  1   
 15   9  10  2   
 16   9  11  am  
 17  11  12  1   
 18  11  33  1   
 19  12  13  1   
 20  12  14  1   
 21  12  34  1   
 22  13  15  1   
 23  13  16  1   
 24  13  35  1   
 25  14  17  1   
 26  14  36  1   
 27  14  37  1   
 28  15  17  1   
 29  15  38  1   
 30  15  39  1   
 31  16  18  1   
 32  16  40  1   
 33  16  41  1   
 34  18  19  ar  
 35  18  20  ar  
 36  19  21  ar  
 37  19  22  ar  
 38  20  23  ar  
 39  20  42  1   
 40  21  24  ar  
 41  21  25  ar  
 42  22  26  ar  
 43  22  43  1   
 44  23  24  ar  
 45  23  44  1   
 46  25  27  ar  
 47  25  45  1   
 48  26  27  ar  
 49  26  46  1   
 50  27  47  1   
@<TRIPOS>SUBSTRUCTURE
  1 ****  13 GROUP 4 **** **** 0

# MOE 2024.06 (io_trps.svl 2023.06)
