@<TRIPOS>MOLECULE
NONAME
53 55 1 0 0 
SMALL
USER_CHARGES


@<TRIPOS>ATOM
  1 CL       1.6230     0.4810    -1.7740 Cl    1 <1>  -0.1770 
  2 C        0.6950     1.6270    -0.8320 C.ar  1 <1>   0.1770 
  3 C        1.2810     2.3870     0.1770 C.ar  1 <1>  -0.1440 
  4 C       -0.6490     1.7450    -1.1380 C.ar  1 <1>  -0.1500 
  5 C        0.4730     3.2770     0.8760 C.ar  1 <1>  -0.1500 
  6 C        2.7580     2.2920     0.5460 C.3   1 <1>   0.3640 
  7 C       -1.4370     2.6360    -0.4330 C.ar  1 <1>  -0.1500 
  8 C       -0.8730     3.4000     0.5730 C.ar  1 <1>  -0.1500 
  9 N        3.0750     0.9160     0.9960 N.am  1 <1>  -0.7300 
 10 C        3.6940     2.7890    -0.5900 C.3   1 <1>   0.2610 
 11 C        4.1230     0.2000     0.5310 C.2   1 <1>   0.5690 
 12 O        5.0020     2.2270    -0.5080 O.3   1 <1>  -0.5600 
 13 C        3.7420     4.3220    -0.5800 C.2   1 <1>   0.5690 
 14 O        4.3620    -0.8970     0.9640 O.2   1 <1>  -0.5700 
 15 C        5.0100     0.8140    -0.5540 C.3   1 <1>   0.1810 
 16 O        3.1480     4.8930    -1.4630 O.2   1 <1>  -0.5700 
 17 N        4.4500     5.0520     0.3580 N.am  1 <1>  -0.6600 
 18 C        5.4380     4.4810     1.3210 C.3   1 <1>   0.1400 
 19 C        4.6700     6.5140     0.1460 C.3   1 <1>   0.1400 
 20 C        6.8570     4.6580     0.7450 C.3   1 <1>   0.3430 
 21 C        6.0810     6.7330    -0.4350 C.3   1 <1>   0.3430 
 22 N        7.1640     6.1030     0.4190 N.4   1 <1>  -0.9590 
 23 C        8.5040     6.2080    -0.2240 C.3   1 <1>   0.3430 
 24 C        8.9920     7.6570    -0.2150 C.3   1 <1>  -0.1600 
 25 C       10.4180     7.7510    -0.7730 C.3   1 <1>  -0.1600 
 26 C       10.9160     9.1990    -0.7640 C.3   1 <1>  -0.2400 
 27 H       -1.0710     1.1440    -1.9240 H     1 <1>   0.1500 
 28 H        0.8790     3.8880     1.6640 H     1 <1>   0.1500 
 29 H        2.9220     2.9320     1.3950 H     1 <1>   0.0800 
 30 H       -2.4830     2.7350    -0.6660 H     1 <1>   0.1500 
 31 H       -1.4870     4.0950     1.1220 H     1 <1>   0.1500 
 32 H        2.4340     0.4660     1.6520 H     1 <1>   0.3700 
 33 H        3.2900     2.4950    -1.5410 H     1 <1>   0.0800 
 34 H        4.6670     0.4970    -1.5230 H     1 <1>   0.0800 
 35 H        6.0230     0.4810    -0.4180 H     1 <1>   0.0800 
 36 H        5.3610     4.9970     2.2630 H     1 <1>   0.0800 
 37 H        5.2480     3.4420     1.5170 H     1 <1>   0.0800 
 38 H        3.9380     6.9200    -0.5310 H     1 <1>   0.0800 
 39 H        4.5670     7.0370     1.0810 H     1 <1>   0.0800 
 40 H        6.9300     4.0590    -0.1490 H     1 <1>   0.0800 
 41 H        7.5760     4.2810     1.4530 H     1 <1>   0.0800 
 42 H        6.2570     7.7910    -0.5340 H     1 <1>   0.0800 
 43 H        6.1040     6.3030    -1.4230 H     1 <1>   0.0800 
 44 H        7.2030     6.6210     1.3060 H     1 <1>   0.4500 
 45 H        9.2130     5.6040     0.3200 H     1 <1>   0.0800 
 46 H        8.4600     5.8400    -1.2370 H     1 <1>   0.0800 
 47 H        8.3500     8.2720    -0.8210 H     1 <1>   0.0800 
 48 H        8.9910     8.0360     0.7920 H     1 <1>   0.0800 
 49 H       11.0880     7.1500    -0.1800 H     1 <1>   0.0800 
 50 H       10.4450     7.3800    -1.7840 H     1 <1>   0.0800 
 51 H       10.9310     9.5920     0.2380 H     1 <1>   0.0800 
 52 H       10.2860     9.8230    -1.3730 H     1 <1>   0.0800 
 53 H       11.9170     9.2450    -1.1580 H     1 <1>   0.0800 
@<TRIPOS>BOND
  1   1   2  1   
  2   2   3  ar  
  3   2   4  ar  
  4   3   5  ar  
  5   3   6  1   
  6   4   7  ar  
  7   4  27  1   
  8   5   8  ar  
  9   5  28  1   
 10   6   9  1   
 11   6  10  1   
 12   6  29  1   
 13   7   8  ar  
 14   7  30  1   
 15   8  31  1   
 16   9  11  am  
 17   9  32  1   
 18  10  12  1   
 19  10  13  1   
 20  10  33  1   
 21  11  14  2   
 22  11  15  1   
 23  12  15  1   
 24  13  16  2   
 25  13  17  am  
 26  15  34  1   
 27  15  35  1   
 28  17  18  1   
 29  17  19  1   
 30  18  20  1   
 31  18  36  1   
 32  18  37  1   
 33  19  21  1   
 34  19  38  1   
 35  19  39  1   
 36  20  22  1   
 37  20  40  1   
 38  20  41  1   
 39  21  22  1   
 40  21  42  1   
 41  21  43  1   
 42  22  23  1   
 43  22  44  1   
 44  23  24  1   
 45  23  45  1   
 46  23  46  1   
 47  24  25  1   
 48  24  47  1   
 49  24  48  1   
 50  25  26  1   
 51  25  49  1   
 52  25  50  1   
 53  26  51  1   
 54  26  52  1   
 55  26  53  1   
@<TRIPOS>SUBSTRUCTURE
  1 ****  13 GROUP 4 **** **** 0

# MOE 2024.06 (io_trps.svl 2023.06)
