@<TRIPOS>MOLECULE
NONAME
48 51 1 0 0 
SMALL
USER_CHARGES


@<TRIPOS>ATOM
  1 O        0.4210    -0.1520    -1.1960 O.2   1 <1>  -0.5700 
  2 C        1.1590    -0.7350    -0.4260 C.2   1 <1>   0.7160 
  3 N        2.0950    -0.0430     0.3030 N.am  1 <1>  -0.4940 
  4 C        1.0790    -2.1650    -0.2580 C.2   1 <1>  -0.0860 
  5 C        2.3470     1.3500     0.3450 C.2   1 <1>  -0.0880 
  6 C        0.0200    -3.0210    -0.1730 C.2   1 <1>  -0.3320 
  7 C        2.1830    -3.0100    -0.1450 C.2   1 <1>   0.1390 
  8 N        3.5800     1.9230     0.2490 N.pl3 1 <1>   0.3140 
  9 C        1.4650     2.3680     0.4980 C.2   1 <1>  -0.1810 
 10 N        0.4950    -4.2890     0.0010 N.pl3 1 <1>   0.5930 
 11 C       -1.4610    -2.6660    -0.2570 C.3   1 <1>  -0.0600 
 12 N        1.8620    -4.2490     0.0090 N.2   1 <1>  -0.7070 
 13 N        3.5030     3.2730     0.3520 N.2   1 <1>  -0.7070 
 14 C        4.8700     1.2100     0.0170 C.3   1 <1>   0.1760 
 15 C        2.2390     3.5220     0.4910 C.2   1 <1>   0.1390 
 16 C       -0.0440     2.3210     0.6510 C.3   1 <1>  -0.0590 
 17 C       -0.2350    -5.5250     0.1220 C.ar  1 <1>   0.2870 
 18 C        5.8700     1.3870     1.1600 C.3   1 <1>  -0.1600 
 19 C        5.6290     1.7070    -1.2130 C.3   1 <1>  -0.1600 
 20 N       -1.3770    -5.5480     0.8230 N.ar  1 <1>  -0.6200 
 21 C        0.2780    -6.6670    -0.4940 C.ar  1 <1>  -0.1500 
 22 C        7.2440     1.1180     0.5370 C.3   1 <1>  -0.1600 
 23 C        7.0740     1.2600    -0.9810 C.3   1 <1>  -0.1600 
 24 C       -1.9990    -6.7130     0.9030 C.ar  1 <1>   0.1600 
 25 C       -0.3830    -7.8720    -0.4040 C.ar  1 <1>  -0.1500 
 26 C       -1.5550    -7.8840     0.3190 C.ar  1 <1>  -0.1500 
 27 H        2.5950    -0.6070     0.9880 H     1 <1>   0.3700 
 28 H        3.2060    -2.6750    -0.1890 H     1 <1>   0.1500 
 29 H       -1.5980    -1.6270    -0.4970 H     1 <1>   0.0800 
 30 H       -1.9440    -2.8620     0.6840 H     1 <1>   0.0800 
 31 H       -1.9410    -3.2540    -1.0200 H     1 <1>   0.0800 
 32 H        4.6730     0.1620    -0.1100 H     1 <1>   0.0800 
 33 H        1.8430     4.5190     0.5920 H     1 <1>   0.1500 
 34 H       -0.3540     1.3620     1.0230 H     1 <1>   0.0800 
 35 H       -0.5080     2.4840    -0.3050 H     1 <1>   0.0800 
 36 H       -0.3730     3.0790     1.3370 H     1 <1>   0.0800 
 37 H        5.6650     0.7220     1.9800 H     1 <1>   0.0800 
 38 H        5.8390     2.4060     1.5090 H     1 <1>   0.0800 
 39 H        5.5980     2.7830    -1.2500 H     1 <1>   0.0800 
 40 H        5.2240     1.3040    -2.1250 H     1 <1>   0.0800 
 41 H        1.2010    -6.6040    -1.0430 H     1 <1>   0.1500 
 42 H        7.5750     0.1220     0.7750 H     1 <1>   0.0800 
 43 H        7.9700     1.8210     0.9120 H     1 <1>   0.0800 
 44 H        7.7680     1.9750    -1.3910 H     1 <1>   0.0800 
 45 H        7.2410     0.3070    -1.4530 H     1 <1>   0.0800 
 46 H       -2.9160    -6.7350     1.4680 H     1 <1>   0.1500 
 47 H        0.0000    -8.7620    -0.8740 H     1 <1>   0.1500 
 48 H       -2.1200    -8.7930     0.4300 H     1 <1>   0.1500 
@<TRIPOS>BOND
  1   1   2  2   
  2   2   3  am  
  3   2   4  1   
  4   3   5  1   
  5   3  27  1   
  6   4   6  2   
  7   4   7  1   
  8   5   8  1   
  9   5   9  2   
 10   6  10  1   
 11   6  11  1   
 12   7  12  2   
 13   7  28  1   
 14   8  13  1   
 15   8  14  1   
 16   9  15  1   
 17   9  16  1   
 18  10  12  1   
 19  10  17  1   
 20  11  29  1   
 21  11  30  1   
 22  11  31  1   
 23  13  15  2   
 24  14  18  1   
 25  14  19  1   
 26  14  32  1   
 27  15  33  1   
 28  16  34  1   
 29  16  35  1   
 30  16  36  1   
 31  17  20  ar  
 32  17  21  ar  
 33  18  22  1   
 34  18  37  1   
 35  18  38  1   
 36  19  23  1   
 37  19  39  1   
 38  19  40  1   
 39  20  24  ar  
 40  21  25  ar  
 41  21  41  1   
 42  22  23  1   
 43  22  42  1   
 44  22  43  1   
 45  23  44  1   
 46  23  45  1   
 47  24  26  ar  
 48  24  46  1   
 49  25  26  ar  
 50  25  47  1   
 51  26  48  1   
@<TRIPOS>SUBSTRUCTURE
  1 ****   4 GROUP 4 **** **** 0

# MOE 2024.06 (io_trps.svl 2023.06)
