@<TRIPOS>MOLECULE
NONAME
49 52 1 0 0 
SMALL
USER_CHARGES


@<TRIPOS>ATOM
  1 F       -2.2140     3.3510    -1.5530 F     1 <1>  -0.1900 
  2 C       -2.1930     3.6110    -0.2740 C.ar  1 <1>   0.1900 
  3 C       -2.6650     2.6600     0.6260 C.ar  1 <1>   0.0860 
  4 C       -1.7060     4.8450     0.1190 C.ar  1 <1>  -0.1500 
  5 C       -3.1710     1.3800     0.1920 C.2   1 <1>   0.5440 
  6 C       -2.6300     3.0060     1.9770 C.ar  1 <1>  -0.1500 
  7 C       -1.6870     5.1590     1.4660 C.ar  1 <1>  -0.1500 
  8 O       -2.3820     0.5070    -0.1160 O.2   1 <1>  -0.5700 
  9 N       -4.5260     1.1150     0.1460 N.am  1 <1>  -0.6600 
 10 C       -2.1500     4.2370     2.3930 C.ar  1 <1>  -0.1500 
 11 C       -5.5930     2.1190     0.4550 C.3   1 <1>   0.1400 
 12 C       -5.0610    -0.2070    -0.2840 C.3   1 <1>   0.1400 
 13 C       -6.4820     2.3670    -0.7790 C.3   1 <1>   0.1440 
 14 C       -5.9430    -0.0280    -1.5250 C.3   1 <1>  -0.1600 
 15 C       -7.6270     3.3010    -0.4340 C.ar  1 <1>   0.1670 
 16 C       -7.0440     1.0270    -1.3070 C.3   1 <1>  -0.1600 
 17 C       -5.7380     3.1590    -1.8880 C.3   1 <1>  -0.1600 
 18 N       -8.4050     3.1900     0.6150 N.ar  1 <1>  -0.6200 
 19 C       -7.7630     4.2910    -1.3590 C.ar  1 <1>  -0.1430 
 20 C       -6.7400     4.1760    -2.4600 C.3   1 <1>  -0.0170 
 21 C       -9.3530     4.1240     0.7210 C.ar  1 <1>   0.7200 
 22 C       -8.7650     5.2080    -1.1660 C.ar  1 <1>   0.1600 
 23 N       -9.5650     5.1350    -0.1290 N.ar  1 <1>  -0.6200 
 24 N      -10.1940     4.0380     1.8140 N.pl3 1 <1>  -0.8380 
 25 C      -10.3010     2.8010     2.6360 C.3   1 <1>   0.1290 
 26 C      -11.0890     5.1600     2.2120 C.3   1 <1>   0.1290 
 27 H       -1.3510     5.5430    -0.6180 H     1 <1>   0.1500 
 28 H       -2.9820     2.2930     2.7040 H     1 <1>   0.1500 
 29 H       -1.3130     6.1140     1.7950 H     1 <1>   0.1500 
 30 H       -2.1340     4.4810     3.4420 H     1 <1>   0.1500 
 31 H       -5.1740     3.0510     0.7880 H     1 <1>   0.0800 
 32 H       -6.2020     1.7350     1.2550 H     1 <1>   0.0800 
 33 H       -5.6410    -0.6250     0.5200 H     1 <1>   0.0800 
 34 H       -4.2610    -0.8920    -0.5060 H     1 <1>   0.0800 
 35 H       -6.3960    -0.9720    -1.7710 H     1 <1>   0.0800 
 36 H       -5.3150     0.2490    -2.3530 H     1 <1>   0.0800 
 37 H       -7.5840     1.1900    -2.2240 H     1 <1>   0.0800 
 38 H       -7.7460     0.6450    -0.5850 H     1 <1>   0.0800 
 39 H       -5.3280     2.5280    -2.6550 H     1 <1>   0.0800 
 40 H       -4.9280     3.7100    -1.4450 H     1 <1>   0.0800 
 41 H       -7.2080     3.7890    -3.3490 H     1 <1>   0.0800 
 42 H       -6.2700     5.1200    -2.6720 H     1 <1>   0.0800 
 43 H       -8.9130     6.0090    -1.8690 H     1 <1>   0.1500 
 44 H      -10.0590     1.9340     2.0470 H     1 <1>   0.0800 
 45 H      -11.3050     2.6880     3.0060 H     1 <1>   0.0800 
 46 H       -9.6190     2.8620     3.4660 H     1 <1>   0.0800 
 47 H      -10.6560     6.1050     1.9340 H     1 <1>   0.0800 
 48 H      -11.2350     5.1560     3.2780 H     1 <1>   0.0800 
 49 H      -12.0390     5.0530     1.7200 H     1 <1>   0.0800 
@<TRIPOS>BOND
  1   1   2  1   
  2   2   3  ar  
  3   2   4  ar  
  4   3   5  1   
  5   3   6  ar  
  6   4   7  ar  
  7   4  27  1   
  8   5   8  2   
  9   5   9  am  
 10   6  10  ar  
 11   6  28  1   
 12   7  10  ar  
 13   7  29  1   
 14   9  11  1   
 15   9  12  1   
 16  10  30  1   
 17  11  13  1   
 18  11  31  1   
 19  11  32  1   
 20  12  14  1   
 21  12  33  1   
 22  12  34  1   
 23  13  15  1   
 24  13  16  1   
 25  13  17  1   
 26  14  16  1   
 27  14  35  1   
 28  14  36  1   
 29  15  18  ar  
 30  15  19  ar  
 31  16  37  1   
 32  16  38  1   
 33  17  20  1   
 34  17  39  1   
 35  17  40  1   
 36  18  21  ar  
 37  19  20  1   
 38  19  22  ar  
 39  20  41  1   
 40  20  42  1   
 41  21  23  ar  
 42  21  24  1   
 43  22  23  ar  
 44  22  43  1   
 45  24  25  1   
 46  24  26  1   
 47  25  44  1   
 48  25  45  1   
 49  25  46  1   
 50  26  47  1   
 51  26  48  1   
 52  26  49  1   
@<TRIPOS>SUBSTRUCTURE
  1 ****  11 GROUP 4 **** **** 0

# MOE 2024.06 (io_trps.svl 2023.06)
