@<TRIPOS>MOLECULE
NONAME
49 51 1 0 0 
SMALL
USER_CHARGES


@<TRIPOS>ATOM
  1 F       -1.1050    -4.3270     1.7270 F     1 <1>  -0.1900 
  2 C       -2.2710    -3.9280     1.2940 C.ar  1 <1>   0.1900 
  3 C       -2.8850    -2.8610     1.9210 C.ar  1 <1>  -0.1500 
  4 C       -2.8470    -4.5880     0.2260 C.ar  1 <1>  -0.1500 
  5 C       -4.1210    -2.4410     1.4580 C.ar  1 <1>  -0.1500 
  6 C       -4.0830    -4.1590    -0.2280 C.ar  1 <1>  -0.1500 
  7 C       -4.7220    -3.0860     0.3820 C.ar  1 <1>  -0.1430 
  8 C       -6.0790    -2.6310    -0.1270 C.3   1 <1>   0.3530 
  9 N       -7.0900    -3.5720     0.3930 N.pl3 1 <1>  -0.8690 
 10 C       -7.7610    -4.3700    -0.5210 C.ar  1 <1>   0.1000 
 11 C       -7.6650    -5.7500    -0.4370 C.ar  1 <1>  -0.1500 
 12 C       -8.5350    -3.8110    -1.5300 C.ar  1 <1>  -0.1500 
 13 C       -8.3170    -6.5880    -1.3380 C.ar  1 <1>   0.0860 
 14 C       -9.1810    -4.6180    -2.4460 C.ar  1 <1>  -0.1500 
 15 C       -8.2210    -8.0320    -1.2330 C.2   1 <1>   0.5440 
 16 C       -9.0670    -5.9940    -2.3520 C.ar  1 <1>  -0.1500 
 17 O       -7.9210    -8.6850    -2.2150 O.2   1 <1>  -0.5700 
 18 N       -8.4840    -8.6870    -0.0460 N.am  1 <1>  -0.6600 
 19 C       -8.1760   -10.1370     0.1180 C.3   1 <1>   0.1400 
 20 C       -9.3290    -8.0820     1.0250 C.3   1 <1>   0.1400 
 21 C       -9.4750   -10.9650     0.0630 C.3   1 <1>  -0.0800 
 22 C      -10.1810    -9.1430     1.7360 C.3   1 <1>  -0.1600 
 23 C      -10.6490   -10.2130     0.7450 C.3   1 <1>   0.2000 
 24 C       -9.2330   -12.3820     0.6140 C.3   1 <1>   0.1200 
 25 O      -11.4920   -11.0760     1.4230 O.3   1 <1>  -0.6800 
 26 O       -8.1360   -12.9560    -0.0070 O.3   1 <1>  -0.6800 
 27 H       -2.4040    -2.3740     2.7500 H     1 <1>   0.1500 
 28 H       -2.3400    -5.4160    -0.2350 H     1 <1>   0.1500 
 29 H       -4.6140    -1.6140     1.9400 H     1 <1>   0.1500 
 30 H       -4.5510    -4.6640    -1.0570 H     1 <1>   0.1500 
 31 H       -6.0840    -2.6250    -1.2040 H     1 <1>   0.0800 
 32 H       -6.3030    -1.6380     0.2220 H     1 <1>   0.0800 
 33 H       -6.6610    -4.1010     1.1600 H     1 <1>   0.4000 
 34 H       -7.0660    -6.1870     0.3390 H     1 <1>   0.1500 
 35 H       -8.6300    -2.7420    -1.5890 H     1 <1>   0.1500 
 36 H       -9.7720    -4.1790    -3.2310 H     1 <1>   0.1500 
 37 H       -9.5620    -6.6260    -3.0690 H     1 <1>   0.1500 
 38 H       -7.4930   -10.4690    -0.6470 H     1 <1>   0.0800 
 39 H       -7.6870   -10.2790     1.0660 H     1 <1>   0.0800 
 40 H       -8.7010    -7.5780     1.7400 H     1 <1>   0.0800 
 41 H       -9.9870    -7.3520     0.5820 H     1 <1>   0.0800 
 42 H       -9.7400   -11.0640    -0.9750 H     1 <1>   0.0800 
 43 H      -11.0300    -8.6600     2.1870 H     1 <1>   0.0800 
 44 H       -9.5950    -9.5950     2.5160 H     1 <1>   0.0800 
 45 H      -11.2400    -9.7370    -0.0210 H     1 <1>   0.0800 
 46 H      -10.0860   -13.0160     0.4380 H     1 <1>   0.0800 
 47 H       -9.0280   -12.3510     1.6700 H     1 <1>   0.0800 
 48 H      -11.0720   -11.3810     2.2490 H     1 <1>   0.4000 
 49 H       -8.2920   -13.0440    -0.9690 H     1 <1>   0.4000 
@<TRIPOS>BOND
  1   1   2  1   
  2   2   3  ar  
  3   2   4  ar  
  4   3   5  ar  
  5   3  27  1   
  6   4   6  ar  
  7   4  28  1   
  8   5   7  ar  
  9   5  29  1   
 10   6   7  ar  
 11   6  30  1   
 12   7   8  1   
 13   8   9  1   
 14   8  31  1   
 15   8  32  1   
 16   9  10  1   
 17   9  33  1   
 18  10  11  ar  
 19  10  12  ar  
 20  11  13  ar  
 21  11  34  1   
 22  12  14  ar  
 23  12  35  1   
 24  13  15  1   
 25  13  16  ar  
 26  14  16  ar  
 27  14  36  1   
 28  15  17  2   
 29  15  18  am  
 30  16  37  1   
 31  18  19  1   
 32  18  20  1   
 33  19  21  1   
 34  19  38  1   
 35  19  39  1   
 36  20  22  1   
 37  20  40  1   
 38  20  41  1   
 39  21  23  1   
 40  21  24  1   
 41  21  42  1   
 42  22  23  1   
 43  22  43  1   
 44  22  44  1   
 45  23  25  1   
 46  23  45  1   
 47  24  26  1   
 48  24  46  1   
 49  24  47  1   
 50  25  48  1   
 51  26  49  1   
@<TRIPOS>SUBSTRUCTURE
  1 ****  11 GROUP 4 **** **** 0

# MOE 2024.06 (io_trps.svl 2023.06)
