@<TRIPOS>MOLECULE
NONAME
58 62 1 0 0 
SMALL
USER_CHARGES


@<TRIPOS>ATOM
  1 O        2.8970    -5.2900    -2.5600 O.3   1 <1>  -0.5600 
  2 C        3.1940    -6.6120    -2.2060 C.3   1 <1>   0.1200 
  3 C        1.5240    -5.0120    -2.5750 C.3   1 <1>   0.1200 
  4 C        2.6740    -6.9440    -0.7960 C.3   1 <1>   0.2090 
  5 C        0.8950    -5.2360    -1.1880 C.3   1 <1>   0.2090 
  6 N        1.2240    -6.5970    -0.6590 N.pl3 1 <1>  -0.8380 
  7 C        0.3720    -7.3010     0.1630 C.ar  1 <1>   0.7200 
  8 N       -0.8700    -6.8370     0.3040 N.ar  1 <1>  -0.6200 
  9 N        0.8520    -8.3970     0.7490 N.ar  1 <1>  -0.6200 
 10 C       -1.6730    -7.5240     1.0730 C.ar  1 <1>   0.1600 
 11 C        0.0260    -9.0770     1.4980 C.ar  1 <1>   0.1600 
 12 C       -1.2770    -8.6840     1.6960 C.ar  1 <1>  -0.1440 
 13 C       -2.2130    -9.4990     2.5530 C.3   1 <1>   0.4860 
 14 N       -2.9460   -10.4390     1.6720 N.4   1 <1>  -0.9590 
 15 C       -4.0790    -9.8550     0.8920 C.3   1 <1>   0.3430 
 16 C       -3.4500   -11.6880     2.2900 C.3   1 <1>   0.3430 
 17 C       -5.0440   -11.0160     0.6100 C.3   1 <1>   0.2000 
 18 C       -4.4290   -12.2620     1.2620 C.3   1 <1>  -0.0800 
 19 O       -6.2690   -10.7470     1.2090 O.3   1 <1>  -0.6800 
 20 C       -3.7540   -13.2100     0.2350 C.3   1 <1>  -0.0170 
 21 C       -2.3780   -12.7900    -0.2800 C.ar  1 <1>   0.1670 
 22 N       -2.2570   -11.6150    -0.8230 N.ar  1 <1>  -0.6200 
 23 C       -1.3040   -13.6860    -0.1440 C.ar  1 <1>  -0.1500 
 24 C       -1.0370   -11.2500    -1.3040 C.ar  1 <1>   0.3100 
 25 C       -0.0670   -13.3390    -0.5940 C.ar  1 <1>  -0.1500 
 26 C        0.0980   -12.0820    -1.1960 C.ar  1 <1>   0.0000 
 27 C       -0.8900    -9.9930    -1.9110 C.ar  1 <1>  -0.1500 
 28 C        1.3340   -11.6240    -1.6930 C.ar  1 <1>  -0.1500 
 29 C        0.3210    -9.5640    -2.3840 C.ar  1 <1>  -0.1500 
 30 C        1.4440   -10.3900    -2.2750 C.ar  1 <1>  -0.1500 
 31 H        2.7510    -7.2700    -2.9320 H     1 <1>   0.0800 
 32 H        4.2630    -6.7280    -2.2410 H     1 <1>   0.0800 
 33 H        1.4000    -3.9880    -2.8750 H     1 <1>   0.0800 
 34 H        1.0530    -5.6460    -3.3050 H     1 <1>   0.0800 
 35 H        3.2400    -6.3880    -0.0700 H     1 <1>   0.0800 
 36 H        2.8380    -7.9910    -0.6140 H     1 <1>   0.0800 
 37 H       -0.1690    -5.1020    -1.2730 H     1 <1>   0.0800 
 38 H        1.2690    -4.4930    -0.5060 H     1 <1>   0.0800 
 39 H       -2.6720    -7.1430     1.1990 H     1 <1>   0.1500 
 40 H        0.4100    -9.9720     1.9590 H     1 <1>   0.1500 
 41 H       -2.9020    -8.8580     3.0790 H     1 <1>   0.0800 
 42 H       -1.6350   -10.0490     3.2780 H     1 <1>   0.0800 
 43 H       -2.2880   -10.7500     0.9240 H     1 <1>   0.4500 
 44 H       -4.5880    -9.0900     1.4540 H     1 <1>   0.0800 
 45 H       -3.7130    -9.4430    -0.0350 H     1 <1>   0.0800 
 46 H       -2.6480   -12.3780     2.5020 H     1 <1>   0.0800 
 47 H       -3.9760   -11.4580     3.2020 H     1 <1>   0.0800 
 48 H       -5.2150   -11.1320    -0.4480 H     1 <1>   0.0800 
 49 H       -5.1920   -12.8350     1.7630 H     1 <1>   0.0800 
 50 H       -6.2720   -10.8920     2.1740 H     1 <1>   0.4000 
 51 H       -4.4060   -13.3380    -0.6130 H     1 <1>   0.0800 
 52 H       -3.6660   -14.1810     0.6920 H     1 <1>   0.0800 
 53 H       -1.4620   -14.6490     0.3080 H     1 <1>   0.1500 
 54 H        0.7780   -14.0010    -0.5080 H     1 <1>   0.1500 
 55 H       -1.7550    -9.3620    -1.9950 H     1 <1>   0.1500 
 56 H        2.1950   -12.2620    -1.6090 H     1 <1>   0.1500 
 57 H        0.4250    -8.5910    -2.8350 H     1 <1>   0.1500 
 58 H        2.3890   -10.0390    -2.6520 H     1 <1>   0.1500 
@<TRIPOS>BOND
  1   1   2  1   
  2   1   3  1   
  3   2   4  1   
  4   2  31  1   
  5   2  32  1   
  6   3   5  1   
  7   3  33  1   
  8   3  34  1   
  9   4   6  1   
 10   4  35  1   
 11   4  36  1   
 12   5   6  1   
 13   5  37  1   
 14   5  38  1   
 15   6   7  1   
 16   7   8  ar  
 17   7   9  ar  
 18   8  10  ar  
 19   9  11  ar  
 20  10  12  ar  
 21  10  39  1   
 22  11  12  ar  
 23  11  40  1   
 24  12  13  1   
 25  13  14  1   
 26  13  41  1   
 27  13  42  1   
 28  14  15  1   
 29  14  16  1   
 30  14  43  1   
 31  15  17  1   
 32  15  44  1   
 33  15  45  1   
 34  16  18  1   
 35  16  46  1   
 36  16  47  1   
 37  17  18  1   
 38  17  19  1   
 39  17  48  1   
 40  18  20  1   
 41  18  49  1   
 42  19  50  1   
 43  20  21  1   
 44  20  51  1   
 45  20  52  1   
 46  21  22  ar  
 47  21  23  ar  
 48  22  24  ar  
 49  23  25  ar  
 50  23  53  1   
 51  24  26  ar  
 52  24  27  ar  
 53  25  26  ar  
 54  25  54  1   
 55  26  28  ar  
 56  27  29  ar  
 57  27  55  1   
 58  28  30  ar  
 59  28  56  1   
 60  29  30  ar  
 61  29  57  1   
 62  30  58  1   
@<TRIPOS>SUBSTRUCTURE
  1 ****  27 GROUP 4 **** **** 0

# MOE 2024.06 (io_trps.svl 2023.06)
