@<TRIPOS>MOLECULE
NONAME
39 39 1 0 0 
SMALL
USER_CHARGES


@<TRIPOS>ATOM
  1 O       -1.3840     3.0100    -3.5180 O.co2 1 <1>  -0.9000 
  2 C       -1.8920     2.8290    -2.3930 C.2   1 <1>   0.9790 
  3 O       -2.9760     2.2080    -2.3520 O.co2 1 <1>  -0.9000 
  4 C       -1.2840     3.3280    -1.1510 C.ar  1 <1>   0.1310 
  5 N       -0.0190     3.7970    -1.0980 N.ar  1 <1>  -0.6200 
  6 C       -2.0840     3.3000    -0.0030 C.ar  1 <1>   0.1600 
  7 C        0.3530     4.2290     0.0940 C.ar  1 <1>   0.4100 
  8 N       -1.7260     3.7120     1.2080 N.ar  1 <1>  -0.6200 
  9 N        1.6510     4.7160     0.1960 N.pl3 1 <1>  -0.8380 
 10 C       -0.4920     4.1720     1.2090 C.ar  1 <1>   0.1600 
 11 C        2.0440     5.6950    -0.8760 C.3   1 <1>   0.2090 
 12 C        2.6430     3.6240     0.3900 C.3   1 <1>   0.1290 
 13 C        2.6840     7.0340    -0.4030 C.3   1 <1>   0.0000 
 14 C        3.2930     7.7000    -1.6660 C.3   1 <1>   0.1200 
 15 C        1.6190     8.0070     0.1870 C.3   1 <1>  -0.1600 
 16 C        3.8430     6.7560     0.5980 C.3   1 <1>  -0.1600 
 17 O        2.3340     7.9640    -2.6400 O.3   1 <1>  -0.6800 
 18 C        1.0620     7.6770     1.5800 C.3   1 <1>  -0.2400 
 19 C        4.6240     7.9860     1.0950 C.3   1 <1>  -0.2400 
 20 H       -3.0840     2.9110    -0.0980 H     1 <1>   0.1500 
 21 H       -0.0940     4.5330     2.1370 H     1 <1>   0.1500 
 22 H        1.1720     5.9420    -1.4590 H     1 <1>   0.0800 
 23 H        2.7230     5.1980    -1.5480 H     1 <1>   0.0800 
 24 H        2.3110     2.9640     1.1720 H     1 <1>   0.0800 
 25 H        3.6020     4.0240     0.6620 H     1 <1>   0.0800 
 26 H        2.7390     3.0560    -0.5200 H     1 <1>   0.0800 
 27 H        4.0430     7.0660    -2.1070 H     1 <1>   0.0800 
 28 H        3.7470     8.6430    -1.4190 H     1 <1>   0.0800 
 29 H        0.7850     8.0600    -0.4930 H     1 <1>   0.0800 
 30 H        2.0360     8.9970     0.2290 H     1 <1>   0.0800 
 31 H        4.5440     6.0830     0.1370 H     1 <1>   0.0800 
 32 H        3.4470     6.2480     1.4590 H     1 <1>   0.0800 
 33 H        1.8460     7.1540    -2.8930 H     1 <1>   0.4000 
 34 H        0.5820     6.7200     1.5780 H     1 <1>   0.0800 
 35 H        0.3300     8.4140     1.8600 H     1 <1>   0.0800 
 36 H        1.8380     7.6770     2.3240 H     1 <1>   0.0800 
 37 H        5.1440     8.4730     0.2900 H     1 <1>   0.0800 
 38 H        5.3550     7.6770     1.8200 H     1 <1>   0.0800 
 39 H        3.9690     8.6960     1.5680 H     1 <1>   0.0800 
@<TRIPOS>BOND
  1   1   2  ar  
  2   2   3  ar  
  3   2   4  1   
  4   4   5  ar  
  5   4   6  ar  
  6   5   7  ar  
  7   6   8  ar  
  8   6  20  1   
  9   7   9  1   
 10   7  10  ar  
 11   8  10  ar  
 12   9  11  1   
 13   9  12  1   
 14  10  21  1   
 15  11  13  1   
 16  11  22  1   
 17  11  23  1   
 18  12  24  1   
 19  12  25  1   
 20  12  26  1   
 21  13  14  1   
 22  13  15  1   
 23  13  16  1   
 24  14  17  1   
 25  14  27  1   
 26  14  28  1   
 27  15  18  1   
 28  15  29  1   
 29  15  30  1   
 30  16  19  1   
 31  16  31  1   
 32  16  32  1   
 33  17  33  1   
 34  18  34  1   
 35  18  35  1   
 36  18  36  1   
 37  19  37  1   
 38  19  38  1   
 39  19  39  1   
@<TRIPOS>SUBSTRUCTURE
  1 ****   7 GROUP 4 **** **** 0

# MOE 2024.06 (io_trps.svl 2023.06)
