@<TRIPOS>MOLECULE
NONAME
27 28 1 0 0 
SMALL
USER_CHARGES


@<TRIPOS>ATOM
  1 N        1.5260     3.6900    -0.0110 N.pl3 1 <1>  -0.7000 
  2 C        0.2530     3.2600    -0.0400 C.cat 1 <1>   0.7910 
  3 C        2.3510     2.5930    -0.0740 C.2   1 <1>   0.1820 
  4 N        0.2460     1.9110    -0.1180 N.pl3 1 <1>  -0.6290 
  5 C       -0.9520     3.9800    -0.0020 C.2   1 <1>  -0.1410 
  6 C        1.5640     1.5000    -0.1420 C.2   1 <1>   0.2000 
  7 C        3.8760     2.6600    -0.0730 C.3   1 <1>   0.2780 
  8 C       -0.9430     1.2220    -0.1640 C.2   1 <1>   0.2290 
  9 C       -2.1530     3.3160    -0.0450 C.2   1 <1>  -0.1380 
 10 N        4.4510     1.3270     0.1020 N.3   1 <1>  -0.9900 
 11 C       -2.1240     1.9060    -0.1280 C.2   1 <1>  -0.1500 
 12 C       -3.5240     3.9900    -0.0100 C.3   1 <1>  -0.0220 
 13 C       -3.4870     5.5200     0.0780 C.3   1 <1>  -0.2400 
 14 H        1.8020     4.6730     0.0420 H     1 <1>   0.4500 
 15 H       -0.8860     5.0480     0.0610 H     1 <1>   0.1500 
 16 H        1.8600     0.4650    -0.2080 H     1 <1>   0.1500 
 17 H        4.2180     3.3050     0.7200 H     1 <1>   0.0800 
 18 H        4.2060     3.0690    -1.0140 H     1 <1>   0.0800 
 19 H       -0.9070     0.1450    -0.2290 H     1 <1>   0.1500 
 20 H        4.4070     1.0530     1.0920 H     1 <1>   0.3600 
 21 H        5.4520     1.3510    -0.1400 H     1 <1>   0.3600 
 22 H       -3.0580     1.3710    -0.1640 H     1 <1>   0.1500 
 23 H       -4.0740     3.6130     0.8360 H     1 <1>   0.0800 
 24 H       -4.0690     3.7130    -0.8970 H     1 <1>   0.0800 
 25 H       -2.9900     5.8370     0.9780 H     1 <1>   0.0800 
 26 H       -4.4910     5.9060     0.0960 H     1 <1>   0.0800 
 27 H       -2.9830     5.9380    -0.7760 H     1 <1>   0.0800 
@<TRIPOS>BOND
  1   1   2  ar  
  2   1   3  1   
  3   1  14  1   
  4   2   4  ar  
  5   2   5  1   
  6   3   6  2   
  7   3   7  1   
  8   4   6  1   
  9   4   8  1   
 10   5   9  2   
 11   5  15  1   
 12   6  16  1   
 13   7  10  1   
 14   7  17  1   
 15   7  18  1   
 16   8  11  2   
 17   8  19  1   
 18   9  11  1   
 19   9  12  1   
 20  10  20  1   
 21  10  21  1   
 22  11  22  1   
 23  12  13  1   
 24  12  23  1   
 25  12  24  1   
 26  13  25  1   
 27  13  26  1   
 28  13  27  1   
@<TRIPOS>SUBSTRUCTURE
  1 ****   2 GROUP 4 **** **** 0

# MOE 2024.06 (io_trps.svl 2023.06)
