@<TRIPOS>MOLECULE
F1913-0886
28 29 1 0 0 
SMALL
USER_CHARGES


@<TRIPOS>ATOM
  1 N       -6.5000     1.3070    -0.2770 N.4   1 <1>  -0.8520 
  2 C       -5.1650     0.6820    -0.0570 C.3   1 <1>   0.3010 
  3 C       -6.5090     2.6900    -0.8300 C.3   1 <1>   0.3430 
  4 C       -7.4370     1.3100     0.8820 C.3   1 <1>   0.3430 
  5 C       -5.1600    -0.8040    -0.2040 C.3   1 <1>  -0.2000 
  6 C       -4.5750     0.0670    -1.2830 C.3   1 <1>  -0.2000 
  7 C       -4.2390     1.3780     1.0060 C.3   1 <1>   0.4380 
  8 C       -7.9380     3.1720    -0.6200 C.3   1 <1>  -0.1600 
  9 C       -8.5340     2.2860     0.4790 C.3   1 <1>  -0.1600 
 10 N       -2.9000     0.7250     1.2050 N.4   1 <1>  -0.8530 
 11 H       -6.9740     0.7370    -0.9940 H     1 <1>   0.4500 
 12 H       -6.2370     2.7060    -1.8740 H     1 <1>   0.0800 
 13 H       -5.8360     3.3220    -0.2740 H     1 <1>   0.0800 
 14 H       -6.9420     1.6770     1.7650 H     1 <1>   0.0800 
 15 H       -7.8360     0.3260     1.0750 H     1 <1>   0.0800 
 16 H       -6.0750    -1.3290    -0.4250 H     1 <1>   0.1000 
 17 H       -4.4750    -1.4300     0.3430 H     1 <1>   0.1000 
 18 H       -3.5110     0.0050    -1.4360 H     1 <1>   0.1000 
 19 H       -5.1000     0.1200    -2.2220 H     1 <1>   0.1000 
 20 H       -4.7580     1.3920     1.9500 H     1 <1>   0.0800 
 21 H       -4.0810     2.4000     0.7010 H     1 <1>   0.0800 
 22 H       -8.4990     3.0630    -1.5340 H     1 <1>   0.0800 
 23 H       -7.9490     4.2130    -0.3430 H     1 <1>   0.0800 
 24 H       -8.8540     2.8660     1.3290 H     1 <1>   0.0800 
 25 H       -9.3860     1.7450     0.1030 H     1 <1>   0.0800 
 26 H       -2.9870    -0.2460     1.5310 H     1 <1>   0.4500 
 27 H       -2.3430     1.2270     1.9120 H     1 <1>   0.4500 
 28 H       -2.3420     0.7140     0.3420 H     1 <1>   0.4500 
@<TRIPOS>BOND
  1   1   2  1   
  2   1   3  1   
  3   1   4  1   
  4   1  11  1   
  5   2   5  1   
  6   2   6  1   
  7   2   7  1   
  8   3   8  1   
  9   3  12  1   
 10   3  13  1   
 11   4   9  1   
 12   4  14  1   
 13   4  15  1   
 14   5   6  1   
 15   5  16  1   
 16   5  17  1   
 17   6  18  1   
 18   6  19  1   
 19   7  10  1   
 20   7  20  1   
 21   7  21  1   
 22   8   9  1   
 23   8  22  1   
 24   8  23  1   
 25   9  24  1   
 26   9  25  1   
 27  10  26  1   
 28  10  27  1   
 29  10  28  1   
@<TRIPOS>SUBSTRUCTURE
  1 ****   1 GROUP 4 **** **** 0

# MOE 2024.06 (io_trps.svl 2023.06)
