@<TRIPOS>MOLECULE
NONAME
49 51 1 0 0 
SMALL
USER_CHARGES


@<TRIPOS>ATOM
  1 O       -2.0510    -2.8350     2.0530 O.2   1 <1>  -0.5750 
  2 C       -2.9800    -2.1330     1.7240 C.2   1 <1>   0.6860 
  3 N       -3.8590    -2.4830     0.7150 N.am  1 <1>  -0.4420 
  4 N       -3.1540    -0.9430     2.3740 N.am  1 <1>  -0.4960 
  5 C       -4.8710    -1.5900     0.4070 C.2   1 <1>   0.4200 
  6 C       -3.9110    -3.8620     0.1510 C.3   1 <1>   0.0520 
  7 C       -4.1770    -0.0750     2.1080 C.2   1 <1>   0.6990 
  8 N       -5.8220    -1.7350    -0.5360 N.pl3 1 <1>  -0.7040 
  9 C       -5.0940    -0.4350     1.0680 C.2   1 <1>   0.2700 
 10 O       -4.2510     0.9560     2.7520 O.2   1 <1>  -0.5750 
 11 C       -6.7250    -0.7730    -0.3780 C.cat 1 <1>   1.0680 
 12 N       -6.2730     0.1120     0.5310 N.pl3 1 <1>  -0.7680 
 13 N       -7.9190    -0.7480    -1.0160 N.pl3 1 <1>  -0.5970 
 14 C       -6.8380     1.4110     0.9670 C.3   1 <1>   0.2670 
 15 C       -8.1400    -1.5020    -2.3060 C.3   1 <1>   0.1600 
 16 C       -9.1890    -0.5230    -0.2620 C.3   1 <1>   0.1600 
 17 C       -9.2400    -2.5910    -2.1970 C.3   1 <1>   0.1920 
 18 C       -9.8830    -1.8540     0.1130 C.3   1 <1>  -0.1680 
 19 O      -10.4240    -2.0290    -2.6630 O.3   1 <1>  -0.6840 
 20 C       -9.4290    -3.0870    -0.7370 C.3   1 <1>  -0.1140 
 21 C       -8.0500    -3.5900    -0.2530 C.2   1 <1>   0.9030 
 22 C      -10.4130    -4.2860    -0.5820 C.3   1 <1>  -0.1680 
 23 O       -7.2120    -3.9970    -1.0730 O.co2 1 <1>  -0.9030 
 24 O       -7.6710    -3.3780     0.9030 O.co2 1 <1>  -0.9030 
 25 C      -11.8480    -4.1480    -1.1270 C.3   1 <1>  -0.1680 
 26 C      -12.7050    -5.3400    -0.6950 C.3   1 <1>  -0.2470 
 27 H       -2.5020    -0.7190     3.1200 H     1 <1>   0.3640 
 28 H       -3.8160    -3.8230    -0.9200 H     1 <1>   0.0720 
 29 H       -4.8570    -4.3180     0.3990 H     1 <1>   0.0720 
 30 H       -3.1190    -4.4710     0.5490 H     1 <1>   0.0720 
 31 H       -6.1520    -2.6720    -0.8500 H     1 <1>   0.4440 
 32 H       -6.0510     2.1400     1.0640 H     1 <1>   0.0720 
 33 H       -7.3230     1.2960     1.9220 H     1 <1>   0.0720 
 34 H       -7.5510     1.7730     0.2460 H     1 <1>   0.0720 
 35 H       -8.4040    -0.8070    -3.0840 H     1 <1>   0.0720 
 36 H       -7.2270    -1.9800    -2.6130 H     1 <1>   0.0720 
 37 H       -9.0170     0.0370     0.6380 H     1 <1>   0.0720 
 38 H       -9.8520     0.0520    -0.8880 H     1 <1>   0.0720 
 39 H       -9.0010    -3.4160    -2.8480 H     1 <1>   0.0720 
 40 H       -9.7260    -2.0540     1.1590 H     1 <1>   0.0720 
 41 H      -10.9380    -1.6950     0.0050 H     1 <1>   0.0720 
 42 H      -11.1560    -2.6340    -2.4310 H     1 <1>   0.3940 
 43 H       -9.9670    -5.1450    -1.0550 H     1 <1>   0.0720 
 44 H      -10.4710    -4.5150     0.4690 H     1 <1>   0.0720 
 45 H      -12.3110    -3.2480    -0.7650 H     1 <1>   0.0720 
 46 H      -11.8340    -4.1270    -2.2020 H     1 <1>   0.0720 
 47 H      -12.7710    -5.3860     0.3780 H     1 <1>   0.0720 
 48 H      -12.2770    -6.2600    -1.0540 H     1 <1>   0.0720 
 49 H      -13.6990    -5.2450    -1.0950 H     1 <1>   0.0720 
@<TRIPOS>BOND
  1   1   2  2   
  2   2   3  am  
  3   2   4  am  
  4   3   5  1   
  5   3   6  1   
  6   4   7  am  
  7   4  27  1   
  8   5   8  1   
  9   5   9  2   
 10   6  28  1   
 11   6  29  1   
 12   6  30  1   
 13   7   9  1   
 14   7  10  2   
 15   8  11  ar  
 16   8  31  1   
 17   9  12  1   
 18  11  12  ar  
 19  11  13  ar  
 20  12  14  1   
 21  13  15  1   
 22  13  16  1   
 23  14  32  1   
 24  14  33  1   
 25  14  34  1   
 26  15  17  1   
 27  15  35  1   
 28  15  36  1   
 29  16  18  1   
 30  16  37  1   
 31  16  38  1   
 32  17  19  1   
 33  17  20  1   
 34  17  39  1   
 35  18  20  1   
 36  18  40  1   
 37  18  41  1   
 38  19  42  1   
 39  20  21  1   
 40  20  22  1   
 41  21  23  ar  
 42  21  24  ar  
 43  22  25  1   
 44  22  43  1   
 45  22  44  1   
 46  25  26  1   
 47  25  45  1   
 48  25  46  1   
 49  26  47  1   
 50  26  48  1   
 51  26  49  1   
@<TRIPOS>SUBSTRUCTURE
  1 ****  11 GROUP 4 **** **** 0

# MOE 2024.06 (io_trps.svl 2023.06)
