@<TRIPOS>MOLECULE
NONAME
52 53 1 0 0 
SMALL
USER_CHARGES


@<TRIPOS>ATOM
  1 S        0.7900     0.4470     0.3360 S.o2  1 <1>   1.3330 
  2 O        0.5300     0.1330     1.7230 O.2   1 <1>  -0.6500 
  3 O        2.1490     0.4330    -0.1600 O.2   1 <1>  -0.6500 
  4 N       -0.1280    -0.6160    -0.6180 N.am  1 <1>  -0.8490 
  5 C        0.0730     2.0430    -0.0590 C.3   1 <1>  -0.0550 
  6 C       -1.3910    -1.0200     0.0130 C.3   1 <1>   0.1160 
  7 C        0.6300    -1.8090    -1.0090 C.3   1 <1>   0.1160 
  8 C        0.6610     3.2090     0.7580 C.3   1 <1>  -0.0800 
  9 C       -0.0800     4.5140     0.4580 C.3   1 <1>   0.2000 
 10 C        2.1310     3.5030     0.3970 C.3   1 <1>   0.1100 
 11 O       -0.1440     5.2390     1.6310 O.3   1 <1>  -0.6800 
 12 C        0.8610     5.2480    -0.4880 C.3   1 <1>   0.1100 
 13 N        2.1960     4.9230     0.0260 N.3   1 <1>  -0.8100 
 14 C        3.2790     5.1990    -0.9670 C.3   1 <1>   0.1710 
 15 C        3.5150     6.6850    -1.2610 C.2   1 <1>   0.5690 
 16 O        3.9950     7.0110    -2.3210 O.2   1 <1>  -0.5700 
 17 N        3.1810     7.5940    -0.3090 N.am  1 <1>  -0.7300 
 18 C        3.3190     9.0640    -0.4180 C.3   1 <1>   0.1400 
 19 C        4.5090     9.5380     0.4140 C.3   1 <1>  -0.0170 
 20 C        4.6390    11.0500     0.3340 C.ar  1 <1>  -0.1440 
 21 C        5.2910    11.6350    -0.7410 C.ar  1 <1>  -0.1500 
 22 C        4.1060    11.8580     1.3270 C.ar  1 <1>  -0.1500 
 23 C        5.4100    13.0120    -0.8220 C.ar  1 <1>  -0.1500 
 24 C        4.2240    13.2350     1.2470 C.ar  1 <1>  -0.1500 
 25 C        4.8760    13.8130     0.1720 C.ar  1 <1>  -0.1500 
 26 H        0.2030     2.2370    -1.1070 H     1 <1>   0.0800 
 27 H       -0.9800     1.9960     0.1350 H     1 <1>   0.0800 
 28 H       -1.9700    -1.6180    -0.6700 H     1 <1>   0.0800 
 29 H       -1.9700    -0.1530     0.2790 H     1 <1>   0.0800 
 30 H       -1.2000    -1.5940     0.9050 H     1 <1>   0.0800 
 31 H        0.0230    -2.4550    -1.6200 H     1 <1>   0.0800 
 32 H        0.9560    -2.3490    -0.1350 H     1 <1>   0.0800 
 33 H        1.4970    -1.5250    -1.5820 H     1 <1>   0.0800 
 34 H        0.5780     2.9610     1.8040 H     1 <1>   0.0800 
 35 H       -1.0780     4.3910     0.0730 H     1 <1>   0.0800 
 36 H        2.4450     2.8960    -0.4370 H     1 <1>   0.0800 
 37 H        2.7840     3.3060     1.2310 H     1 <1>   0.0800 
 38 H        0.7810     5.4370     1.8890 H     1 <1>   0.4000 
 39 H        0.6760     6.3090    -0.4940 H     1 <1>   0.0800 
 40 H        0.7430     4.8600    -1.4860 H     1 <1>   0.0800 
 41 H        4.2040     4.8000    -0.5920 H     1 <1>   0.0800 
 42 H        3.0600     4.7000    -1.8940 H     1 <1>   0.0800 
 43 H        2.7450     7.2160     0.5380 H     1 <1>   0.3700 
 44 H        3.4690     9.3390    -1.4490 H     1 <1>   0.0800 
 45 H        2.4150     9.5350    -0.0720 H     1 <1>   0.0800 
 46 H        4.3780     9.2390     1.4380 H     1 <1>   0.0800 
 47 H        5.4080     9.0810     0.0400 H     1 <1>   0.0800 
 48 H        5.7080    11.0200    -1.5190 H     1 <1>   0.1500 
 49 H        3.5960    11.4200     2.1670 H     1 <1>   0.1500 
 50 H        5.9180    13.4590    -1.6590 H     1 <1>   0.1500 
 51 H        3.8090    13.8570     2.0210 H     1 <1>   0.1500 
 52 H        4.9690    14.8830     0.1090 H     1 <1>   0.1500 
@<TRIPOS>BOND
  1   1   2  2   
  2   1   3  2   
  3   1   4  am  
  4   1   5  1   
  5   4   6  1   
  6   4   7  1   
  7   5   8  1   
  8   5  26  1   
  9   5  27  1   
 10   6  28  1   
 11   6  29  1   
 12   6  30  1   
 13   7  31  1   
 14   7  32  1   
 15   7  33  1   
 16   8   9  1   
 17   8  10  1   
 18   8  34  1   
 19   9  11  1   
 20   9  12  1   
 21   9  35  1   
 22  10  13  1   
 23  10  36  1   
 24  10  37  1   
 25  11  38  1   
 26  12  13  1   
 27  12  39  1   
 28  12  40  1   
 29  13  14  1   
 30  14  15  1   
 31  14  41  1   
 32  14  42  1   
 33  15  16  2   
 34  15  17  am  
 35  17  18  1   
 36  17  43  1   
 37  18  19  1   
 38  18  44  1   
 39  18  45  1   
 40  19  20  1   
 41  19  46  1   
 42  19  47  1   
 43  20  21  ar  
 44  20  22  ar  
 45  21  23  ar  
 46  21  48  1   
 47  22  24  ar  
 48  22  49  1   
 49  23  25  ar  
 50  23  50  1   
 51  24  25  ar  
 52  24  51  1   
 53  25  52  1   
@<TRIPOS>SUBSTRUCTURE
  1 ****  13 GROUP 4 **** **** 0

# MOE 2024.06 (io_trps.svl 2023.06)
