@<TRIPOS>MOLECULE
NONAME
44 45 1 0 0 
SMALL
USER_CHARGES


@<TRIPOS>ATOM
  1 CL      -3.1220    -0.6270     3.0460 Cl    1 <1>  -0.1770 
  2 C       -3.5430    -1.3660     1.5230 C.ar  1 <1>   0.1770 
  3 C       -4.5180    -0.7860     0.7350 C.ar  1 <1>  -0.1500 
  4 C       -2.8960    -2.5210     1.1280 C.ar  1 <1>  -0.1500 
  5 C       -4.8530    -1.3760    -0.4730 C.ar  1 <1>  -0.1500 
  6 C       -3.2350    -3.1070    -0.0800 C.ar  1 <1>  -0.1500 
  7 C       -4.2170    -2.5410    -0.8830 C.ar  1 <1>  -0.1430 
  8 C       -4.5930    -3.2010    -2.2070 C.3   1 <1>   0.0440 
  9 C       -4.8660    -4.6940    -2.0770 C.2   1 <1>   0.5690 
 10 O       -4.1270    -5.4550    -2.6560 O.2   1 <1>  -0.5700 
 11 N       -5.9200    -5.1560    -1.3340 N.am  1 <1>  -0.6600 
 12 C       -6.8480    -4.3330    -0.5180 C.3   1 <1>   0.1400 
 13 C       -6.1800    -6.6020    -1.1310 C.3   1 <1>   0.1400 
 14 C       -7.8340    -5.3370     0.0740 C.3   1 <1>   0.2000 
 15 C       -7.0890    -6.6680     0.0990 C.3   1 <1>  -0.0800 
 16 O       -8.2230    -4.9840     1.3550 O.3   1 <1>  -0.6800 
 17 C       -8.0450    -7.8730     0.1210 C.3   1 <1>  -0.0550 
 18 S       -7.1960    -9.4450     0.2430 S.o2  1 <1>   1.3330 
 19 O       -6.4470    -9.4450     1.4780 O.2   1 <1>  -0.6500 
 20 O       -6.5210    -9.7120    -1.0070 O.2   1 <1>  -0.6500 
 21 N       -8.4750   -10.5530     0.3900 N.am  1 <1>  -0.8490 
 22 C       -8.0940   -11.7410     1.1600 C.3   1 <1>   0.1160 
 23 C       -9.0490   -10.9570    -0.8970 C.3   1 <1>   0.1160 
 24 H       -5.0040     0.1150     1.0640 H     1 <1>   0.1500 
 25 H       -2.1370    -2.9520     1.7560 H     1 <1>   0.1500 
 26 H       -5.6100    -0.9200    -1.0880 H     1 <1>   0.1500 
 27 H       -2.7320    -4.0080    -0.3920 H     1 <1>   0.1500 
 28 H       -3.7850    -3.0610    -2.9010 H     1 <1>   0.0800 
 29 H       -5.4630    -2.7360    -2.6290 H     1 <1>   0.0800 
 30 H       -6.2950    -3.8410     0.2630 H     1 <1>   0.0800 
 31 H       -7.3570    -3.6110    -1.1320 H     1 <1>   0.0800 
 32 H       -6.6730    -6.9940    -2.0040 H     1 <1>   0.0800 
 33 H       -5.2580    -7.1400    -0.9740 H     1 <1>   0.0800 
 34 H       -8.7140    -5.3900    -0.5450 H     1 <1>   0.0800 
 35 H       -6.4500    -6.7030     0.9660 H     1 <1>   0.0800 
 36 H       -7.4510    -4.9640     1.9560 H     1 <1>   0.4000 
 37 H       -8.6540    -7.8620    -0.7610 H     1 <1>   0.0800 
 38 H       -8.6960    -7.7720     0.9690 H     1 <1>   0.0800 
 39 H       -8.9300   -12.4130     1.2480 H     1 <1>   0.0800 
 40 H       -7.7880   -11.4550     2.1530 H     1 <1>   0.0800 
 41 H       -7.2750   -12.2520     0.6800 H     1 <1>   0.0800 
 42 H       -9.9080   -11.5850    -0.7380 H     1 <1>   0.0800 
 43 H       -8.3220   -11.4980    -1.4810 H     1 <1>   0.0800 
 44 H       -9.3620   -10.0900    -1.4540 H     1 <1>   0.0800 
@<TRIPOS>BOND
  1   1   2  1   
  2   2   3  ar  
  3   2   4  ar  
  4   3   5  ar  
  5   3  24  1   
  6   4   6  ar  
  7   4  25  1   
  8   5   7  ar  
  9   5  26  1   
 10   6   7  ar  
 11   6  27  1   
 12   7   8  1   
 13   8   9  1   
 14   8  28  1   
 15   8  29  1   
 16   9  10  2   
 17   9  11  am  
 18  11  12  1   
 19  11  13  1   
 20  12  14  1   
 21  12  30  1   
 22  12  31  1   
 23  13  15  1   
 24  13  32  1   
 25  13  33  1   
 26  14  15  1   
 27  14  16  1   
 28  14  34  1   
 29  15  17  1   
 30  15  35  1   
 31  16  36  1   
 32  17  18  1   
 33  17  37  1   
 34  17  38  1   
 35  18  19  2   
 36  18  20  2   
 37  18  21  am  
 38  21  22  1   
 39  21  23  1   
 40  22  39  1   
 41  22  40  1   
 42  22  41  1   
 43  23  42  1   
 44  23  43  1   
 45  23  44  1   
@<TRIPOS>SUBSTRUCTURE
  1 ****  11 GROUP 4 **** **** 0

# MOE 2024.06 (io_trps.svl 2023.06)
