@<TRIPOS>MOLECULE
NONAME
45 47 1 0 0 
SMALL
USER_CHARGES


@<TRIPOS>ATOM
  1 O       -1.5380    -0.2920     1.1340 O.2   1 <1>  -0.5700 
  2 C       -2.0230     0.3350     0.2030 C.2   1 <1>   0.5440 
  3 N       -2.8770    -0.2880    -0.7030 N.am  1 <1>  -0.2980 
  4 C       -1.7390     1.7320     0.0090 C.ar  1 <1>   0.0860 
  5 N       -3.4750     0.3540    -1.7620 N.2   1 <1>  -0.5120 
  6 C       -3.1970    -1.7320    -0.5590 C.3   1 <1>   0.1400 
  7 C       -2.3490     2.3730    -1.0770 C.ar  1 <1>   0.0860 
  8 C       -0.8930     2.4700     0.8420 C.ar  1 <1>  -0.1500 
  9 C       -3.2110     1.6020    -1.9170 C.2   1 <1>   0.3040 
 10 C       -4.4540    -1.9120     0.2930 C.3   1 <1>   0.1400 
 11 C       -2.0950     3.7320    -1.2980 C.ar  1 <1>  -0.1500 
 12 C       -0.6530     3.8080     0.6110 C.ar  1 <1>  -0.1500 
 13 N       -4.9460    -3.3090     0.1940 N.am  1 <1>  -0.7300 
 14 C       -1.2580     4.4420    -0.4660 C.ar  1 <1>  -0.1500 
 15 C       -5.0530    -4.2070     1.2080 C.2   1 <1>   0.5690 
 16 O       -4.7450    -3.9360     2.3440 O.2   1 <1>  -0.5700 
 17 C       -5.5810    -5.6050     0.8890 C.3   1 <1>   0.1810 
 18 O       -5.7520    -5.7950    -0.5030 O.3   1 <1>  -0.5600 
 19 C       -5.9730    -7.1200    -0.9030 C.3   1 <1>   0.1200 
 20 C       -7.3900    -7.6140    -0.5580 C.3   1 <1>   0.2000 
 21 O       -7.5110    -7.8870     0.8010 O.3   1 <1>  -0.5600 
 22 C       -7.7530    -8.9340    -1.2250 C.3   1 <1>  -0.1600 
 23 C       -8.5790    -8.7500     1.0250 C.3   1 <1>   0.1200 
 24 C       -8.7830    -9.5250    -0.2750 C.3   1 <1>  -0.1600 
 25 H       -2.3710    -2.2510    -0.1060 H     1 <1>   0.0800 
 26 H       -3.3640    -2.1410    -1.5390 H     1 <1>   0.0800 
 27 H       -0.4250     1.9750     1.6770 H     1 <1>   0.1500 
 28 H       -3.6680     2.1230    -2.7390 H     1 <1>   0.0600 
 29 H       -5.2260    -1.2500    -0.0570 H     1 <1>   0.0800 
 30 H       -4.2290    -1.6740     1.3190 H     1 <1>   0.0800 
 31 H       -2.5620     4.2270    -2.1320 H     1 <1>   0.1500 
 32 H        0.0020     4.3640     1.2610 H     1 <1>   0.1500 
 33 H       -5.2380    -3.6430    -0.7290 H     1 <1>   0.3700 
 34 H       -1.0670     5.4870    -0.6430 H     1 <1>   0.1500 
 35 H       -6.5300    -5.7300     1.3750 H     1 <1>   0.0800 
 36 H       -4.8870    -6.3350     1.2620 H     1 <1>   0.0800 
 37 H       -5.2260    -7.7590    -0.4640 H     1 <1>   0.0800 
 38 H       -5.8490    -7.1400    -1.9700 H     1 <1>   0.0800 
 39 H       -8.1180    -6.8620    -0.8130 H     1 <1>   0.0800 
 40 H       -6.8870    -9.5700    -1.2700 H     1 <1>   0.0800 
 41 H       -8.1410    -8.7870    -2.2170 H     1 <1>   0.0800 
 42 H       -9.4450    -8.1580     1.2690 H     1 <1>   0.0800 
 43 H       -8.3290    -9.3960     1.8490 H     1 <1>   0.0800 
 44 H       -8.6300   -10.5790    -0.1290 H     1 <1>   0.0800 
 45 H       -9.7830    -9.3630    -0.6380 H     1 <1>   0.0800 
@<TRIPOS>BOND
  1   1   2  2   
  2   2   3  am  
  3   2   4  1   
  4   3   5  1   
  5   3   6  1   
  6   4   7  ar  
  7   4   8  ar  
  8   5   9  2   
  9   6  10  1   
 10   6  25  1   
 11   6  26  1   
 12   7   9  1   
 13   7  11  ar  
 14   8  12  ar  
 15   8  27  1   
 16   9  28  1   
 17  10  13  1   
 18  10  29  1   
 19  10  30  1   
 20  11  14  ar  
 21  11  31  1   
 22  12  14  ar  
 23  12  32  1   
 24  13  15  am  
 25  13  33  1   
 26  14  34  1   
 27  15  16  2   
 28  15  17  1   
 29  17  18  1   
 30  17  35  1   
 31  17  36  1   
 32  18  19  1   
 33  19  20  1   
 34  19  37  1   
 35  19  38  1   
 36  20  21  1   
 37  20  22  1   
 38  20  39  1   
 39  21  23  1   
 40  22  24  1   
 41  22  40  1   
 42  22  41  1   
 43  23  24  1   
 44  23  42  1   
 45  23  43  1   
 46  24  44  1   
 47  24  45  1   
@<TRIPOS>SUBSTRUCTURE
  1 ****  10 GROUP 4 **** **** 0

# MOE 2024.06 (io_trps.svl 2023.06)
