@<TRIPOS>MOLECULE
NONAME
55 59 1 0 0 
SMALL
USER_CHARGES


@<TRIPOS>ATOM
  1 O       -3.4870     2.5380    -2.0900 O.2   1 <1>  -0.5700 
  2 C       -3.3720     2.2270    -0.9260 C.2   1 <1>   0.5690 
  3 N       -4.2990     1.4120    -0.3170 N.am  1 <1>  -0.6600 
  4 C       -2.1470     2.7540    -0.1610 C.3   1 <1>  -0.0190 
  5 C       -4.1750     0.7870     1.0300 C.3   1 <1>   0.1400 
  6 C       -5.5390     0.9950    -1.0310 C.3   1 <1>   0.1400 
  7 C       -1.6510     4.1180    -0.6940 C.3   1 <1>  -0.1600 
  8 C       -0.9970     1.7250    -0.1900 C.3   1 <1>  -0.1600 
  9 C       -4.1250    -0.7330     0.8650 C.3   1 <1>  -0.1600 
 10 C       -5.5160    -0.5210    -1.2270 C.3   1 <1>  -0.1600 
 11 C       -0.4260     4.6220     0.0850 C.3   1 <1>  -0.1600 
 12 C        0.2310     2.2230     0.5870 C.3   1 <1>  -0.1600 
 13 C       -5.3490    -1.2580     0.1080 C.3   1 <1>   0.4600 
 14 C        0.6960     3.5820     0.0600 C.3   1 <1>   0.2000 
 15 O       -6.4620    -0.9830     0.9330 O.3   1 <1>  -0.5600 
 16 C       -5.2340    -2.7620    -0.1020 C.2   1 <1>  -0.3320 
 17 O        1.7210     4.0290     0.8620 O.3   1 <1>  -0.6800 
 18 C       -7.6350    -1.7360     0.7360 C.3   1 <1>   0.1200 
 19 N       -4.2170    -3.4200    -0.7370 N.pl3 1 <1>   0.0330 
 20 C       -6.1470    -3.6590     0.3200 C.2   1 <1>  -0.1810 
 21 C       -7.3970    -3.2240     1.0420 C.3   1 <1>   0.0210 
 22 C       -4.4940    -4.7650    -0.7030 C.ar  1 <1>  -0.1520 
 23 C       -5.7040    -4.9490    -0.0390 C.ar  1 <1>   0.0000 
 24 C       -3.7790    -5.8560    -1.2040 C.ar  1 <1>  -0.1500 
 25 C       -6.2100    -6.2410     0.1310 C.ar  1 <1>  -0.1500 
 26 C       -4.2890    -7.1220    -1.0300 C.ar  1 <1>  -0.1500 
 27 C       -5.5050    -7.3150    -0.3620 C.ar  1 <1>  -0.1500 
 28 H       -2.4410     2.9200     0.8580 H     1 <1>   0.0800 
 29 H       -5.0290     1.0620     1.6270 H     1 <1>   0.0800 
 30 H       -3.2930     1.1140     1.5460 H     1 <1>   0.0800 
 31 H       -5.6180     1.4840    -1.9870 H     1 <1>   0.0800 
 32 H       -6.3970     1.2770    -0.4430 H     1 <1>   0.0800 
 33 H       -2.4460     4.8410    -0.6250 H     1 <1>   0.0800 
 34 H       -1.3900     4.0230    -1.7350 H     1 <1>   0.0800 
 35 H       -0.7200     1.5430    -1.2150 H     1 <1>   0.0800 
 36 H       -1.3270     0.7910     0.2270 H     1 <1>   0.0800 
 37 H       -4.0810    -1.2080     1.8280 H     1 <1>   0.0800 
 38 H       -3.2300    -0.9920     0.3310 H     1 <1>   0.0800 
 39 H       -4.6940    -0.7630    -1.8750 H     1 <1>   0.0800 
 40 H       -6.4130    -0.8450    -1.7190 H     1 <1>   0.0800 
 41 H       -0.7170     4.8240     1.1010 H     1 <1>   0.0800 
 42 H       -0.0740     5.5360    -0.3610 H     1 <1>   0.0800 
 43 H        1.0310     1.5100     0.4830 H     1 <1>   0.0800 
 44 H       -0.0230     2.3040     1.6290 H     1 <1>   0.0800 
 45 H        1.0840     3.4790    -0.9410 H     1 <1>   0.0800 
 46 H        1.3960     4.1750     1.7690 H     1 <1>   0.4000 
 47 H       -7.9550    -1.6110    -0.2830 H     1 <1>   0.0800 
 48 H       -8.3930    -1.3390     1.3880 H     1 <1>   0.0800 
 49 H       -3.3890    -3.0000    -1.1690 H     1 <1>   0.2700 
 50 H       -8.2390    -3.8020     0.7080 H     1 <1>   0.0800 
 51 H       -7.2760    -3.3680     2.1000 H     1 <1>   0.0800 
 52 H       -2.8460    -5.6990    -1.7150 H     1 <1>   0.1500 
 53 H       -7.1430    -6.3740     0.6460 H     1 <1>   0.1500 
 54 H       -3.7570    -7.9780    -1.4060 H     1 <1>   0.1500 
 55 H       -5.8810    -8.3150    -0.2380 H     1 <1>   0.1500 
@<TRIPOS>BOND
  1   1   2  2   
  2   2   3  am  
  3   2   4  1   
  4   3   5  1   
  5   3   6  1   
  6   4   7  1   
  7   4   8  1   
  8   4  28  1   
  9   5   9  1   
 10   5  29  1   
 11   5  30  1   
 12   6  10  1   
 13   6  31  1   
 14   6  32  1   
 15   7  11  1   
 16   7  33  1   
 17   7  34  1   
 18   8  12  1   
 19   8  35  1   
 20   8  36  1   
 21   9  13  1   
 22   9  37  1   
 23   9  38  1   
 24  10  13  1   
 25  10  39  1   
 26  10  40  1   
 27  11  14  1   
 28  11  41  1   
 29  11  42  1   
 30  12  14  1   
 31  12  43  1   
 32  12  44  1   
 33  13  15  1   
 34  13  16  1   
 35  14  17  1   
 36  14  45  1   
 37  15  18  1   
 38  16  19  1   
 39  16  20  2   
 40  17  46  1   
 41  18  21  1   
 42  18  47  1   
 43  18  48  1   
 44  19  22  1   
 45  19  49  1   
 46  20  21  1   
 47  20  23  1   
 48  21  50  1   
 49  21  51  1   
 50  22  23  ar  
 51  22  24  ar  
 52  23  25  ar  
 53  24  26  ar  
 54  24  52  1   
 55  25  27  ar  
 56  25  53  1   
 57  26  27  ar  
 58  26  54  1   
 59  27  55  1   
@<TRIPOS>SUBSTRUCTURE
  1 ****   9 GROUP 4 **** **** 0

# MOE 2024.06 (io_trps.svl 2023.06)
