@<TRIPOS>MOLECULE
Untitled Document
50 50 1 0 0 
SMALL
USER_CHARGES


@<TRIPOS>ATOM
  1 O       -7.5150     3.5800    -1.6510 O.2   1 <1>  -0.5700 
  2 C       -7.6260     3.4120    -0.4650 C.2   1 <1>   0.6590 
  3 O       -6.6450     3.6170     0.4070 O.3   1 <1>  -0.2330 
  4 C       -8.9290     2.9430     0.1320 C.3   1 <1>  -0.1790 
  5 C       -5.4050     4.0390     0.0470 C.ar  1 <1>   0.0830 
  6 C       -4.4720     3.1380    -0.4710 C.ar  1 <1>  -0.1440 
  7 C       -5.0920     5.3820     0.2280 C.ar  1 <1>  -0.1440 
  8 C       -3.2090     3.6000    -0.8380 C.ar  1 <1>  -0.1440 
  9 C       -4.8530     1.6650    -0.6370 C.3   1 <1>  -0.0960 
 10 C       -3.8300     5.8260    -0.1180 C.ar  1 <1>  -0.1500 
 11 C       -6.1140     6.3620     0.7870 C.3   1 <1>  -0.0970 
 12 C       -2.8960     4.9430    -0.6330 C.ar  1 <1>   0.0830 
 13 C       -2.1790     2.6600    -1.4660 C.3   1 <1>  -0.0970 
 14 O       -1.6700     5.4250    -0.9280 O.3   1 <1>  -0.3630 
 15 C       -0.7650     5.4560     0.1520 C.3   1 <1>   0.1200 
 16 C        0.5810     5.9920    -0.3490 C.3   1 <1>   0.2000 
 17 O        0.9430     5.3050    -1.5100 O.3   1 <1>  -0.6800 
 18 C        1.7070     5.8310     0.6920 C.3   1 <1>   0.3430 
 19 N        3.0300     5.8200     0.0000 N.4   1 <1>  -0.9060 
 20 C        4.1350     5.1830     0.7240 C.3   1 <1>   0.4230 
 21 C        5.4200     5.5350    -0.0110 C.3   1 <1>  -0.2400 
 22 C        3.9200     3.6720     0.7430 C.3   1 <1>  -0.2400 
 23 H       -8.7750     2.0110     0.6420 H     1 <1>   0.0800 
 24 H       -9.6560     2.8040    -0.6460 H     1 <1>   0.0800 
 25 H       -9.2910     3.6760     0.8270 H     1 <1>   0.0800 
 26 H       -5.5910     1.3700     0.0850 H     1 <1>   0.0800 
 27 H       -4.0050     1.0210    -0.4970 H     1 <1>   0.0800 
 28 H       -5.2540     1.5080    -1.6220 H     1 <1>   0.0800 
 29 H       -3.5640     6.8590     0.0030 H     1 <1>   0.1500 
 30 H       -6.4740     6.0160     1.7390 H     1 <1>   0.0800 
 31 H       -6.9440     6.4460     0.1090 H     1 <1>   0.0800 
 32 H       -5.6830     7.3380     0.9200 H     1 <1>   0.0800 
 33 H       -2.6470     2.0410    -2.2100 H     1 <1>   0.0800 
 34 H       -1.7460     2.0330    -0.7090 H     1 <1>   0.0800 
 35 H       -1.3920     3.2010    -1.9580 H     1 <1>   0.0800 
 36 H       -0.6660     4.4540     0.5340 H     1 <1>   0.0800 
 37 H       -1.1730     6.0910     0.9200 H     1 <1>   0.0800 
 38 H        0.4690     7.0320    -0.6060 H     1 <1>   0.0800 
 39 H        0.1420     5.2300    -2.0830 H     1 <1>   0.4000 
 40 H        1.5580     4.8950     1.2020 H     1 <1>   0.0800 
 41 H        1.6600     6.6210     1.4230 H     1 <1>   0.0800 
 42 H        3.2940     6.7670    -0.2870 H     1 <1>   0.4500 
 43 H        2.8520     5.3090    -0.8830 H     1 <1>   0.4500 
 44 H        4.1860     5.5620     1.7340 H     1 <1>   0.0800 
 45 H        5.4030     5.1740    -1.0250 H     1 <1>   0.0800 
 46 H        6.2580     5.0800     0.4890 H     1 <1>   0.0800 
 47 H        5.5810     6.5990    -0.0110 H     1 <1>   0.0800 
 48 H        3.8310     3.2800    -0.2550 H     1 <1>   0.0800 
 49 H        3.0470     3.4080     1.3100 H     1 <1>   0.0800 
 50 H        4.7630     3.1960     1.2120 H     1 <1>   0.0800 
@<TRIPOS>BOND
  1   1   2  2   
  2   2   3  1   
  3   2   4  1   
  4   3   5  1   
  5   4  23  1   
  6   4  24  1   
  7   4  25  1   
  8   5   6  ar  
  9   5   7  ar  
 10   6   8  ar  
 11   6   9  1   
 12   7  10  ar  
 13   7  11  1   
 14   8  12  ar  
 15   8  13  1   
 16   9  26  1   
 17   9  27  1   
 18   9  28  1   
 19  10  12  ar  
 20  10  29  1   
 21  11  30  1   
 22  11  31  1   
 23  11  32  1   
 24  12  14  1   
 25  13  33  1   
 26  13  34  1   
 27  13  35  1   
 28  14  15  1   
 29  15  16  1   
 30  15  36  1   
 31  15  37  1   
 32  16  17  1   
 33  16  18  1   
 34  16  38  1   
 35  17  39  1   
 36  18  19  1   
 37  18  40  1   
 38  18  41  1   
 39  19  20  1   
 40  19  42  1   
 41  19  43  1   
 42  20  21  1   
 43  20  22  1   
 44  20  44  1   
 45  21  45  1   
 46  21  46  1   
 47  21  47  1   
 48  22  48  1   
 49  22  49  1   
 50  22  50  1   
@<TRIPOS>SUBSTRUCTURE
  1 ****  12 GROUP 4 **** **** 0

# MOE 2024.06 (io_trps.svl 2023.06)
