@<TRIPOS>MOLECULE
NONAME
48 50 1 0 0 
SMALL
USER_CHARGES


@<TRIPOS>ATOM
  1 O       -0.9170    -0.1590    -1.5980 O.2   1 <1>  -0.5700 
  2 C       -1.6530    -0.7970    -0.8670 C.2   1 <1>   0.5410 
  3 C       -1.7880    -2.2030    -0.9680 C.2   1 <1>  -0.1360 
  4 C       -2.4380    -0.1740     0.1390 C.2   1 <1>  -0.1360 
  5 C       -2.6300    -2.9060    -0.1580 C.2   1 <1>   0.0910 
  6 C       -3.2540    -0.9100     0.9270 C.2   1 <1>  -0.0620 
  7 O       -3.3380    -2.2360     0.7760 O.3   1 <1>  -0.1530 
  8 C       -2.8060    -4.3460    -0.2080 C.2   1 <1>   0.6160 
  9 C       -4.1330    -0.3560     2.0300 C.3   1 <1>  -0.1020 
 10 O       -1.9140    -5.0300    -0.6750 O.2   1 <1>  -0.5700 
 11 N       -3.9470    -4.9850     0.2310 N.am  1 <1>  -0.6600 
 12 C       -3.9700    -6.4550     0.5230 C.3   1 <1>   0.1400 
 13 C       -5.3160    -4.3910     0.1620 C.3   1 <1>   0.1400 
 14 C       -4.9580    -7.1910    -0.3990 C.3   1 <1>   0.3440 
 15 C       -6.2410    -5.2380    -0.7440 C.3   1 <1>   0.2000 
 16 O       -6.2200    -6.5780    -0.3360 O.3   1 <1>  -0.5600 
 17 C       -5.0820    -8.6560     0.0060 C.ar  1 <1>  -0.1440 
 18 C       -7.7140    -4.7680    -0.7640 C.3   1 <1>  -0.0800 
 19 C       -4.2670    -9.6060    -0.5940 C.ar  1 <1>  -0.1500 
 20 C       -5.9860    -9.0640     0.9780 C.ar  1 <1>  -0.1500 
 21 C       -7.8560    -3.3480    -1.3360 C.3   1 <1>  -0.2400 
 22 C       -8.4070    -4.8430     0.6080 C.3   1 <1>  -0.2400 
 23 C       -4.3530   -10.9390    -0.2300 C.ar  1 <1>  -0.1500 
 24 C       -6.0740   -10.3960     1.3440 C.ar  1 <1>  -0.1500 
 25 C       -5.2570   -11.3350     0.7400 C.ar  1 <1>  -0.1500 
 26 H       -1.1890    -2.6880    -1.7170 H     1 <1>   0.1500 
 27 H       -2.3390     0.8920     0.2250 H     1 <1>   0.1500 
 28 H       -3.8610    -0.7990     2.9720 H     1 <1>   0.0800 
 29 H       -5.1640    -0.5800     1.8260 H     1 <1>   0.0800 
 30 H       -4.0200     0.7110     2.1070 H     1 <1>   0.0800 
 31 H       -2.9910    -6.8840     0.4040 H     1 <1>   0.0800 
 32 H       -4.2690    -6.6070     1.5440 H     1 <1>   0.0800 
 33 H       -5.7230    -4.3390     1.1550 H     1 <1>   0.0800 
 34 H       -5.2710    -3.3930    -0.2340 H     1 <1>   0.0800 
 35 H       -4.6120    -7.1320    -1.4170 H     1 <1>   0.0800 
 36 H       -5.8640    -5.2020    -1.7520 H     1 <1>   0.0800 
 37 H       -8.2370    -5.4320    -1.4310 H     1 <1>   0.0800 
 38 H       -3.5580    -9.3140    -1.3490 H     1 <1>   0.1500 
 39 H       -6.6280    -8.3410     1.4510 H     1 <1>   0.1500 
 40 H       -7.4180    -2.6170    -0.6810 H     1 <1>   0.0800 
 41 H       -8.8970    -3.1060    -1.4610 H     1 <1>   0.0800 
 42 H       -7.3810    -3.2820    -2.2990 H     1 <1>   0.0800 
 43 H       -7.9750    -4.1480     1.3050 H     1 <1>   0.0800 
 44 H       -8.3230    -5.8360     1.0140 H     1 <1>   0.0800 
 45 H       -9.4530    -4.6140     0.5060 H     1 <1>   0.0800 
 46 H       -3.7180   -11.6680    -0.7010 H     1 <1>   0.1500 
 47 H       -6.7800   -10.7000     2.0970 H     1 <1>   0.1500 
 48 H       -5.3250   -12.3700     1.0240 H     1 <1>   0.1500 
@<TRIPOS>BOND
  1   1   2  2   
  2   2   3  1   
  3   2   4  1   
  4   3   5  2   
  5   3  26  1   
  6   4   6  2   
  7   4  27  1   
  8   5   7  1   
  9   5   8  1   
 10   6   7  1   
 11   6   9  1   
 12   8  10  2   
 13   8  11  am  
 14   9  28  1   
 15   9  29  1   
 16   9  30  1   
 17  11  12  1   
 18  11  13  1   
 19  12  14  1   
 20  12  31  1   
 21  12  32  1   
 22  13  15  1   
 23  13  33  1   
 24  13  34  1   
 25  14  16  1   
 26  14  17  1   
 27  14  35  1   
 28  15  16  1   
 29  15  18  1   
 30  15  36  1   
 31  17  19  ar  
 32  17  20  ar  
 33  18  21  1   
 34  18  22  1   
 35  18  37  1   
 36  19  23  ar  
 37  19  38  1   
 38  20  24  ar  
 39  20  39  1   
 40  21  40  1   
 41  21  41  1   
 42  21  42  1   
 43  22  43  1   
 44  22  44  1   
 45  22  45  1   
 46  23  25  ar  
 47  23  46  1   
 48  24  25  ar  
 49  24  47  1   
 50  25  48  1   
@<TRIPOS>SUBSTRUCTURE
  1 ****  11 GROUP 4 **** **** 0

# MOE 2024.06 (io_trps.svl 2023.06)
