@<TRIPOS>MOLECULE
NONAME
50 53 1 0 0 
SMALL
USER_CHARGES


@<TRIPOS>ATOM
  1 O       -1.4750     0.2040     3.0000 O.2   1 <1>  -0.5700 
  2 C       -1.8900     0.8650     2.0800 C.2   1 <1>   0.5690 
  3 N       -2.5380     0.2900     1.0220 N.am  1 <1>  -0.6600 
  4 C       -1.6570     2.3660     2.1280 C.3   1 <1>  -0.0990 
  5 C       -3.0820     0.9660    -0.1850 C.3   1 <1>   0.1400 
  6 C       -2.7360    -1.1780     0.9220 C.3   1 <1>   0.1400 
  7 C       -0.4540     2.7820     1.2660 C.3   1 <1>  -0.1600 
  8 C       -4.0050    -0.0750    -0.8150 C.3   1 <1>   0.2000 
  9 C       -3.3310    -1.4100    -0.4750 C.3   1 <1>  -0.0800 
 10 C       -0.2080     4.2950     1.3300 C.3   1 <1>   0.0960 
 11 O       -5.2360     0.0050    -0.1800 O.3   1 <1>  -0.6800 
 12 C       -4.2590    -2.6400    -0.5710 C.3   1 <1>  -0.0170 
 13 N        0.8340     4.6880     0.3640 N.pl3 1 <1>   0.3140 
 14 C       -3.6030    -4.0150    -0.3900 C.ar  1 <1>  -0.1440 
 15 N        0.5850     4.8490    -0.9280 N.2   1 <1>  -0.7070 
 16 C        2.1310     4.9270     0.5820 C.2   1 <1>   0.0360 
 17 C       -4.4180    -5.1700    -0.2780 C.ar  1 <1>   0.0000 
 18 C       -2.2500    -4.2080    -0.3400 C.ar  1 <1>  -0.1500 
 19 C        1.7450     5.1750    -1.3950 C.2   1 <1>   0.3660 
 20 N        2.7420     5.2380    -0.5030 N.2   1 <1>  -0.5650 
 21 C       -3.7790    -6.4220    -0.0980 C.ar  1 <1>   0.3100 
 22 C       -5.8320    -5.1580    -0.3410 C.ar  1 <1>  -0.1500 
 23 C       -1.7200    -5.4920    -0.1630 C.ar  1 <1>   0.1600 
 24 N       -2.4320    -6.5650    -0.0420 N.ar  1 <1>  -0.6200 
 25 C       -4.5650    -7.5790     0.0240 C.ar  1 <1>  -0.1500 
 26 C       -6.5700    -6.3050    -0.2200 C.ar  1 <1>  -0.1500 
 27 C       -5.9310    -7.5320    -0.0330 C.ar  1 <1>  -0.1500 
 28 H       -2.5460     2.8760     1.8080 H     1 <1>   0.0800 
 29 H       -1.4770     2.6420     3.1520 H     1 <1>   0.0800 
 30 H       -3.6140     1.8700     0.0550 H     1 <1>   0.0800 
 31 H       -2.2730     1.1870    -0.8590 H     1 <1>   0.0800 
 32 H       -1.8010    -1.6930     1.0550 H     1 <1>   0.0800 
 33 H       -3.4220    -1.4910     1.6910 H     1 <1>   0.0800 
 34 H       -0.6350     2.4990     0.2440 H     1 <1>   0.0800 
 35 H        0.4230     2.2590     1.6090 H     1 <1>   0.0800 
 36 H       -4.1530     0.0750    -1.8710 H     1 <1>   0.0800 
 37 H       -2.5190    -1.5320    -1.1690 H     1 <1>   0.0800 
 38 H        0.1010     4.5860     2.3180 H     1 <1>   0.0800 
 39 H       -1.1070     4.8280     1.0770 H     1 <1>   0.0800 
 40 H       -5.0920    -0.0050     0.7880 H     1 <1>   0.4000 
 41 H       -4.7410    -2.6260    -1.5320 H     1 <1>   0.0800 
 42 H       -5.0260    -2.5370     0.1760 H     1 <1>   0.0800 
 43 H        2.5870     4.8600     1.5530 H     1 <1>   0.1500 
 44 H       -1.5420    -3.4090    -0.4330 H     1 <1>   0.1500 
 45 H        1.9260     5.3880    -2.4370 H     1 <1>   0.1500 
 46 H       -6.3500    -4.2290    -0.4890 H     1 <1>   0.1500 
 47 H       -0.6490    -5.5920    -0.1250 H     1 <1>   0.1500 
 48 H       -4.0510    -8.5120     0.1640 H     1 <1>   0.1500 
 49 H       -7.6450    -6.2770    -0.2680 H     1 <1>   0.1500 
 50 H       -6.5210    -8.4280     0.0620 H     1 <1>   0.1500 
@<TRIPOS>BOND
  1   1   2  2   
  2   2   3  am  
  3   2   4  1   
  4   3   5  1   
  5   3   6  1   
  6   4   7  1   
  7   4  28  1   
  8   4  29  1   
  9   5   8  1   
 10   5  30  1   
 11   5  31  1   
 12   6   9  1   
 13   6  32  1   
 14   6  33  1   
 15   7  10  1   
 16   7  34  1   
 17   7  35  1   
 18   8   9  1   
 19   8  11  1   
 20   8  36  1   
 21   9  12  1   
 22   9  37  1   
 23  10  13  1   
 24  10  38  1   
 25  10  39  1   
 26  11  40  1   
 27  12  14  1   
 28  12  41  1   
 29  12  42  1   
 30  13  15  1   
 31  13  16  1   
 32  14  17  ar  
 33  14  18  ar  
 34  15  19  2   
 35  16  20  2   
 36  16  43  1   
 37  17  21  ar  
 38  17  22  ar  
 39  18  23  ar  
 40  18  44  1   
 41  19  20  1   
 42  19  45  1   
 43  21  24  ar  
 44  21  25  ar  
 45  22  26  ar  
 46  22  46  1   
 47  23  24  ar  
 48  23  47  1   
 49  25  27  ar  
 50  25  48  1   
 51  26  27  ar  
 52  26  49  1   
 53  27  50  1   
@<TRIPOS>SUBSTRUCTURE
  1 ****   6 GROUP 4 **** **** 0

# MOE 2024.06 (io_trps.svl 2023.06)
