@<TRIPOS>MOLECULE
NONAME
48 51 1 0 0 
SMALL
USER_CHARGES


@<TRIPOS>ATOM
  1 S       -0.9120    -0.6480     2.4280 S.3   1 <1>  -0.0800 
  2 C       -1.7390    -1.4690     1.1210 C.ar  1 <1>   0.0400 
  3 C       -1.0740     0.8680     1.5500 C.2   1 <1>   0.2280 
  4 C       -2.0510    -0.5290     0.1580 C.ar  1 <1>   0.2270 
  5 C       -2.0540    -2.8080     1.0110 C.ar  1 <1>  -0.1500 
  6 N       -1.6660     0.7790     0.4290 N.2   1 <1>  -0.5650 
  7 C       -2.7100    -0.9630    -0.9820 C.ar  1 <1>  -0.1500 
  8 C       -2.7300    -3.2510    -0.1260 C.ar  1 <1>   0.0860 
  9 C       -3.0370    -2.3020    -1.1160 C.ar  1 <1>  -0.1500 
 10 C       -3.1000    -4.6470    -0.2720 C.2   1 <1>   0.5440 
 11 O       -2.3990    -5.5260     0.1970 O.2   1 <1>  -0.5700 
 12 N       -4.2660    -5.0370    -0.8960 N.am  1 <1>  -0.6600 
 13 C       -4.4170    -6.4530    -1.3200 C.3   1 <1>   0.1400 
 14 C       -5.5580    -4.3760    -0.5670 C.3   1 <1>   0.1400 
 15 C       -5.0300    -7.2530    -0.1490 C.3   1 <1>   0.4230 
 16 C       -6.2050    -5.1460     0.5940 C.3   1 <1>  -0.1600 
 17 N       -5.0380    -8.7590    -0.3640 N.4   1 <1>  -0.9590 
 18 C       -6.4020    -6.6640     0.3050 C.3   1 <1>   0.0000 
 19 C       -5.9740    -9.5010     0.5420 C.3   1 <1>   0.3430 
 20 C       -5.2280    -9.2100    -1.7810 C.3   1 <1>   0.2630 
 21 C       -6.8520    -7.3670     1.6200 C.3   1 <1>  -0.1600 
 22 C       -7.4670    -6.8670    -0.8110 C.3   1 <1>   0.1200 
 23 C       -6.1910    -8.7410     1.8490 C.3   1 <1>  -0.1600 
 24 O       -8.6320    -6.1710    -0.5390 O.3   1 <1>  -0.6800 
 25 H       -0.6660     1.7440     2.0230 H     1 <1>   0.1500 
 26 H       -1.7810    -3.4970     1.7910 H     1 <1>   0.1500 
 27 H       -2.9520    -0.2460    -1.7460 H     1 <1>   0.1500 
 28 H       -3.5410    -2.6280    -2.0100 H     1 <1>   0.1500 
 29 H       -5.0340    -6.4890    -2.1980 H     1 <1>   0.0800 
 30 H       -3.4480    -6.8530    -1.5680 H     1 <1>   0.0800 
 31 H       -5.3980    -3.3520    -0.2720 H     1 <1>   0.0800 
 32 H       -6.2010    -4.3750    -1.4310 H     1 <1>   0.0800 
 33 H       -4.3620    -7.0750     0.6790 H     1 <1>   0.0800 
 34 H       -5.5680    -5.0180     1.4530 H     1 <1>   0.0800 
 35 H       -7.1420    -4.6780     0.8390 H     1 <1>   0.0800 
 36 H       -4.0880    -9.0510    -0.0860 H     1 <1>   0.4500 
 37 H       -6.9290    -9.6240     0.0570 H     1 <1>   0.0800 
 38 H       -5.5800   -10.4830     0.7510 H     1 <1>   0.0800 
 39 H       -6.1890    -8.8930    -2.1540 H     1 <1>   0.0800 
 40 H       -5.1760   -10.2860    -1.8410 H     1 <1>   0.0800 
 41 H       -4.4590    -8.8010    -2.4160 H     1 <1>   0.0800 
 42 H       -6.6210    -6.7560     2.4760 H     1 <1>   0.0800 
 43 H       -7.9210    -7.4910     1.6250 H     1 <1>   0.0800 
 44 H       -7.7300    -7.9040    -0.9210 H     1 <1>   0.0800 
 45 H       -7.1160    -6.5040    -1.7600 H     1 <1>   0.0800 
 46 H       -6.8160    -9.3270     2.5010 H     1 <1>   0.0800 
 47 H       -5.2440    -8.6180     2.3470 H     1 <1>   0.0800 
 48 H       -9.0720    -6.4850     0.2760 H     1 <1>   0.4000 
@<TRIPOS>BOND
  1   1   2  1   
  2   1   3  1   
  3   2   4  ar  
  4   2   5  ar  
  5   3   6  2   
  6   3  25  1   
  7   4   6  1   
  8   4   7  ar  
  9   5   8  ar  
 10   5  26  1   
 11   7   9  ar  
 12   7  27  1   
 13   8   9  ar  
 14   8  10  1   
 15   9  28  1   
 16  10  11  2   
 17  10  12  am  
 18  12  13  1   
 19  12  14  1   
 20  13  15  1   
 21  13  29  1   
 22  13  30  1   
 23  14  16  1   
 24  14  31  1   
 25  14  32  1   
 26  15  17  1   
 27  15  18  1   
 28  15  33  1   
 29  16  18  1   
 30  16  34  1   
 31  16  35  1   
 32  17  19  1   
 33  17  20  1   
 34  17  36  1   
 35  18  21  1   
 36  18  22  1   
 37  19  23  1   
 38  19  37  1   
 39  19  38  1   
 40  20  39  1   
 41  20  40  1   
 42  20  41  1   
 43  21  23  1   
 44  21  42  1   
 45  21  43  1   
 46  22  24  1   
 47  22  44  1   
 48  22  45  1   
 49  23  46  1   
 50  23  47  1   
 51  24  48  1   
@<TRIPOS>SUBSTRUCTURE
  1 ****  12 GROUP 4 **** **** 0

# MOE 2024.06 (io_trps.svl 2023.06)
