@<TRIPOS>MOLECULE
NONAME
53 54 1 0 0 
SMALL
USER_CHARGES


@<TRIPOS>ATOM
  1 O        3.7640     0.1010     1.0250 O.2   1 <1>  -0.5700 
  2 C        2.7390    -0.1790     0.4320 C.2   1 <1>   0.5440 
  3 N        1.9300     0.8460     0.0190 N.am  1 <1>  -0.7300 
  4 C        2.3770    -1.5630     0.1750 C.ar  1 <1>   0.0860 
  5 C        2.1870     2.2780     0.2960 C.3   1 <1>   0.1400 
  6 C        2.7910    -2.5810     1.0320 C.ar  1 <1>  -0.1500 
  7 C        1.6070    -1.9340    -0.9300 C.ar  1 <1>  -0.1500 
  8 C        3.1750     2.8320    -0.7270 C.3   1 <1>  -0.0990 
  9 C        2.4450    -3.9020     0.8100 C.ar  1 <1>  -0.1500 
 10 C        1.2570    -3.2530    -1.1560 C.ar  1 <1>  -0.1500 
 11 C        3.7070     4.1690    -0.2550 C.2   1 <1>   0.5690 
 12 C        1.6720    -4.2460    -0.2850 C.ar  1 <1>  -0.1430 
 13 O        3.0730     5.1480    -0.5710 O.2   1 <1>  -0.5700 
 14 N        4.8510     4.2500     0.5040 N.am  1 <1>  -0.6600 
 15 C        1.2910    -5.6950    -0.5310 C.3   1 <1>  -0.0970 
 16 C        5.3460     5.5750     1.0070 C.3   1 <1>   0.1400 
 17 C        5.5200     3.0420     1.0820 C.3   1 <1>   0.0600 
 18 C        6.4640     6.2210     0.1370 C.3   1 <1>   0.0000 
 19 C        6.9400     7.5170     0.8410 C.3   1 <1>  -0.1600 
 20 C        5.9310     6.6190    -1.2610 C.3   1 <1>  -0.1600 
 21 C        7.6350     5.2150     0.0040 C.3   1 <1>   0.1200 
 22 C        5.8920     8.6370     0.7780 C.3   1 <1>   0.1200 
 23 C        4.9360     7.7850    -1.1910 C.3   1 <1>   0.1200 
 24 O        8.7320     5.7710    -0.6390 O.3   1 <1>  -0.6800 
 25 O        5.5420     8.8650    -0.5510 O.3   1 <1>  -0.5600 
 26 H        1.0250     0.6250    -0.4000 H     1 <1>   0.3700 
 27 H        2.5930     2.3730     1.2890 H     1 <1>   0.0800 
 28 H        1.2650     2.8330     0.2600 H     1 <1>   0.0800 
 29 H        3.3950    -2.3280     1.8860 H     1 <1>   0.1500 
 30 H        1.2830    -1.1850    -1.6290 H     1 <1>   0.1500 
 31 H        2.6760     2.9690    -1.6680 H     1 <1>   0.0800 
 32 H        3.9870     2.1480    -0.8780 H     1 <1>   0.0800 
 33 H        2.7830    -4.6620     1.4930 H     1 <1>   0.1500 
 34 H        0.6630    -3.5080    -2.0170 H     1 <1>   0.1500 
 35 H        1.2010    -6.2230     0.4010 H     1 <1>   0.0800 
 36 H        2.0470    -6.1720    -1.1290 H     1 <1>   0.0800 
 37 H        0.3500    -5.7550    -1.0470 H     1 <1>   0.0800 
 38 H        5.7130     5.4440     2.0100 H     1 <1>   0.0800 
 39 H        4.5110     6.2470     1.0800 H     1 <1>   0.0800 
 40 H        5.9520     2.4480     0.2960 H     1 <1>   0.0800 
 41 H        4.8060     2.4410     1.6180 H     1 <1>   0.0800 
 42 H        6.3000     3.3240     1.7670 H     1 <1>   0.0800 
 43 H        7.8300     7.8960     0.3700 H     1 <1>   0.0800 
 44 H        7.1900     7.3160     1.8670 H     1 <1>   0.0800 
 45 H        5.4610     5.7790    -1.7390 H     1 <1>   0.0800 
 46 H        6.7390     6.9340    -1.8960 H     1 <1>   0.0800 
 47 H        7.3280     4.3560    -0.5680 H     1 <1>   0.0800 
 48 H        7.9650     4.8880     0.9740 H     1 <1>   0.0800 
 49 H        6.3000     9.5530     1.1680 H     1 <1>   0.0800 
 50 H        5.0020     8.3910     1.3310 H     1 <1>   0.0800 
 51 H        4.0390     7.5210    -0.6580 H     1 <1>   0.0800 
 52 H        4.6620     8.1020    -2.1820 H     1 <1>   0.0800 
 53 H        8.4520     6.1920    -1.4750 H     1 <1>   0.4000 
@<TRIPOS>BOND
  1   1   2  2   
  2   2   3  am  
  3   2   4  1   
  4   3   5  1   
  5   3  26  1   
  6   4   6  ar  
  7   4   7  ar  
  8   5   8  1   
  9   5  27  1   
 10   5  28  1   
 11   6   9  ar  
 12   6  29  1   
 13   7  10  ar  
 14   7  30  1   
 15   8  11  1   
 16   8  31  1   
 17   8  32  1   
 18   9  12  ar  
 19   9  33  1   
 20  10  12  ar  
 21  10  34  1   
 22  11  13  2   
 23  11  14  am  
 24  12  15  1   
 25  14  16  1   
 26  14  17  1   
 27  15  35  1   
 28  15  36  1   
 29  15  37  1   
 30  16  18  1   
 31  16  38  1   
 32  16  39  1   
 33  17  40  1   
 34  17  41  1   
 35  17  42  1   
 36  18  19  1   
 37  18  20  1   
 38  18  21  1   
 39  19  22  1   
 40  19  43  1   
 41  19  44  1   
 42  20  23  1   
 43  20  45  1   
 44  20  46  1   
 45  21  24  1   
 46  21  47  1   
 47  21  48  1   
 48  22  25  1   
 49  22  49  1   
 50  22  50  1   
 51  23  25  1   
 52  23  51  1   
 53  23  52  1   
 54  24  53  1   
@<TRIPOS>SUBSTRUCTURE
  1 ****   8 GROUP 4 **** **** 0

# MOE 2024.06 (io_trps.svl 2023.06)
