@<TRIPOS>MOLECULE
NONAME
50 53 1 0 0 
SMALL
USER_CHARGES


@<TRIPOS>ATOM
  1 F        0.7600    -1.1500     2.1360 F     1 <1>  -0.1900 
  2 C        0.3710    -2.3500     1.7960 C.ar  1 <1>   0.1900 
  3 C        1.2740    -3.1920     1.1770 C.ar  1 <1>  -0.1500 
  4 C       -0.9280    -2.7320     2.0690 C.ar  1 <1>  -0.1500 
  5 C        0.8560    -4.4630     0.8180 C.ar  1 <1>  -0.1500 
  6 C       -1.3340    -4.0050     1.7050 C.ar  1 <1>  -0.1500 
  7 C       -0.4450    -4.8730     1.0810 C.ar  1 <1>  -0.1430 
  8 C       -0.9050    -6.2660     0.6830 C.3   1 <1>  -0.0160 
  9 C       -1.6330    -6.2210    -0.6600 C.3   1 <1>   0.1400 
 10 N       -2.0720    -7.5830    -1.0410 N.am  1 <1>  -0.7300 
 11 C       -3.3060    -8.1100    -0.8210 C.2   1 <1>   0.5690 
 12 O       -4.1660    -7.4830    -0.2480 O.2   1 <1>  -0.5700 
 13 C       -3.6100    -9.5360    -1.2910 C.3   1 <1>   0.2610 
 14 O       -2.4480   -10.1300    -1.8550 O.3   1 <1>  -0.5600 
 15 C       -4.2370   -10.3430    -0.1140 C.3   1 <1>   0.3640 
 16 C       -2.5590   -11.5070    -2.1030 C.3   1 <1>   0.1810 
 17 N       -3.6060   -11.6800     0.1380 N.am  1 <1>  -0.5090 
 18 C       -5.7350   -10.5100    -0.3740 C.ar  1 <1>  -0.1430 
 19 C       -2.8070   -12.2660    -0.8060 C.2   1 <1>   0.5690 
 20 C       -3.6920   -12.1980     1.5270 C.3   1 <1>   0.0490 
 21 C       -6.6220    -9.5670     0.1300 C.ar  1 <1>   0.1600 
 22 C       -6.2460   -11.5690    -1.1050 C.ar  1 <1>  -0.1500 
 23 O       -2.2790   -13.3450    -0.6630 O.2   1 <1>  -0.5700 
 24 C       -4.1800   -13.5960     1.7420 C.3   1 <1>  -0.2000 
 25 C       -5.0220   -12.4410     2.1760 C.3   1 <1>  -0.2000 
 26 N       -7.9350    -9.6000    -0.0290 N.ar  1 <1>  -0.6200 
 27 C       -7.6120   -11.6150    -1.2790 C.ar  1 <1>  -0.1500 
 28 C       -8.4000   -10.6210    -0.7280 C.ar  1 <1>   0.1600 
 29 H        2.2770    -2.8580     0.9820 H     1 <1>   0.1500 
 30 H       -1.6010    -2.0480     2.5520 H     1 <1>   0.1500 
 31 H        1.5500    -5.1290     0.3350 H     1 <1>   0.1500 
 32 H       -2.3440    -4.3180     1.9090 H     1 <1>   0.1500 
 33 H       -1.5710    -6.6500     1.4360 H     1 <1>   0.0800 
 34 H       -0.0580    -6.9240     0.6150 H     1 <1>   0.0800 
 35 H       -0.9820    -5.8270    -1.4210 H     1 <1>   0.0800 
 36 H       -2.4910    -5.5740    -0.5820 H     1 <1>   0.0800 
 37 H       -1.3860    -8.1830    -1.5120 H     1 <1>   0.3700 
 38 H       -4.3320    -9.4560    -2.0840 H     1 <1>   0.0800 
 39 H       -4.1210    -9.7700     0.7900 H     1 <1>   0.0800 
 40 H       -3.3620   -11.6780    -2.7970 H     1 <1>   0.0800 
 41 H       -1.6350   -11.8390    -2.5420 H     1 <1>   0.0800 
 42 H       -2.8750   -11.8560     2.1410 H     1 <1>   0.1000 
 43 H       -6.2360    -8.7340     0.6950 H     1 <1>   0.1500 
 44 H       -5.6190   -12.3400    -1.5190 H     1 <1>   0.1500 
 45 H       -4.4780   -14.1710     0.8830 H     1 <1>   0.1000 
 46 H       -3.6990   -14.1970     2.4940 H     1 <1>   0.1000 
 47 H       -5.1240   -12.2630     3.2310 H     1 <1>   0.1000 
 48 H       -5.9410   -12.2790     1.6440 H     1 <1>   0.1000 
 49 H       -8.0660   -12.4150    -1.8340 H     1 <1>   0.1500 
 50 H       -9.4660   -10.6670    -0.8690 H     1 <1>   0.1500 
@<TRIPOS>BOND
  1   1   2  1   
  2   2   3  ar  
  3   2   4  ar  
  4   3   5  ar  
  5   3  29  1   
  6   4   6  ar  
  7   4  30  1   
  8   5   7  ar  
  9   5  31  1   
 10   6   7  ar  
 11   6  32  1   
 12   7   8  1   
 13   8   9  1   
 14   8  33  1   
 15   8  34  1   
 16   9  10  1   
 17   9  35  1   
 18   9  36  1   
 19  10  11  am  
 20  10  37  1   
 21  11  12  2   
 22  11  13  1   
 23  13  14  1   
 24  13  15  1   
 25  13  38  1   
 26  14  16  1   
 27  15  17  1   
 28  15  18  1   
 29  15  39  1   
 30  16  19  1   
 31  16  40  1   
 32  16  41  1   
 33  17  19  am  
 34  17  20  1   
 35  18  21  ar  
 36  18  22  ar  
 37  19  23  2   
 38  20  24  1   
 39  20  25  1   
 40  20  42  1   
 41  21  26  ar  
 42  21  43  1   
 43  22  27  ar  
 44  22  44  1   
 45  24  25  1   
 46  24  45  1   
 47  24  46  1   
 48  25  47  1   
 49  25  48  1   
 50  26  28  ar  
 51  27  28  ar  
 52  27  49  1   
 53  28  50  1   
@<TRIPOS>SUBSTRUCTURE
  1 ****  11 GROUP 4 **** **** 0

# MOE 2024.06 (io_trps.svl 2023.06)
