@<TRIPOS>MOLECULE
NONAME
42 44 1 0 0 
SMALL
USER_CHARGES


@<TRIPOS>ATOM
  1 S       -0.1630     1.9680     1.5930 S.3   1 <1>  -0.3320 
  2 C        0.3070     2.8580     0.1130 C.ar  1 <1>   0.7220 
  3 C       -1.8940     1.3990     1.2840 C.3   1 <1>  -0.0100 
  4 N        1.5340     3.3320     0.1290 N.ar  1 <1>  -0.6200 
  5 N       -0.6250     2.9450    -0.8240 N.ar  1 <1>  -0.6200 
  6 C        1.8850     3.9890    -0.9570 C.ar  1 <1>   0.4100 
  7 C       -0.2430     3.6050    -1.8990 C.ar  1 <1>   0.1600 
  8 N        3.1500     4.5300    -0.9980 N.pl3 1 <1>  -0.8380 
  9 C        1.0070     4.1490    -2.0120 C.ar  1 <1>  -0.1500 
 10 C        3.3050     6.0080    -1.1280 C.3   1 <1>   0.2090 
 11 C        4.2760     3.8240    -0.3240 C.3   1 <1>   0.1290 
 12 C        2.8410     6.7110     0.1520 C.3   1 <1>   0.0200 
 13 C        2.9560     8.2220     0.0460 C.2   1 <1>   0.0060 
 14 N        2.4910     9.0350     1.0300 N.pl3 1 <1>   0.0330 
 15 N        3.4830     8.8570    -0.9440 N.2   1 <1>  -0.5650 
 16 C        2.7490    10.3020     0.6220 C.ar  1 <1>  -0.1520 
 17 C        3.3660    10.1720    -0.6070 C.ar  1 <1>   0.2270 
 18 C        2.5140    11.5570     1.1840 C.ar  1 <1>  -0.1500 
 19 C        3.7660    11.3080    -1.3070 C.ar  1 <1>  -0.1500 
 20 C        2.9090    12.6820     0.4920 C.ar  1 <1>   0.0830 
 21 C        3.5390    12.5540    -0.7620 C.ar  1 <1>  -0.1500 
 22 O        2.6590    13.8810     1.0800 O.3   1 <1>  -0.3620 
 23 C        3.0240    15.0930     0.4570 C.3   1 <1>   0.0400 
 24 H       -2.2200     0.8520     2.1490 H     1 <1>   0.0800 
 25 H       -1.8840     0.7720     0.4110 H     1 <1>   0.0800 
 26 H       -2.5040     2.2700     1.1240 H     1 <1>   0.0800 
 27 H       -0.9530     3.7090    -2.7030 H     1 <1>   0.1500 
 28 H        1.3160     4.6800    -2.8900 H     1 <1>   0.1500 
 29 H        2.7220     6.3630    -1.9600 H     1 <1>   0.0800 
 30 H        4.3360     6.2510    -1.3240 H     1 <1>   0.0800 
 31 H        4.1190     2.7590    -0.3700 H     1 <1>   0.0800 
 32 H        4.3310     4.1190     0.7090 H     1 <1>   0.0800 
 33 H        5.2040     4.0570    -0.8150 H     1 <1>   0.0800 
 34 H        3.4390     6.3730     0.9780 H     1 <1>   0.0800 
 35 H        1.8140     6.4550     0.3400 H     1 <1>   0.0800 
 36 H        2.0350     8.7590     1.9030 H     1 <1>   0.2700 
 37 H        2.0330    11.6520     2.1410 H     1 <1>   0.1500 
 38 H        4.2440    11.1810    -2.2600 H     1 <1>   0.1500 
 39 H        3.8520    13.4210    -1.3100 H     1 <1>   0.1500 
 40 H        2.7290    15.9010     1.1020 H     1 <1>   0.0800 
 41 H        2.5090    15.1700    -0.4840 H     1 <1>   0.0800 
 42 H        4.0900    15.1060     0.3180 H     1 <1>   0.0800 
@<TRIPOS>BOND
  1   1   2  1   
  2   1   3  1   
  3   2   4  ar  
  4   2   5  ar  
  5   3  24  1   
  6   3  25  1   
  7   3  26  1   
  8   4   6  ar  
  9   5   7  ar  
 10   6   8  1   
 11   6   9  ar  
 12   7   9  ar  
 13   7  27  1   
 14   8  10  1   
 15   8  11  1   
 16   9  28  1   
 17  10  12  1   
 18  10  29  1   
 19  10  30  1   
 20  11  31  1   
 21  11  32  1   
 22  11  33  1   
 23  12  13  1   
 24  12  34  1   
 25  12  35  1   
 26  13  14  1   
 27  13  15  2   
 28  14  16  1   
 29  14  36  1   
 30  15  17  1   
 31  16  17  ar  
 32  16  18  ar  
 33  17  19  ar  
 34  18  20  ar  
 35  18  37  1   
 36  19  21  ar  
 37  19  38  1   
 38  20  21  ar  
 39  20  22  1   
 40  21  39  1   
 41  22  23  1   
 42  23  40  1   
 43  23  41  1   
 44  23  42  1   
@<TRIPOS>SUBSTRUCTURE
  1 ****  12 GROUP 4 **** **** 0

# MOE 2024.06 (io_trps.svl 2023.06)
