@<TRIPOS>MOLECULE
NONAME
40 42 1 0 0 
SMALL
USER_CHARGES


@<TRIPOS>ATOM
  1 O        1.6130     0.5100     1.3250 O.3   1 <1>  -0.6800 
  2 C        1.7820    -0.1070     0.0890 C.3   1 <1>   0.2000 
  3 C        2.5220    -1.4250     0.3080 C.3   1 <1>  -0.0800 
  4 C        2.7740     0.7160    -0.7360 C.3   1 <1>   0.3430 
  5 C        4.0110    -1.0230     0.3470 C.3   1 <1>   0.3430 
  6 C        2.2200    -2.4380    -0.8190 C.3   1 <1>  -0.0170 
  7 N        4.1270     0.3730    -0.1870 N.4   1 <1>  -0.9590 
  8 C        2.8310    -3.8070    -0.5490 C.ar  1 <1>   0.1670 
  9 C        4.5380     1.3080     0.9070 C.3   1 <1>   0.4860 
 10 N        4.1510    -3.8830    -0.6080 N.ar  1 <1>  -0.6200 
 11 C        2.0100    -4.8980    -0.2640 C.ar  1 <1>   0.1600 
 12 C        4.5780     2.7290     0.3940 C.ar  1 <1>  -0.1440 
 13 C        4.5890    -5.1130    -0.3770 C.ar  1 <1>   0.1600 
 14 N        2.4480    -6.1200    -0.0220 N.ar  1 <1>  -0.6200 
 15 C        5.6040     3.1940    -0.3980 C.ar  1 <1>   0.1600 
 16 C        3.5740     3.6210     0.7020 C.ar  1 <1>   0.1600 
 17 C        3.7650    -6.1940    -0.0920 C.ar  1 <1>   0.1600 
 18 N        5.6200     4.4150    -0.8710 N.ar  1 <1>  -0.6200 
 19 N        3.5670     4.8460     0.2400 N.ar  1 <1>  -0.6200 
 20 C        4.5890     5.1700    -0.5320 C.ar  1 <1>   0.7200 
 21 N        4.5870     6.4100    -1.0160 N.pl3 1 <1>  -0.9000 
 22 H        0.8470     0.1310     1.8100 H     1 <1>   0.4000 
 23 H        0.8200    -0.2020    -0.3880 H     1 <1>   0.0800 
 24 H        2.2360    -1.8750     1.2440 H     1 <1>   0.0800 
 25 H        2.5510     1.7680    -0.6840 H     1 <1>   0.0800 
 26 H        2.7170     0.4010    -1.7640 H     1 <1>   0.0800 
 27 H        4.6050    -1.6940    -0.2490 H     1 <1>   0.0800 
 28 H        4.3690    -1.0680     1.3630 H     1 <1>   0.0800 
 29 H        2.5950    -2.0790    -1.7620 H     1 <1>   0.0800 
 30 H        1.1540    -2.5490    -0.9200 H     1 <1>   0.0800 
 31 H        4.8250     0.4120    -0.9400 H     1 <1>   0.4500 
 32 H        3.8390     1.2450     1.7260 H     1 <1>   0.0800 
 33 H        5.5120     1.0340     1.2790 H     1 <1>   0.0800 
 34 H        0.9430    -4.7620    -0.2350 H     1 <1>   0.1500 
 35 H        5.6520    -5.2780    -0.4140 H     1 <1>   0.1500 
 36 H        6.4340     2.5590    -0.6590 H     1 <1>   0.1500 
 37 H        2.7520     3.3270     1.3350 H     1 <1>   0.1500 
 38 H        4.2130    -7.1570     0.0840 H     1 <1>   0.1500 
 39 H        3.9820     7.0730    -0.5380 H     1 <1>   0.4000 
 40 H        5.4820     6.7620    -1.3450 H     1 <1>   0.4000 
@<TRIPOS>BOND
  1   1   2  1   
  2   1  22  1   
  3   2   3  1   
  4   2   4  1   
  5   2  23  1   
  6   3   5  1   
  7   3   6  1   
  8   3  24  1   
  9   4   7  1   
 10   4  25  1   
 11   4  26  1   
 12   5   7  1   
 13   5  27  1   
 14   5  28  1   
 15   6   8  1   
 16   6  29  1   
 17   6  30  1   
 18   7   9  1   
 19   7  31  1   
 20   8  10  ar  
 21   8  11  ar  
 22   9  12  1   
 23   9  32  1   
 24   9  33  1   
 25  10  13  ar  
 26  11  14  ar  
 27  11  34  1   
 28  12  15  ar  
 29  12  16  ar  
 30  13  17  ar  
 31  13  35  1   
 32  14  17  ar  
 33  15  18  ar  
 34  15  36  1   
 35  16  19  ar  
 36  16  37  1   
 37  17  38  1   
 38  18  20  ar  
 39  19  20  ar  
 40  20  21  1   
 41  21  39  1   
 42  21  40  1   
@<TRIPOS>SUBSTRUCTURE
  1 ****   7 GROUP 4 **** **** 0

# MOE 2024.06 (io_trps.svl 2023.06)
