@<TRIPOS>MOLECULE
NONAME
60 63 1 0 0 
SMALL
USER_CHARGES


@<TRIPOS>ATOM
  1 O       -0.3060    -0.4570     0.3850 O.3   1 <1>  -0.5600 
  2 C        0.6590    -1.3030     0.9310 C.3   1 <1>   0.2000 
  3 C       -1.2790     0.0020     1.2720 C.3   1 <1>   0.0400 
  4 C        1.9030    -1.2960     0.0170 C.3   1 <1>   0.0000 
  5 C        0.1420    -2.7450     0.8690 C.3   1 <1>  -0.1600 
  6 C        3.0830    -1.9270     0.7970 C.3   1 <1>   0.3430 
  7 C        2.2860     0.1110    -0.5000 C.3   1 <1>  -0.1600 
  8 C        1.4790    -2.2360    -1.1280 C.3   1 <1>  -0.1600 
  9 C        0.5770    -3.3010    -0.4930 C.3   1 <1>  -0.1600 
 10 N        4.4240    -1.3390     0.4530 N.4   1 <1>  -0.9590 
 11 C        3.5610     0.0850    -1.3670 C.3   1 <1>  -0.1600 
 12 C        4.5510    -1.0240    -0.9970 C.3   1 <1>   0.3430 
 13 C        5.5420    -2.1870     0.9480 C.3   1 <1>   0.4860 
 14 C        6.8400    -1.4210     0.7910 C.ar  1 <1>  -0.1440 
 15 C        7.7270    -1.7530    -0.2230 C.ar  1 <1>  -0.1500 
 16 C        7.1570    -0.3820     1.6560 C.ar  1 <1>  -0.1500 
 17 C        8.9020    -1.0440    -0.3780 C.ar  1 <1>  -0.1500 
 18 C        8.3360     0.3210     1.4960 C.ar  1 <1>  -0.1500 
 19 C        9.2230     0.0080     0.4720 C.ar  1 <1>   0.1000 
 20 N       10.4210     0.7110     0.2960 N.pl3 1 <1>  -0.5690 
 21 C       11.6500     0.0570     0.1100 C.ar  1 <1>   0.1000 
 22 C       10.3870     2.1930     0.1970 C.3   1 <1>   0.1290 
 23 C       12.0030    -1.0090     0.9310 C.ar  1 <1>  -0.1500 
 24 C       12.5380     0.4420    -0.8900 C.ar  1 <1>  -0.1500 
 25 C       13.2070    -1.6700     0.7630 C.ar  1 <1>  -0.1500 
 26 C       13.7430    -0.2160    -1.0620 C.ar  1 <1>  -0.1500 
 27 C       14.0800    -1.2730    -0.2340 C.ar  1 <1>  -0.1500 
 28 H        0.8830    -0.9760     1.9340 H     1 <1>   0.0800 
 29 H       -1.9670     0.6190     0.7210 H     1 <1>   0.0800 
 30 H       -0.8110     0.5860     2.0450 H     1 <1>   0.0800 
 31 H       -1.8090    -0.8330     1.6960 H     1 <1>   0.0800 
 32 H        0.6000    -3.3240     1.6510 H     1 <1>   0.0800 
 33 H       -0.9260    -2.7990     0.9930 H     1 <1>   0.0800 
 34 H        3.0880    -2.9870     0.6010 H     1 <1>   0.0800 
 35 H        2.9120    -1.7960     1.8520 H     1 <1>   0.0800 
 36 H        1.4810     0.5400    -1.0730 H     1 <1>   0.0800 
 37 H        2.4450     0.7580     0.3460 H     1 <1>   0.0800 
 38 H        0.8870    -1.6810    -1.8370 H     1 <1>   0.0800 
 39 H        2.3050    -2.6800    -1.6530 H     1 <1>   0.0800 
 40 H        1.1040    -4.2310    -0.3660 H     1 <1>   0.0800 
 41 H       -0.2820    -3.4770    -1.1200 H     1 <1>   0.0800 
 42 H        4.5080    -0.4340     0.9310 H     1 <1>   0.4500 
 43 H        4.0520     1.0400    -1.3030 H     1 <1>   0.0800 
 44 H        3.2850    -0.0520    -2.3990 H     1 <1>   0.0800 
 45 H        5.5530    -0.6970    -1.2320 H     1 <1>   0.0800 
 46 H        4.3390    -1.9070    -1.5760 H     1 <1>   0.0800 
 47 H        5.3960    -2.4250     1.9890 H     1 <1>   0.0800 
 48 H        5.5880    -3.1080     0.3890 H     1 <1>   0.0800 
 49 H        7.5210    -2.5640    -0.9010 H     1 <1>   0.1500 
 50 H        6.5000    -0.1120     2.4660 H     1 <1>   0.1500 
 51 H        9.5930    -1.3000    -1.1620 H     1 <1>   0.1500 
 52 H        8.5870     1.1140     2.1780 H     1 <1>   0.1500 
 53 H       11.2930     2.6040     0.6080 H     1 <1>   0.0800 
 54 H        9.5490     2.5930     0.7380 H     1 <1>   0.0800 
 55 H       10.3030     2.4810    -0.8360 H     1 <1>   0.0800 
 56 H       11.3270    -1.3160     1.7070 H     1 <1>   0.1500 
 57 H       12.2830     1.2530    -1.5440 H     1 <1>   0.1500 
 58 H       13.4630    -2.4920     1.4080 H     1 <1>   0.1500 
 59 H       14.4190     0.0930    -1.8400 H     1 <1>   0.1500 
 60 H       15.0160    -1.7860    -0.3670 H     1 <1>   0.1500 
@<TRIPOS>BOND
  1   1   2  1   
  2   1   3  1   
  3   2   4  1   
  4   2   5  1   
  5   2  28  1   
  6   3  29  1   
  7   3  30  1   
  8   3  31  1   
  9   4   6  1   
 10   4   7  1   
 11   4   8  1   
 12   5   9  1   
 13   5  32  1   
 14   5  33  1   
 15   6  10  1   
 16   6  34  1   
 17   6  35  1   
 18   7  11  1   
 19   7  36  1   
 20   7  37  1   
 21   8   9  1   
 22   8  38  1   
 23   8  39  1   
 24   9  40  1   
 25   9  41  1   
 26  10  12  1   
 27  10  13  1   
 28  10  42  1   
 29  11  12  1   
 30  11  43  1   
 31  11  44  1   
 32  12  45  1   
 33  12  46  1   
 34  13  14  1   
 35  13  47  1   
 36  13  48  1   
 37  14  15  ar  
 38  14  16  ar  
 39  15  17  ar  
 40  15  49  1   
 41  16  18  ar  
 42  16  50  1   
 43  17  19  ar  
 44  17  51  1   
 45  18  19  ar  
 46  18  52  1   
 47  19  20  1   
 48  20  21  1   
 49  20  22  1   
 50  21  23  ar  
 51  21  24  ar  
 52  22  53  1   
 53  22  54  1   
 54  22  55  1   
 55  23  25  ar  
 56  23  56  1   
 57  24  26  ar  
 58  24  57  1   
 59  25  27  ar  
 60  25  58  1   
 61  26  27  ar  
 62  26  59  1   
 63  27  60  1   
@<TRIPOS>SUBSTRUCTURE
  1 ****  14 GROUP 4 **** **** 0

# MOE 2024.06 (io_trps.svl 2023.06)
