@<TRIPOS>MOLECULE
NONAME
51 55 1 0 0 
SMALL
USER_CHARGES


@<TRIPOS>ATOM
  1 S        0.2770     1.2830    -1.9760 S.3   1 <1>  -0.0800 
  2 C       -0.8170     1.6230    -0.6440 C.2   1 <1>  -0.1400 
  3 C       -0.8620     0.1280    -2.6570 C.2   1 <1>  -0.1100 
  4 C       -1.9420     0.9060    -0.7600 C.2   1 <1>  -0.1810 
  5 C       -0.4820     2.6110     0.4670 C.3   1 <1>   0.4600 
  6 C       -1.9740     0.0450    -1.9020 C.2   1 <1>  -0.1500 
  7 C       -3.0320     1.0590     0.2770 C.3   1 <1>   0.0210 
  8 O       -1.4950     2.5460     1.4530 O.3   1 <1>  -0.5600 
  9 C       -0.3980     4.0480    -0.0650 C.3   1 <1>  -0.1600 
 10 C        0.8250     2.2230     1.1680 C.3   1 <1>  -0.1600 
 11 C       -2.8290     2.3900     1.0270 C.3   1 <1>   0.1200 
 12 C       -0.0110     5.0350     1.0370 C.3   1 <1>   0.1400 
 13 C        1.2030     3.2270     2.2580 C.3   1 <1>   0.1400 
 14 N        1.2670     4.5950     1.6660 N.am  1 <1>  -0.6600 
 15 C        2.3910     5.3870     1.7770 C.2   1 <1>   0.5440 
 16 O        3.3350     5.0000     2.4350 O.2   1 <1>  -0.5700 
 17 C        2.4740     6.6760     1.1420 C.ar  1 <1>   0.0860 
 18 C        2.6850     6.8730    -0.2140 C.ar  1 <1>   0.1670 
 19 C        2.3330     7.8250     1.8900 C.ar  1 <1>   0.1600 
 20 N        2.7140     8.0710    -0.7500 N.ar  1 <1>  -0.6200 
 21 C        2.9020     5.7210    -1.1830 C.3   1 <1>  -0.0970 
 22 N        2.3590     9.0330     1.3750 N.ar  1 <1>  -0.6200 
 23 C        2.5520     9.1240     0.0570 C.ar  1 <1>   0.6200 
 24 C        2.5850    10.4500    -0.5360 C.ar  1 <1>   0.0000 
 25 C        3.1680    10.6720    -1.7870 C.ar  1 <1>   0.1600 
 26 C        2.0450    11.5660     0.0980 C.ar  1 <1>  -0.1500 
 27 N        3.2510    11.8350    -2.4180 N.ar  1 <1>  -0.6200 
 28 C        2.1200    12.7860    -0.5380 C.ar  1 <1>  -0.1500 
 29 C        2.7250    12.8660    -1.7790 C.ar  1 <1>   0.1600 
 30 H       -0.5740    -0.3740    -3.5630 H     1 <1>   0.1500 
 31 H       -2.8210    -0.5880    -2.1000 H     1 <1>   0.1500 
 32 H       -2.9930     0.2380     0.9700 H     1 <1>   0.0800 
 33 H       -3.9970     1.0600    -0.1970 H     1 <1>   0.0800 
 34 H       -1.3350     4.3340    -0.5050 H     1 <1>   0.0800 
 35 H        0.3420     4.0920    -0.8420 H     1 <1>   0.0800 
 36 H        1.6240     2.1820     0.4520 H     1 <1>   0.0800 
 37 H        0.7190     1.2420     1.5940 H     1 <1>   0.0800 
 38 H       -3.4570     2.4230     1.9000 H     1 <1>   0.0800 
 39 H       -3.0830     3.2190     0.3900 H     1 <1>   0.0800 
 40 H       -0.7800     5.0560     1.7920 H     1 <1>   0.0800 
 41 H        0.0750     6.0240     0.6240 H     1 <1>   0.0800 
 42 H        2.1500     2.9490     2.6880 H     1 <1>   0.0800 
 43 H        0.4650     3.2160     3.0420 H     1 <1>   0.0800 
 44 H        2.1910     7.7330     2.9540 H     1 <1>   0.1500 
 45 H        2.9830     4.7750    -0.6820 H     1 <1>   0.0800 
 46 H        3.8090     5.8860    -1.7350 H     1 <1>   0.0800 
 47 H        2.0840     5.6770    -1.8780 H     1 <1>   0.0800 
 48 H        3.5970     9.8300    -2.3030 H     1 <1>   0.1500 
 49 H        1.5790    11.4820     1.0650 H     1 <1>   0.1500 
 50 H        1.7150    13.6690    -0.0800 H     1 <1>   0.1500 
 51 H        2.7800    13.8220    -2.2710 H     1 <1>   0.1500 
@<TRIPOS>BOND
  1   1   2  1   
  2   1   3  1   
  3   2   4  2   
  4   2   5  1   
  5   3   6  2   
  6   3  30  1   
  7   4   6  1   
  8   4   7  1   
  9   5   8  1   
 10   5   9  1   
 11   5  10  1   
 12   6  31  1   
 13   7  11  1   
 14   7  32  1   
 15   7  33  1   
 16   8  11  1   
 17   9  12  1   
 18   9  34  1   
 19   9  35  1   
 20  10  13  1   
 21  10  36  1   
 22  10  37  1   
 23  11  38  1   
 24  11  39  1   
 25  12  14  1   
 26  12  40  1   
 27  12  41  1   
 28  13  14  1   
 29  13  42  1   
 30  13  43  1   
 31  14  15  am  
 32  15  16  2   
 33  15  17  1   
 34  17  18  ar  
 35  17  19  ar  
 36  18  20  ar  
 37  18  21  1   
 38  19  22  ar  
 39  19  44  1   
 40  20  23  ar  
 41  21  45  1   
 42  21  46  1   
 43  21  47  1   
 44  22  23  ar  
 45  23  24  1   
 46  24  25  ar  
 47  24  26  ar  
 48  25  27  ar  
 49  25  48  1   
 50  26  28  ar  
 51  26  49  1   
 52  27  29  ar  
 53  28  29  ar  
 54  28  50  1   
 55  29  51  1   
@<TRIPOS>SUBSTRUCTURE
  1 ****  12 GROUP 4 **** **** 0

# MOE 2024.06 (io_trps.svl 2023.06)
