@<TRIPOS>MOLECULE
NONAME
41 41 1 0 0 
SMALL
USER_CHARGES


@<TRIPOS>ATOM
  1 O       -1.1980    -0.5520     0.4610 O.2   1 <1>  -0.5700 
  2 C       -1.9760     0.3260     0.1670 C.2   1 <1>   0.5690 
  3 N       -3.3070     0.2220     0.4790 N.am  1 <1>  -0.6600 
  4 C       -1.4100     1.5430    -0.5510 C.3   1 <1>  -0.0990 
  5 C       -3.7750    -0.8930     1.3550 C.3   1 <1>   0.3200 
  6 C       -4.4120     1.0050    -0.1500 C.3   1 <1>   0.1400 
  7 C       -0.8540     2.5730     0.4530 C.3   1 <1>  -0.1600 
  8 C       -4.0100    -2.1480     0.5330 C.2   1 <1>   0.0060 
  9 C       -4.7050     2.2750     0.6540 C.3   1 <1>   0.1200 
 10 C       -0.3630     3.9090    -0.1500 C.3   1 <1>   0.0000 
 11 N       -5.1520    -2.7410     0.3790 N.2   1 <1>  -0.5650 
 12 N       -2.9950    -2.7520    -0.1170 N.pl3 1 <1>   0.0330 
 13 O       -5.7310     2.9840     0.0460 O.3   1 <1>  -0.6800 
 14 C       -1.5200     4.6910    -0.7920 C.3   1 <1>  -0.2400 
 15 C        0.2220     4.7620     0.9850 C.3   1 <1>  -0.2400 
 16 C        0.7340     3.6770    -1.1990 C.3   1 <1>  -0.2400 
 17 C       -4.8620    -3.7900    -0.4160 C.2   1 <1>   0.0770 
 18 C       -3.5480    -3.8130    -0.7300 C.2   1 <1>  -0.3020 
 19 H       -2.1510     1.9870    -1.1800 H     1 <1>   0.0800 
 20 H       -0.6150     1.2010    -1.1880 H     1 <1>   0.0800 
 21 H       -4.6880    -0.6140     1.8520 H     1 <1>   0.0800 
 22 H       -3.0370    -1.0980     2.1120 H     1 <1>   0.0800 
 23 H       -5.3020     0.3960    -0.1860 H     1 <1>   0.0800 
 24 H       -4.1520     1.2560    -1.1620 H     1 <1>   0.0800 
 25 H       -0.0360     2.1080     0.9780 H     1 <1>   0.0800 
 26 H       -1.6100     2.7840     1.1890 H     1 <1>   0.0800 
 27 H       -3.8430     2.9140     0.7050 H     1 <1>   0.0800 
 28 H       -5.0290     2.0220     1.6490 H     1 <1>   0.0800 
 29 H       -2.0210    -2.4130    -0.1250 H     1 <1>   0.2700 
 30 H       -5.4520     3.3460    -0.8170 H     1 <1>   0.4000 
 31 H       -2.3170     4.8360    -0.0840 H     1 <1>   0.0800 
 32 H       -1.9100     4.1780    -1.6510 H     1 <1>   0.0800 
 33 H       -1.1800     5.6590    -1.1160 H     1 <1>   0.0800 
 34 H       -0.5220     4.9560     1.7370 H     1 <1>   0.0800 
 35 H        0.5750     5.7060     0.6090 H     1 <1>   0.0800 
 36 H        1.0500     4.2560     1.4500 H     1 <1>   0.0800 
 37 H        0.3480     3.1570    -2.0570 H     1 <1>   0.0800 
 38 H        1.5380     3.0980    -0.7810 H     1 <1>   0.0800 
 39 H        1.1360     4.6170    -1.5370 H     1 <1>   0.0800 
 40 H       -5.6260    -4.4840    -0.7250 H     1 <1>   0.1500 
 41 H       -2.9920    -4.5040    -1.3370 H     1 <1>   0.1500 
@<TRIPOS>BOND
  1   1   2  2   
  2   2   3  am  
  3   2   4  1   
  4   3   5  1   
  5   3   6  1   
  6   4   7  1   
  7   4  19  1   
  8   4  20  1   
  9   5   8  1   
 10   5  21  1   
 11   5  22  1   
 12   6   9  1   
 13   6  23  1   
 14   6  24  1   
 15   7  10  1   
 16   7  25  1   
 17   7  26  1   
 18   8  11  2   
 19   8  12  1   
 20   9  13  1   
 21   9  27  1   
 22   9  28  1   
 23  10  14  1   
 24  10  15  1   
 25  10  16  1   
 26  11  17  1   
 27  12  18  1   
 28  12  29  1   
 29  13  30  1   
 30  14  31  1   
 31  14  32  1   
 32  14  33  1   
 33  15  34  1   
 34  15  35  1   
 35  15  36  1   
 36  16  37  1   
 37  16  38  1   
 38  16  39  1   
 39  17  18  2   
 40  17  40  1   
 41  18  41  1   
@<TRIPOS>SUBSTRUCTURE
  1 ****   2 GROUP 4 **** **** 0

# MOE 2024.06 (io_trps.svl 2023.06)
