@<TRIPOS>MOLECULE
NONAME
40 42 1 0 0 
SMALL
USER_CHARGES


@<TRIPOS>ATOM
  1 O       -1.8940     0.1880     1.2630 O.2   1 <1>  -0.5700 
  2 C       -2.7620     0.8170     0.6970 C.2   1 <1>   0.5690 
  3 N       -4.0610     0.3620     0.7270 N.am  1 <1>  -0.6600 
  4 C       -2.3830     2.1130    -0.0440 C.3   1 <1>   0.1250 
  5 C       -4.3800    -0.9030     1.4590 C.3   1 <1>   0.3200 
  6 C       -5.2090     0.9090    -0.0570 C.3   1 <1>   0.1400 
  7 C       -0.9020     2.3510    -0.2840 C.ar  1 <1>  -0.1440 
  8 C       -2.8100     3.3820     0.7290 C.3   1 <1>  -0.1600 
  9 C       -4.0290    -2.1090     0.6060 C.2   1 <1>   0.0060 
 10 C       -6.1410     1.7220     0.8490 C.3   1 <1>   0.1200 
 11 C       -0.5580     3.6530    -0.0140 C.ar  1 <1>  -0.1440 
 12 C        0.0520     1.4560    -0.7360 C.ar  1 <1>  -0.1500 
 13 C       -1.7440     4.4550     0.4550 C.3   1 <1>  -0.0160 
 14 N       -4.8810    -2.9560     0.1200 N.2   1 <1>  -0.5650 
 15 N       -2.7470    -2.3870     0.2870 N.pl3 1 <1>   0.0330 
 16 O       -7.1200     2.3340     0.0790 O.3   1 <1>  -0.6800 
 17 C        0.7420     4.0950    -0.1810 C.ar  1 <1>  -0.1500 
 18 C        1.3580     1.8880    -0.9070 C.ar  1 <1>  -0.1500 
 19 C       -4.1100    -3.8340    -0.5520 C.2   1 <1>   0.0770 
 20 C       -2.8030    -3.5020    -0.4630 C.2   1 <1>  -0.3020 
 21 C        1.7020     3.2030    -0.6310 C.ar  1 <1>  -0.1500 
 22 H       -2.8370     2.1120    -1.0150 H     1 <1>   0.0800 
 23 H       -5.4260    -0.9390     1.7060 H     1 <1>   0.0800 
 24 H       -3.8240    -0.9440     2.3800 H     1 <1>   0.0800 
 25 H       -5.7600     0.0910    -0.4920 H     1 <1>   0.0800 
 26 H       -4.8590     1.5290    -0.8600 H     1 <1>   0.0800 
 27 H       -2.8070     3.1650     1.7840 H     1 <1>   0.0800 
 28 H       -3.7890     3.7180     0.4420 H     1 <1>   0.0800 
 29 H       -5.6040     2.4880     1.3790 H     1 <1>   0.0800 
 30 H       -6.6380     1.0780     1.5530 H     1 <1>   0.0800 
 31 H       -0.2140     0.4360    -0.9480 H     1 <1>   0.1500 
 32 H       -1.5130     5.0190     1.3410 H     1 <1>   0.0800 
 33 H       -2.0600     5.1190    -0.3310 H     1 <1>   0.0800 
 34 H       -1.9370    -1.8150     0.5660 H     1 <1>   0.2700 
 35 H       -6.7470     3.0350    -0.4890 H     1 <1>   0.4000 
 36 H        1.0040     5.1160     0.0340 H     1 <1>   0.1500 
 37 H        2.1080     1.1990    -1.2540 H     1 <1>   0.1500 
 38 H       -4.5440    -4.6710    -1.0740 H     1 <1>   0.1500 
 39 H       -1.9360    -3.9820    -0.8780 H     1 <1>   0.1500 
 40 H        2.7170     3.5310    -0.7650 H     1 <1>   0.1500 
@<TRIPOS>BOND
  1   1   2  2   
  2   2   3  am  
  3   2   4  1   
  4   3   5  1   
  5   3   6  1   
  6   4   7  1   
  7   4   8  1   
  8   4  22  1   
  9   5   9  1   
 10   5  23  1   
 11   5  24  1   
 12   6  10  1   
 13   6  25  1   
 14   6  26  1   
 15   7  11  ar  
 16   7  12  ar  
 17   8  13  1   
 18   8  27  1   
 19   8  28  1   
 20   9  14  2   
 21   9  15  1   
 22  10  16  1   
 23  10  29  1   
 24  10  30  1   
 25  11  13  1   
 26  11  17  ar  
 27  12  18  ar  
 28  12  31  1   
 29  13  32  1   
 30  13  33  1   
 31  14  19  1   
 32  15  20  1   
 33  15  34  1   
 34  16  35  1   
 35  17  21  ar  
 36  17  36  1   
 37  18  21  ar  
 38  18  37  1   
 39  19  20  2   
 40  19  38  1   
 41  20  39  1   
 42  21  40  1   
@<TRIPOS>SUBSTRUCTURE
  1 ****   2 GROUP 4 **** **** 0

# MOE 2024.06 (io_trps.svl 2023.06)
