@<TRIPOS>MOLECULE
NONAME
57 59 1 0 0 
SMALL
USER_CHARGES


@<TRIPOS>ATOM
  1 O        1.1610     1.2080    -0.5540 O.2   1 <1>  -0.5700 
  2 C        1.8530     0.5800    -1.3230 C.2   1 <1>   0.5690 
  3 N        2.8520     1.1850    -2.0470 N.am  1 <1>  -0.6600 
  4 C        1.5570    -0.9290    -1.4450 C.3   1 <1>   0.4040 
  5 C        3.7870     0.4870    -2.9850 C.3   1 <1>   0.1400 
  6 C        3.2010     2.6170    -1.8120 C.3   1 <1>   0.1400 
  7 N        1.9540    -1.8000    -0.2680 N.4   1 <1>  -0.9590 
  8 C        5.0070    -0.1290    -2.2730 C.3   1 <1>   0.1400 
  9 C        4.2840     2.7570    -0.7320 C.3   1 <1>  -0.1600 
 10 C        1.7050    -3.2340    -0.5770 C.3   1 <1>   0.3430 
 11 C        1.3140    -1.3070     0.9880 C.3   1 <1>   0.3430 
 12 N        5.3020     0.5020    -0.9490 N.am  1 <1>  -0.6600 
 13 C        5.5750     1.9670    -1.0000 C.3   1 <1>   0.1400 
 14 C        2.6240    -4.1350     0.2470 C.3   1 <1>  -0.1600 
 15 C        1.7970    -2.0470     2.2370 C.3   1 <1>  -0.1600 
 16 C        5.2130    -0.2150     0.2160 C.2   1 <1>   0.5690 
 17 C        2.0730    -4.5340     1.6250 C.3   1 <1>  -0.1600 
 18 C        1.2360    -3.4720     2.3500 C.3   1 <1>  -0.1600 
 19 O        4.6610    -1.2940     0.2360 O.2   1 <1>  -0.5700 
 20 C        5.7770     0.3100     1.5330 C.3   1 <1>   0.0440 
 21 C        7.2840     0.5410     1.4920 C.ar  1 <1>  -0.1430 
 22 C        8.1300    -0.3600     0.8570 C.ar  1 <1>   0.1600 
 23 C        7.8360     1.6580     2.0890 C.ar  1 <1>  -0.1500 
 24 N        9.4430    -0.2300     0.7610 N.ar  1 <1>  -0.6200 
 25 C        9.2040     1.8050     2.0030 C.ar  1 <1>  -0.1500 
 26 C        9.9490     0.8480     1.3370 C.ar  1 <1>   0.1600 
 27 H        2.0450    -1.2950    -2.3290 H     1 <1>   0.0800 
 28 H        0.4970    -1.0260    -1.6020 H     1 <1>   0.0800 
 29 H        4.1440     1.1950    -3.7140 H     1 <1>   0.0800 
 30 H        3.2700    -0.2750    -3.5400 H     1 <1>   0.0800 
 31 H        2.3220     3.1590    -1.5020 H     1 <1>   0.0800 
 32 H        3.5400     3.0640    -2.7310 H     1 <1>   0.0800 
 33 H        2.9810    -1.6840    -0.1240 H     1 <1>   0.4500 
 34 H        5.8720    -0.0340    -2.9070 H     1 <1>   0.0800 
 35 H        4.8390    -1.1840    -2.1480 H     1 <1>   0.0800 
 36 H        3.8690     2.4720     0.2170 H     1 <1>   0.0800 
 37 H        4.5390     3.7990    -0.6600 H     1 <1>   0.0800 
 38 H        1.9210    -3.4090    -1.6180 H     1 <1>   0.0800 
 39 H        0.6720    -3.4890    -0.4010 H     1 <1>   0.0800 
 40 H        0.2420    -1.3900     0.9120 H     1 <1>   0.0800 
 41 H        1.5500    -0.2630     1.1180 H     1 <1>   0.0800 
 42 H        6.3160     2.2320    -0.2680 H     1 <1>   0.0800 
 43 H        5.9750     2.2310    -1.9640 H     1 <1>   0.0800 
 44 H        3.5870    -3.6710     0.3570 H     1 <1>   0.0800 
 45 H        2.7860    -5.0430    -0.3080 H     1 <1>   0.0800 
 46 H        1.4350    -1.4900     3.0840 H     1 <1>   0.0800 
 47 H        2.8710    -2.0420     2.2960 H     1 <1>   0.0800 
 48 H        2.9070    -4.8060     2.2500 H     1 <1>   0.0800 
 49 H        1.4660    -5.4180     1.5200 H     1 <1>   0.0800 
 50 H        0.2220    -3.4930     1.9880 H     1 <1>   0.0800 
 51 H        1.1960    -3.7450     3.3920 H     1 <1>   0.0800 
 52 H        5.5670    -0.4040     2.3080 H     1 <1>   0.0800 
 53 H        5.2670     1.2190     1.7880 H     1 <1>   0.0800 
 54 H        7.7100    -1.2390     0.3980 H     1 <1>   0.1500 
 55 H        7.2360     2.3880     2.6040 H     1 <1>   0.1500 
 56 H        9.6940     2.6520     2.4480 H     1 <1>   0.1500 
 57 H       11.0170     0.9740     1.2760 H     1 <1>   0.1500 
@<TRIPOS>BOND
  1   1   2  2   
  2   2   3  am  
  3   2   4  1   
  4   3   5  1   
  5   3   6  1   
  6   4   7  1   
  7   4  27  1   
  8   4  28  1   
  9   5   8  1   
 10   5  29  1   
 11   5  30  1   
 12   6   9  1   
 13   6  31  1   
 14   6  32  1   
 15   7  10  1   
 16   7  11  1   
 17   7  33  1   
 18   8  12  1   
 19   8  34  1   
 20   8  35  1   
 21   9  13  1   
 22   9  36  1   
 23   9  37  1   
 24  10  14  1   
 25  10  38  1   
 26  10  39  1   
 27  11  15  1   
 28  11  40  1   
 29  11  41  1   
 30  12  13  1   
 31  12  16  am  
 32  13  42  1   
 33  13  43  1   
 34  14  17  1   
 35  14  44  1   
 36  14  45  1   
 37  15  18  1   
 38  15  46  1   
 39  15  47  1   
 40  16  19  2   
 41  16  20  1   
 42  17  18  1   
 43  17  48  1   
 44  17  49  1   
 45  18  50  1   
 46  18  51  1   
 47  20  21  1   
 48  20  52  1   
 49  20  53  1   
 50  21  22  ar  
 51  21  23  ar  
 52  22  24  ar  
 53  22  54  1   
 54  23  25  ar  
 55  23  55  1   
 56  24  26  ar  
 57  25  26  ar  
 58  25  56  1   
 59  26  57  1   
@<TRIPOS>SUBSTRUCTURE
  1 ****  16 GROUP 4 **** **** 0

# MOE 2024.06 (io_trps.svl 2023.06)
