@<TRIPOS>MOLECULE
NONAME
55 58 1 0 0 
SMALL
USER_CHARGES


@<TRIPOS>ATOM
  1 O       -1.8710     1.0460    -1.9280 O.2   1 <1>  -0.5700 
  2 C       -2.4020     0.9650    -0.8370 C.2   1 <1>   0.7160 
  3 N       -3.0490    -0.2090    -0.5040 N.am  1 <1>  -0.6600 
  4 C       -2.3360     2.0630     0.0690 C.2   1 <1>  -0.0860 
  5 C       -3.1340    -1.3620    -1.4550 C.3   1 <1>   0.1400 
  6 C       -3.8040    -0.3940     0.7760 C.3   1 <1>   0.1400 
  7 C       -3.3980     2.9120     0.3860 C.2   1 <1>   0.3720 
  8 C       -1.3270     2.4970     0.8670 C.2   1 <1>   0.0870 
  9 C       -2.7650    -2.6830    -0.7570 C.3   1 <1>   0.3430 
 10 C       -3.4400    -1.7320     1.4500 C.3   1 <1>   0.3430 
 11 N       -3.0540     3.7570     1.2940 N.2   1 <1>  -0.4100 
 12 N       -4.6710     2.8350    -0.1980 N.pl3 1 <1>  -0.8210 
 13 O       -1.8020     3.4960     1.5660 O.3   1 <1>  -0.0190 
 14 C        0.0220     2.0340     1.0650 C.ar  1 <1>   0.0530 
 15 N       -3.5610    -2.8890     0.5010 N.4   1 <1>  -0.9590 
 16 C       -4.6550     3.1740    -1.6640 C.3   1 <1>   0.2090 
 17 C       -5.7770     3.5420     0.5380 C.3   1 <1>   0.2090 
 18 C        0.6020     2.0570     2.3330 C.ar  1 <1>  -0.1500 
 19 C        0.7950     1.5410     0.0130 C.ar  1 <1>  -0.1500 
 20 C       -3.2950    -4.2070     1.1490 C.3   1 <1>   0.3430 
 21 C       -5.9910     3.7640    -2.1580 C.3   1 <1>   0.1200 
 22 C       -6.0470     4.9350    -0.0610 C.3   1 <1>   0.1200 
 23 C        1.8860     1.5920     2.5480 C.ar  1 <1>  -0.1500 
 24 C        2.0800     1.0740     0.2220 C.ar  1 <1>  -0.1500 
 25 C       -4.1040    -5.3070     0.4320 C.3   1 <1>   0.1200 
 26 O       -6.3970     4.8900    -1.4230 O.3   1 <1>  -0.5600 
 27 C        2.6270     1.0950     1.4920 C.ar  1 <1>  -0.1500 
 28 O       -5.3260    -4.7810    -0.0010 O.3   1 <1>  -0.6800 
 29 H       -2.4700    -1.2170    -2.2910 H     1 <1>   0.0800 
 30 H       -4.1350    -1.4250    -1.8450 H     1 <1>   0.0800 
 31 H       -4.8600    -0.3680     0.5670 H     1 <1>   0.0800 
 32 H       -3.5960     0.4030     1.4680 H     1 <1>   0.0800 
 33 H       -1.7130    -2.6640    -0.5230 H     1 <1>   0.0800 
 34 H       -2.9400    -3.4990    -1.4390 H     1 <1>   0.0800 
 35 H       -4.0870    -1.8840     2.2980 H     1 <1>   0.0800 
 36 H       -2.4270    -1.6660     1.8120 H     1 <1>   0.0800 
 37 H       -4.5550    -2.9800     0.2120 H     1 <1>   0.4500 
 38 H       -4.4420     2.2840    -2.2300 H     1 <1>   0.0800 
 39 H       -3.8710     3.8850    -1.8670 H     1 <1>   0.0800 
 40 H       -5.5350     3.6430     1.5810 H     1 <1>   0.0800 
 41 H       -6.6760     2.9540     0.4770 H     1 <1>   0.0800 
 42 H        0.0380     2.4460     3.1640 H     1 <1>   0.1500 
 43 H        0.3970     1.5320    -0.9850 H     1 <1>   0.1500 
 44 H       -3.6220    -4.1730     2.1750 H     1 <1>   0.0800 
 45 H       -2.2430    -4.4400     1.1430 H     1 <1>   0.0800 
 46 H       -6.7660     3.0220    -2.0800 H     1 <1>   0.0800 
 47 H       -5.9080     4.0610    -3.1880 H     1 <1>   0.0800 
 48 H       -5.1630     5.5420     0.0330 H     1 <1>   0.0800 
 49 H       -6.8490     5.4200     0.4660 H     1 <1>   0.0800 
 50 H        2.3120     1.6200     3.5370 H     1 <1>   0.1500 
 51 H        2.6580     0.6990    -0.6050 H     1 <1>   0.1500 
 52 H       -4.2950    -6.1290     1.1010 H     1 <1>   0.0800 
 53 H       -3.5690    -5.6720    -0.4280 H     1 <1>   0.0800 
 54 H        3.6280     0.7340     1.6560 H     1 <1>   0.1500 
 55 H       -5.9100    -5.4910    -0.3510 H     1 <1>   0.4000 
@<TRIPOS>BOND
  1   1   2  2   
  2   2   3  am  
  3   2   4  1   
  4   3   5  1   
  5   3   6  1   
  6   4   7  1   
  7   4   8  2   
  8   5   9  1   
  9   5  29  1   
 10   5  30  1   
 11   6  10  1   
 12   6  31  1   
 13   6  32  1   
 14   7  11  2   
 15   7  12  1   
 16   8  13  1   
 17   8  14  1   
 18   9  15  1   
 19   9  33  1   
 20   9  34  1   
 21  10  15  1   
 22  10  35  1   
 23  10  36  1   
 24  11  13  1   
 25  12  16  1   
 26  12  17  1   
 27  14  18  ar  
 28  14  19  ar  
 29  15  20  1   
 30  15  37  1   
 31  16  21  1   
 32  16  38  1   
 33  16  39  1   
 34  17  22  1   
 35  17  40  1   
 36  17  41  1   
 37  18  23  ar  
 38  18  42  1   
 39  19  24  ar  
 40  19  43  1   
 41  20  25  1   
 42  20  44  1   
 43  20  45  1   
 44  21  26  1   
 45  21  46  1   
 46  21  47  1   
 47  22  26  1   
 48  22  48  1   
 49  22  49  1   
 50  23  27  ar  
 51  23  50  1   
 52  24  27  ar  
 53  24  51  1   
 54  25  28  1   
 55  25  52  1   
 56  25  53  1   
 57  27  54  1   
 58  28  55  1   
@<TRIPOS>SUBSTRUCTURE
  1 ****   2 GROUP 4 **** **** 0

# MOE 2024.06 (io_trps.svl 2023.06)
