@<TRIPOS>MOLECULE
NONAME
44 46 1 0 0 
SMALL
USER_CHARGES


@<TRIPOS>ATOM
  1 F       -1.2870    -0.3690    -1.1130 F     1 <1>  -0.1900 
  2 C       -2.3180     0.2450    -0.5850 C.ar  1 <1>   0.1900 
  3 C       -2.7090     1.4740    -1.0990 C.ar  1 <1>   0.0830 
  4 C       -2.9850    -0.3550     0.4650 C.ar  1 <1>  -0.1500 
  5 O       -2.0540     2.0450    -2.1270 O.3   1 <1>  -0.5330 
  6 C       -3.7970     2.1170    -0.5350 C.ar  1 <1>  -0.1500 
  7 C       -4.0820     0.2900     1.0220 C.ar  1 <1>  -0.1440 
  8 C       -4.4770     1.5270     0.5200 C.ar  1 <1>  -0.1500 
  9 C       -4.8500    -0.3600     2.1700 C.3   1 <1>   0.0440 
 10 C       -5.2320    -1.8090     1.8970 C.2   1 <1>   0.5690 
 11 O       -4.8420    -2.6510     2.6710 O.2   1 <1>  -0.5700 
 12 N       -6.0000    -2.1450     0.8140 N.am  1 <1>  -0.6600 
 13 C       -6.5370    -1.2270    -0.2230 C.3   1 <1>   0.1400 
 14 C       -6.3270    -3.5520     0.4680 C.3   1 <1>   0.1400 
 15 C       -7.6260    -2.0420    -0.9160 C.3   1 <1>   0.2000 
 16 C       -7.0820    -3.4720    -0.8640 C.3   1 <1>  -0.0800 
 17 O       -8.7780    -1.9530    -0.1480 O.3   1 <1>  -0.6800 
 18 C       -8.1240    -4.5890    -1.0560 C.3   1 <1>   0.0210 
 19 C       -7.4690    -5.9540    -0.9730 C.2   1 <1>   0.1080 
 20 N       -6.5550    -6.3480    -1.8050 N.2   1 <1>  -0.7070 
 21 C       -7.7540    -6.9170    -0.0110 C.2   1 <1>  -0.1500 
 22 N       -6.2300    -7.5870    -1.3920 N.pl3 1 <1>   0.3000 
 23 C       -6.9420    -7.9540    -0.3050 C.2   1 <1>  -0.3320 
 24 C       -6.7990    -9.2920     0.3960 C.3   1 <1>  -0.0600 
 25 H       -2.6510    -1.3100     0.8330 H     1 <1>   0.1500 
 26 H       -1.2990     1.4990    -2.4220 H     1 <1>   0.4500 
 27 H       -4.1040     3.0730    -0.9230 H     1 <1>   0.1500 
 28 H       -5.3200     2.0420     0.9480 H     1 <1>   0.1500 
 29 H       -5.7490     0.1880     2.3810 H     1 <1>   0.0800 
 30 H       -4.2380    -0.3280     3.0530 H     1 <1>   0.0800 
 31 H       -6.9290    -0.3180     0.1980 H     1 <1>   0.0800 
 32 H       -5.7540    -0.9940    -0.9240 H     1 <1>   0.0800 
 33 H       -5.4310    -4.1430     0.3750 H     1 <1>   0.0800 
 34 H       -6.9470    -3.9700     1.2430 H     1 <1>   0.0800 
 35 H       -7.8470    -1.7010    -1.9130 H     1 <1>   0.0800 
 36 H       -6.3490    -3.5700    -1.6460 H     1 <1>   0.0800 
 37 H       -8.5430    -2.1540     0.7810 H     1 <1>   0.4000 
 38 H       -8.5860    -4.4870    -2.0210 H     1 <1>   0.0800 
 39 H       -8.8940    -4.5250    -0.3090 H     1 <1>   0.0800 
 40 H       -8.4710    -6.8270     0.7850 H     1 <1>   0.1500 
 41 H       -5.5200    -8.1540    -1.8700 H     1 <1>   0.2700 
 42 H       -7.4720    -9.3440     1.2340 H     1 <1>   0.0800 
 43 H       -5.7940    -9.4180     0.7570 H     1 <1>   0.0800 
 44 H       -7.0330   -10.0940    -0.2810 H     1 <1>   0.0800 
@<TRIPOS>BOND
  1   1   2  1   
  2   2   3  ar  
  3   2   4  ar  
  4   3   5  1   
  5   3   6  ar  
  6   4   7  ar  
  7   4  25  1   
  8   5  26  1   
  9   6   8  ar  
 10   6  27  1   
 11   7   8  ar  
 12   7   9  1   
 13   8  28  1   
 14   9  10  1   
 15   9  29  1   
 16   9  30  1   
 17  10  11  2   
 18  10  12  am  
 19  12  13  1   
 20  12  14  1   
 21  13  15  1   
 22  13  31  1   
 23  13  32  1   
 24  14  16  1   
 25  14  33  1   
 26  14  34  1   
 27  15  16  1   
 28  15  17  1   
 29  15  35  1   
 30  16  18  1   
 31  16  36  1   
 32  17  37  1   
 33  18  19  1   
 34  18  38  1   
 35  18  39  1   
 36  19  20  2   
 37  19  21  1   
 38  20  22  1   
 39  21  23  2   
 40  21  40  1   
 41  22  23  1   
 42  22  41  1   
 43  23  24  1   
 44  24  42  1   
 45  24  43  1   
 46  24  44  1   
@<TRIPOS>SUBSTRUCTURE
  1 ****  12 GROUP 4 **** **** 0

# MOE 2024.06 (io_trps.svl 2023.06)
