@<TRIPOS>MOLECULE
NONAME
54 56 1 0 0 
SMALL
USER_CHARGES


@<TRIPOS>ATOM
  1 CL       1.1340    -0.3770    -1.2790 Cl    1 <1>  -0.1770 
  2 C        0.6550    -2.0310    -0.9980 C.ar  1 <1>   0.1770 
  3 C        1.5040    -2.8750    -0.3080 C.ar  1 <1>  -0.1500 
  4 C       -0.5670    -2.4720    -1.4700 C.ar  1 <1>  -0.1500 
  5 C        1.1200    -4.1870    -0.0860 C.ar  1 <1>  -0.1500 
  6 C       -0.9450    -3.7850    -1.2440 C.ar  1 <1>  -0.1500 
  7 C       -0.1050    -4.6460    -0.5510 C.ar  1 <1>  -0.1430 
  8 C       -0.5200    -6.0860    -0.2960 C.3   1 <1>  -0.0160 
  9 C       -1.0750    -6.2390     1.1250 C.3   1 <1>  -0.0990 
 10 C       -1.5700    -7.6530     1.3690 C.2   1 <1>   0.5690 
 11 O       -0.7520    -8.4380     1.7860 O.2   1 <1>  -0.5700 
 12 N       -2.8740    -8.0260     1.1260 N.am  1 <1>  -0.6600 
 13 C       -3.8900    -7.1300     0.4920 C.3   1 <1>   0.2200 
 14 C       -3.3060    -9.4060     1.5150 C.3   1 <1>   0.0600 
 15 C       -4.8900    -6.5850     1.5090 C.3   1 <1>  -0.1600 
 16 C       -4.7530    -7.7950    -0.5830 C.3   1 <1>  -0.1600 
 17 C       -6.1070    -6.1670     0.6720 C.3   1 <1>  -0.0800 
 18 C       -6.0090    -6.9140    -0.6620 C.3   1 <1>  -0.0800 
 19 C       -7.4720    -6.5480     1.2650 C.3   1 <1>  -0.1600 
 20 C       -7.3360    -7.6750    -0.8180 C.3   1 <1>  -0.1600 
 21 C       -8.3460    -6.9350     0.0660 C.3   1 <1>   0.4230 
 22 N       -8.8730    -5.7160    -0.6290 N.4   1 <1>  -0.9590 
 23 C       -9.7580    -4.8840     0.2510 C.3   1 <1>   0.2630 
 24 C       -9.6340    -6.0480    -1.8780 C.3   1 <1>   0.2630 
 25 H        2.4490    -2.5080     0.0480 H     1 <1>   0.1500 
 26 H       -1.2080    -1.7960    -2.0050 H     1 <1>   0.1500 
 27 H        1.7770    -4.8490     0.4520 H     1 <1>   0.1500 
 28 H       -1.8940    -4.1320    -1.6120 H     1 <1>   0.1500 
 29 H       -1.2600    -6.3870    -1.0160 H     1 <1>   0.0800 
 30 H        0.3300    -6.7350    -0.4180 H     1 <1>   0.0800 
 31 H       -1.8530    -5.5250     1.3120 H     1 <1>   0.0800 
 32 H       -0.2890    -6.0340     1.8290 H     1 <1>   0.0800 
 33 H       -3.4050    -6.2930     0.0220 H     1 <1>   0.0800 
 34 H       -4.3200    -9.4040     1.8690 H     1 <1>   0.0800 
 35 H       -2.6810    -9.7910     2.3030 H     1 <1>   0.0800 
 36 H       -3.2240   -10.0620     0.6660 H     1 <1>   0.0800 
 37 H       -5.1540    -7.3550     2.2110 H     1 <1>   0.0800 
 38 H       -4.4770    -5.7500     2.0470 H     1 <1>   0.0800 
 39 H       -4.2360    -7.8310    -1.5250 H     1 <1>   0.0800 
 40 H       -5.0240    -8.7920    -0.2950 H     1 <1>   0.0800 
 41 H       -6.0660    -5.1070     0.4830 H     1 <1>   0.0800 
 42 H       -5.8940    -6.1950    -1.4570 H     1 <1>   0.0800 
 43 H       -7.8760    -5.7770     1.8930 H     1 <1>   0.0800 
 44 H       -7.3640    -7.4290     1.8740 H     1 <1>   0.0800 
 45 H       -7.2320    -8.6670    -0.4120 H     1 <1>   0.0800 
 46 H       -7.6260    -7.7840    -1.8460 H     1 <1>   0.0800 
 47 H       -9.1580    -7.5800     0.3630 H     1 <1>   0.0800 
 48 H       -8.0500    -5.1540    -0.8880 H     1 <1>   0.4500 
 49 H      -10.5840    -5.4730     0.6160 H     1 <1>   0.0800 
 50 H      -10.1510    -4.0460    -0.3010 H     1 <1>   0.0800 
 51 H       -9.2080    -4.5000     1.0930 H     1 <1>   0.0800 
 52 H      -10.4530    -6.7120    -1.6520 H     1 <1>   0.0800 
 53 H       -8.9940    -6.5220    -2.6030 H     1 <1>   0.0800 
 54 H      -10.0320    -5.1500    -2.3220 H     1 <1>   0.0800 
@<TRIPOS>BOND
  1   1   2  1   
  2   2   3  ar  
  3   2   4  ar  
  4   3   5  ar  
  5   3  25  1   
  6   4   6  ar  
  7   4  26  1   
  8   5   7  ar  
  9   5  27  1   
 10   6   7  ar  
 11   6  28  1   
 12   7   8  1   
 13   8   9  1   
 14   8  29  1   
 15   8  30  1   
 16   9  10  1   
 17   9  31  1   
 18   9  32  1   
 19  10  11  2   
 20  10  12  am  
 21  12  13  1   
 22  12  14  1   
 23  13  15  1   
 24  13  16  1   
 25  13  33  1   
 26  14  34  1   
 27  14  35  1   
 28  14  36  1   
 29  15  17  1   
 30  15  37  1   
 31  15  38  1   
 32  16  18  1   
 33  16  39  1   
 34  16  40  1   
 35  17  18  1   
 36  17  19  1   
 37  17  41  1   
 38  18  20  1   
 39  18  42  1   
 40  19  21  1   
 41  19  43  1   
 42  19  44  1   
 43  20  21  1   
 44  20  45  1   
 45  20  46  1   
 46  21  22  1   
 47  21  47  1   
 48  22  23  1   
 49  22  24  1   
 50  22  48  1   
 51  23  49  1   
 52  23  50  1   
 53  23  51  1   
 54  24  52  1   
 55  24  53  1   
 56  24  54  1   
@<TRIPOS>SUBSTRUCTURE
  1 ****  13 GROUP 4 **** **** 0

# MOE 2024.06 (io_trps.svl 2023.06)
