@<TRIPOS>MOLECULE
NONAME
49 52 1 0 0 
SMALL
USER_CHARGES


@<TRIPOS>ATOM
  1 O        2.4700    -1.5810     1.6250 O.3   1 <1>  -0.0190 
  2 N        2.0140    -2.7540     1.9420 N.2   1 <1>  -0.4100 
  3 C        2.0680    -1.4050     0.3900 C.2   1 <1>   0.2980 
  4 C        1.3810    -3.1990     0.9280 C.2   1 <1>   0.3350 
  5 N        1.3960    -2.3640    -0.1080 N.2   1 <1>  -0.5650 
  6 C        2.4250    -0.1110    -0.3310 C.3   1 <1>   0.1000 
  7 C        0.6880    -4.5630     0.8560 C.3   1 <1>   0.2910 
  8 C        3.9280     0.1490    -0.4370 C.3   1 <1>  -0.1600 
  9 C        1.8930     1.1480     0.3540 C.3   1 <1>  -0.1600 
 10 N       -0.7730    -4.5270     1.1280 N.3   1 <1>  -0.8100 
 11 C        4.0530     1.6510    -0.7000 C.3   1 <1>  -0.1600 
 12 C        2.7600     2.2920    -0.1790 C.3   1 <1>  -0.1600 
 13 C       -1.4160    -5.8600     1.0600 C.3   1 <1>   0.1100 
 14 C       -1.5220    -3.6250     0.2450 C.3   1 <1>   0.1100 
 15 C       -2.4870    -5.8200    -0.0430 C.3   1 <1>   0.4240 
 16 C       -2.8430    -4.3350    -0.0300 C.3   1 <1>  -0.1600 
 17 O       -1.8650    -6.0510    -1.2590 O.3   1 <1>  -0.6800 
 18 C       -3.6540    -6.8240     0.1280 C.ar  1 <1>  -0.1440 
 19 C       -3.4530    -8.1990     0.3160 C.ar  1 <1>  -0.1440 
 20 C       -4.9690    -6.3600     0.0900 C.ar  1 <1>  -0.1500 
 21 C       -4.5420    -9.0410     0.4940 C.ar  1 <1>  -0.1500 
 22 C       -2.0810    -8.8630     0.3280 C.3   1 <1>  -0.0970 
 23 C       -6.0460    -7.2090     0.2640 C.ar  1 <1>  -0.1500 
 24 C       -5.8330    -8.5540     0.4720 C.ar  1 <1>  -0.1500 
 25 H        2.0180    -0.1500    -1.3270 H     1 <1>   0.0800 
 26 H        1.1530    -5.2050     1.5830 H     1 <1>   0.0800 
 27 H        0.8660    -4.9820    -0.1170 H     1 <1>   0.0800 
 28 H        4.3800    -0.4390    -1.2170 H     1 <1>   0.0800 
 29 H        4.4040    -0.0860     0.4990 H     1 <1>   0.0800 
 30 H        2.0320     1.0680     1.4190 H     1 <1>   0.0800 
 31 H        0.8470     1.3020     0.1500 H     1 <1>   0.0800 
 32 H        4.1420     1.8310    -1.7590 H     1 <1>   0.0800 
 33 H        4.9200     2.0570    -0.2070 H     1 <1>   0.0800 
 34 H        2.9630     3.0100     0.5970 H     1 <1>   0.0800 
 35 H        2.2530     2.7910    -0.9880 H     1 <1>   0.0800 
 36 H       -1.9030    -6.0450     2.0020 H     1 <1>   0.0800 
 37 H       -0.6990    -6.6410     0.8860 H     1 <1>   0.0800 
 38 H       -0.9940    -3.4760    -0.6820 H     1 <1>   0.0800 
 39 H       -1.6720    -2.6700     0.7200 H     1 <1>   0.0800 
 40 H       -3.3060    -4.0100    -0.9440 H     1 <1>   0.0800 
 41 H       -3.4990    -4.1240     0.7950 H     1 <1>   0.0800 
 42 H       -1.1580    -5.3910    -1.3560 H     1 <1>   0.4000 
 43 H       -5.1920    -5.3250    -0.0800 H     1 <1>   0.1500 
 44 H       -4.3930   -10.0950     0.6490 H     1 <1>   0.1500 
 45 H       -1.4540    -8.4610    -0.4460 H     1 <1>   0.0800 
 46 H       -2.1680    -9.9190     0.1470 H     1 <1>   0.0800 
 47 H       -1.6120    -8.7260     1.2840 H     1 <1>   0.0800 
 48 H       -7.0490    -6.8210     0.2340 H     1 <1>   0.1500 
 49 H       -6.6660    -9.2210     0.6110 H     1 <1>   0.1500 
@<TRIPOS>BOND
  1   1   2  1   
  2   1   3  1   
  3   2   4  2   
  4   3   5  2   
  5   3   6  1   
  6   4   5  1   
  7   4   7  1   
  8   6   8  1   
  9   6   9  1   
 10   6  25  1   
 11   7  10  1   
 12   7  26  1   
 13   7  27  1   
 14   8  11  1   
 15   8  28  1   
 16   8  29  1   
 17   9  12  1   
 18   9  30  1   
 19   9  31  1   
 20  10  13  1   
 21  10  14  1   
 22  11  12  1   
 23  11  32  1   
 24  11  33  1   
 25  12  34  1   
 26  12  35  1   
 27  13  15  1   
 28  13  36  1   
 29  13  37  1   
 30  14  16  1   
 31  14  38  1   
 32  14  39  1   
 33  15  16  1   
 34  15  17  1   
 35  15  18  1   
 36  16  40  1   
 37  16  41  1   
 38  17  42  1   
 39  18  19  ar  
 40  18  20  ar  
 41  19  21  ar  
 42  19  22  1   
 43  20  23  ar  
 44  20  43  1   
 45  21  24  ar  
 46  21  44  1   
 47  22  45  1   
 48  22  46  1   
 49  22  47  1   
 50  23  24  ar  
 51  23  48  1   
 52  24  49  1   
@<TRIPOS>SUBSTRUCTURE
  1 ****  14 GROUP 4 **** **** 0

# MOE 2024.06 (io_trps.svl 2023.06)
