@<TRIPOS>MOLECULE
NONAME
47 50 1 0 0 
SMALL
USER_CHARGES


@<TRIPOS>ATOM
  1 O       -4.7840     1.9170     1.7450 O.2   1 <1>  -0.5700 
  2 C       -3.7580     2.4890     1.4210 C.2   1 <1>   0.7800 
  3 O       -3.1220     3.3480     2.2130 O.3   1 <1>  -0.2320 
  4 N       -3.0950     2.3250     0.2340 N.am  1 <1>  -0.4770 
  5 C       -2.0290     3.7590     1.5410 C.ar  1 <1>   0.0830 
  6 C       -1.9850     3.1450     0.3070 C.ar  1 <1>   0.1170 
  7 C       -3.5390     1.5150    -0.9260 C.3   1 <1>   0.1400 
  8 C       -1.0590     4.6520     1.9530 C.ar  1 <1>  -0.1500 
  9 C       -0.9430     3.4190    -0.5690 C.ar  1 <1>  -0.1500 
 10 C       -3.5320     0.0140    -0.5740 C.3   1 <1>   0.3430 
 11 C       -0.0170     4.9250     1.0800 C.ar  1 <1>  -0.1500 
 12 C        0.0380     4.3130    -0.1700 C.ar  1 <1>  -0.1500 
 13 N       -4.8080    -0.7020    -0.9280 N.4   1 <1>  -0.9590 
 14 C       -5.9780    -0.2010    -0.1230 C.3   1 <1>   0.3430 
 15 C       -4.6740    -2.1580    -0.5700 C.3   1 <1>   0.3430 
 16 C       -6.0790    -1.1300     1.0910 C.3   1 <1>   0.2000 
 17 C       -5.7640    -2.4800     0.4580 C.3   1 <1>  -0.0800 
 18 O       -5.0770    -0.8190     2.0070 O.3   1 <1>  -0.6800 
 19 C       -5.3730    -3.6140     1.4270 C.3   1 <1>   0.0200 
 20 C       -4.8720    -4.8170     0.6510 C.2   1 <1>  -0.0400 
 21 O       -5.5460    -5.2560    -0.3780 O.3   1 <1>  -0.0190 
 22 C       -3.7810    -5.5850     0.7890 C.2   1 <1>  -0.1500 
 23 N       -4.9560    -6.2650    -0.9470 N.2   1 <1>  -0.4100 
 24 C       -3.8950    -6.4940    -0.2600 C.2   1 <1>   0.1080 
 25 C       -2.9110    -7.6040    -0.5590 C.3   1 <1>  -0.0590 
 26 H       -4.5230     1.8410    -1.2100 H     1 <1>   0.0800 
 27 H       -2.8750     1.6900    -1.7530 H     1 <1>   0.0800 
 28 H       -1.1180     5.1170     2.9220 H     1 <1>   0.1500 
 29 H       -0.8930     2.9530    -1.5360 H     1 <1>   0.1500 
 30 H       -3.3560    -0.0900     0.4850 H     1 <1>   0.0800 
 31 H       -2.7080    -0.4530    -1.0870 H     1 <1>   0.0800 
 32 H        0.7560     5.6160     1.3700 H     1 <1>   0.1500 
 33 H        0.8570     4.5420    -0.8320 H     1 <1>   0.1500 
 34 H       -5.0040    -0.6130    -1.9340 H     1 <1>   0.4500 
 35 H       -5.8770     0.8290     0.1670 H     1 <1>   0.0800 
 36 H       -6.8790    -0.3050    -0.7050 H     1 <1>   0.0800 
 37 H       -4.7760    -2.7910    -1.4380 H     1 <1>   0.0800 
 38 H       -3.7090    -2.3390    -0.1240 H     1 <1>   0.0800 
 39 H       -7.0360    -1.0890     1.5840 H     1 <1>   0.0800 
 40 H       -6.6330    -2.8020    -0.0900 H     1 <1>   0.0800 
 41 H       -5.1480     0.1240     2.3020 H     1 <1>   0.4000 
 42 H       -6.2300    -3.9010     2.0110 H     1 <1>   0.0800 
 43 H       -4.6000    -3.3000     2.1060 H     1 <1>   0.0800 
 44 H       -2.9890    -5.5450     1.5140 H     1 <1>   0.1500 
 45 H       -1.9240    -7.1990    -0.6820 H     1 <1>   0.0800 
 46 H       -3.1940    -8.1110    -1.4640 H     1 <1>   0.0800 
 47 H       -2.9060    -8.3130     0.2480 H     1 <1>   0.0800 
@<TRIPOS>BOND
  1   1   2  2   
  2   2   3  1   
  3   2   4  am  
  4   3   5  1   
  5   4   6  1   
  6   4   7  1   
  7   5   6  ar  
  8   5   8  ar  
  9   6   9  ar  
 10   7  10  1   
 11   7  26  1   
 12   7  27  1   
 13   8  11  ar  
 14   8  28  1   
 15   9  12  ar  
 16   9  29  1   
 17  10  13  1   
 18  10  30  1   
 19  10  31  1   
 20  11  12  ar  
 21  11  32  1   
 22  12  33  1   
 23  13  14  1   
 24  13  15  1   
 25  13  34  1   
 26  14  16  1   
 27  14  35  1   
 28  14  36  1   
 29  15  17  1   
 30  15  37  1   
 31  15  38  1   
 32  16  17  1   
 33  16  18  1   
 34  16  39  1   
 35  17  19  1   
 36  17  40  1   
 37  18  41  1   
 38  19  20  1   
 39  19  42  1   
 40  19  43  1   
 41  20  21  1   
 42  20  22  2   
 43  21  23  1   
 44  22  24  1   
 45  22  44  1   
 46  23  24  2   
 47  24  25  1   
 48  25  45  1   
 49  25  46  1   
 50  25  47  1   
@<TRIPOS>SUBSTRUCTURE
  1 ****  10 GROUP 4 **** **** 0

# MOE 2024.06 (io_trps.svl 2023.06)
