@<TRIPOS>MOLECULE
NONAME
47 48 1 0 0 
SMALL
USER_CHARGES


@<TRIPOS>ATOM
  1 S        0.1650    -0.2760     0.5540 S.o2  1 <1>   1.3330 
  2 O       -0.6320     0.8680     0.9330 O.2   1 <1>  -0.6500 
  3 O        0.6540    -1.1750     1.5760 O.2   1 <1>  -0.6500 
  4 N       -0.7180    -1.1960    -0.5670 N.am  1 <1>  -0.8490 
  5 C        1.5400     0.3220    -0.4310 C.3   1 <1>  -0.0550 
  6 C       -2.1550    -1.1980    -0.2760 C.3   1 <1>   0.1160 
  7 C       -0.2340    -2.5750    -0.7000 C.3   1 <1>   0.1160 
  8 C        2.4760     1.2800     0.3330 C.3   1 <1>  -0.0800 
  9 C        3.4840     1.9240    -0.6050 C.3   1 <1>   0.2200 
 10 C        3.3780     0.5360     1.3290 C.3   1 <1>   0.1200 
 11 N        3.9360     3.2060    -0.0230 N.am  1 <1>  -0.7300 
 12 C        4.6280     0.9210    -0.5660 C.3   1 <1>   0.1200 
 13 O        4.6370     0.4160     0.7340 O.3   1 <1>  -0.5600 
 14 C        3.7490     4.4220    -0.5860 C.2   1 <1>   0.5690 
 15 O        3.1830     4.5610    -1.6420 O.2   1 <1>  -0.5700 
 16 C        4.2790     5.6440     0.1240 C.3   1 <1>  -0.0990 
 17 C        5.6140     6.0870    -0.4810 C.3   1 <1>   0.0200 
 18 C        6.1310     7.3330     0.2200 C.2   1 <1>  -0.3320 
 19 N        5.6690     8.5900     0.0250 N.pl3 1 <1>   0.3140 
 20 C        7.1170     7.4210     1.1380 C.2   1 <1>  -0.1500 
 21 N        6.3230     9.4750     0.7950 N.2   1 <1>  -0.7070 
 22 C        4.6070     9.0320    -0.8900 C.3   1 <1>   0.0160 
 23 C        7.1880     8.7700     1.4550 C.2   1 <1>   0.1390 
 24 H        2.1020    -0.5110    -0.8060 H     1 <1>   0.0800 
 25 H        1.1320     0.8470    -1.2740 H     1 <1>   0.0800 
 26 H       -2.6850    -1.7770    -1.0130 H     1 <1>   0.0800 
 27 H       -2.5380    -0.1920    -0.3020 H     1 <1>   0.0800 
 28 H       -2.3390    -1.6130     0.7010 H     1 <1>   0.0800 
 29 H       -0.7670    -3.0790    -1.4880 H     1 <1>   0.0800 
 30 H       -0.3760    -3.1150     0.2210 H     1 <1>   0.0800 
 31 H        0.8150    -2.5790    -0.9430 H     1 <1>   0.0800 
 32 H        1.8770     2.0260     0.8280 H     1 <1>   0.0800 
 33 H        3.1070     2.0740    -1.6030 H     1 <1>   0.0800 
 34 H        3.0230    -0.4490     1.5760 H     1 <1>   0.0800 
 35 H        3.4990     1.1050     2.2350 H     1 <1>   0.0800 
 36 H        4.4530     3.1080     0.8540 H     1 <1>   0.3700 
 37 H        5.5810     1.3670    -0.7900 H     1 <1>   0.0800 
 38 H        4.4420     0.1000    -1.2360 H     1 <1>   0.0800 
 39 H        3.5530     6.4290     0.0300 H     1 <1>   0.0800 
 40 H        4.4060     5.4340     1.1700 H     1 <1>   0.0800 
 41 H        5.5000     6.2770    -1.5350 H     1 <1>   0.0800 
 42 H        6.3340     5.2950    -0.3690 H     1 <1>   0.0800 
 43 H        7.7320     6.6430     1.5540 H     1 <1>   0.1500 
 44 H        4.7060     8.5240    -1.8300 H     1 <1>   0.0800 
 45 H        4.6970    10.0920    -1.0440 H     1 <1>   0.0800 
 46 H        3.6520     8.8150    -0.4510 H     1 <1>   0.0800 
 47 H        7.8770     9.1950     2.1660 H     1 <1>   0.1500 
@<TRIPOS>BOND
  1   1   2  2   
  2   1   3  2   
  3   1   4  am  
  4   1   5  1   
  5   4   6  1   
  6   4   7  1   
  7   5   8  1   
  8   5  24  1   
  9   5  25  1   
 10   6  26  1   
 11   6  27  1   
 12   6  28  1   
 13   7  29  1   
 14   7  30  1   
 15   7  31  1   
 16   8   9  1   
 17   8  10  1   
 18   8  32  1   
 19   9  11  1   
 20   9  12  1   
 21   9  33  1   
 22  10  13  1   
 23  10  34  1   
 24  10  35  1   
 25  11  14  am  
 26  11  36  1   
 27  12  13  1   
 28  12  37  1   
 29  12  38  1   
 30  14  15  2   
 31  14  16  1   
 32  16  17  1   
 33  16  39  1   
 34  16  40  1   
 35  17  18  1   
 36  17  41  1   
 37  17  42  1   
 38  18  19  1   
 39  18  20  2   
 40  19  21  1   
 41  19  22  1   
 42  20  23  1   
 43  20  43  1   
 44  21  23  2   
 45  22  44  1   
 46  22  45  1   
 47  22  46  1   
 48  23  47  1   
@<TRIPOS>SUBSTRUCTURE
  1 ****  11 GROUP 4 **** **** 0

# MOE 2024.06 (io_trps.svl 2023.06)
