@<TRIPOS>MOLECULE
NONAME
51 54 1 0 0 
SMALL
USER_CHARGES


@<TRIPOS>ATOM
  1 O       -0.6470     0.3240    -0.2000 O.2   1 <1>  -0.5700 
  2 C       -1.7300     0.8150     0.0170 C.2   1 <1>   0.5690 
  3 N       -2.8540     0.0330     0.0780 N.am  1 <1>  -0.6600 
  4 C       -1.8290     2.3350     0.2050 C.3   1 <1>  -0.0190 
  5 C       -4.2530     0.4880     0.2750 C.3   1 <1>   0.1400 
  6 C       -2.8060    -1.4360    -0.1180 C.3   1 <1>   0.1400 
  7 C       -1.9910     3.0440    -1.1530 C.3   1 <1>  -0.1600 
  8 C       -0.6200     2.9150     0.9690 C.3   1 <1>  -0.1600 
  9 C       -5.1080    -0.7700     0.1180 C.3   1 <1>   0.2000 
 10 C       -4.1650    -1.9450     0.3670 C.3   1 <1>  -0.0800 
 11 C       -2.1080     4.5660    -0.9880 C.3   1 <1>  -0.1600 
 12 C       -0.7390     4.4360     1.1410 C.3   1 <1>  -0.1600 
 13 O       -6.1490    -0.7940     1.0330 O.3   1 <1>  -0.6800 
 14 C       -4.6300    -3.2370    -0.3260 C.3   1 <1>  -0.0170 
 15 C       -0.9100     5.1330    -0.2150 C.3   1 <1>  -0.1600 
 16 C       -3.6670    -4.3820    -0.0650 C.ar  1 <1>   0.1670 
 17 N       -2.6740    -4.5270    -0.8870 N.ar  1 <1>  -0.6200 
 18 C       -3.8860    -5.2150     1.0450 C.ar  1 <1>  -0.1500 
 19 C       -1.7980    -5.5370    -0.6510 C.ar  1 <1>   0.3100 
 20 C       -3.0260    -6.2380     1.3030 C.ar  1 <1>  -0.1500 
 21 C       -1.9350    -6.4250     0.4390 C.ar  1 <1>   0.0000 
 22 C       -0.7090    -5.7090    -1.5200 C.ar  1 <1>  -0.1500 
 23 C       -0.9810    -7.4470     0.6130 C.ar  1 <1>  -0.1500 
 24 C        0.2080    -6.7090    -1.3330 C.ar  1 <1>  -0.1500 
 25 C        0.0690    -7.5880    -0.2540 C.ar  1 <1>  -0.1500 
 26 H       -2.6980     2.5470     0.7990 H     1 <1>   0.0800 
 27 H       -4.3560     0.9000     1.2630 H     1 <1>   0.0800 
 28 H       -4.5180     1.2210    -0.4670 H     1 <1>   0.0800 
 29 H       -2.6650    -1.6460    -1.1650 H     1 <1>   0.0800 
 30 H       -1.9950    -1.8750     0.4390 H     1 <1>   0.0800 
 31 H       -1.1370     2.8170    -1.7700 H     1 <1>   0.0800 
 32 H       -2.8650     2.6700    -1.6570 H     1 <1>   0.0800 
 33 H       -0.5460     2.4460     1.9350 H     1 <1>   0.0800 
 34 H        0.2840     2.6920     0.4280 H     1 <1>   0.0800 
 35 H       -5.5250    -0.8050    -0.8750 H     1 <1>   0.0800 
 36 H       -4.0770    -2.1190     1.4250 H     1 <1>   0.0800 
 37 H       -2.1610     5.0300    -1.9580 H     1 <1>   0.0800 
 38 H       -3.0160     4.8010    -0.4590 H     1 <1>   0.0800 
 39 H       -1.5850     4.6620     1.7690 H     1 <1>   0.0800 
 40 H        0.1430     4.8120     1.6300 H     1 <1>   0.0800 
 41 H       -5.7990    -0.8060     1.9440 H     1 <1>   0.4000 
 42 H       -4.7020    -3.0770    -1.3880 H     1 <1>   0.0800 
 43 H       -5.6100    -3.5030     0.0280 H     1 <1>   0.0800 
 44 H       -1.0450     6.1900    -0.0630 H     1 <1>   0.0800 
 45 H       -0.0150     4.9970    -0.7980 H     1 <1>   0.0800 
 46 H       -4.7340    -5.0320     1.6800 H     1 <1>   0.1500 
 47 H       -3.1610    -6.8970     2.1420 H     1 <1>   0.1500 
 48 H       -0.6200    -5.0220    -2.3410 H     1 <1>   0.1500 
 49 H       -1.0930    -8.1190     1.4450 H     1 <1>   0.1500 
 50 H        1.0380    -6.8290    -2.0070 H     1 <1>   0.1500 
 51 H        0.7970    -8.3690    -0.1180 H     1 <1>   0.1500 
@<TRIPOS>BOND
  1   1   2  2   
  2   2   3  am  
  3   2   4  1   
  4   3   5  1   
  5   3   6  1   
  6   4   7  1   
  7   4   8  1   
  8   4  26  1   
  9   5   9  1   
 10   5  27  1   
 11   5  28  1   
 12   6  10  1   
 13   6  29  1   
 14   6  30  1   
 15   7  11  1   
 16   7  31  1   
 17   7  32  1   
 18   8  12  1   
 19   8  33  1   
 20   8  34  1   
 21   9  10  1   
 22   9  13  1   
 23   9  35  1   
 24  10  14  1   
 25  10  36  1   
 26  11  15  1   
 27  11  37  1   
 28  11  38  1   
 29  12  15  1   
 30  12  39  1   
 31  12  40  1   
 32  13  41  1   
 33  14  16  1   
 34  14  42  1   
 35  14  43  1   
 36  15  44  1   
 37  15  45  1   
 38  16  17  ar  
 39  16  18  ar  
 40  17  19  ar  
 41  18  20  ar  
 42  18  46  1   
 43  19  21  ar  
 44  19  22  ar  
 45  20  21  ar  
 46  20  47  1   
 47  21  23  ar  
 48  22  24  ar  
 49  22  48  1   
 50  23  25  ar  
 51  23  49  1   
 52  24  25  ar  
 53  24  50  1   
 54  25  51  1   
@<TRIPOS>SUBSTRUCTURE
  1 ****   6 GROUP 4 **** **** 0

# MOE 2024.06 (io_trps.svl 2023.06)
