@<TRIPOS>MOLECULE
NONAME
46 48 1 0 0 
SMALL
USER_CHARGES


@<TRIPOS>ATOM
  1 O       -2.3770    -1.5890     1.9340 O.2   1 <1>  -0.5700 
  2 C       -2.4520    -0.6040     1.2420 C.2   1 <1>   0.5690 
  3 N       -2.9270    -0.5660    -0.0220 N.am  1 <1>  -0.6600 
  4 C       -2.0320     0.7660     1.6940 C.3   1 <1>  -0.0990 
  5 C       -2.9150     0.7840    -0.6060 C.3   1 <1>   0.1400 
  6 C       -3.3730    -1.7450    -0.7930 C.3   1 <1>   0.1400 
  7 C       -2.5460     1.6930     0.5760 C.3   1 <1>  -0.1600 
  8 C       -4.8330    -2.0410    -0.4660 C.3   1 <1>  -0.0990 
  9 C       -5.2320    -3.3530    -1.0880 C.2   1 <1>   0.5690 
 10 O       -5.7240    -3.3580    -2.1890 O.2   1 <1>  -0.5700 
 11 N       -5.0150    -4.4920    -0.3890 N.am  1 <1>  -0.7300 
 12 C       -5.3510    -5.8510    -0.8680 C.3   1 <1>   0.2200 
 13 C       -6.5840    -6.3470    -0.1330 C.3   1 <1>  -0.0800 
 14 C       -4.2850    -6.8440    -0.4120 C.3   1 <1>   0.1200 
 15 C       -5.9760    -6.9000     1.1580 C.3   1 <1>   0.1200 
 16 C       -7.3240    -7.4300    -0.9410 C.3   1 <1>  -0.0170 
 17 O       -4.6740    -7.3030     0.8500 O.3   1 <1>  -0.5600 
 18 C       -8.5730    -7.9060    -0.2160 C.ar  1 <1>  -0.1440 
 19 C       -8.6300    -9.1280     0.4250 C.ar  1 <1>  -0.1500 
 20 C       -9.7180    -7.1380    -0.1640 C.ar  1 <1>  -0.1500 
 21 C       -9.7930    -9.5080     1.0730 C.ar  1 <1>   0.1600 
 22 C      -10.8310    -7.6120     0.5110 C.ar  1 <1>   0.1600 
 23 N      -10.8960    -8.7780     1.1330 N.ar  1 <1>  -0.6200 
 24 H       -2.4710     1.0010     2.6460 H     1 <1>   0.0800 
 25 H       -0.9600     0.7960     1.7640 H     1 <1>   0.0800 
 26 H       -2.1680     0.8340    -1.3800 H     1 <1>   0.0800 
 27 H       -3.8820     1.0340    -1.0080 H     1 <1>   0.0800 
 28 H       -3.2510    -1.5690    -1.8480 H     1 <1>   0.0800 
 29 H       -2.7620    -2.5890    -0.5160 H     1 <1>   0.0800 
 30 H       -1.8100     2.4250     0.2920 H     1 <1>   0.0800 
 31 H       -3.4310     2.2070     0.9100 H     1 <1>   0.0800 
 32 H       -5.4600    -1.2610    -0.8530 H     1 <1>   0.0800 
 33 H       -4.9660    -2.1010     0.5980 H     1 <1>   0.0800 
 34 H       -4.5900    -4.4540     0.5420 H     1 <1>   0.3700 
 35 H       -5.4690    -5.8480    -1.9390 H     1 <1>   0.0800 
 36 H       -7.2660    -5.5410     0.0730 H     1 <1>   0.0800 
 37 H       -3.3060    -6.4010    -0.3490 H     1 <1>   0.0800 
 38 H       -4.2560    -7.6950    -1.0690 H     1 <1>   0.0800 
 39 H       -6.5190    -7.7350     1.5630 H     1 <1>   0.0800 
 40 H       -5.9070    -6.1260     1.9030 H     1 <1>   0.0800 
 41 H       -6.6730    -8.2660    -1.1270 H     1 <1>   0.0800 
 42 H       -7.6150    -7.0250    -1.8950 H     1 <1>   0.0800 
 43 H       -7.7810    -9.7870     0.4290 H     1 <1>   0.1500 
 44 H       -9.7560    -6.1750    -0.6410 H     1 <1>   0.1500 
 45 H       -9.8190   -10.4640     1.5680 H     1 <1>   0.1500 
 46 H      -11.7150    -6.9980     0.5420 H     1 <1>   0.1500 
@<TRIPOS>BOND
  1   1   2  2   
  2   2   3  am  
  3   2   4  1   
  4   3   5  1   
  5   3   6  1   
  6   4   7  1   
  7   4  24  1   
  8   4  25  1   
  9   5   7  1   
 10   5  26  1   
 11   5  27  1   
 12   6   8  1   
 13   6  28  1   
 14   6  29  1   
 15   7  30  1   
 16   7  31  1   
 17   8   9  1   
 18   8  32  1   
 19   8  33  1   
 20   9  10  2   
 21   9  11  am  
 22  11  12  1   
 23  11  34  1   
 24  12  13  1   
 25  12  14  1   
 26  12  35  1   
 27  13  15  1   
 28  13  16  1   
 29  13  36  1   
 30  14  17  1   
 31  14  37  1   
 32  14  38  1   
 33  15  17  1   
 34  15  39  1   
 35  15  40  1   
 36  16  18  1   
 37  16  41  1   
 38  16  42  1   
 39  18  19  ar  
 40  18  20  ar  
 41  19  21  ar  
 42  19  43  1   
 43  20  22  ar  
 44  20  44  1   
 45  21  23  ar  
 46  21  45  1   
 47  22  23  ar  
 48  22  46  1   
@<TRIPOS>SUBSTRUCTURE
  1 ****  11 GROUP 4 **** **** 0

# MOE 2024.06 (io_trps.svl 2023.06)
