@<TRIPOS>MOLECULE
NONAME
48 51 1 0 0 
SMALL
USER_CHARGES


@<TRIPOS>ATOM
  1 O       -0.7010     0.9720    -1.2560 O.2   1 <1>  -0.5700 
  2 C       -1.7930     1.2560    -0.8150 C.2   1 <1>   0.5690 
  3 N       -2.9150     0.5440    -1.1690 N.am  1 <1>  -0.6600 
  4 C       -1.8850     2.4400     0.1600 C.3   1 <1>   0.2010 
  5 C       -2.8300    -0.6320    -2.0830 C.3   1 <1>   0.1400 
  6 C       -4.2990     0.7930    -0.6780 C.3   1 <1>   0.1400 
  7 N       -0.5610     2.8590     0.7060 N.am  1 <1>  -0.7300 
  8 C       -3.2840    -1.8810    -1.3260 C.3   1 <1>  -0.1600 
  9 C       -4.7600    -0.4290     0.1170 C.3   1 <1>  -0.1600 
 10 C       -0.2830     3.5990     1.7980 C.2   1 <1>   0.5690 
 11 C       -4.6860    -1.7060    -0.7330 C.3   1 <1>   0.4600 
 12 O        0.8540     3.7600     2.1550 O.2   1 <1>  -0.5700 
 13 C       -1.3980     4.2350     2.5910 C.3   1 <1>  -0.1790 
 14 O       -5.5640    -1.5740    -1.8300 O.3   1 <1>  -0.5600 
 15 C       -5.0730    -2.9350     0.0800 C.2   1 <1>  -0.3320 
 16 C       -6.9300    -1.8530    -1.6290 C.3   1 <1>   0.1200 
 17 N       -4.3760    -3.4700     1.1290 N.pl3 1 <1>   0.0330 
 18 C       -6.1770    -3.6740    -0.1410 C.2   1 <1>  -0.1810 
 19 C       -7.1480    -3.3250    -1.2420 C.3   1 <1>   0.0210 
 20 C       -5.0620    -4.5740     1.5750 C.ar  1 <1>  -0.1520 
 21 C       -6.2020    -4.7310     0.7910 C.ar  1 <1>   0.0000 
 22 C       -4.7770    -5.4660     2.6120 C.ar  1 <1>  -0.1500 
 23 C       -7.0740    -5.7950     1.0430 C.ar  1 <1>  -0.1500 
 24 C       -5.6440    -6.5080     2.8490 C.ar  1 <1>  -0.1500 
 25 C       -6.7930    -6.6730     2.0650 C.ar  1 <1>  -0.1500 
 26 H       -2.5200     2.1650     0.9810 H     1 <1>   0.0800 
 27 H       -2.3250     3.2720    -0.3590 H     1 <1>   0.0800 
 28 H       -1.8250    -0.7710    -2.4420 H     1 <1>   0.0800 
 29 H       -3.4670    -0.4660    -2.9360 H     1 <1>   0.0800 
 30 H       -4.9490     0.9420    -1.5250 H     1 <1>   0.0800 
 31 H       -4.3520     1.6730    -0.0640 H     1 <1>   0.0800 
 32 H        0.2360     2.4410     0.2090 H     1 <1>   0.3700 
 33 H       -2.5760    -2.0780    -0.5430 H     1 <1>   0.0800 
 34 H       -3.2850    -2.7290    -1.9860 H     1 <1>   0.0800 
 35 H       -5.7610    -0.2850     0.4760 H     1 <1>   0.0800 
 36 H       -4.1270    -0.5400     0.9780 H     1 <1>   0.0800 
 37 H       -2.0290     4.8090     1.9410 H     1 <1>   0.0800 
 38 H       -0.9810     4.8900     3.3350 H     1 <1>   0.0800 
 39 H       -1.9730     3.4740     3.0830 H     1 <1>   0.0800 
 40 H       -7.4480    -1.6310    -2.5450 H     1 <1>   0.0800 
 41 H       -7.3020    -1.2060    -0.8560 H     1 <1>   0.0800 
 42 H       -3.4880    -3.1350     1.5140 H     1 <1>   0.2700 
 43 H       -6.9760    -3.9590    -2.0920 H     1 <1>   0.0800 
 44 H       -8.1580    -3.4660    -0.9040 H     1 <1>   0.0800 
 45 H       -3.8930    -5.3340     3.2090 H     1 <1>   0.1500 
 46 H       -7.9500    -5.9090     0.4320 H     1 <1>   0.1500 
 47 H       -5.4470    -7.2080     3.6420 H     1 <1>   0.1500 
 48 H       -7.4530    -7.4960     2.2710 H     1 <1>   0.1500 
@<TRIPOS>BOND
  1   1   2  2   
  2   2   3  am  
  3   2   4  1   
  4   3   5  1   
  5   3   6  1   
  6   4   7  1   
  7   4  26  1   
  8   4  27  1   
  9   5   8  1   
 10   5  28  1   
 11   5  29  1   
 12   6   9  1   
 13   6  30  1   
 14   6  31  1   
 15   7  10  am  
 16   7  32  1   
 17   8  11  1   
 18   8  33  1   
 19   8  34  1   
 20   9  11  1   
 21   9  35  1   
 22   9  36  1   
 23  10  12  2   
 24  10  13  1   
 25  11  14  1   
 26  11  15  1   
 27  13  37  1   
 28  13  38  1   
 29  13  39  1   
 30  14  16  1   
 31  15  17  1   
 32  15  18  2   
 33  16  19  1   
 34  16  40  1   
 35  16  41  1   
 36  17  20  1   
 37  17  42  1   
 38  18  19  1   
 39  18  21  1   
 40  19  43  1   
 41  19  44  1   
 42  20  21  ar  
 43  20  22  ar  
 44  21  23  ar  
 45  22  24  ar  
 46  22  45  1   
 47  23  25  ar  
 48  23  46  1   
 49  24  25  ar  
 50  24  47  1   
 51  25  48  1   
@<TRIPOS>SUBSTRUCTURE
  1 ****   9 GROUP 4 **** **** 0

# MOE 2024.06 (io_trps.svl 2023.06)
