@<TRIPOS>MOLECULE
NONAME
49 51 1 0 0 
SMALL
USER_CHARGES


@<TRIPOS>ATOM
  1 S       -0.1150    -0.6240     0.9750 S.o2  1 <1>   1.4470 
  2 O       -1.2170     0.0020     1.6690 O.2   1 <1>  -0.6500 
  3 O        0.3690    -1.9160     1.4040 O.2   1 <1>  -0.6500 
  4 N       -0.7000    -0.7610    -0.5940 N.am  1 <1>  -0.9140 
  5 C        1.2700     0.5320     0.7940 C.ar  1 <1>  -0.0090 
  6 C       -1.2760    -2.0340    -1.0440 C.3   1 <1>   0.2760 
  7 C        1.1450     1.8730     1.1390 C.ar  1 <1>  -0.1500 
  8 C        2.4890     0.1080     0.2820 C.ar  1 <1>  -0.1500 
  9 C       -2.2920    -2.6900    -0.0980 C.3   1 <1>  -0.0800 
 10 C       -0.2530    -3.1370    -1.3290 C.3   1 <1>   0.1200 
 11 C        2.1990     2.7560     0.9800 C.ar  1 <1>  -0.1500 
 12 C        3.5460     0.9860     0.1200 C.ar  1 <1>  -0.1500 
 13 C       -1.7110    -4.0940     0.0980 C.3   1 <1>   0.1200 
 14 C       -3.6990    -2.7250    -0.7200 C.3   1 <1>  -0.0170 
 15 O       -0.9120    -4.3220    -1.0160 O.3   1 <1>  -0.5600 
 16 C        3.4110     2.3220     0.4680 C.ar  1 <1>  -0.1430 
 17 C       -4.7110    -3.3690     0.2160 C.ar  1 <1>  -0.1430 
 18 C        4.5650     3.3070     0.2960 C.3   1 <1>   0.0630 
 19 C       -5.2560    -4.6110    -0.0390 C.ar  1 <1>  -0.1500 
 20 C       -5.1370    -2.7420     1.3700 C.ar  1 <1>  -0.1500 
 21 C        4.9680     3.4250    -1.1770 C.3   1 <1>  -0.2400 
 22 C        5.7650     2.8990     1.1570 C.3   1 <1>  -0.2400 
 23 C       -6.1740    -5.1510     0.8480 C.ar  1 <1>   0.1600 
 24 C       -6.0590    -3.3700     2.1900 C.ar  1 <1>   0.1600 
 25 N       -6.5880    -4.5600     1.9570 N.ar  1 <1>  -0.6200 
 26 H       -1.4460    -0.0690    -0.6090 H     1 <1>   0.4200 
 27 H       -1.7600    -1.8390    -1.9870 H     1 <1>   0.0800 
 28 H        0.2130     2.2340     1.5400 H     1 <1>   0.1500 
 29 H        2.6140    -0.9260     0.0060 H     1 <1>   0.1500 
 30 H       -2.3540    -2.2090     0.8590 H     1 <1>   0.0800 
 31 H        0.6190    -3.0680    -0.7040 H     1 <1>   0.0800 
 32 H        0.0340    -3.1650    -2.3640 H     1 <1>   0.0800 
 33 H        2.0680     3.7870     1.2590 H     1 <1>   0.1500 
 34 H        4.4760     0.6220    -0.2790 H     1 <1>   0.1500 
 35 H       -2.4560    -4.8670     0.1640 H     1 <1>   0.0800 
 36 H       -1.0780    -4.1280     0.9700 H     1 <1>   0.0800 
 37 H       -3.6710    -3.2660    -1.6510 H     1 <1>   0.0800 
 38 H       -4.0220    -1.7210    -0.9340 H     1 <1>   0.0800 
 39 H        4.2420     4.2800     0.6260 H     1 <1>   0.0800 
 40 H       -4.9770    -5.1660    -0.9160 H     1 <1>   0.1500 
 41 H       -4.7600    -1.7720     1.6410 H     1 <1>   0.1500 
 42 H        5.3480     2.4910    -1.5480 H     1 <1>   0.0800 
 43 H        5.7280     4.1770    -1.2960 H     1 <1>   0.0800 
 44 H        4.1140     3.7060    -1.7680 H     1 <1>   0.0800 
 45 H        6.1640     1.9530     0.8370 H     1 <1>   0.0800 
 46 H        5.4630     2.8130     2.1860 H     1 <1>   0.0800 
 47 H        6.5410     3.6400     1.0890 H     1 <1>   0.0800 
 48 H       -6.5880    -6.1210     0.6330 H     1 <1>   0.1500 
 49 H       -6.3780    -2.8660     3.0870 H     1 <1>   0.1500 
@<TRIPOS>BOND
  1   1   2  2   
  2   1   3  2   
  3   1   4  am  
  4   1   5  1   
  5   4   6  1   
  6   4  26  1   
  7   5   7  ar  
  8   5   8  ar  
  9   6   9  1   
 10   6  10  1   
 11   6  27  1   
 12   7  11  ar  
 13   7  28  1   
 14   8  12  ar  
 15   8  29  1   
 16   9  13  1   
 17   9  14  1   
 18   9  30  1   
 19  10  15  1   
 20  10  31  1   
 21  10  32  1   
 22  11  16  ar  
 23  11  33  1   
 24  12  16  ar  
 25  12  34  1   
 26  13  15  1   
 27  13  35  1   
 28  13  36  1   
 29  14  17  1   
 30  14  37  1   
 31  14  38  1   
 32  16  18  1   
 33  17  19  ar  
 34  17  20  ar  
 35  18  21  1   
 36  18  22  1   
 37  18  39  1   
 38  19  23  ar  
 39  19  40  1   
 40  20  24  ar  
 41  20  41  1   
 42  21  42  1   
 43  21  43  1   
 44  21  44  1   
 45  22  45  1   
 46  22  46  1   
 47  22  47  1   
 48  23  25  ar  
 49  23  48  1   
 50  24  25  ar  
 51  24  49  1   
@<TRIPOS>SUBSTRUCTURE
  1 ****   1 GROUP 4 **** **** 0

# MOE 2024.06 (io_trps.svl 2023.06)
