@<TRIPOS>MOLECULE
NONAME
52 54 1 0 0 
SMALL
USER_CHARGES


@<TRIPOS>ATOM
  1 O        0.2340     1.2260     1.0560 O.2   1 <1>  -0.5700 
  2 C        0.0920     2.3870     0.7710 C.2   1 <1>   0.5690 
  3 N       -0.9340     3.1040     1.2770 N.am  1 <1>  -0.7300 
  4 C        1.0540     3.0670    -0.2020 C.3   1 <1>   0.1810 
  5 C       -1.2360     4.5060     0.8910 C.3   1 <1>   0.3640 
  6 O        1.0560     4.4690    -0.0570 O.3   1 <1>  -0.5600 
  7 C       -2.6690     4.5480     0.3610 C.ar  1 <1>  -0.1440 
  8 C       -0.2310     5.0810    -0.1480 C.3   1 <1>   0.2610 
  9 C       -3.1360     3.5950    -0.5380 C.ar  1 <1>  -0.1500 
 10 C       -3.5290     5.5550     0.7760 C.ar  1 <1>  -0.1500 
 11 C       -0.1030     6.5970     0.0450 C.2   1 <1>   0.5690 
 12 C       -4.4370     3.6480    -1.0070 C.ar  1 <1>  -0.1500 
 13 C       -4.8300     5.6090     0.3070 C.ar  1 <1>  -0.1500 
 14 O       -1.0750     7.3040    -0.0730 O.2   1 <1>  -0.5700 
 15 N        1.1150     7.1220     0.3490 N.am  1 <1>  -0.7300 
 16 C       -5.2850     4.6550    -0.5850 C.ar  1 <1>  -0.1500 
 17 C        1.4120     8.5550     0.5680 C.3   1 <1>   0.1400 
 18 C        1.9540     9.1760    -0.7190 C.3   1 <1>  -0.0170 
 19 C        2.2920    10.6400    -0.4910 C.ar  1 <1>  -0.1430 
 20 C        3.5890    11.0250    -0.1910 C.ar  1 <1>  -0.1500 
 21 C        1.2980    11.6000    -0.5760 C.ar  1 <1>  -0.1500 
 22 C        3.9010    12.3650     0.0260 C.ar  1 <1>   0.0830 
 23 C        1.5920    12.9340    -0.3630 C.ar  1 <1>  -0.1500 
 24 O        5.1650    12.7840     0.3240 O.3   1 <1>  -0.3630 
 25 C        2.8920    13.3290    -0.0600 C.ar  1 <1>   0.0830 
 26 C        6.2510    11.8880     0.3850 C.3   1 <1>   0.0400 
 27 O        3.2290    14.6340     0.1600 O.3   1 <1>  -0.3630 
 28 C        2.2730    15.6670     0.0980 C.3   1 <1>   0.0400 
 29 H       -1.6140     2.6320     1.8750 H     1 <1>   0.3700 
 30 H        0.7780     2.8260    -1.2120 H     1 <1>   0.0800 
 31 H        2.0530     2.7150    -0.0190 H     1 <1>   0.0800 
 32 H       -1.1790     5.1060     1.7830 H     1 <1>   0.0800 
 33 H       -0.6030     4.9040    -1.1400 H     1 <1>   0.0800 
 34 H       -2.4940     2.8020    -0.8780 H     1 <1>   0.1500 
 35 H       -3.1910     6.3130     1.4620 H     1 <1>   0.1500 
 36 H       -4.7890     2.9050    -1.7010 H     1 <1>   0.1500 
 37 H       -5.4860     6.3970     0.6340 H     1 <1>   0.1500 
 38 H        1.9020     6.4650     0.3950 H     1 <1>   0.3700 
 39 H       -6.2970     4.6980    -0.9500 H     1 <1>   0.1500 
 40 H        0.5130     9.0710     0.8640 H     1 <1>   0.0800 
 41 H        2.1340     8.6550     1.3600 H     1 <1>   0.0800 
 42 H        2.8320     8.6440    -1.0390 H     1 <1>   0.0800 
 43 H        1.2100     9.0960    -1.4930 H     1 <1>   0.0800 
 44 H        4.3470    10.2700    -0.1280 H     1 <1>   0.1500 
 45 H        0.2870    11.3100    -0.8090 H     1 <1>   0.1500 
 46 H        0.7950    13.6480    -0.4380 H     1 <1>   0.1500 
 47 H        7.1360    12.4550     0.6130 H     1 <1>   0.0800 
 48 H        6.3610    11.4070    -0.5700 H     1 <1>   0.0800 
 49 H        6.0670    11.1700     1.1640 H     1 <1>   0.0800 
 50 H        2.7740    16.5950     0.3070 H     1 <1>   0.0800 
 51 H        1.5160    15.4850     0.8400 H     1 <1>   0.0800 
 52 H        1.8510    15.6930    -0.8900 H     1 <1>   0.0800 
@<TRIPOS>BOND
  1   1   2  2   
  2   2   3  am  
  3   2   4  1   
  4   3   5  1   
  5   3  29  1   
  6   4   6  1   
  7   4  30  1   
  8   4  31  1   
  9   5   7  1   
 10   5   8  1   
 11   5  32  1   
 12   6   8  1   
 13   7   9  ar  
 14   7  10  ar  
 15   8  11  1   
 16   8  33  1   
 17   9  12  ar  
 18   9  34  1   
 19  10  13  ar  
 20  10  35  1   
 21  11  14  2   
 22  11  15  am  
 23  12  16  ar  
 24  12  36  1   
 25  13  16  ar  
 26  13  37  1   
 27  15  17  1   
 28  15  38  1   
 29  16  39  1   
 30  17  18  1   
 31  17  40  1   
 32  17  41  1   
 33  18  19  1   
 34  18  42  1   
 35  18  43  1   
 36  19  20  ar  
 37  19  21  ar  
 38  20  22  ar  
 39  20  44  1   
 40  21  23  ar  
 41  21  45  1   
 42  22  24  1   
 43  22  25  ar  
 44  23  25  ar  
 45  23  46  1   
 46  24  26  1   
 47  25  27  1   
 48  26  47  1   
 49  26  48  1   
 50  26  49  1   
 51  27  28  1   
 52  28  50  1   
 53  28  51  1   
 54  28  52  1   
@<TRIPOS>SUBSTRUCTURE
  1 ****  15 GROUP 4 **** **** 0

# MOE 2024.06 (io_trps.svl 2023.06)
