@<TRIPOS>MOLECULE
NONAME
53 55 1 0 0 
SMALL
USER_CHARGES


@<TRIPOS>ATOM
  1 O        2.7280     2.1670     2.0630 O.co2 1 <1>  -0.9000 
  2 C        2.3140     1.1060     1.5710 C.2   1 <1>   0.9060 
  3 O        1.9500     0.1730     2.2850 O.co2 1 <1>  -0.9000 
  4 C        2.5550     0.8300     0.0750 C.3   1 <1>  -0.1060 
  5 C        3.5930    -0.3160     0.0860 C.3   1 <1>   0.2000 
  6 C        3.2000     2.0590    -0.6500 C.3   1 <1>  -0.1600 
  7 C        1.2400     0.4000    -0.6310 C.3   1 <1>  -0.1600 
  8 O        3.9850    -0.6130    -1.2210 O.3   1 <1>  -0.6800 
  9 C        4.8450     0.0980     0.9040 C.3   1 <1>   0.3430 
 10 C        4.7170     2.2020    -0.4210 C.3   1 <1>   0.3430 
 11 C        0.1390     1.4730    -0.5890 C.3   1 <1>  -0.1600 
 12 N        5.0890     1.5840     0.8760 N.4   1 <1>  -0.9590 
 13 C       -1.1350     0.9770    -1.2780 C.3   1 <1>  -0.2400 
 14 C        6.3930     1.9970     1.4160 C.3   1 <1>   0.5240 
 15 C        6.3600     3.4890     1.6620 C.2   1 <1>  -0.1810 
 16 C        7.3970     4.3740     1.3580 C.2   1 <1>   0.2350 
 17 C        5.3850     4.2470     2.2080 C.2   1 <1>  -0.3020 
 18 N        7.0790     5.5950     1.7010 N.2   1 <1>  -0.7070 
 19 C        8.6530     3.9930     0.7540 C.ar  1 <1>   0.0540 
 20 N        5.8420     5.5110     2.2210 N.pl3 1 <1>   0.3000 
 21 C        9.8450     4.1020     1.4620 C.ar  1 <1>  -0.1500 
 22 C        8.7080     3.4890    -0.5430 C.ar  1 <1>  -0.1500 
 23 C       11.0460     3.6980     0.9080 C.ar  1 <1>  -0.1500 
 24 C        9.9070     3.0820    -1.1000 C.ar  1 <1>  -0.1500 
 25 C       11.0830     3.1780    -0.3750 C.ar  1 <1>  -0.1440 
 26 C       12.4000     2.7360    -0.9880 C.3   1 <1>  -0.0970 
 27 H        3.1720    -1.2130     0.5110 H     1 <1>   0.0800 
 28 H        2.7140     2.9640    -0.3300 H     1 <1>   0.0800 
 29 H        3.0420     1.9840    -1.7110 H     1 <1>   0.0800 
 30 H        1.4370     0.1490    -1.6580 H     1 <1>   0.0800 
 31 H        0.8650    -0.4860    -0.1430 H     1 <1>   0.0800 
 32 H        3.2030    -0.9100    -1.7280 H     1 <1>   0.4000 
 33 H        5.6980    -0.4380     0.5240 H     1 <1>   0.0800 
 34 H        4.6830    -0.1980     1.9280 H     1 <1>   0.0800 
 35 H        4.9820     3.2460    -0.4340 H     1 <1>   0.0800 
 36 H        5.2450     1.6990    -1.2150 H     1 <1>   0.0800 
 37 H       -0.0920     1.7170     0.4350 H     1 <1>   0.0800 
 38 H        0.4720     2.3720    -1.0770 H     1 <1>   0.0800 
 39 H        4.3690     1.9830     1.5350 H     1 <1>   0.4500 
 40 H       -1.5060     0.0960    -0.7850 H     1 <1>   0.0800 
 41 H       -0.9420     0.7460    -2.3100 H     1 <1>   0.0800 
 42 H       -1.8940     1.7380    -1.2320 H     1 <1>   0.0800 
 43 H        6.5820     1.4920     2.3480 H     1 <1>   0.0800 
 44 H        7.1770     1.7480     0.7200 H     1 <1>   0.0800 
 45 H        4.4120     3.9720     2.5850 H     1 <1>   0.1500 
 46 H        5.3360     6.3310     2.5800 H     1 <1>   0.2700 
 47 H        9.8220     4.5140     2.4560 H     1 <1>   0.1500 
 48 H        7.8060     3.4260    -1.1220 H     1 <1>   0.1500 
 49 H       11.9530     3.7940     1.4790 H     1 <1>   0.1500 
 50 H        9.9270     2.6970    -2.1060 H     1 <1>   0.1500 
 51 H       13.0890     2.4300    -0.2210 H     1 <1>   0.0800 
 52 H       12.8350     3.5510    -1.5390 H     1 <1>   0.0800 
 53 H       12.2450     1.9080    -1.6550 H     1 <1>   0.0800 
@<TRIPOS>BOND
  1   1   2  ar  
  2   2   3  ar  
  3   2   4  1   
  4   4   5  1   
  5   4   6  1   
  6   4   7  1   
  7   5   8  1   
  8   5   9  1   
  9   5  27  1   
 10   6  10  1   
 11   6  28  1   
 12   6  29  1   
 13   7  11  1   
 14   7  30  1   
 15   7  31  1   
 16   8  32  1   
 17   9  12  1   
 18   9  33  1   
 19   9  34  1   
 20  10  12  1   
 21  10  35  1   
 22  10  36  1   
 23  11  13  1   
 24  11  37  1   
 25  11  38  1   
 26  12  14  1   
 27  12  39  1   
 28  13  40  1   
 29  13  41  1   
 30  13  42  1   
 31  14  15  1   
 32  14  43  1   
 33  14  44  1   
 34  15  16  1   
 35  15  17  2   
 36  16  18  2   
 37  16  19  1   
 38  17  20  1   
 39  17  45  1   
 40  18  20  1   
 41  19  21  ar  
 42  19  22  ar  
 43  20  46  1   
 44  21  23  ar  
 45  21  47  1   
 46  22  24  ar  
 47  22  48  1   
 48  23  25  ar  
 49  23  49  1   
 50  24  25  ar  
 51  24  50  1   
 52  25  26  1   
 53  26  51  1   
 54  26  52  1   
 55  26  53  1   
@<TRIPOS>SUBSTRUCTURE
  1 ****  12 GROUP 4 **** **** 0

# MOE 2024.06 (io_trps.svl 2023.06)
