@<TRIPOS>MOLECULE
NONAME
52 54 1 0 0 
SMALL
USER_CHARGES


@<TRIPOS>ATOM
  1 F       -0.0110    -1.3640    -2.4600 F     1 <1>  -0.1900 
  2 C       -0.2930    -2.4610    -1.8080 C.ar  1 <1>   0.1900 
  3 C        0.0090    -2.5310    -0.4610 C.ar  1 <1>  -0.1500 
  4 C       -0.8810    -3.5090    -2.4900 C.ar  1 <1>  -0.1500 
  5 C       -0.2940    -3.6920     0.2310 C.ar  1 <1>  -0.1500 
  6 C       -1.1800    -4.6660    -1.7910 C.ar  1 <1>  -0.1500 
  7 C       -0.8950    -4.7620    -0.4340 C.ar  1 <1>   0.0830 
  8 O       -1.2360    -5.9270     0.1700 O.3   1 <1>  -0.3630 
  9 C       -1.0490    -6.1210     1.5650 C.3   1 <1>   0.1810 
 10 C       -1.6520    -7.4440     2.0400 C.2   1 <1>   0.5690 
 11 O       -0.9000    -8.1990     2.6140 O.2   1 <1>  -0.5700 
 12 N       -2.9860    -7.7550     1.8650 N.am  1 <1>  -0.6600 
 13 C       -3.9570    -6.8230     1.2130 C.3   1 <1>   0.2200 
 14 C       -3.4890    -9.0940     2.3100 C.3   1 <1>   0.0600 
 15 C       -5.3100    -6.7080     1.9160 C.3   1 <1>  -0.1600 
 16 C       -4.3040    -7.2440    -0.2120 C.3   1 <1>  -0.1600 
 17 C       -6.2440    -6.1460     0.8340 C.3   1 <1>  -0.0800 
 18 C       -5.6110    -6.5010    -0.5170 C.3   1 <1>  -0.0800 
 19 C       -7.6580    -6.7460     0.8050 C.3   1 <1>  -0.1600 
 20 C       -6.6700    -7.3150    -1.2740 C.3   1 <1>  -0.1600 
 21 C       -8.0150    -6.8830    -0.6790 C.3   1 <1>   0.4230 
 22 N       -8.4480    -5.5650    -1.2490 N.4   1 <1>  -0.9590 
 23 C       -9.6850    -5.0280    -0.5940 C.3   1 <1>   0.2630 
 24 C       -8.6850    -5.6250    -2.7270 C.3   1 <1>   0.2630 
 25 H        0.4710    -1.6930     0.0290 H     1 <1>   0.1500 
 26 H       -1.0930    -3.4180    -3.5400 H     1 <1>   0.1500 
 27 H       -0.0520    -3.7430     1.2760 H     1 <1>   0.1500 
 28 H       -1.6310    -5.5020    -2.2930 H     1 <1>   0.1500 
 29 H        0.0080    -6.1200     1.7610 H     1 <1>   0.0800 
 30 H       -1.5160    -5.3130     2.0940 H     1 <1>   0.0800 
 31 H       -3.5450    -5.8300     1.1710 H     1 <1>   0.0800 
 32 H       -4.2140    -9.4790     1.6180 H     1 <1>   0.0800 
 33 H       -3.9370    -9.0050     3.2840 H     1 <1>   0.0800 
 34 H       -2.6800    -9.8020     2.3720 H     1 <1>   0.0800 
 35 H       -5.6560    -7.6720     2.2360 H     1 <1>   0.0800 
 36 H       -5.2510    -6.0520     2.7670 H     1 <1>   0.0800 
 37 H       -3.5230    -6.9660    -0.8980 H     1 <1>   0.0800 
 38 H       -4.4470    -8.3070    -0.2560 H     1 <1>   0.0800 
 39 H       -6.2930    -5.0730     0.9250 H     1 <1>   0.0800 
 40 H       -5.3880    -5.5900    -1.0480 H     1 <1>   0.0800 
 41 H       -8.3560    -6.1790     1.3910 H     1 <1>   0.0800 
 42 H       -7.6340    -7.7410     1.2170 H     1 <1>   0.0800 
 43 H       -6.5450    -8.3600    -1.0500 H     1 <1>   0.0800 
 44 H       -6.5870    -7.2060    -2.3390 H     1 <1>   0.0800 
 45 H       -8.7760    -7.6310    -0.8360 H     1 <1>   0.0800 
 46 H       -7.6730    -4.9100    -1.0690 H     1 <1>   0.4500 
 47 H      -10.4930    -5.7360    -0.6820 H     1 <1>   0.0800 
 48 H       -9.9840    -4.1050    -1.0630 H     1 <1>   0.0800 
 49 H       -9.5100    -4.8300     0.4500 H     1 <1>   0.0800 
 50 H       -9.4280    -6.3710    -2.9580 H     1 <1>   0.0800 
 51 H       -7.7760    -5.8670    -3.2520 H     1 <1>   0.0800 
 52 H       -9.0340    -4.6700    -3.0880 H     1 <1>   0.0800 
@<TRIPOS>BOND
  1   1   2  1   
  2   2   3  ar  
  3   2   4  ar  
  4   3   5  ar  
  5   3  25  1   
  6   4   6  ar  
  7   4  26  1   
  8   5   7  ar  
  9   5  27  1   
 10   6   7  ar  
 11   6  28  1   
 12   7   8  1   
 13   8   9  1   
 14   9  10  1   
 15   9  29  1   
 16   9  30  1   
 17  10  11  2   
 18  10  12  am  
 19  12  13  1   
 20  12  14  1   
 21  13  15  1   
 22  13  16  1   
 23  13  31  1   
 24  14  32  1   
 25  14  33  1   
 26  14  34  1   
 27  15  17  1   
 28  15  35  1   
 29  15  36  1   
 30  16  18  1   
 31  16  37  1   
 32  16  38  1   
 33  17  18  1   
 34  17  19  1   
 35  17  39  1   
 36  18  20  1   
 37  18  40  1   
 38  19  21  1   
 39  19  41  1   
 40  19  42  1   
 41  20  21  1   
 42  20  43  1   
 43  20  44  1   
 44  21  22  1   
 45  21  45  1   
 46  22  23  1   
 47  22  24  1   
 48  22  46  1   
 49  23  47  1   
 50  23  48  1   
 51  23  49  1   
 52  24  50  1   
 53  24  51  1   
 54  24  52  1   
@<TRIPOS>SUBSTRUCTURE
  1 ****  16 GROUP 4 **** **** 0

# MOE 2024.06 (io_trps.svl 2023.06)
