@<TRIPOS>MOLECULE
NONAME
49 50 1 0 0 
SMALL
USER_CHARGES


@<TRIPOS>ATOM
  1 S        0.7090    -0.0320    -0.4200 S.o2  1 <1>   1.3330 
  2 O        0.2370    -0.0450    -1.7840 O.2   1 <1>  -0.6500 
  3 O        2.1240     0.1530    -0.1730 O.2   1 <1>  -0.6500 
  4 N        0.1970    -1.4510     0.3550 N.am  1 <1>  -0.8490 
  5 C       -0.1450     1.2760     0.4590 C.3   1 <1>  -0.0550 
  6 C       -1.1120    -1.9260    -0.1070 C.3   1 <1>   0.1160 
  7 C        1.1810    -2.5320     0.2470 C.3   1 <1>   0.1160 
  8 C        0.1490     2.6730    -0.1320 C.3   1 <1>  -0.0800 
  9 C       -0.5170     3.8440     0.5930 C.3   1 <1>   0.2000 
 10 C        1.6380     3.0350    -0.1420 C.3   1 <1>   0.2090 
 11 O       -0.3750     3.6710     1.9620 O.3   1 <1>  -0.6800 
 12 C        0.3140     5.0540     0.1590 C.3   1 <1>   0.2090 
 13 N        1.6970     4.5190    -0.0490 N.pl3 1 <1>  -0.8380 
 14 C        2.7810     5.3220    -0.1810 C.ar  1 <1>   0.7710 
 15 N        2.6200     6.6300    -0.1050 N.ar  1 <1>  -0.6200 
 16 N        3.9830     4.7590    -0.3830 N.ar  1 <1>  -0.1790 
 17 C        3.6860     7.4010    -0.2180 C.ar  1 <1>   0.4100 
 18 C        5.0950     5.5120    -0.5420 C.ar  1 <1>   0.2110 
 19 N        3.4770     8.7350    -0.0830 N.pl3 1 <1>  -0.8380 
 20 C        4.9750     6.8610    -0.4700 C.ar  1 <1>  -0.1440 
 21 C        4.1730     9.5600     0.9430 C.3   1 <1>   0.1290 
 22 C        2.2780     9.3960    -0.6750 C.3   1 <1>   0.1290 
 23 C        6.1930     7.7540    -0.6970 C.3   1 <1>  -0.0970 
 24 H       -1.2020     1.1020     0.4200 H     1 <1>   0.0800 
 25 H        0.1490     1.2450     1.4910 H     1 <1>   0.0800 
 26 H       -1.4220    -2.7780     0.4740 H     1 <1>   0.0800 
 27 H       -1.0650    -2.2100    -1.1470 H     1 <1>   0.0800 
 28 H       -1.8520    -1.1530     0.0060 H     1 <1>   0.0800 
 29 H        0.8340    -3.4060     0.7720 H     1 <1>   0.0800 
 30 H        2.1160    -2.2270     0.6880 H     1 <1>   0.0800 
 31 H        1.3510    -2.7840    -0.7870 H     1 <1>   0.0800 
 32 H       -0.1910     2.6830    -1.1530 H     1 <1>   0.0800 
 33 H       -1.5660     3.9470     0.3680 H     1 <1>   0.0800 
 34 H        2.1050     2.6780    -1.0460 H     1 <1>   0.0800 
 35 H        2.1270     2.6060     0.7180 H     1 <1>   0.0800 
 36 H        0.5320     3.9150     2.2360 H     1 <1>   0.4000 
 37 H        0.2860     5.8400     0.8960 H     1 <1>   0.0800 
 38 H       -0.0580     5.4360    -0.7770 H     1 <1>   0.0800 
 39 H        3.9970     3.7450    -0.4220 H     1 <1>   0.4570 
 40 H        6.0360     5.0180    -0.7280 H     1 <1>   0.1500 
 41 H        3.4500    10.0520     1.5710 H     1 <1>   0.0800 
 42 H        4.7820    10.3060     0.4610 H     1 <1>   0.0800 
 43 H        4.7940     8.9410     1.5660 H     1 <1>   0.0800 
 44 H        2.5510    10.3530    -1.0840 H     1 <1>   0.0800 
 45 H        1.5260     9.5340     0.0830 H     1 <1>   0.0800 
 46 H        1.8680     8.7900    -1.4640 H     1 <1>   0.0800 
 47 H        7.0000     7.2080    -1.1520 H     1 <1>   0.0800 
 48 H        6.5440     8.1580     0.2360 H     1 <1>   0.0800 
 49 H        5.9360     8.5710    -1.3500 H     1 <1>   0.0800 
@<TRIPOS>BOND
  1   1   2  2   
  2   1   3  2   
  3   1   4  am  
  4   1   5  1   
  5   4   6  1   
  6   4   7  1   
  7   5   8  1   
  8   5  24  1   
  9   5  25  1   
 10   6  26  1   
 11   6  27  1   
 12   6  28  1   
 13   7  29  1   
 14   7  30  1   
 15   7  31  1   
 16   8   9  1   
 17   8  10  1   
 18   8  32  1   
 19   9  11  1   
 20   9  12  1   
 21   9  33  1   
 22  10  13  1   
 23  10  34  1   
 24  10  35  1   
 25  11  36  1   
 26  12  13  1   
 27  12  37  1   
 28  12  38  1   
 29  13  14  1   
 30  14  15  ar  
 31  14  16  ar  
 32  15  17  ar  
 33  16  18  ar  
 34  16  39  1   
 35  17  19  1   
 36  17  20  ar  
 37  18  20  ar  
 38  18  40  1   
 39  19  21  1   
 40  19  22  1   
 41  20  23  1   
 42  21  41  1   
 43  21  42  1   
 44  21  43  1   
 45  22  44  1   
 46  22  45  1   
 47  22  46  1   
 48  23  47  1   
 49  23  48  1   
 50  23  49  1   
@<TRIPOS>SUBSTRUCTURE
  1 ****  13 GROUP 4 **** **** 0

# MOE 2024.06 (io_trps.svl 2023.06)
