@<TRIPOS>MOLECULE
NONAME
52 54 1 0 0 
SMALL
USER_CHARGES


@<TRIPOS>ATOM
  1 CL      -5.6540     0.2490    -0.1720 Cl    1 <1>  -0.1770 
  2 C       -3.9570     0.6470    -0.0240 C.ar  1 <1>   0.1770 
  3 C       -2.9840    -0.3350    -0.1710 C.ar  1 <1>  -0.1440 
  4 C       -3.6210     1.9610     0.2490 C.ar  1 <1>  -0.1500 
  5 C       -1.6530     0.0300    -0.0330 C.ar  1 <1>  -0.1500 
  6 C       -3.3420    -1.7840    -0.4700 C.3   1 <1>  -0.0160 
  7 C       -2.2890     2.3100     0.3830 C.ar  1 <1>  -0.1500 
  8 C       -1.3080     1.3440     0.2420 C.ar  1 <1>  -0.1500 
  9 C       -3.7140    -2.5220     0.8210 C.3   1 <1>  -0.0990 
 10 C       -4.1550    -3.9450     0.5390 C.2   1 <1>   0.5690 
 11 O       -3.4260    -4.8470     0.8770 O.2   1 <1>  -0.5700 
 12 N       -5.3650    -4.2030    -0.0530 N.am  1 <1>  -0.6600 
 13 C       -5.7270    -5.5830    -0.4420 C.3   1 <1>   0.1400 
 14 C       -6.5540    -3.3200     0.1410 C.3   1 <1>   0.1400 
 15 C       -6.9280    -5.9230     0.4590 C.3   1 <1>   0.4230 
 16 C       -7.8890    -4.0090    -0.3020 C.3   1 <1>  -0.1600 
 17 N       -6.6660    -7.1030     1.3560 N.4   1 <1>  -0.9590 
 18 C       -8.2720    -5.6010    -0.3330 C.3   1 <1>   0.0000 
 19 C       -6.7530    -8.3490     0.6180 C.3   1 <1>   0.3430 
 20 C       -5.3830    -6.9800     2.1280 C.3   1 <1>   0.2630 
 21 C       -8.7130    -7.1560    -0.4750 C.3   1 <1>  -0.1600 
 22 C       -9.6410    -5.1920    -1.0810 C.3   1 <1>   0.1200 
 23 C       -8.2130    -8.4040     0.2850 C.3   1 <1>  -0.1600 
 24 O      -10.6260    -5.0200    -0.1110 O.3   1 <1>  -0.6800 
 25 H       -4.3960     2.6990     0.3560 H     1 <1>   0.1500 
 26 H       -0.8750    -0.7070    -0.1370 H     1 <1>   0.1500 
 27 H       -4.1570    -1.8190    -1.1710 H     1 <1>   0.0800 
 28 H       -2.5060    -2.2800    -0.9330 H     1 <1>   0.0800 
 29 H       -2.0160     3.3300     0.5950 H     1 <1>   0.1500 
 30 H       -0.2710     1.6140     0.3460 H     1 <1>   0.1500 
 31 H       -4.4900    -1.9950     1.3410 H     1 <1>   0.0800 
 32 H       -2.8550    -2.5470     1.4680 H     1 <1>   0.0800 
 33 H       -6.0100    -5.5940    -1.4810 H     1 <1>   0.0800 
 34 H       -4.9030    -6.2610    -0.3220 H     1 <1>   0.0800 
 35 H       -6.6240    -3.0570     1.1850 H     1 <1>   0.0800 
 36 H       -6.4170    -2.4060    -0.4130 H     1 <1>   0.0800 
 37 H       -6.9260    -5.1670     1.2220 H     1 <1>   0.0800 
 38 H       -8.6550    -3.4570     0.2230 H     1 <1>   0.0800 
 39 H       -7.8870    -3.6570    -1.3220 H     1 <1>   0.0800 
 40 H       -7.4420    -7.1090     2.0320 H     1 <1>   0.4500 
 41 H       -6.1430    -8.3220    -0.2710 H     1 <1>   0.0800 
 42 H       -6.4710    -9.1890     1.2330 H     1 <1>   0.0800 
 43 H       -4.5300    -7.0360     1.4710 H     1 <1>   0.0800 
 44 H       -5.3040    -7.7700     2.8570 H     1 <1>   0.0800 
 45 H       -5.3440    -6.0330     2.6420 H     1 <1>   0.0800 
 46 H       -9.7750    -7.2970    -0.3250 H     1 <1>   0.0800 
 47 H       -8.5230    -7.4030    -1.5090 H     1 <1>   0.0800 
 48 H      -10.0130    -5.9100    -1.7970 H     1 <1>   0.0800 
 49 H       -9.6570    -4.2890    -1.6690 H     1 <1>   0.0800 
 50 H       -8.4030    -9.2830    -0.3070 H     1 <1>   0.0800 
 51 H       -8.7750    -8.5220     1.1970 H     1 <1>   0.0800 
 52 H      -11.4830    -4.7720    -0.5160 H     1 <1>   0.4000 
@<TRIPOS>BOND
  1   1   2  1   
  2   2   3  ar  
  3   2   4  ar  
  4   3   5  ar  
  5   3   6  1   
  6   4   7  ar  
  7   4  25  1   
  8   5   8  ar  
  9   5  26  1   
 10   6   9  1   
 11   6  27  1   
 12   6  28  1   
 13   7   8  ar  
 14   7  29  1   
 15   8  30  1   
 16   9  10  1   
 17   9  31  1   
 18   9  32  1   
 19  10  11  2   
 20  10  12  am  
 21  12  13  1   
 22  12  14  1   
 23  13  15  1   
 24  13  33  1   
 25  13  34  1   
 26  14  16  1   
 27  14  35  1   
 28  14  36  1   
 29  15  17  1   
 30  15  18  1   
 31  15  37  1   
 32  16  18  1   
 33  16  38  1   
 34  16  39  1   
 35  17  19  1   
 36  17  20  1   
 37  17  40  1   
 38  18  21  1   
 39  18  22  1   
 40  19  23  1   
 41  19  41  1   
 42  19  42  1   
 43  20  43  1   
 44  20  44  1   
 45  20  45  1   
 46  21  23  1   
 47  21  46  1   
 48  21  47  1   
 49  22  24  1   
 50  22  48  1   
 51  22  49  1   
 52  23  50  1   
 53  23  51  1   
 54  24  52  1   
@<TRIPOS>SUBSTRUCTURE
  1 ****  12 GROUP 4 **** **** 0

# MOE 2024.06 (io_trps.svl 2023.06)
