@<TRIPOS>MOLECULE
NONAME
52 55 1 0 0 
SMALL
USER_CHARGES


@<TRIPOS>ATOM
  1 S        0.1670    -0.5650     1.3250 S.o2  1 <1>   1.4470 
  2 O        1.0610    -1.5780     1.8520 O.2   1 <1>  -0.6500 
  3 O       -0.7620     0.0270     2.2640 O.2   1 <1>  -0.6500 
  4 N       -0.7450    -1.3600     0.1330 N.am  1 <1>  -0.8490 
  5 C        1.1930     0.5870     0.3730 C.ar  1 <1>  -0.0090 
  6 C       -1.8130    -0.5450    -0.4480 C.3   1 <1>   0.1960 
  7 C       -1.3710    -2.5940     0.6220 C.3   1 <1>   0.1960 
  8 C        0.8220     1.9370     0.1880 C.ar  1 <1>   0.3100 
  9 C        2.3500     0.1230    -0.2100 C.ar  1 <1>  -0.1500 
 10 C       -3.0960    -0.9150     0.2970 C.3   1 <1>  -0.0800 
 11 C       -2.8930    -2.4040     0.5980 C.3   1 <1>  -0.0800 
 12 N       -0.3310     2.4190     0.7250 N.ar  1 <1>  -0.6200 
 13 C        1.6700     2.7780    -0.5740 C.ar  1 <1>   0.0000 
 14 C        3.1870     0.9450    -0.9670 C.ar  1 <1>  -0.1430 
 15 C       -4.4360    -0.5490    -0.4070 C.3   1 <1>   0.2800 
 16 C       -3.5770    -3.2930    -0.4540 C.3   1 <1>  -0.1600 
 17 C       -0.6310     3.6680     0.5490 C.ar  1 <1>   0.1600 
 18 C        2.8460     2.2560    -1.1410 C.ar  1 <1>  -0.1500 
 19 C        1.3100     4.1260    -0.7470 C.ar  1 <1>  -0.1500 
 20 C        4.4480     0.3570    -1.5730 C.3   1 <1>  -0.0970 
 21 O       -4.2690    -0.5410    -1.7800 O.3   1 <1>  -0.6800 
 22 C       -5.5010    -1.6170    -0.0950 C.3   1 <1>  -0.1600 
 23 C       -4.9640     0.8470    -0.0080 C.3   1 <1>  -0.1600 
 24 C       -5.0940    -3.0450    -0.5160 C.3   1 <1>  -0.1600 
 25 C        0.1560     4.5660    -0.1800 C.ar  1 <1>  -0.1500 
 26 C       -4.0200     2.0260    -0.2990 C.3   1 <1>  -0.2400 
 27 H       -1.6030     0.5060    -0.3930 H     1 <1>   0.0800 
 28 H       -1.8960    -0.8160    -1.4860 H     1 <1>   0.0800 
 29 H       -1.0790    -3.4120    -0.0150 H     1 <1>   0.0800 
 30 H       -1.0520    -2.8230     1.6250 H     1 <1>   0.0800 
 31 H        2.6290    -0.9110    -0.0830 H     1 <1>   0.1500 
 32 H       -3.0790    -0.4070     1.2450 H     1 <1>   0.0800 
 33 H       -3.2960    -2.6440     1.5670 H     1 <1>   0.0800 
 34 H       -3.1510    -3.0720    -1.4190 H     1 <1>   0.0800 
 35 H       -3.3890    -4.3320    -0.2460 H     1 <1>   0.0800 
 36 H       -1.5420     4.0370     0.9890 H     1 <1>   0.1500 
 37 H        3.4720     2.9130    -1.7170 H     1 <1>   0.1500 
 38 H        1.9460     4.7800    -1.3170 H     1 <1>   0.1500 
 39 H        4.9950     1.1020    -2.1230 H     1 <1>   0.0800 
 40 H        4.1930    -0.4440    -2.2430 H     1 <1>   0.0800 
 41 H        5.0830    -0.0290    -0.7960 H     1 <1>   0.0800 
 42 H       -5.1230    -0.3500    -2.2050 H     1 <1>   0.4000 
 43 H       -5.6600    -1.6160     0.9700 H     1 <1>   0.0800 
 44 H       -6.4410    -1.3590    -0.5490 H     1 <1>   0.0800 
 45 H       -5.8980     1.0230    -0.5100 H     1 <1>   0.0800 
 46 H       -5.1750     0.8440     1.0470 H     1 <1>   0.0800 
 47 H       -5.6010    -3.7490     0.1220 H     1 <1>   0.0800 
 48 H       -5.4250    -3.2280    -1.5240 H     1 <1>   0.0800 
 49 H       -0.1690     5.5870    -0.2770 H     1 <1>   0.1500 
 50 H       -3.7060     2.0240    -1.3280 H     1 <1>   0.0800 
 51 H       -3.1500     1.9760     0.3320 H     1 <1>   0.0800 
 52 H       -4.5220     2.9550    -0.0970 H     1 <1>   0.0800 
@<TRIPOS>BOND
  1   1   2  2   
  2   1   3  2   
  3   1   4  am  
  4   1   5  1   
  5   4   6  1   
  6   4   7  1   
  7   5   8  ar  
  8   5   9  ar  
  9   6  10  1   
 10   6  27  1   
 11   6  28  1   
 12   7  11  1   
 13   7  29  1   
 14   7  30  1   
 15   8  12  ar  
 16   8  13  ar  
 17   9  14  ar  
 18   9  31  1   
 19  10  11  1   
 20  10  15  1   
 21  10  32  1   
 22  11  16  1   
 23  11  33  1   
 24  12  17  ar  
 25  13  18  ar  
 26  13  19  ar  
 27  14  18  ar  
 28  14  20  1   
 29  15  21  1   
 30  15  22  1   
 31  15  23  1   
 32  16  24  1   
 33  16  34  1   
 34  16  35  1   
 35  17  25  ar  
 36  17  36  1   
 37  18  37  1   
 38  19  25  ar  
 39  19  38  1   
 40  20  39  1   
 41  20  40  1   
 42  20  41  1   
 43  21  42  1   
 44  22  24  1   
 45  22  43  1   
 46  22  44  1   
 47  23  26  1   
 48  23  45  1   
 49  23  46  1   
 50  24  47  1   
 51  24  48  1   
 52  25  49  1   
 53  26  50  1   
 54  26  51  1   
 55  26  52  1   
@<TRIPOS>SUBSTRUCTURE
  1 ****   6 GROUP 4 **** **** 0

# MOE 2024.06 (io_trps.svl 2023.06)
