@<TRIPOS>MOLECULE
NONAME
54 57 1 0 0 
SMALL
USER_CHARGES


@<TRIPOS>ATOM
  1 O       -1.6440    -4.8930    -0.2880 O.2   1 <1>  -0.5700 
  2 C       -0.4750    -4.6590    -0.4800 C.2   1 <1>   0.5690 
  3 N        0.2630    -5.2620    -1.4620 N.am  1 <1>  -0.6600 
  4 C        0.2310    -3.6560     0.4100 C.3   1 <1>  -0.0990 
  5 C        1.7000    -4.9310    -1.6330 C.3   1 <1>   0.1400 
  6 C       -0.3040    -6.2870    -2.3780 C.3   1 <1>   0.0600 
  7 C        1.1010    -2.7000    -0.4280 C.3   1 <1>  -0.0800 
  8 C        1.9060    -3.4080    -1.5440 C.3   1 <1>  -0.0800 
  9 C        2.1150    -1.9110     0.4110 C.3   1 <1>  -0.1600 
 10 C        3.3740    -3.0200    -1.3210 C.3   1 <1>  -0.1600 
 11 C        3.3100    -1.7240    -0.5220 C.3   1 <1>   0.2200 
 12 N        4.6020    -1.4150     0.1620 N.am  1 <1>  -0.6600 
 13 C        5.4830    -0.5210    -0.4180 C.2   1 <1>   0.5440 
 14 C        4.9660    -2.1980     1.3820 C.3   1 <1>   0.0600 
 15 O        5.3130    -0.1880    -1.5760 O.2   1 <1>  -0.5700 
 16 C        6.6130     0.0240     0.3130 C.ar  1 <1>   0.0860 
 17 C        7.9010    -0.0420    -0.2120 C.ar  1 <1>  -0.1500 
 18 C        6.4520     0.6330     1.5570 C.ar  1 <1>  -0.1500 
 19 C        9.0090     0.4520     0.4670 C.ar  1 <1>   0.0000 
 20 C        7.5370     1.1340     2.2520 C.ar  1 <1>  -0.1500 
 21 C       10.3340     0.3570    -0.1020 C.ar  1 <1>   0.0000 
 22 C        8.8050     1.0400     1.7110 C.ar  1 <1>  -0.1500 
 23 C       10.8700    -0.8760    -0.4680 C.ar  1 <1>  -0.1500 
 24 C       11.1130     1.4960    -0.2990 C.ar  1 <1>  -0.1500 
 25 C       12.1380    -0.9710    -1.0090 C.ar  1 <1>  -0.1500 
 26 C       12.3830     1.4110    -0.8390 C.ar  1 <1>  -0.1500 
 27 C       12.8930     0.1730    -1.1930 C.ar  1 <1>   0.0820 
 28 O       14.1210     0.0710    -1.7180 O.3   1 <1>  -0.5330 
 29 H       -0.4970    -3.0970     0.9700 H     1 <1>   0.0800 
 30 H        0.8350    -4.2100     1.1030 H     1 <1>   0.0800 
 31 H        2.2540    -5.4280    -0.8550 H     1 <1>   0.0800 
 32 H        2.0550    -5.2890    -2.5840 H     1 <1>   0.0800 
 33 H        0.2390    -7.2100    -2.2720 H     1 <1>   0.0800 
 34 H       -0.2340    -5.9440    -3.3950 H     1 <1>   0.0800 
 35 H       -1.3400    -6.4690    -2.1460 H     1 <1>   0.0800 
 36 H        0.4420    -1.9970    -0.9110 H     1 <1>   0.0800 
 37 H        1.5940    -2.9850    -2.4840 H     1 <1>   0.0800 
 38 H        2.3880    -2.4890     1.2730 H     1 <1>   0.0800 
 39 H        1.7150    -0.9640     0.7250 H     1 <1>   0.0800 
 40 H        3.8920    -2.8710    -2.2530 H     1 <1>   0.0800 
 41 H        3.8760    -3.7790    -0.7500 H     1 <1>   0.0800 
 42 H        3.0640    -0.9250    -1.2040 H     1 <1>   0.0800 
 43 H        4.6480    -3.2200     1.2810 H     1 <1>   0.0800 
 44 H        4.4910    -1.7660     2.2450 H     1 <1>   0.0800 
 45 H        6.0320    -2.1960     1.5330 H     1 <1>   0.0800 
 46 H        8.0370    -0.4880    -1.1820 H     1 <1>   0.1500 
 47 H        5.4640     0.7140     1.9740 H     1 <1>   0.1500 
 48 H        7.3950     1.5980     3.2130 H     1 <1>   0.1500 
 49 H        9.6490     1.4250     2.2550 H     1 <1>   0.1500 
 50 H       10.2860    -1.7680    -0.3230 H     1 <1>   0.1500 
 51 H       10.7120     2.4570    -0.0280 H     1 <1>   0.1500 
 52 H       12.5480    -1.9250    -1.2900 H     1 <1>   0.1500 
 53 H       12.9660     2.3030    -0.9820 H     1 <1>   0.1500 
 54 H       14.5750     0.9270    -1.8100 H     1 <1>   0.4500 
@<TRIPOS>BOND
  1   1   2  2   
  2   2   3  am  
  3   2   4  1   
  4   3   5  1   
  5   3   6  1   
  6   4   7  1   
  7   4  29  1   
  8   4  30  1   
  9   5   8  1   
 10   5  31  1   
 11   5  32  1   
 12   6  33  1   
 13   6  34  1   
 14   6  35  1   
 15   7   8  1   
 16   7   9  1   
 17   7  36  1   
 18   8  10  1   
 19   8  37  1   
 20   9  11  1   
 21   9  38  1   
 22   9  39  1   
 23  10  11  1   
 24  10  40  1   
 25  10  41  1   
 26  11  12  1   
 27  11  42  1   
 28  12  13  am  
 29  12  14  1   
 30  13  15  2   
 31  13  16  1   
 32  14  43  1   
 33  14  44  1   
 34  14  45  1   
 35  16  17  ar  
 36  16  18  ar  
 37  17  19  ar  
 38  17  46  1   
 39  18  20  ar  
 40  18  47  1   
 41  19  21  1   
 42  19  22  ar  
 43  20  22  ar  
 44  20  48  1   
 45  21  23  ar  
 46  21  24  ar  
 47  22  49  1   
 48  23  25  ar  
 49  23  50  1   
 50  24  26  ar  
 51  24  51  1   
 52  25  27  ar  
 53  25  52  1   
 54  26  27  ar  
 55  26  53  1   
 56  27  28  1   
 57  28  54  1   
@<TRIPOS>SUBSTRUCTURE
  1 ****  13 GROUP 4 **** **** 0

# MOE 2024.06 (io_trps.svl 2023.06)
