@<TRIPOS>MOLECULE
NONAME
53 56 1 0 0 
SMALL
USER_CHARGES


@<TRIPOS>ATOM
  1 O       -0.0840    -0.1680     2.1990 O.2   1 <1>  -0.5700 
  2 C       -0.8790     0.5560     1.6440 C.2   1 <1>   0.5690 
  3 N       -1.9360     0.0430     0.9320 N.am  1 <1>  -0.6600 
  4 C       -0.6560     2.0580     1.7740 C.3   1 <1>   0.0440 
  5 C       -2.9460     0.8560     0.1840 C.3   1 <1>   0.1400 
  6 C       -2.1150    -1.4290     0.7480 C.3   1 <1>   0.1400 
  7 C       -0.3270     2.7330     0.4390 C.ar  1 <1>  -0.1440 
  8 C       -4.3800     0.3680     0.4630 C.3   1 <1>   0.1900 
  9 C       -3.5710    -1.8540     1.0030 C.3   1 <1>   0.1100 
 10 C       -1.0470     3.8300    -0.0370 C.ar  1 <1>   0.0820 
 11 C        0.7240     2.2310    -0.3130 C.ar  1 <1>  -0.1500 
 12 N       -4.5160    -1.0800     0.1690 N.3   1 <1>  -0.8100 
 13 C       -5.3900     1.1880    -0.3630 C.3   1 <1>   0.1200 
 14 O       -2.0730     4.3020     0.7210 O.3   1 <1>  -0.3630 
 15 C       -0.7020     4.4000    -1.2610 C.ar  1 <1>  -0.1500 
 16 C        1.0610     2.8010    -1.5270 C.ar  1 <1>  -0.1500 
 17 C       -5.9200    -1.5060     0.3790 C.3   1 <1>   0.3330 
 18 O       -6.6960     0.7510    -0.1160 O.3   1 <1>  -0.5600 
 19 C       -2.7200     5.5180     0.4180 C.3   1 <1>   0.0400 
 20 C        0.3460     3.8850    -2.0020 C.ar  1 <1>  -0.1500 
 21 C       -6.1230    -2.9610    -0.0410 C.ar  1 <1>  -0.1440 
 22 C       -6.8890    -0.6060    -0.4180 C.3   1 <1>   0.1200 
 23 C       -6.8110    -3.8360     0.7880 C.ar  1 <1>  -0.1500 
 24 C       -5.6300    -3.4280    -1.2530 C.ar  1 <1>  -0.1500 
 25 C       -7.0040    -5.1540     0.4120 C.ar  1 <1>  -0.1500 
 26 C       -5.8220    -4.7450    -1.6310 C.ar  1 <1>  -0.1500 
 27 C       -6.5100    -5.6100    -0.7980 C.ar  1 <1>  -0.1500 
 28 H       -1.5230     2.4840     2.2400 H     1 <1>   0.0800 
 29 H        0.1680     2.2230     2.4440 H     1 <1>   0.0800 
 30 H       -2.8860     1.8890     0.4620 H     1 <1>   0.0800 
 31 H       -2.7410     0.7810    -0.8690 H     1 <1>   0.0800 
 32 H       -1.8450    -1.6910    -0.2600 H     1 <1>   0.0800 
 33 H       -1.4700    -1.9740     1.4150 H     1 <1>   0.0800 
 34 H       -4.5900     0.5440     1.5040 H     1 <1>   0.0800 
 35 H       -3.8000    -1.7180     2.0460 H     1 <1>   0.0800 
 36 H       -3.6590    -2.9030     0.7770 H     1 <1>   0.0800 
 37 H        1.2900     1.3860     0.0460 H     1 <1>   0.1500 
 38 H       -5.1870     1.0900    -1.4160 H     1 <1>   0.0800 
 39 H       -5.3370     2.2270    -0.0930 H     1 <1>   0.0800 
 40 H       -1.2370     5.2410    -1.6570 H     1 <1>   0.1500 
 41 H        1.8780     2.4000    -2.1010 H     1 <1>   0.1500 
 42 H       -6.1630    -1.4070     1.4230 H     1 <1>   0.0800 
 43 H       -3.4300     5.7230     1.1990 H     1 <1>   0.0800 
 44 H       -3.2310     5.4180    -0.5230 H     1 <1>   0.0800 
 45 H       -1.9860     6.3040     0.3770 H     1 <1>   0.0800 
 46 H        0.6080     4.3280    -2.9470 H     1 <1>   0.1500 
 47 H       -7.9050    -0.8560    -0.1740 H     1 <1>   0.0800 
 48 H       -6.7440    -0.7460    -1.4740 H     1 <1>   0.0800 
 49 H       -7.2010    -3.4960     1.7310 H     1 <1>   0.1500 
 50 H       -5.0890    -2.7590    -1.9000 H     1 <1>   0.1500 
 51 H       -7.5390    -5.8260     1.0600 H     1 <1>   0.1500 
 52 H       -5.4360    -5.0960    -2.5710 H     1 <1>   0.1500 
 53 H       -6.6600    -6.6340    -1.0910 H     1 <1>   0.1500 
@<TRIPOS>BOND
  1   1   2  2   
  2   2   3  am  
  3   2   4  1   
  4   3   5  1   
  5   3   6  1   
  6   4   7  1   
  7   4  28  1   
  8   4  29  1   
  9   5   8  1   
 10   5  30  1   
 11   5  31  1   
 12   6   9  1   
 13   6  32  1   
 14   6  33  1   
 15   7  10  ar  
 16   7  11  ar  
 17   8  12  1   
 18   8  13  1   
 19   8  34  1   
 20   9  12  1   
 21   9  35  1   
 22   9  36  1   
 23  10  14  1   
 24  10  15  ar  
 25  11  16  ar  
 26  11  37  1   
 27  12  17  1   
 28  13  18  1   
 29  13  38  1   
 30  13  39  1   
 31  14  19  1   
 32  15  20  ar  
 33  15  40  1   
 34  16  20  ar  
 35  16  41  1   
 36  17  21  1   
 37  17  22  1   
 38  17  42  1   
 39  18  22  1   
 40  19  43  1   
 41  19  44  1   
 42  19  45  1   
 43  20  46  1   
 44  21  23  ar  
 45  21  24  ar  
 46  22  47  1   
 47  22  48  1   
 48  23  25  ar  
 49  23  49  1   
 50  24  26  ar  
 51  24  50  1   
 52  25  27  ar  
 53  25  51  1   
 54  26  27  ar  
 55  26  52  1   
 56  27  53  1   
@<TRIPOS>SUBSTRUCTURE
  1 ****   5 GROUP 4 **** **** 0

# MOE 2024.06 (io_trps.svl 2023.06)
