@<TRIPOS>MOLECULE
NONAME
50 52 1 0 0 
SMALL
USER_CHARGES


@<TRIPOS>ATOM
  1 O       -0.4810     0.5970     1.6850 O.2   1 <1>  -0.5700 
  2 C       -0.3100     1.5240     0.9150 C.2   1 <1>   0.5440 
  3 N       -1.3610     1.8790     0.1090 N.am  1 <1>  -0.7300 
  4 C        0.9670     2.2120     0.8350 C.ar  1 <1>   0.0860 
  5 C       -2.7120     1.2900     0.2300 C.3   1 <1>   0.2200 
  6 C        2.1540     1.5500     1.1510 C.ar  1 <1>  -0.1500 
  7 C        1.0660     3.5490     0.4410 C.ar  1 <1>  -0.1500 
  8 C       -2.6960    -0.2190    -0.1290 C.3   1 <1>   0.2000 
  9 C       -3.7320     2.0750    -0.6010 C.3   1 <1>  -0.1600 
 10 C        3.3810     2.1820     1.0640 C.ar  1 <1>  -0.1500 
 11 C        2.2900     4.1870     0.3520 C.ar  1 <1>  -0.1500 
 12 O       -2.7570    -0.9260     1.0640 O.3   1 <1>  -0.6800 
 13 C       -3.9150    -0.6220    -0.9690 C.3   1 <1>   0.3430 
 14 C       -5.1450     1.4750    -0.4610 C.3   1 <1>   0.3430 
 15 C        3.4510     3.5020     0.6610 C.ar  1 <1>  -0.1500 
 16 N       -5.1300    -0.0230    -0.3270 N.4   1 <1>  -0.9590 
 17 C       -6.4160    -0.6420    -0.7540 C.3   1 <1>   0.3430 
 18 C       -6.5020    -2.0880    -0.2620 C.3   1 <1>  -0.1600 
 19 C       -7.8700    -2.7130    -0.5860 C.3   1 <1>   0.0960 
 20 N       -7.8390    -4.1690    -0.3410 N.pl3 1 <1>   0.3140 
 21 N       -7.1910    -4.9860    -1.1390 N.2   1 <1>  -0.4180 
 22 C       -8.3680    -4.8930     0.6330 C.2   1 <1>   0.0060 
 23 N       -7.3350    -6.1630    -0.6460 N.2   1 <1>   0.0000 
 24 N       -8.0670    -6.1220     0.4620 N.2   1 <1>  -0.3380 
 25 C       -9.2040    -4.3720     1.7880 C.3   1 <1>  -0.0600 
 26 H       -1.2260     2.6250    -0.5750 H     1 <1>   0.3700 
 27 H       -3.0090     1.3870     1.2630 H     1 <1>   0.0800 
 28 H        2.1110     0.5230     1.4700 H     1 <1>   0.1500 
 29 H        0.1770     4.1070     0.2090 H     1 <1>   0.1500 
 30 H       -1.7880    -0.4950    -0.6380 H     1 <1>   0.0800 
 31 H       -3.7580     3.1000    -0.2750 H     1 <1>   0.0800 
 32 H       -3.4450     2.0660    -1.6380 H     1 <1>   0.0800 
 33 H        4.2820     1.6470     1.3120 H     1 <1>   0.1500 
 34 H        2.3450     5.2180     0.0450 H     1 <1>   0.1500 
 35 H       -1.9420    -0.7020     1.5890 H     1 <1>   0.4000 
 36 H       -3.9700    -1.6970    -0.9970 H     1 <1>   0.0800 
 37 H       -3.8080    -0.2560    -1.9770 H     1 <1>   0.0800 
 38 H       -5.7250     1.7620    -1.3230 H     1 <1>   0.0800 
 39 H       -5.6230     1.8970     0.4090 H     1 <1>   0.0800 
 40 H        4.4060     3.9960     0.5930 H     1 <1>   0.1500 
 41 H       -4.9840    -0.2470     0.6750 H     1 <1>   0.4500 
 42 H       -7.2370    -0.0810    -0.3360 H     1 <1>   0.0800 
 43 H       -6.5000    -0.6120    -1.8290 H     1 <1>   0.0800 
 44 H       -6.3470    -2.1240     0.8030 H     1 <1>   0.0800 
 45 H       -5.7420    -2.6760    -0.7460 H     1 <1>   0.0800 
 46 H       -8.1110    -2.5680    -1.6250 H     1 <1>   0.0800 
 47 H       -8.6470    -2.2700     0.0100 H     1 <1>   0.0800 
 48 H       -9.4830    -5.1890     2.4300 H     1 <1>   0.0800 
 49 H      -10.1010    -3.9090     1.4190 H     1 <1>   0.0800 
 50 H       -8.6420    -3.6620     2.3670 H     1 <1>   0.0800 
@<TRIPOS>BOND
  1   1   2  2   
  2   2   3  am  
  3   2   4  1   
  4   3   5  1   
  5   3  26  1   
  6   4   6  ar  
  7   4   7  ar  
  8   5   8  1   
  9   5   9  1   
 10   5  27  1   
 11   6  10  ar  
 12   6  28  1   
 13   7  11  ar  
 14   7  29  1   
 15   8  12  1   
 16   8  13  1   
 17   8  30  1   
 18   9  14  1   
 19   9  31  1   
 20   9  32  1   
 21  10  15  ar  
 22  10  33  1   
 23  11  15  ar  
 24  11  34  1   
 25  12  35  1   
 26  13  16  1   
 27  13  36  1   
 28  13  37  1   
 29  14  16  1   
 30  14  38  1   
 31  14  39  1   
 32  15  40  1   
 33  16  17  1   
 34  16  41  1   
 35  17  18  1   
 36  17  42  1   
 37  17  43  1   
 38  18  19  1   
 39  18  44  1   
 40  18  45  1   
 41  19  20  1   
 42  19  46  1   
 43  19  47  1   
 44  20  21  1   
 45  20  22  1   
 46  21  23  2   
 47  22  24  2   
 48  22  25  1   
 49  23  24  1   
 50  25  48  1   
 51  25  49  1   
 52  25  50  1   
@<TRIPOS>SUBSTRUCTURE
  1 ****   8 GROUP 4 **** **** 0

# MOE 2024.06 (io_trps.svl 2023.06)
