@<TRIPOS>MOLECULE
NONAME
48 51 1 0 0 
SMALL
USER_CHARGES


@<TRIPOS>ATOM
  1 O        0.1430     1.2410    -0.5050 O.2   1 <1>  -0.5700 
  2 C       -0.7540     2.0060    -0.7640 C.2   1 <1>   0.5690 
  3 N       -2.0410     1.7890    -0.3310 N.am  1 <1>  -0.6600 
  4 C       -0.3870     3.2180    -1.5960 C.3   1 <1>  -0.0990 
  5 C       -3.1880     2.7400    -0.5100 C.3   1 <1>   0.1400 
  6 C       -2.4280     0.4840     0.2840 C.3   1 <1>   0.1400 
  7 C       -0.0320     4.3900    -0.6870 C.3   1 <1>   0.1200 
  8 C       -3.9310     2.9930     0.8170 C.3   1 <1>   0.1440 
  9 C       -3.1660     0.7040     1.6090 C.3   1 <1>  -0.1600 
 10 O        0.1530     5.5190    -1.4640 O.3   1 <1>  -0.6800 
 11 C       -5.1010     3.9160     0.5320 C.ar  1 <1>   0.1670 
 12 C       -4.3670     1.6510     1.4400 C.3   1 <1>  -0.1600 
 13 C       -3.0830     3.8370     1.8070 C.3   1 <1>  -0.1600 
 14 N       -6.2110     3.5720    -0.0730 N.ar  1 <1>  -0.6200 
 15 C       -4.8550     5.1830     0.9650 C.ar  1 <1>  -0.1440 
 16 C       -3.4960     5.3060     1.6070 C.3   1 <1>  -0.0170 
 17 C       -7.1160     4.5480    -0.2360 C.ar  1 <1>   0.6200 
 18 C       -5.8280     6.1260     0.7610 C.ar  1 <1>   0.1600 
 19 N       -6.9580     5.8180     0.1640 N.ar  1 <1>  -0.6200 
 20 C       -8.3640     4.2000    -0.9020 C.ar  1 <1>   0.0000 
 21 C       -9.1030     5.1470    -1.6180 C.ar  1 <1>  -0.1500 
 22 C       -8.8820     2.9020    -0.8580 C.ar  1 <1>  -0.1500 
 23 C      -10.2880     4.8200    -2.2520 C.ar  1 <1>  -0.1500 
 24 C      -10.0650     2.5670    -1.4910 C.ar  1 <1>  -0.1500 
 25 C      -10.7720     3.5270    -2.1910 C.ar  1 <1>  -0.1500 
 26 H       -1.1940     3.4730    -2.2560 H     1 <1>   0.0800 
 27 H        0.4660     2.9660    -2.1980 H     1 <1>   0.0800 
 28 H       -3.8780     2.3140    -1.2190 H     1 <1>   0.0800 
 29 H       -2.8590     3.6830    -0.9030 H     1 <1>   0.0800 
 30 H       -1.5590    -0.1280     0.4580 H     1 <1>   0.0800 
 31 H       -3.0680    -0.0430    -0.4030 H     1 <1>   0.0800 
 32 H        0.8710     4.1950    -0.1330 H     1 <1>   0.0800 
 33 H       -0.8310     4.5990     0.0010 H     1 <1>   0.0800 
 34 H       -2.4740     1.1020     2.3300 H     1 <1>   0.0800 
 35 H       -3.5090    -0.2450     1.9800 H     1 <1>   0.0800 
 36 H        0.9360     5.4160    -2.0400 H     1 <1>   0.4000 
 37 H       -5.0890     1.1840     0.7920 H     1 <1>   0.0800 
 38 H       -4.8460     1.8180     2.3880 H     1 <1>   0.0800 
 39 H       -2.0260     3.6880     1.6810 H     1 <1>   0.0800 
 40 H       -3.3370     3.5610     2.8150 H     1 <1>   0.0800 
 41 H       -2.8210     5.8060     0.9340 H     1 <1>   0.0800 
 42 H       -3.5400     5.8360     2.5430 H     1 <1>   0.0800 
 43 H       -5.6810     7.1410     1.0870 H     1 <1>   0.1500 
 44 H       -8.7420     6.1590    -1.6780 H     1 <1>   0.1500 
 45 H       -8.3480     2.1400    -0.3170 H     1 <1>   0.1500 
 46 H      -10.8330     5.5730    -2.7950 H     1 <1>   0.1500 
 47 H      -10.4360     1.5580    -1.4380 H     1 <1>   0.1500 
 48 H      -11.6940     3.2690    -2.6830 H     1 <1>   0.1500 
@<TRIPOS>BOND
  1   1   2  2   
  2   2   3  am  
  3   2   4  1   
  4   3   5  1   
  5   3   6  1   
  6   4   7  1   
  7   4  26  1   
  8   4  27  1   
  9   5   8  1   
 10   5  28  1   
 11   5  29  1   
 12   6   9  1   
 13   6  30  1   
 14   6  31  1   
 15   7  10  1   
 16   7  32  1   
 17   7  33  1   
 18   8  11  1   
 19   8  12  1   
 20   8  13  1   
 21   9  12  1   
 22   9  34  1   
 23   9  35  1   
 24  10  36  1   
 25  11  14  ar  
 26  11  15  ar  
 27  12  37  1   
 28  12  38  1   
 29  13  16  1   
 30  13  39  1   
 31  13  40  1   
 32  14  17  ar  
 33  15  16  1   
 34  15  18  ar  
 35  16  41  1   
 36  16  42  1   
 37  17  19  ar  
 38  17  20  1   
 39  18  19  ar  
 40  18  43  1   
 41  20  21  ar  
 42  20  22  ar  
 43  21  23  ar  
 44  21  44  1   
 45  22  24  ar  
 46  22  45  1   
 47  23  25  ar  
 48  23  46  1   
 49  24  25  ar  
 50  24  47  1   
 51  25  48  1   
@<TRIPOS>SUBSTRUCTURE
  1 ****  11 GROUP 4 **** **** 0

# MOE 2024.06 (io_trps.svl 2023.06)
