@<TRIPOS>MOLECULE
NONAME
56 58 1 0 0 
SMALL
USER_CHARGES


@<TRIPOS>ATOM
  1 O       -0.9550    -1.0890     1.4810 O.3   1 <1>  -0.3630 
  2 C       -1.9910    -1.1440     0.6090 C.ar  1 <1>   0.0820 
  3 C       -0.5210     0.1350     2.0340 C.3   1 <1>   0.0400 
  4 C       -2.7740    -0.0490     0.2600 C.ar  1 <1>  -0.1500 
  5 C       -2.2570    -2.3860     0.0580 C.ar  1 <1>  -0.1500 
  6 C       -3.8180    -0.2100    -0.6450 C.ar  1 <1>   0.0820 
  7 C       -3.3020    -2.5540    -0.8380 C.ar  1 <1>  -0.1430 
  8 O       -4.6380     0.7920    -1.0440 O.3   1 <1>  -0.3630 
  9 C       -4.0710    -1.4570    -1.1910 C.ar  1 <1>  -0.1500 
 10 C       -3.6070    -3.9210    -1.4090 C.3   1 <1>   0.4860 
 11 C       -4.4530     2.1190    -0.6010 C.3   1 <1>   0.0400 
 12 N       -4.3220    -4.6990    -0.3520 N.4   1 <1>  -0.9590 
 13 C       -4.3400    -6.1810    -0.6440 C.3   1 <1>   0.3430 
 14 C       -5.6840    -4.1180    -0.1220 C.3   1 <1>   0.3430 
 15 C       -5.1810    -7.0300     0.3700 C.3   1 <1>   0.4230 
 16 C       -6.3880    -4.9190     0.9710 C.3   1 <1>  -0.1600 
 17 N       -5.2190    -8.5360     0.0890 N.4   1 <1>  -0.9590 
 18 C       -6.5910    -6.4090     0.5800 C.3   1 <1>   0.0000 
 19 C       -6.3590    -9.2600     0.7560 C.3   1 <1>   0.3430 
 20 C       -5.1660    -8.9610    -1.3530 C.3   1 <1>   0.2630 
 21 C       -7.3130    -7.1210     1.7580 C.3   1 <1>  -0.1600 
 22 C       -7.4300    -6.5500    -0.7270 C.3   1 <1>   0.1200 
 23 C       -6.7930    -8.5440     2.0330 C.3   1 <1>  -0.1600 
 24 O       -8.3900    -5.5620    -0.8190 O.3   1 <1>  -0.6800 
 25 H        0.3330    -0.0640     2.6570 H     1 <1>   0.0800 
 26 H       -1.3150     0.5540     2.6270 H     1 <1>   0.0800 
 27 H       -0.2420     0.8010     1.2370 H     1 <1>   0.0800 
 28 H       -2.5750     0.9130     0.6860 H     1 <1>   0.1500 
 29 H       -1.6210    -3.2040     0.3460 H     1 <1>   0.1500 
 30 H       -4.8820    -1.5390    -1.8950 H     1 <1>   0.1500 
 31 H       -2.6800    -4.4030    -1.6740 H     1 <1>   0.0800 
 32 H       -4.2150    -3.8270    -2.2940 H     1 <1>   0.0800 
 33 H       -5.2040     2.7330    -1.0640 H     1 <1>   0.0800 
 34 H       -3.4740     2.4540    -0.8970 H     1 <1>   0.0800 
 35 H       -4.5660     2.1510     0.4680 H     1 <1>   0.0800 
 36 H       -3.7830    -4.5030     0.5060 H     1 <1>   0.4500 
 37 H       -4.7500    -6.3240    -1.6290 H     1 <1>   0.0800 
 38 H       -3.3270    -6.5480    -0.6470 H     1 <1>   0.0800 
 39 H       -5.6020    -3.0870     0.1870 H     1 <1>   0.0800 
 40 H       -6.2690    -4.1500    -1.0290 H     1 <1>   0.0800 
 41 H       -4.6830    -6.9190     1.3190 H     1 <1>   0.0800 
 42 H       -5.8190    -4.8350     1.8820 H     1 <1>   0.0800 
 43 H       -7.3380    -4.4530     1.1700 H     1 <1>   0.0800 
 44 H       -4.3750    -8.9310     0.5380 H     1 <1>   0.4500 
 45 H       -7.2050    -9.3090     0.0890 H     1 <1>   0.0800 
 46 H       -6.0670   -10.2730     0.9890 H     1 <1>   0.0800 
 47 H       -6.0300    -8.6010    -1.8880 H     1 <1>   0.0800 
 48 H       -5.1550   -10.0380    -1.4220 H     1 <1>   0.0800 
 49 H       -4.2760    -8.5890    -1.8330 H     1 <1>   0.0800 
 50 H       -7.2050    -6.5590     2.6720 H     1 <1>   0.0800 
 51 H       -8.3720    -7.1620     1.5610 H     1 <1>   0.0800 
 52 H       -7.9290    -7.5030    -0.7880 H     1 <1>   0.0800 
 53 H       -6.8160    -6.4400    -1.6020 H     1 <1>   0.0800 
 54 H       -7.5720    -9.1150     2.5100 H     1 <1>   0.0800 
 55 H       -5.9650    -8.5150     2.7220 H     1 <1>   0.0800 
 56 H       -9.2070    -5.7850    -0.3210 H     1 <1>   0.4000 
@<TRIPOS>BOND
  1   1   2  1   
  2   1   3  1   
  3   2   4  ar  
  4   2   5  ar  
  5   3  25  1   
  6   3  26  1   
  7   3  27  1   
  8   4   6  ar  
  9   4  28  1   
 10   5   7  ar  
 11   5  29  1   
 12   6   8  1   
 13   6   9  ar  
 14   7   9  ar  
 15   7  10  1   
 16   8  11  1   
 17   9  30  1   
 18  10  12  1   
 19  10  31  1   
 20  10  32  1   
 21  11  33  1   
 22  11  34  1   
 23  11  35  1   
 24  12  13  1   
 25  12  14  1   
 26  12  36  1   
 27  13  15  1   
 28  13  37  1   
 29  13  38  1   
 30  14  16  1   
 31  14  39  1   
 32  14  40  1   
 33  15  17  1   
 34  15  18  1   
 35  15  41  1   
 36  16  18  1   
 37  16  42  1   
 38  16  43  1   
 39  17  19  1   
 40  17  20  1   
 41  17  44  1   
 42  18  21  1   
 43  18  22  1   
 44  19  23  1   
 45  19  45  1   
 46  19  46  1   
 47  20  47  1   
 48  20  48  1   
 49  20  49  1   
 50  21  23  1   
 51  21  50  1   
 52  21  51  1   
 53  22  24  1   
 54  22  52  1   
 55  22  53  1   
 56  23  54  1   
 57  23  55  1   
 58  24  56  1   
@<TRIPOS>SUBSTRUCTURE
  1 ****  12 GROUP 4 **** **** 0

# MOE 2024.06 (io_trps.svl 2023.06)
