@<TRIPOS>MOLECULE
NONAME
44 46 1 0 0 
SMALL
USER_CHARGES


@<TRIPOS>ATOM
  1 S        0.3220     0.8470    -1.2000 S.3   1 <1>  -0.0800 
  2 C       -1.0240     1.3440    -0.1450 C.2   1 <1>  -0.0450 
  3 C       -0.2670    -0.8060    -1.3130 C.2   1 <1>  -0.1100 
  4 C       -1.8210     0.2640     0.0610 C.2   1 <1>   0.0620 
  5 C       -1.0780     2.6910     0.3450 C.2   1 <1>   0.7150 
  6 C       -1.3970    -0.9370    -0.5980 C.2   1 <1>   0.0620 
  7 O       -2.9430     0.2700     0.8110 O.3   1 <1>  -0.3420 
  8 O       -1.1970     2.8890     1.5430 O.2   1 <1>  -0.5700 
  9 N       -0.9860     3.7870    -0.5000 N.am  1 <1>  -0.6600 
 10 O       -2.1070    -2.0920    -0.4820 O.3   1 <1>  -0.3420 
 11 C       -3.4720    -0.9840     1.1950 C.3   1 <1>   0.1200 
 12 C       -0.7770     5.1600     0.0330 C.3   1 <1>   0.1400 
 13 C       -1.1500     3.6950    -1.9780 C.3   1 <1>   0.0600 
 14 C       -3.4280    -1.9640     0.0120 C.3   1 <1>   0.1200 
 15 C        0.7060     5.5220    -0.0600 C.3   1 <1>  -0.1600 
 16 C        0.9850     6.8890     0.5700 C.3   1 <1>   0.0210 
 17 C        2.4630     7.2210     0.4670 C.2   1 <1>  -0.1810 
 18 C        3.0910     7.9460    -0.5440 C.2   1 <1>   0.1080 
 19 C        3.4590     6.8830     1.3160 C.2   1 <1>  -0.3320 
 20 N        4.3660     8.0610    -0.3480 N.2   1 <1>  -0.7070 
 21 C        2.4130     8.5540    -1.7510 C.3   1 <1>  -0.0590 
 22 N        4.5930     7.4030     0.8020 N.pl3 1 <1>   0.3000 
 23 C        3.4210     6.0790     2.6050 C.3   1 <1>  -0.0600 
 24 H        0.2920    -1.5090    -1.9030 H     1 <1>   0.1500 
 25 H       -4.4820    -0.8280     1.5270 H     1 <1>   0.0800 
 26 H       -2.8840    -1.3580     2.0150 H     1 <1>   0.0800 
 27 H       -1.0970     5.2120     1.0600 H     1 <1>   0.0800 
 28 H       -1.3690     5.8620    -0.5280 H     1 <1>   0.0800 
 29 H       -1.6360     2.7750    -2.2520 H     1 <1>   0.0800 
 30 H       -0.1850     3.7370    -2.4530 H     1 <1>   0.0800 
 31 H       -1.7540     4.5110    -2.3340 H     1 <1>   0.0800 
 32 H       -3.7630    -2.9400     0.3140 H     1 <1>   0.0800 
 33 H       -4.0520    -1.6100    -0.7890 H     1 <1>   0.0800 
 34 H        1.0150     5.5360    -1.0890 H     1 <1>   0.0800 
 35 H        1.2840     4.7770     0.4590 H     1 <1>   0.0800 
 36 H        0.6980     6.8770     1.6070 H     1 <1>   0.0800 
 37 H        0.4090     7.6520     0.0790 H     1 <1>   0.0800 
 38 H        1.7500     7.8390    -2.2000 H     1 <1>   0.0800 
 39 H        3.1530     8.8440    -2.4750 H     1 <1>   0.0800 
 40 H        1.8580     9.4230    -1.4530 H     1 <1>   0.0800 
 41 H        5.5320     7.3240     1.2070 H     1 <1>   0.2700 
 42 H        2.4250     5.7280     2.8060 H     1 <1>   0.0800 
 43 H        3.7410     6.6890     3.4310 H     1 <1>   0.0800 
 44 H        4.0700     5.2250     2.5270 H     1 <1>   0.0800 
@<TRIPOS>BOND
  1   1   2  1   
  2   1   3  1   
  3   2   4  2   
  4   2   5  1   
  5   3   6  2   
  6   3  24  1   
  7   4   6  1   
  8   4   7  1   
  9   5   8  2   
 10   5   9  am  
 11   6  10  1   
 12   7  11  1   
 13   9  12  1   
 14   9  13  1   
 15  10  14  1   
 16  11  14  1   
 17  11  25  1   
 18  11  26  1   
 19  12  15  1   
 20  12  27  1   
 21  12  28  1   
 22  13  29  1   
 23  13  30  1   
 24  13  31  1   
 25  14  32  1   
 26  14  33  1   
 27  15  16  1   
 28  15  34  1   
 29  15  35  1   
 30  16  17  1   
 31  16  36  1   
 32  16  37  1   
 33  17  18  1   
 34  17  19  2   
 35  18  20  2   
 36  18  21  1   
 37  19  22  1   
 38  19  23  1   
 39  20  22  1   
 40  21  38  1   
 41  21  39  1   
 42  21  40  1   
 43  22  41  1   
 44  23  42  1   
 45  23  43  1   
 46  23  44  1   
@<TRIPOS>SUBSTRUCTURE
  1 ****   9 GROUP 4 **** **** 0

# MOE 2024.06 (io_trps.svl 2023.06)
