@<TRIPOS>MOLECULE
NONAME
44 47 1 0 0 
SMALL
USER_CHARGES


@<TRIPOS>ATOM
  1 N       -0.8380    -2.7680    -2.3790 N.2   1 <1>  -0.7070 
  2 N       -1.3060    -3.7620    -1.6160 N.pl3 1 <1>   0.3140 
  3 C       -0.6270    -1.7770    -1.5710 C.2   1 <1>   0.1390 
  4 C       -1.4160    -3.3680    -0.3250 C.2   1 <1>  -0.3320 
  5 C       -1.5860    -5.0770    -2.2180 C.3   1 <1>   0.0160 
  6 C       -0.9670    -2.0940    -0.2640 C.2   1 <1>  -0.1500 
  7 C       -1.9310    -4.2440     0.7850 C.3   1 <1>   0.5230 
  8 N       -3.3980    -4.0500     0.8510 N.4   1 <1>  -0.8520 
  9 C       -3.7700    -2.9060     1.6980 C.3   1 <1>   0.2960 
 10 C       -4.1270    -5.2800     1.2510 C.3   1 <1>   0.4860 
 11 C       -5.1370    -2.3310     1.5300 C.3   1 <1>  -0.2000 
 12 C       -3.9370    -1.5710     1.0550 C.3   1 <1>  -0.2000 
 13 C       -4.0290    -6.2780     0.1150 C.ar  1 <1>  -0.1440 
 14 C       -3.0730    -7.3270     0.1440 C.ar  1 <1>   0.0000 
 15 C       -4.8770    -6.1290    -0.9520 C.ar  1 <1>  -0.1500 
 16 C       -2.9730    -8.1680    -0.9890 C.ar  1 <1>   0.0000 
 17 C       -2.2040    -7.5890     1.2320 C.ar  1 <1>  -0.1500 
 18 C       -4.7950    -6.9890    -2.0500 C.ar  1 <1>  -0.1500 
 19 C       -3.8580    -7.9800    -2.0670 C.ar  1 <1>  -0.1500 
 20 C       -1.9910    -9.1780    -1.0160 C.ar  1 <1>  -0.1500 
 21 C       -1.2650    -8.5810     1.1800 C.ar  1 <1>  -0.1500 
 22 C       -1.1510    -9.3810     0.0410 C.ar  1 <1>  -0.1500 
 23 H       -0.2340    -0.8260    -1.8930 H     1 <1>   0.1500 
 24 H       -1.0610    -5.1510    -3.1530 H     1 <1>   0.0800 
 25 H       -2.6390    -5.1690    -2.4010 H     1 <1>   0.0800 
 26 H       -1.2490    -5.8610    -1.5660 H     1 <1>   0.0800 
 27 H       -0.8730    -1.4280     0.5760 H     1 <1>   0.1500 
 28 H       -1.4730    -3.9690     1.7220 H     1 <1>   0.0800 
 29 H       -1.6820    -5.2680     0.5670 H     1 <1>   0.0800 
 30 H       -3.6800    -3.8220    -0.1080 H     1 <1>   0.4500 
 31 H       -3.3600    -2.9480     2.6970 H     1 <1>   0.1000 
 32 H       -5.1670    -5.0460     1.4140 H     1 <1>   0.0800 
 33 H       -3.7310    -5.6830     2.1670 H     1 <1>   0.0800 
 34 H       -5.6570    -1.9460     2.3900 H     1 <1>   0.1000 
 35 H       -5.8110    -2.7140     0.7830 H     1 <1>   0.1000 
 36 H       -3.7880    -1.4600    -0.0060 H     1 <1>   0.1000 
 37 H       -3.6550    -0.6870     1.6010 H     1 <1>   0.1000 
 38 H       -5.6260    -5.3550    -0.9840 H     1 <1>   0.1500 
 39 H       -2.2710    -7.0150     2.1360 H     1 <1>   0.1500 
 40 H       -5.4760    -6.8600    -2.8770 H     1 <1>   0.1500 
 41 H       -3.7860    -8.6430    -2.9120 H     1 <1>   0.1500 
 42 H       -1.9160    -9.8000    -1.8910 H     1 <1>   0.1500 
 43 H       -0.6050    -8.7720     2.0110 H     1 <1>   0.1500 
 44 H       -0.4040   -10.1570     0.0150 H     1 <1>   0.1500 
@<TRIPOS>BOND
  1   1   2  1   
  2   1   3  2   
  3   2   4  1   
  4   2   5  1   
  5   3   6  1   
  6   3  23  1   
  7   4   6  2   
  8   4   7  1   
  9   5  24  1   
 10   5  25  1   
 11   5  26  1   
 12   6  27  1   
 13   7   8  1   
 14   7  28  1   
 15   7  29  1   
 16   8   9  1   
 17   8  10  1   
 18   8  30  1   
 19   9  11  1   
 20   9  12  1   
 21   9  31  1   
 22  10  13  1   
 23  10  32  1   
 24  10  33  1   
 25  11  12  1   
 26  11  34  1   
 27  11  35  1   
 28  12  36  1   
 29  12  37  1   
 30  13  14  ar  
 31  13  15  ar  
 32  14  16  ar  
 33  14  17  ar  
 34  15  18  ar  
 35  15  38  1   
 36  16  19  ar  
 37  16  20  ar  
 38  17  21  ar  
 39  17  39  1   
 40  18  19  ar  
 41  18  40  1   
 42  19  41  1   
 43  20  22  ar  
 44  20  42  1   
 45  21  22  ar  
 46  21  43  1   
 47  22  44  1   
@<TRIPOS>SUBSTRUCTURE
  1 ****   7 GROUP 4 **** **** 0

# MOE 2024.06 (io_trps.svl 2023.06)
