@<TRIPOS>MOLECULE
NONAME
47 48 1 0 0 
SMALL
USER_CHARGES


@<TRIPOS>ATOM
  1 S        0.3060     0.1580     0.4880 S.o2  1 <1>   1.3330 
  2 O        1.5580     0.2150     1.2100 O.2   1 <1>  -0.6500 
  3 O       -0.9320     0.0470     1.2250 O.2   1 <1>  -0.6500 
  4 N        0.3960    -1.1370    -0.6060 N.am  1 <1>  -0.8490 
  5 C        0.1730     1.5850    -0.5880 C.3   1 <1>  -0.0550 
  6 C        1.7480    -1.3710    -1.1240 C.3   1 <1>   0.1160 
  7 C       -0.1450    -2.3780    -0.0440 C.3   1 <1>   0.1160 
  8 C       -0.0330     2.9010     0.1790 C.3   1 <1>  -0.0800 
  9 C       -0.3000     4.0710    -0.7610 C.3   1 <1>   0.2000 
 10 C        1.1840     3.3420     1.0080 C.3   1 <1>   0.1100 
 11 O       -1.6610     4.2250    -0.9700 O.3   1 <1>  -0.6800 
 12 C        0.3060     5.2670    -0.0440 C.3   1 <1>   0.1100 
 13 N        1.5030     4.7170     0.6030 N.3   1 <1>  -0.8100 
 14 C        1.9920     5.5430     1.7230 C.3   1 <1>   0.2900 
 15 C        2.5560     6.8680     1.2420 C.2   1 <1>  -0.0400 
 16 O        2.7280     7.8370     2.1010 O.3   1 <1>  -0.0190 
 17 C        2.9560     7.3100     0.0400 C.2   1 <1>  -0.1500 
 18 N        3.2150     8.9050     1.5380 N.2   1 <1>  -0.4100 
 19 C        3.3650     8.6180     0.2910 C.2   1 <1>   0.1080 
 20 C        3.9100     9.5670    -0.7710 C.3   1 <1>   0.1010 
 21 C        5.3200    10.0480    -0.4050 C.3   1 <1>  -0.2400 
 22 C        2.9700    10.7630    -0.9620 C.3   1 <1>  -0.2400 
 23 H        1.0520     1.6630    -1.1970 H     1 <1>   0.0800 
 24 H       -0.6670     1.4400    -1.2400 H     1 <1>   0.0800 
 25 H        1.7270    -2.1400    -1.8770 H     1 <1>   0.0800 
 26 H        2.4090    -1.6760    -0.3290 H     1 <1>   0.0800 
 27 H        2.1360    -0.4710    -1.5700 H     1 <1>   0.0800 
 28 H       -0.0880    -3.1730    -0.7680 H     1 <1>   0.0800 
 29 H       -1.1790    -2.2420     0.2240 H     1 <1>   0.0800 
 30 H        0.4060    -2.6610     0.8380 H     1 <1>   0.0800 
 31 H       -0.8620     2.7870     0.8570 H     1 <1>   0.0800 
 32 H        0.1820     3.9370    -1.7140 H     1 <1>   0.0800 
 33 H        2.0430     2.7170     0.8260 H     1 <1>   0.0800 
 34 H        0.9410     3.2940     2.0570 H     1 <1>   0.0800 
 35 H       -2.1290     4.3260    -0.1190 H     1 <1>   0.4000 
 36 H       -0.3770     5.6400     0.7000 H     1 <1>   0.0800 
 37 H        0.5660     6.0470    -0.7370 H     1 <1>   0.0800 
 38 H        1.1900     5.7270     2.4170 H     1 <1>   0.0800 
 39 H        2.7730     5.0150     2.2440 H     1 <1>   0.0800 
 40 H        2.9670     6.7920    -0.9000 H     1 <1>   0.1500 
 41 H        3.9690     9.0320    -1.7030 H     1 <1>   0.0800 
 42 H        5.2970    10.6000     0.5190 H     1 <1>   0.0800 
 43 H        5.7160    10.6800    -1.1780 H     1 <1>   0.0800 
 44 H        5.9740     9.2030    -0.2790 H     1 <1>   0.0800 
 45 H        2.8930    11.3250    -0.0480 H     1 <1>   0.0800 
 46 H        1.9880    10.4180    -1.2330 H     1 <1>   0.0800 
 47 H        3.3350    11.4100    -1.7390 H     1 <1>   0.0800 
@<TRIPOS>BOND
  1   1   2  2   
  2   1   3  2   
  3   1   4  am  
  4   1   5  1   
  5   4   6  1   
  6   4   7  1   
  7   5   8  1   
  8   5  23  1   
  9   5  24  1   
 10   6  25  1   
 11   6  26  1   
 12   6  27  1   
 13   7  28  1   
 14   7  29  1   
 15   7  30  1   
 16   8   9  1   
 17   8  10  1   
 18   8  31  1   
 19   9  11  1   
 20   9  12  1   
 21   9  32  1   
 22  10  13  1   
 23  10  33  1   
 24  10  34  1   
 25  11  35  1   
 26  12  13  1   
 27  12  36  1   
 28  12  37  1   
 29  13  14  1   
 30  14  15  1   
 31  14  38  1   
 32  14  39  1   
 33  15  16  1   
 34  15  17  2   
 35  16  18  1   
 36  17  19  1   
 37  17  40  1   
 38  18  19  2   
 39  19  20  1   
 40  20  21  1   
 41  20  22  1   
 42  20  41  1   
 43  21  42  1   
 44  21  43  1   
 45  21  44  1   
 46  22  45  1   
 47  22  46  1   
 48  22  47  1   
@<TRIPOS>SUBSTRUCTURE
  1 ****  13 GROUP 4 **** **** 0

# MOE 2024.06 (io_trps.svl 2023.06)
