@<TRIPOS>MOLECULE
NONAME
42 44 1 0 0 
SMALL
USER_CHARGES


@<TRIPOS>ATOM
  1 S       -2.5980     0.3050     2.8390 S.3   1 <1>   0.1810 
  2 N       -0.9690     0.7750     2.9170 N.2   1 <1>  -0.2210 
  3 C       -2.6010     0.3090     1.1130 C.2   1 <1>  -0.1400 
  4 N       -0.4860     0.9130     1.7620 N.2   1 <1>  -0.2270 
  5 C       -1.3690     0.6570     0.7330 C.2   1 <1>   0.0460 
  6 C       -3.8750    -0.0500     0.3870 C.3   1 <1>   0.3200 
  7 C       -0.8490     0.7880    -0.6850 C.3   1 <1>  -0.0590 
  8 N       -3.9490    -1.5170     0.2620 N.am  1 <1>  -0.7300 
  9 C       -3.7890    -2.1880    -0.9030 C.2   1 <1>   0.5690 
 10 O       -3.6380    -1.6200    -1.9550 O.2   1 <1>  -0.5700 
 11 C       -3.8090    -3.6970    -0.8820 C.3   1 <1>  -0.0990 
 12 C       -5.1960    -4.2230    -1.2610 C.3   1 <1>   0.0200 
 13 C       -5.2230    -5.7350    -1.1720 C.2   1 <1>   0.0060 
 14 N       -5.4760    -6.3760    -0.0870 N.2   1 <1>  -0.5650 
 15 N       -4.9710    -6.5360    -2.2370 N.pl3 1 <1>   0.0330 
 16 C       -5.3920    -7.6960    -0.4370 C.ar  1 <1>   0.2270 
 17 C       -5.0740    -7.8070    -1.7780 C.ar  1 <1>  -0.1520 
 18 C       -5.5740    -8.8460     0.3430 C.ar  1 <1>  -0.1430 
 19 C       -4.9240    -9.0510    -2.3880 C.ar  1 <1>  -0.1500 
 20 C       -5.4160   -10.0870    -0.2540 C.ar  1 <1>  -0.1430 
 21 C       -5.9330    -8.6700     1.8150 C.3   1 <1>  -0.0970 
 22 C       -5.0960   -10.1770    -1.6180 C.ar  1 <1>  -0.1500 
 23 C       -5.5770   -11.3840     0.5270 C.3   1 <1>  -0.0970 
 24 H       -3.8750     0.4030    -0.5900 H     1 <1>   0.0800 
 25 H       -4.7320     0.3170     0.9250 H     1 <1>   0.0800 
 26 H       -1.6090     0.5230    -1.3980 H     1 <1>   0.0800 
 27 H       -0.0080     0.1330    -0.8220 H     1 <1>   0.0800 
 28 H       -0.5350     1.7990    -0.8660 H     1 <1>   0.0800 
 29 H       -4.0050    -2.0330     1.1410 H     1 <1>   0.3700 
 30 H       -3.5440    -4.0520     0.0970 H     1 <1>   0.0800 
 31 H       -3.0770    -4.0630    -1.5780 H     1 <1>   0.0800 
 32 H       -5.4570    -3.9030    -2.2550 H     1 <1>   0.0800 
 33 H       -5.9290    -3.8260    -0.5810 H     1 <1>   0.0800 
 34 H       -4.7490    -6.2510    -3.1930 H     1 <1>   0.2700 
 35 H       -4.6790    -9.1210    -3.4330 H     1 <1>   0.1500 
 36 H       -6.5140    -7.7750     1.9510 H     1 <1>   0.0800 
 37 H       -5.0340    -8.5830     2.3970 H     1 <1>   0.0800 
 38 H       -6.5150    -9.4940     2.1810 H     1 <1>   0.0800 
 39 H       -4.9830   -11.1460    -2.0700 H     1 <1>   0.1500 
 40 H       -5.0410   -11.3270     1.4570 H     1 <1>   0.0800 
 41 H       -5.1910   -12.2190    -0.0280 H     1 <1>   0.0800 
 42 H       -6.6180   -11.5590     0.7300 H     1 <1>   0.0800 
@<TRIPOS>BOND
  1   1   2  1   
  2   1   3  1   
  3   2   4  2   
  4   3   5  2   
  5   3   6  1   
  6   4   5  1   
  7   5   7  1   
  8   6   8  1   
  9   6  24  1   
 10   6  25  1   
 11   7  26  1   
 12   7  27  1   
 13   7  28  1   
 14   8   9  am  
 15   8  29  1   
 16   9  10  2   
 17   9  11  1   
 18  11  12  1   
 19  11  30  1   
 20  11  31  1   
 21  12  13  1   
 22  12  32  1   
 23  12  33  1   
 24  13  14  2   
 25  13  15  1   
 26  14  16  1   
 27  15  17  1   
 28  15  34  1   
 29  16  17  ar  
 30  16  18  ar  
 31  17  19  ar  
 32  18  20  ar  
 33  18  21  1   
 34  19  22  ar  
 35  19  35  1   
 36  20  22  ar  
 37  20  23  1   
 38  21  36  1   
 39  21  37  1   
 40  21  38  1   
 41  22  39  1   
 42  23  40  1   
 43  23  41  1   
 44  23  42  1   
@<TRIPOS>SUBSTRUCTURE
  1 ****  11 GROUP 4 **** **** 0

# MOE 2024.06 (io_trps.svl 2023.06)
