@<TRIPOS>MOLECULE
NONAME
56 59 1 0 0 
SMALL
USER_CHARGES


@<TRIPOS>ATOM
  1 O       -3.1260     2.3900    -1.9000 O.2   1 <1>  -0.5700 
  2 C       -2.8700     1.7220    -0.9200 C.2   1 <1>   0.5690 
  3 N       -3.6420     0.6070    -0.6750 N.am  1 <1>  -0.6600 
  4 C       -1.6660     2.1420    -0.0120 C.3   1 <1>   0.2040 
  5 C       -4.7410     0.2220    -1.6010 C.3   1 <1>   0.1400 
  6 C       -3.4190    -0.4810     0.3170 C.3   1 <1>   0.1400 
  7 C       -0.5370     1.0990    -0.1830 C.ar  1 <1>  -0.1440 
  8 C       -1.0510     3.5170    -0.4300 C.3   1 <1>  -0.1600 
  9 C       -2.1170     2.3210     1.4640 C.3   1 <1>  -0.1600 
 10 C       -5.4090    -0.9870    -0.9510 C.3   1 <1>   0.2000 
 11 C       -4.2870    -1.6540    -0.1550 C.3   1 <1>  -0.0800 
 12 C        0.1050     0.4720     0.8820 C.ar  1 <1>  -0.1500 
 13 C       -0.1190     0.7830    -1.4720 C.ar  1 <1>  -0.1500 
 14 C       -1.7160     4.7690     0.1880 C.3   1 <1>  -0.1600 
 15 C       -3.2640     3.3390     1.6190 C.3   1 <1>  -0.1600 
 16 O       -6.3620    -0.5280    -0.0550 O.3   1 <1>  -0.6800 
 17 C       -3.4810    -2.6290    -1.0320 C.3   1 <1>   0.0210 
 18 C        1.1280    -0.4350     0.6630 C.ar  1 <1>  -0.1500 
 19 C        0.9050    -0.1200    -1.6950 C.ar  1 <1>  -0.1500 
 20 C       -3.1610     4.5180     0.6350 C.3   1 <1>  -0.1600 
 21 C       -2.4300    -3.3560    -0.2160 C.2   1 <1>   0.1080 
 22 C        1.5330    -0.7290    -0.6250 C.ar  1 <1>  -0.1500 
 23 N       -2.7310    -4.2090     0.7140 N.2   1 <1>  -0.7070 
 24 C       -1.0570    -3.1980    -0.3600 C.2   1 <1>  -0.1500 
 25 N       -1.5430    -4.6260     1.1900 N.pl3 1 <1>   0.3000 
 26 C       -0.5130    -4.0270     0.5560 C.2   1 <1>  -0.3320 
 27 C        0.9480    -4.2870     0.8690 C.3   1 <1>  -0.0600 
 28 H       -5.4330     1.0340    -1.7500 H     1 <1>   0.0800 
 29 H       -4.3130    -0.0550    -2.5480 H     1 <1>   0.0800 
 30 H       -2.3790    -0.7480     0.3850 H     1 <1>   0.0800 
 31 H       -3.7710    -0.1590     1.2810 H     1 <1>   0.0800 
 32 H       -0.0160     3.5350    -0.1370 H     1 <1>   0.0800 
 33 H       -1.0530     3.6080    -1.5020 H     1 <1>   0.0800 
 34 H       -2.4070     1.3910     1.9070 H     1 <1>   0.0800 
 35 H       -1.2770     2.6840     2.0300 H     1 <1>   0.0800 
 36 H       -5.8940    -1.6400    -1.6560 H     1 <1>   0.0800 
 37 H       -4.6840    -2.2040     0.6810 H     1 <1>   0.0800 
 38 H       -0.1690     0.6730     1.9010 H     1 <1>   0.1500 
 39 H       -0.5900     1.2490    -2.3220 H     1 <1>   0.1500 
 40 H       -1.1460     5.0790     1.0470 H     1 <1>   0.0800 
 41 H       -1.6900     5.5770    -0.5230 H     1 <1>   0.0800 
 42 H       -4.2100     2.8470     1.4670 H     1 <1>   0.0800 
 43 H       -3.2550     3.7140     2.6280 H     1 <1>   0.0800 
 44 H       -5.9700     0.1920     0.4770 H     1 <1>   0.4000 
 45 H       -3.0040    -2.1050    -1.8410 H     1 <1>   0.0800 
 46 H       -4.1410    -3.3660    -1.4510 H     1 <1>   0.0800 
 47 H        1.6110    -0.9090     1.4980 H     1 <1>   0.1500 
 48 H        1.2140    -0.3440    -2.7010 H     1 <1>   0.1500 
 49 H       -3.7590     4.3110    -0.2360 H     1 <1>   0.0800 
 50 H       -3.5630     5.4060     1.0900 H     1 <1>   0.0800 
 51 H        2.3330    -1.4270    -0.7960 H     1 <1>   0.1500 
 52 H       -0.5670    -2.5450    -1.0600 H     1 <1>   0.1500 
 53 H       -1.4700    -5.3190     1.9440 H     1 <1>   0.2700 
 54 H        1.5740    -3.7130     0.2100 H     1 <1>   0.0800 
 55 H        1.1780    -5.3300     0.7350 H     1 <1>   0.0800 
 56 H        1.1680    -4.0050     1.8830 H     1 <1>   0.0800 
@<TRIPOS>BOND
  1   1   2  2   
  2   2   3  am  
  3   2   4  1   
  4   3   5  1   
  5   3   6  1   
  6   4   7  1   
  7   4   8  1   
  8   4   9  1   
  9   5  10  1   
 10   5  28  1   
 11   5  29  1   
 12   6  11  1   
 13   6  30  1   
 14   6  31  1   
 15   7  12  ar  
 16   7  13  ar  
 17   8  14  1   
 18   8  32  1   
 19   8  33  1   
 20   9  15  1   
 21   9  34  1   
 22   9  35  1   
 23  10  11  1   
 24  10  16  1   
 25  10  36  1   
 26  11  17  1   
 27  11  37  1   
 28  12  18  ar  
 29  12  38  1   
 30  13  19  ar  
 31  13  39  1   
 32  14  20  1   
 33  14  40  1   
 34  14  41  1   
 35  15  20  1   
 36  15  42  1   
 37  15  43  1   
 38  16  44  1   
 39  17  21  1   
 40  17  45  1   
 41  17  46  1   
 42  18  22  ar  
 43  18  47  1   
 44  19  22  ar  
 45  19  48  1   
 46  20  49  1   
 47  20  50  1   
 48  21  23  2   
 49  21  24  1   
 50  22  51  1   
 51  23  25  1   
 52  24  26  2   
 53  24  52  1   
 54  25  26  1   
 55  25  53  1   
 56  26  27  1   
 57  27  54  1   
 58  27  55  1   
 59  27  56  1   
@<TRIPOS>SUBSTRUCTURE
  1 ****   6 GROUP 4 **** **** 0

# MOE 2024.06 (io_trps.svl 2023.06)
