@<TRIPOS>MOLECULE
NONAME
53 55 1 0 0 
SMALL
USER_CHARGES


@<TRIPOS>ATOM
  1 O       -0.3690     0.2180     1.3170 O.2   1 <1>  -0.5700 
  2 C       -1.3650     0.8900     1.1300 C.2   1 <1>   0.5440 
  3 N       -2.5120     0.2600     0.7020 N.am  1 <1>  -0.6600 
  4 C       -1.3240     2.3240     1.3420 C.ar  1 <1>   0.0860 
  5 C       -3.6350     0.9380     0.0070 C.3   1 <1>   0.1400 
  6 C       -2.5600    -1.2030     0.4710 C.3   1 <1>   0.1400 
  7 C       -0.3280     3.1030     0.7600 C.ar  1 <1>  -0.1500 
  8 C       -2.2730     2.9740     2.1320 C.ar  1 <1>  -0.1500 
  9 C       -4.2710    -0.1490    -0.8600 C.3   1 <1>   0.2000 
 10 C       -3.9180    -1.4710    -0.1810 C.3   1 <1>  -0.0800 
 11 C       -0.2820     4.4750     0.9330 C.ar  1 <1>   0.0830 
 12 C       -2.2390     4.3450     2.3160 C.ar  1 <1>  -0.1500 
 13 O       -5.6470    -0.0020    -0.9340 O.3   1 <1>  -0.6800 
 14 C       -3.9110    -2.6590    -1.1540 C.3   1 <1>  -0.0170 
 15 O        0.7260     5.1340     0.3120 O.3   1 <1>  -0.3630 
 16 C       -1.2480     5.1000     1.7170 C.ar  1 <1>  -0.1500 
 17 C       -3.5640    -3.9530    -0.4340 C.ar  1 <1>  -0.1430 
 18 C        0.8910     6.5290     0.4600 C.3   1 <1>   0.1200 
 19 C       -2.2790    -4.4550    -0.4010 C.ar  1 <1>  -0.1500 
 20 C       -4.5240    -4.6920     0.2280 C.ar  1 <1>  -0.1500 
 21 C        2.1190     6.9570    -0.3350 C.3   1 <1>   0.1200 
 22 C       -2.0220    -5.6350     0.2770 C.ar  1 <1>   0.1600 
 23 C       -4.1620    -5.8620     0.8750 C.ar  1 <1>   0.1600 
 24 O        2.2690     8.3340    -0.1940 O.3   1 <1>  -0.5600 
 25 N       -2.9330    -6.3510     0.9170 N.ar  1 <1>  -0.6200 
 26 C        3.3600     8.8530    -0.8760 C.3   1 <1>   0.1200 
 27 C        3.3860    10.3550    -0.6230 C.3   1 <1>  -0.2400 
 28 H       -4.3340     1.3010     0.7390 H     1 <1>   0.0800 
 29 H       -3.2740     1.7500    -0.6010 H     1 <1>   0.0800 
 30 H       -1.7540    -1.4770    -0.1880 H     1 <1>   0.0800 
 31 H       -2.4540    -1.7390     1.4000 H     1 <1>   0.0800 
 32 H        0.4270     2.6260     0.1610 H     1 <1>   0.1500 
 33 H       -3.0410     2.3910     2.6090 H     1 <1>   0.1500 
 34 H       -3.8680    -0.0990    -1.8570 H     1 <1>   0.0800 
 35 H       -4.6180    -1.6630     0.6130 H     1 <1>   0.0800 
 36 H       -2.9830     4.8250     2.9290 H     1 <1>   0.1500 
 37 H       -6.0470    -0.0780    -0.0470 H     1 <1>   0.4000 
 38 H       -3.2020    -2.4830    -1.9450 H     1 <1>   0.0800 
 39 H       -4.8830    -2.7540    -1.6070 H     1 <1>   0.0800 
 40 H       -1.2420     6.1630     1.8730 H     1 <1>   0.1500 
 41 H        0.0130     7.0180     0.0790 H     1 <1>   0.0800 
 42 H        1.0310     6.7460     1.5040 H     1 <1>   0.0800 
 43 H       -1.4720    -3.9430    -0.8940 H     1 <1>   0.1500 
 44 H       -5.5490    -4.3700     0.2460 H     1 <1>   0.1500 
 45 H        1.9840     6.7290    -1.3780 H     1 <1>   0.0800 
 46 H        2.9990     6.4710     0.0500 H     1 <1>   0.0800 
 47 H       -1.0130    -6.0110     0.2940 H     1 <1>   0.1500 
 48 H       -4.9240    -6.4250     1.3860 H     1 <1>   0.1500 
 49 H        4.2580     8.3900    -0.5030 H     1 <1>   0.0800 
 50 H        3.2460     8.6470    -1.9270 H     1 <1>   0.0800 
 51 H        3.4860    10.5500     0.4290 H     1 <1>   0.0800 
 52 H        2.4800    10.8050    -0.9870 H     1 <1>   0.0800 
 53 H        4.2200    10.7980    -1.1360 H     1 <1>   0.0800 
@<TRIPOS>BOND
  1   1   2  2   
  2   2   3  am  
  3   2   4  1   
  4   3   5  1   
  5   3   6  1   
  6   4   7  ar  
  7   4   8  ar  
  8   5   9  1   
  9   5  28  1   
 10   5  29  1   
 11   6  10  1   
 12   6  30  1   
 13   6  31  1   
 14   7  11  ar  
 15   7  32  1   
 16   8  12  ar  
 17   8  33  1   
 18   9  10  1   
 19   9  13  1   
 20   9  34  1   
 21  10  14  1   
 22  10  35  1   
 23  11  15  1   
 24  11  16  ar  
 25  12  16  ar  
 26  12  36  1   
 27  13  37  1   
 28  14  17  1   
 29  14  38  1   
 30  14  39  1   
 31  15  18  1   
 32  16  40  1   
 33  17  19  ar  
 34  17  20  ar  
 35  18  21  1   
 36  18  41  1   
 37  18  42  1   
 38  19  22  ar  
 39  19  43  1   
 40  20  23  ar  
 41  20  44  1   
 42  21  24  1   
 43  21  45  1   
 44  21  46  1   
 45  22  25  ar  
 46  22  47  1   
 47  23  25  ar  
 48  23  48  1   
 49  24  26  1   
 50  26  27  1   
 51  26  49  1   
 52  26  50  1   
 53  27  51  1   
 54  27  52  1   
 55  27  53  1   
@<TRIPOS>SUBSTRUCTURE
  1 ****   2 GROUP 4 **** **** 0

# MOE 2024.06 (io_trps.svl 2023.06)
