@<TRIPOS>MOLECULE
NONAME
58 61 1 0 0 
SMALL
USER_CHARGES


@<TRIPOS>ATOM
  1 O        0.8740    -1.6970    -1.9200 O.3   1 <1>  -0.6800 
  2 C        0.3960    -1.8820    -0.6300 C.3   1 <1>   0.1200 
  3 C        1.4910    -1.5930     0.4380 C.3   1 <1>   0.0000 
  4 C        2.8510    -2.2930     0.1490 C.3   1 <1>   0.4230 
  5 C        1.7240    -0.0600     0.5310 C.3   1 <1>  -0.1600 
  6 C        0.9670    -2.0870     1.8160 C.3   1 <1>  -0.1600 
  7 N        2.7440    -3.8170     0.0760 N.4   1 <1>  -0.9590 
  8 C        3.6350    -1.6140    -1.0230 C.3   1 <1>   0.3430 
  9 C        2.4210     0.5430    -0.6930 C.3   1 <1>   0.3430 
 10 C        1.4740    -3.4900     2.2090 C.3   1 <1>  -0.1600 
 11 C        1.7090    -4.3980     1.0010 C.3   1 <1>   0.3430 
 12 C        2.5240    -4.3780    -1.3020 C.3   1 <1>   0.2630 
 13 N        3.7510    -0.1130    -0.8960 N.4   1 <1>  -0.9590 
 14 C        4.4370     0.4820    -2.0790 C.3   1 <1>   0.5240 
 15 C        4.7460     1.9240    -1.7500 C.2   1 <1>  -0.1810 
 16 C        4.1680     3.0310    -2.3590 C.2   1 <1>   0.1390 
 17 C        5.5900     2.4450    -0.8320 C.2   1 <1>  -0.3020 
 18 N        4.5960     4.1390    -1.8520 N.2   1 <1>  -0.7070 
 19 N        5.5050     3.8010    -0.9010 N.pl3 1 <1>   0.5930 
 20 C        6.1940     4.7430    -0.0850 C.ar  1 <1>  -0.0230 
 21 C        7.4980     4.5050     0.3450 C.ar  1 <1>  -0.1500 
 22 C        5.5710     5.9240     0.3080 C.ar  1 <1>  -0.1500 
 23 C        8.1590     5.4120     1.1570 C.ar  1 <1>  -0.1440 
 24 C        6.2260     6.8320     1.1190 C.ar  1 <1>  -0.1500 
 25 C        7.5170     6.5750     1.5450 C.ar  1 <1>  -0.1500 
 26 C        9.5790     5.1380     1.6200 C.3   1 <1>  -0.0960 
 27 H        0.1270    -1.7290    -2.5640 H     1 <1>   0.4000 
 28 H       -0.4470    -1.2240    -0.4900 H     1 <1>   0.0800 
 29 H        0.0350    -2.8930    -0.5610 H     1 <1>   0.0800 
 30 H        3.4470    -2.0910     1.0230 H     1 <1>   0.0800 
 31 H        2.3170     0.1810     1.3970 H     1 <1>   0.0800 
 32 H        0.7790     0.4400     0.6600 H     1 <1>   0.0800 
 33 H        1.2600    -1.4140     2.6060 H     1 <1>   0.0800 
 34 H       -0.1110    -2.0870     1.8180 H     1 <1>   0.0800 
 35 H        3.6430    -4.1980     0.4120 H     1 <1>   0.4500 
 36 H        3.1330    -1.8410    -1.9470 H     1 <1>   0.0800 
 37 H        4.6240    -2.0400    -1.0670 H     1 <1>   0.0800 
 38 H        2.5510     1.6040    -0.5400 H     1 <1>   0.0800 
 39 H        1.8030     0.4090    -1.5670 H     1 <1>   0.0800 
 40 H        0.7510    -3.9540     2.8610 H     1 <1>   0.0800 
 41 H        2.3890    -3.4120     2.7710 H     1 <1>   0.0800 
 42 H        0.7750    -4.5160     0.4770 H     1 <1>   0.0800 
 43 H        2.0220    -5.3760     1.3350 H     1 <1>   0.0800 
 44 H        1.5960    -4.0150    -1.7150 H     1 <1>   0.0800 
 45 H        2.4790    -5.4550    -1.2640 H     1 <1>   0.0800 
 46 H        3.3270    -4.1000    -1.9640 H     1 <1>   0.0800 
 47 H        4.3400     0.1480    -0.0930 H     1 <1>   0.4500 
 48 H        5.3600    -0.0380    -2.2810 H     1 <1>   0.0800 
 49 H        3.8080     0.4240    -2.9540 H     1 <1>   0.0800 
 50 H        3.4430     3.0030    -3.1580 H     1 <1>   0.1500 
 51 H        6.2490     1.9680    -0.1300 H     1 <1>   0.1500 
 52 H        8.0070     3.6090     0.0410 H     1 <1>   0.1500 
 53 H        4.5690     6.1370    -0.0250 H     1 <1>   0.1500 
 54 H        5.7330     7.7410     1.4170 H     1 <1>   0.1500 
 55 H        8.0180     7.2870     2.1770 H     1 <1>   0.1500 
 56 H       10.1240     6.0600     1.7230 H     1 <1>   0.0800 
 57 H       10.0980     4.5180     0.9110 H     1 <1>   0.0800 
 58 H        9.5620     4.6380     2.5720 H     1 <1>   0.0800 
@<TRIPOS>BOND
  1   1   2  1   
  2   1  27  1   
  3   2   3  1   
  4   2  28  1   
  5   2  29  1   
  6   3   4  1   
  7   3   5  1   
  8   3   6  1   
  9   4   7  1   
 10   4   8  1   
 11   4  30  1   
 12   5   9  1   
 13   5  31  1   
 14   5  32  1   
 15   6  10  1   
 16   6  33  1   
 17   6  34  1   
 18   7  11  1   
 19   7  12  1   
 20   7  35  1   
 21   8  13  1   
 22   8  36  1   
 23   8  37  1   
 24   9  13  1   
 25   9  38  1   
 26   9  39  1   
 27  10  11  1   
 28  10  40  1   
 29  10  41  1   
 30  11  42  1   
 31  11  43  1   
 32  12  44  1   
 33  12  45  1   
 34  12  46  1   
 35  13  14  1   
 36  13  47  1   
 37  14  15  1   
 38  14  48  1   
 39  14  49  1   
 40  15  16  1   
 41  15  17  2   
 42  16  18  2   
 43  16  50  1   
 44  17  19  1   
 45  17  51  1   
 46  18  19  1   
 47  19  20  1   
 48  20  21  ar  
 49  20  22  ar  
 50  21  23  ar  
 51  21  52  1   
 52  22  24  ar  
 53  22  53  1   
 54  23  25  ar  
 55  23  26  1   
 56  24  25  ar  
 57  24  54  1   
 58  25  55  1   
 59  26  56  1   
 60  26  57  1   
 61  26  58  1   
@<TRIPOS>SUBSTRUCTURE
  1 ****  13 GROUP 4 **** **** 0

# MOE 2024.06 (io_trps.svl 2023.06)
