@<TRIPOS>MOLECULE
NONAME
44 46 1 0 0 
SMALL
USER_CHARGES


@<TRIPOS>ATOM
  1 F        0.9220     0.8050    -0.7980 F     1 <1>  -0.1900 
  2 C        1.2520     2.0310    -0.4880 C.ar  1 <1>   0.1900 
  3 C        0.6560     3.0720    -1.1620 C.ar  1 <1>  -0.1500 
  4 C        2.2010     2.2220     0.5210 C.ar  1 <1>  -0.1500 
  5 C        1.0390     4.3660    -0.7970 C.ar  1 <1>  -0.1520 
  6 C        2.5650     3.5060     0.8660 C.ar  1 <1>  -0.1500 
  7 N        0.6750     5.5990    -1.2290 N.pl3 1 <1>   0.0330 
  8 C        1.9770     4.5830     0.1980 C.ar  1 <1>   0.2270 
  9 C        1.3990     6.4800    -0.4860 C.2   1 <1>   0.0060 
 10 N        2.1810     5.9200     0.3690 N.2   1 <1>  -0.5650 
 11 C        1.2950     7.9830    -0.6510 C.3   1 <1>   0.0200 
 12 C        2.2550     8.6560     0.3400 C.3   1 <1>   0.3430 
 13 N        2.3120    10.1460     0.1950 N.4   1 <1>  -0.9590 
 14 C        3.4870    10.6760     0.9560 C.3   1 <1>   0.4810 
 15 C        1.0370    10.8160     0.6090 C.3   1 <1>   0.2630 
 16 C        3.7010    12.1450     0.6020 C.2   1 <1>  -0.0380 
 17 N        3.1440    13.1230     1.3990 N.pl3 1 <1>  -0.6000 
 18 C        4.4220    12.5090    -0.4940 C.2   1 <1>  -0.1360 
 19 C        3.3000    14.4600     1.0810 C.2   1 <1>  -0.0500 
 20 C        4.6070    13.8670    -0.8650 C.2   1 <1>   0.5410 
 21 C        4.0060    14.8580    -0.0130 C.2   1 <1>   0.0910 
 22 O        5.2440    14.1050    -1.8890 O.2   1 <1>  -0.5700 
 23 O        4.0840    16.2100    -0.2370 O.3   1 <1>  -0.3570 
 24 C        5.2490    16.7580    -0.8210 C.3   1 <1>   0.0400 
 25 H       -0.0710     2.8910    -1.9330 H     1 <1>   0.1500 
 26 H        2.6290     1.3660     1.0100 H     1 <1>   0.1500 
 27 H        3.2890     3.7030     1.6340 H     1 <1>   0.1500 
 28 H       -0.0070     5.7960    -1.9670 H     1 <1>   0.2700 
 29 H        0.2820     8.2830    -0.4560 H     1 <1>   0.0800 
 30 H        1.5650     8.2420    -1.6580 H     1 <1>   0.0800 
 31 H        3.2370     8.2410     0.1750 H     1 <1>   0.0800 
 32 H        1.9610     8.3920     1.3440 H     1 <1>   0.0800 
 33 H        2.4900    10.3780    -0.7920 H     1 <1>   0.4500 
 34 H        4.3710    10.1220     0.6850 H     1 <1>   0.0800 
 35 H        3.3350    10.5680     2.0170 H     1 <1>   0.0800 
 36 H        0.8260    10.6180     1.6470 H     1 <1>   0.0800 
 37 H        0.2120    10.4570     0.0160 H     1 <1>   0.0800 
 38 H        1.1120    11.8830     0.4690 H     1 <1>   0.0800 
 39 H        2.6590    12.9060     2.2820 H     1 <1>   0.4000 
 40 H        4.8890    11.7930    -1.1450 H     1 <1>   0.1500 
 41 H        2.8460    15.1910     1.7320 H     1 <1>   0.1500 
 42 H        5.2480    17.8180    -0.6410 H     1 <1>   0.0800 
 43 H        5.2290    16.5740    -1.8810 H     1 <1>   0.0800 
 44 H        6.1180    16.3090    -0.3730 H     1 <1>   0.0800 
@<TRIPOS>BOND
  1   1   2  1   
  2   2   3  ar  
  3   2   4  ar  
  4   3   5  ar  
  5   3  25  1   
  6   4   6  ar  
  7   4  26  1   
  8   5   7  1   
  9   5   8  ar  
 10   6   8  ar  
 11   6  27  1   
 12   7   9  1   
 13   7  28  1   
 14   8  10  1   
 15   9  10  2   
 16   9  11  1   
 17  11  12  1   
 18  11  29  1   
 19  11  30  1   
 20  12  13  1   
 21  12  31  1   
 22  12  32  1   
 23  13  14  1   
 24  13  15  1   
 25  13  33  1   
 26  14  16  1   
 27  14  34  1   
 28  14  35  1   
 29  15  36  1   
 30  15  37  1   
 31  15  38  1   
 32  16  17  1   
 33  16  18  2   
 34  17  19  1   
 35  17  39  1   
 36  18  20  1   
 37  18  40  1   
 38  19  21  2   
 39  19  41  1   
 40  20  21  1   
 41  20  22  2   
 42  21  23  1   
 43  23  24  1   
 44  24  42  1   
 45  24  43  1   
 46  24  44  1   
@<TRIPOS>SUBSTRUCTURE
  1 ****  12 GROUP 4 **** **** 0

# MOE 2024.06 (io_trps.svl 2023.06)
