@<TRIPOS>MOLECULE
NONAME
37 39 1 0 0 
SMALL
USER_CHARGES


@<TRIPOS>ATOM
  1 O       -0.0510     2.1120    -1.2380 O.2   1 <1>  -0.5700 
  2 C       -1.1210     2.1980    -0.6820 C.2   1 <1>   0.5690 
  3 N       -1.2130     2.7050     0.5860 N.am  1 <1>  -0.6600 
  4 C       -2.3620     1.7760    -1.4490 C.3   1 <1>  -0.0990 
  5 C       -2.4970     2.9210     1.3090 C.3   1 <1>   0.1400 
  6 C        0.0260     3.0880     1.3430 C.3   1 <1>   0.2010 
  7 C       -3.6150     1.6550    -0.5710 C.3   1 <1>  -0.1600 
  8 C       -3.7020     2.8640     0.3640 C.3   1 <1>  -0.1600 
  9 C        0.5690     4.4580     0.9380 C.2   1 <1>   0.5690 
 10 O        0.6690     5.3180     1.7820 O.2   1 <1>  -0.5700 
 11 N        0.9090     4.6580    -0.3660 N.am  1 <1>  -0.4940 
 12 C        1.2710     5.8300    -1.0390 C.2   1 <1>   0.2500 
 13 N        0.9140     6.0290    -2.2700 N.2   1 <1>  -0.3380 
 14 N        2.0040     6.8580    -0.5590 N.pl3 1 <1>   0.3340 
 15 N        1.3860     7.2190    -2.6390 N.2   1 <1>  -0.3380 
 16 C        2.0340     7.7100    -1.6240 C.2   1 <1>   0.3120 
 17 C        2.7300     7.1760     0.5840 C.2   1 <1>  -0.1810 
 18 N        2.6910     8.9220    -1.5980 N.2   1 <1>  -0.5760 
 19 C        3.3900     8.3600     0.6100 C.2   1 <1>  -0.1360 
 20 C        3.3320     9.2220    -0.5220 C.2   1 <1>   0.3750 
 21 C        4.0640    10.5440    -0.4520 C.3   1 <1>  -0.1790 
 22 H       -2.1680     0.8370    -1.9360 H     1 <1>   0.0800 
 23 H       -2.5330     2.5120    -2.2130 H     1 <1>   0.0800 
 24 H       -2.4780     3.8790     1.8010 H     1 <1>   0.0800 
 25 H       -2.5980     2.1570     2.0620 H     1 <1>   0.0800 
 26 H        0.7910     2.3540     1.1640 H     1 <1>   0.0800 
 27 H       -0.1800     3.0920     2.3980 H     1 <1>   0.0800 
 28 H       -3.5590     0.7520     0.0140 H     1 <1>   0.0800 
 29 H       -4.4920     1.5990    -1.1930 H     1 <1>   0.0800 
 30 H       -3.7420     3.7720    -0.2130 H     1 <1>   0.0800 
 31 H       -4.6050     2.8100     0.9470 H     1 <1>   0.0800 
 32 H        0.6540     3.8790    -0.9920 H     1 <1>   0.3700 
 33 H        2.7320     6.4660     1.3900 H     1 <1>   0.1500 
 34 H        3.9640     8.6750     1.4620 H     1 <1>   0.1500 
 35 H        3.6790    11.1330     0.3590 H     1 <1>   0.0800 
 36 H        3.9310    11.0910    -1.3690 H     1 <1>   0.0800 
 37 H        5.1140    10.3730    -0.3030 H     1 <1>   0.0800 
@<TRIPOS>BOND
  1   1   2  2   
  2   2   3  am  
  3   2   4  1   
  4   3   5  1   
  5   3   6  1   
  6   4   7  1   
  7   4  22  1   
  8   4  23  1   
  9   5   8  1   
 10   5  24  1   
 11   5  25  1   
 12   6   9  1   
 13   6  26  1   
 14   6  27  1   
 15   7   8  1   
 16   7  28  1   
 17   7  29  1   
 18   8  30  1   
 19   8  31  1   
 20   9  10  2   
 21   9  11  am  
 22  11  12  1   
 23  11  32  1   
 24  12  13  2   
 25  12  14  1   
 26  13  15  1   
 27  14  16  1   
 28  14  17  1   
 29  15  16  2   
 30  16  18  1   
 31  17  19  2   
 32  17  33  1   
 33  18  20  2   
 34  19  20  1   
 35  19  34  1   
 36  20  21  1   
 37  21  35  1   
 38  21  36  1   
 39  21  37  1   
@<TRIPOS>SUBSTRUCTURE
  1 ****  11 GROUP 4 **** **** 0

# MOE 2024.06 (io_trps.svl 2023.06)
