@<TRIPOS>MOLECULE
NONAME
46 48 1 0 0 
SMALL
USER_CHARGES


@<TRIPOS>ATOM
  1 CL      -1.0830     0.3240     0.3820 Cl    1 <1>  -0.1770 
  2 C       -0.7420    -1.3900     0.1950 C.ar  1 <1>   0.1770 
  3 C        0.5680    -1.8350     0.1650 C.ar  1 <1>   0.1770 
  4 C       -1.8080    -2.2800     0.0740 C.ar  1 <1>   0.1170 
  5 CL       1.8980    -0.7100     0.3210 Cl    1 <1>  -0.1770 
  6 C        0.8530    -3.1790     0.0080 C.ar  1 <1>  -0.1500 
  7 N       -3.1250    -1.7870     0.1080 N.am  1 <1>  -0.5470 
  8 C       -1.5050    -3.6310    -0.0920 C.ar  1 <1>  -0.1500 
  9 C       -0.1930    -4.0770    -0.1220 C.ar  1 <1>  -0.1500 
 10 C       -4.3270    -2.3850     0.3550 C.2   1 <1>   0.6900 
 11 O       -4.3900    -3.5530     0.6890 O.2   1 <1>  -0.5700 
 12 N       -5.4670    -1.6320     0.2470 N.am  1 <1>  -0.6600 
 13 C       -5.5260    -0.3420    -0.5040 C.3   1 <1>   0.1400 
 14 C       -6.7530    -2.1510     0.7990 C.3   1 <1>   0.1400 
 15 C       -6.9290    -0.1310    -1.0710 C.3   1 <1>  -0.1600 
 16 C       -7.6660    -0.9930     1.2100 C.3   1 <1>  -0.1600 
 17 C       -7.9750    -0.0060     0.0560 C.3   1 <1>   0.2800 
 18 O       -7.8500     1.2730     0.6300 O.3   1 <1>  -0.5600 
 19 C       -9.4110    -0.2110    -0.4940 C.3   1 <1>  -0.1600 
 20 C       -8.4810     2.3510    -0.0030 C.3   1 <1>   0.1200 
 21 C      -10.4370     0.7110     0.1710 C.3   1 <1>   0.2800 
 22 C      -10.0080     2.1700    -0.0080 C.3   1 <1>  -0.1600 
 23 O      -10.4300     0.4540     1.5170 O.3   1 <1>  -0.6800 
 24 C      -11.8600     0.4580    -0.3170 C.3   1 <1>  -0.2400 
 25 H        1.8760    -3.5130    -0.0130 H     1 <1>   0.1500 
 26 H       -3.1990    -0.7730     0.1040 H     1 <1>   0.3700 
 27 H       -2.2990    -4.3480    -0.2010 H     1 <1>   0.1500 
 28 H        0.0110    -5.1280    -0.2480 H     1 <1>   0.1500 
 29 H       -4.8160    -0.3580    -1.3130 H     1 <1>   0.0800 
 30 H       -5.2780     0.4680     0.1620 H     1 <1>   0.0800 
 31 H       -6.5540    -2.7720     1.6570 H     1 <1>   0.0800 
 32 H       -7.2360    -2.7590     0.0520 H     1 <1>   0.0800 
 33 H       -7.1640    -0.9730    -1.6970 H     1 <1>   0.0800 
 34 H       -6.9380     0.7380    -1.6990 H     1 <1>   0.0800 
 35 H       -7.1760    -0.4740     2.0150 H     1 <1>   0.0800 
 36 H       -8.5720    -1.4080     1.6100 H     1 <1>   0.0800 
 37 H       -9.7110    -1.2390    -0.3960 H     1 <1>   0.0800 
 38 H       -9.4170     0.0010    -1.5480 H     1 <1>   0.0800 
 39 H       -8.1050     2.4290    -1.0070 H     1 <1>   0.0800 
 40 H       -8.2140     3.2470     0.5300 H     1 <1>   0.0800 
 41 H      -10.3710     2.5370    -0.9500 H     1 <1>   0.0800 
 42 H      -10.4570     2.7820     0.7550 H     1 <1>   0.0800 
 43 H       -9.5370     0.6940     1.8430 H     1 <1>   0.4000 
 44 H      -11.9300     0.6360    -1.3740 H     1 <1>   0.0800 
 45 H      -12.5470     1.1150     0.1870 H     1 <1>   0.0800 
 46 H      -12.1440    -0.5610    -0.1230 H     1 <1>   0.0800 
@<TRIPOS>BOND
  1   1   2  1   
  2   2   3  ar  
  3   2   4  ar  
  4   3   5  1   
  5   3   6  ar  
  6   4   7  1   
  7   4   8  ar  
  8   6   9  ar  
  9   6  25  1   
 10   7  10  am  
 11   7  26  1   
 12   8   9  ar  
 13   8  27  1   
 14   9  28  1   
 15  10  11  2   
 16  10  12  am  
 17  12  13  1   
 18  12  14  1   
 19  13  15  1   
 20  13  29  1   
 21  13  30  1   
 22  14  16  1   
 23  14  31  1   
 24  14  32  1   
 25  15  17  1   
 26  15  33  1   
 27  15  34  1   
 28  16  17  1   
 29  16  35  1   
 30  16  36  1   
 31  17  18  1   
 32  17  19  1   
 33  18  20  1   
 34  19  21  1   
 35  19  37  1   
 36  19  38  1   
 37  20  22  1   
 38  20  39  1   
 39  20  40  1   
 40  21  22  1   
 41  21  23  1   
 42  21  24  1   
 43  22  41  1   
 44  22  42  1   
 45  23  43  1   
 46  24  44  1   
 47  24  45  1   
 48  24  46  1   
@<TRIPOS>SUBSTRUCTURE
  1 ****  12 GROUP 4 **** **** 0

# MOE 2024.06 (io_trps.svl 2023.06)
