@<TRIPOS>MOLECULE
NONAME
49 51 1 0 0 
SMALL
USER_CHARGES


@<TRIPOS>ATOM
  1 S        0.8180    -0.3740    -1.4520 S.o2  1 <1>   1.5010 
  2 O        0.4340     0.0140    -2.7880 O.2   1 <1>  -0.6500 
  3 O        1.9360    -1.2720    -1.2490 O.2   1 <1>  -0.6500 
  4 N        1.2850     1.0480    -0.6540 N.am  1 <1>  -0.8490 
  5 C       -0.6240    -0.8930    -0.5120 C.2   1 <1>  -0.0630 
  6 C        1.7440     0.8280     0.7460 C.3   1 <1>   0.2760 
  7 C        2.0380     1.9620    -1.5340 C.3   1 <1>   0.1960 
  8 C       -1.0620    -2.0920    -0.0430 C.2   1 <1>  -0.3320 
  9 C       -1.5970     0.0040    -0.0930 C.2   1 <1>   0.1390 
 10 C        1.5360     2.0870     1.6040 C.3   1 <1>   0.1200 
 11 C        3.1860     0.2710     0.9220 C.3   1 <1>   0.3430 
 12 C        3.1390     2.8000    -0.8670 C.3   1 <1>  -0.0800 
 13 N       -2.2190    -1.8630     0.6190 N.pl3 1 <1>   0.3140 
 14 C       -0.4270    -3.4680    -0.2030 C.3   1 <1>  -0.0600 
 15 N       -2.5370    -0.5590     0.5970 N.2   1 <1>  -0.7070 
 16 O        2.6000     2.9780     1.4760 O.3   1 <1>  -0.5600 
 17 N        4.1180     0.5330    -0.2150 N.4   1 <1>  -0.9590 
 18 C        2.6410     3.6870     0.2820 C.3   1 <1>   0.1200 
 19 C        4.3850     1.9850    -0.4900 C.3   1 <1>   0.3430 
 20 C       -3.0930    -2.8460     1.2990 C.3   1 <1>   0.0960 
 21 C        5.4490    -0.1870    -0.0210 C.3   1 <1>   0.2370 
 22 C       -4.1230    -3.4360     0.3280 C.3   1 <1>  -0.2400 
 23 C        6.4960     0.0520    -1.1180 C.2   1 <1>   0.9060 
 24 O        7.1240     1.1160    -1.0900 O.co2 1 <1>  -0.9000 
 25 O        6.5830    -0.7660    -2.0320 O.co2 1 <1>  -0.9000 
 26 H        1.0890     0.0990     1.1900 H     1 <1>   0.0800 
 27 H        2.5000     1.4020    -2.3330 H     1 <1>   0.0800 
 28 H        1.3290     2.6260    -2.0010 H     1 <1>   0.0800 
 29 H       -1.5780     1.0590    -0.3110 H     1 <1>   0.1500 
 30 H        1.4980     1.8060     2.6410 H     1 <1>   0.0800 
 31 H        0.6120     2.5820     1.3570 H     1 <1>   0.0800 
 32 H        3.1080    -0.7950     1.0540 H     1 <1>   0.0800 
 33 H        3.6040     0.6760     1.8290 H     1 <1>   0.0800 
 34 H        3.4710     3.4880    -1.6230 H     1 <1>   0.0800 
 35 H        0.4660    -3.4150    -0.7980 H     1 <1>   0.0800 
 36 H       -1.1120    -4.1380    -0.6920 H     1 <1>   0.0800 
 37 H       -0.1700    -3.8760     0.7580 H     1 <1>   0.0800 
 38 H        3.7010     0.1070    -1.0610 H     1 <1>   0.4500 
 39 H        1.6690     4.1040     0.0760 H     1 <1>   0.0800 
 40 H        3.3310     4.5000     0.4320 H     1 <1>   0.0800 
 41 H        4.8660     2.4350     0.3640 H     1 <1>   0.0800 
 42 H        5.0780     2.0550    -1.3140 H     1 <1>   0.0800 
 43 H       -2.4830    -3.6240     1.7170 H     1 <1>   0.0800 
 44 H       -3.5990    -2.3410     2.1020 H     1 <1>   0.0800 
 45 H        5.8970     0.1270     0.9030 H     1 <1>   0.0800 
 46 H        5.2840    -1.2480     0.0230 H     1 <1>   0.0800 
 47 H       -3.6330    -3.9490    -0.4800 H     1 <1>   0.0800 
 48 H       -4.7410    -2.6510    -0.0730 H     1 <1>   0.0800 
 49 H       -4.7550    -4.1350     0.8460 H     1 <1>   0.0800 
@<TRIPOS>BOND
  1   1   2  2   
  2   1   3  2   
  3   1   4  am  
  4   1   5  1   
  5   4   6  1   
  6   4   7  1   
  7   5   8  2   
  8   5   9  1   
  9   6  10  1   
 10   6  11  1   
 11   6  26  1   
 12   7  12  1   
 13   7  27  1   
 14   7  28  1   
 15   8  13  1   
 16   8  14  1   
 17   9  15  2   
 18   9  29  1   
 19  10  16  1   
 20  10  30  1   
 21  10  31  1   
 22  11  17  1   
 23  11  32  1   
 24  11  33  1   
 25  12  18  1   
 26  12  19  1   
 27  12  34  1   
 28  13  15  1   
 29  13  20  1   
 30  14  35  1   
 31  14  36  1   
 32  14  37  1   
 33  16  18  1   
 34  17  19  1   
 35  17  21  1   
 36  17  38  1   
 37  18  39  1   
 38  18  40  1   
 39  19  41  1   
 40  19  42  1   
 41  20  22  1   
 42  20  43  1   
 43  20  44  1   
 44  21  23  1   
 45  21  45  1   
 46  21  46  1   
 47  22  47  1   
 48  22  48  1   
 49  22  49  1   
 50  23  24  ar  
 51  23  25  ar  
@<TRIPOS>SUBSTRUCTURE
  1 ****   4 GROUP 4 **** **** 0

# MOE 2024.06 (io_trps.svl 2023.06)
