@<TRIPOS>MOLECULE
NONAME
51 54 1 0 0 
SMALL
USER_CHARGES


@<TRIPOS>ATOM
  1 O        0.1670    -3.0480    -0.2810 O.2   1 <1>  -0.5700 
  2 C        1.1660    -2.4750    -0.6920 C.2   1 <1>   0.5440 
  3 N        1.7420    -2.9710    -1.8340 N.am  1 <1>  -0.6600 
  4 C        1.7760    -1.3860     0.0530 C.ar  1 <1>   0.0860 
  5 C        3.0350    -3.6740    -1.7500 C.3   1 <1>   0.1400 
  6 C        0.9420    -3.3920    -3.0040 C.3   1 <1>   0.1400 
  7 C        1.5580    -1.2310     1.4220 C.ar  1 <1>  -0.1500 
  8 C        2.6100    -0.4540    -0.5680 C.ar  1 <1>  -0.1500 
  9 C        2.7230    -5.1200    -1.3690 C.3   1 <1>  -0.1600 
 10 C        0.5410    -4.8590    -2.8410 C.3   1 <1>  -0.1600 
 11 C        2.1490    -0.2050     2.1370 C.ar  1 <1>  -0.1500 
 12 C        3.2030     0.5720     0.1430 C.ar  1 <1>  -0.1500 
 13 C        1.6540    -5.7700    -2.2730 C.3   1 <1>   0.2890 
 14 C        2.9780     0.7020     1.5020 C.ar  1 <1>  -0.1440 
 15 N        1.0310    -6.8880    -1.5290 N.pl3 1 <1>  -0.8690 
 16 C        3.6260     1.8290     2.2860 C.3   1 <1>  -0.0970 
 17 C        0.2660    -6.9110    -0.4090 C.ar  1 <1>   0.7710 
 18 N       -0.1580    -5.7430     0.1670 N.ar  1 <1>  -0.1790 
 19 N       -0.0360    -8.0840     0.0710 N.ar  1 <1>  -0.5670 
 20 C       -0.9320    -5.7020     1.2540 C.ar  1 <1>   0.4610 
 21 C       -0.8090    -8.0820     1.1880 C.ar  1 <1>   0.1050 
 22 N       -1.3300    -4.5150     1.7350 N.pl3 1 <1>  -0.9000 
 23 C       -1.2720    -6.9430     1.8020 C.ar  1 <1>   0.0000 
 24 N       -1.2790    -9.1300     1.9100 N.pl3 1 <1>   0.3140 
 25 C       -2.0150    -7.4200     2.8920 C.2   1 <1>   0.1390 
 26 N       -2.0230    -8.7080     2.9620 N.2   1 <1>  -0.7070 
 27 C       -1.0630   -10.5630     1.6610 C.3   1 <1>   0.0160 
 28 H        3.6660    -3.2170    -1.0050 H     1 <1>   0.0800 
 29 H        3.5410    -3.6270    -2.7000 H     1 <1>   0.0800 
 30 H        1.5300    -3.2630    -3.8980 H     1 <1>   0.0800 
 31 H        0.0640    -2.7730    -3.0900 H     1 <1>   0.0800 
 32 H        0.9170    -1.9220     1.9390 H     1 <1>   0.1500 
 33 H        2.7950    -0.5310    -1.6250 H     1 <1>   0.1500 
 34 H        2.4200    -5.1210    -0.3390 H     1 <1>   0.0800 
 35 H        3.6300    -5.6950    -1.4300 H     1 <1>   0.0800 
 36 H        0.2500    -5.2350    -3.8060 H     1 <1>   0.0800 
 37 H       -0.3440    -4.8790    -2.2390 H     1 <1>   0.0800 
 38 H        1.9610    -0.1120     3.1930 H     1 <1>   0.1500 
 39 H        3.8410     1.2750    -0.3670 H     1 <1>   0.1500 
 40 H        2.1790    -6.1790    -3.1230 H     1 <1>   0.0800 
 41 H        1.2830    -7.8180    -1.8800 H     1 <1>   0.4000 
 42 H        3.8370     1.5150     3.2920 H     1 <1>   0.0800 
 43 H        2.9650     2.6770     2.3180 H     1 <1>   0.0800 
 44 H        4.5510     2.1280     1.8250 H     1 <1>   0.0800 
 45 H        0.1170    -4.8580    -0.2700 H     1 <1>   0.4570 
 46 H       -1.9340    -4.3990     2.5570 H     1 <1>   0.4000 
 47 H       -1.0850    -3.6150     1.2870 H     1 <1>   0.4000 
 48 H       -2.5270    -6.7860     3.5980 H     1 <1>   0.1500 
 49 H       -0.4590   -10.6940     0.7820 H     1 <1>   0.0800 
 50 H       -2.0150   -11.0400     1.5220 H     1 <1>   0.0800 
 51 H       -0.5670   -10.9940     2.5100 H     1 <1>   0.0800 
@<TRIPOS>BOND
  1   1   2  2   
  2   2   3  am  
  3   2   4  1   
  4   3   5  1   
  5   3   6  1   
  6   4   7  ar  
  7   4   8  ar  
  8   5   9  1   
  9   5  28  1   
 10   5  29  1   
 11   6  10  1   
 12   6  30  1   
 13   6  31  1   
 14   7  11  ar  
 15   7  32  1   
 16   8  12  ar  
 17   8  33  1   
 18   9  13  1   
 19   9  34  1   
 20   9  35  1   
 21  10  13  1   
 22  10  36  1   
 23  10  37  1   
 24  11  14  ar  
 25  11  38  1   
 26  12  14  ar  
 27  12  39  1   
 28  13  15  1   
 29  13  40  1   
 30  14  16  1   
 31  15  17  1   
 32  15  41  1   
 33  16  42  1   
 34  16  43  1   
 35  16  44  1   
 36  17  18  ar  
 37  17  19  ar  
 38  18  20  ar  
 39  18  45  1   
 40  19  21  ar  
 41  20  22  1   
 42  20  23  ar  
 43  21  23  ar  
 44  21  24  1   
 45  22  46  1   
 46  22  47  1   
 47  23  25  1   
 48  24  26  1   
 49  24  27  1   
 50  25  26  2   
 51  25  48  1   
 52  27  49  1   
 53  27  50  1   
 54  27  51  1   
@<TRIPOS>SUBSTRUCTURE
  1 ****  18 GROUP 4 **** **** 0

# MOE 2024.06 (io_trps.svl 2023.06)
