@<TRIPOS>MOLECULE
NONAME
56 59 1 0 0 
SMALL
USER_CHARGES


@<TRIPOS>ATOM
  1 O       -2.4480     2.8580     3.1200 O.2   1 <1>  -0.5700 
  2 C       -3.0580     2.9540     2.0780 C.2   1 <1>   0.5690 
  3 N       -4.1180     2.1280     1.7850 N.am  1 <1>  -0.6600 
  4 C       -2.5690     4.0210     1.0900 C.3   1 <1>   0.1810 
  5 C       -4.8750     2.1440     0.5040 C.3   1 <1>   0.1400 
  6 C       -4.4290     0.9410     2.6220 C.3   1 <1>   0.1400 
  7 O       -2.0620     3.4910    -0.1140 O.3   1 <1>  -0.5600 
  8 C       -4.4910     0.9090    -0.3100 C.3   1 <1>  -0.1600 
  9 C       -4.0090    -0.3130     1.8520 C.3   1 <1>  -0.1600 
 10 C       -0.9620     2.6370     0.0440 C.3   1 <1>   0.1200 
 11 C       -4.6890    -0.3990     0.4750 C.3   1 <1>   0.4240 
 12 C       -0.4620     2.1280    -1.3190 C.3   1 <1>   0.2000 
 13 O       -6.0640    -0.5330     0.7540 O.3   1 <1>  -0.5600 
 14 C       -4.1360    -1.6080    -0.3120 C.ar  1 <1>  -0.1440 
 15 O       -1.4150     1.3270    -1.9380 O.3   1 <1>  -0.5600 
 16 C        0.7630     1.2260    -1.2180 C.3   1 <1>  -0.1600 
 17 C       -6.8630    -1.1170    -0.2260 C.3   1 <1>   0.1200 
 18 C       -4.9670    -2.6460    -0.7190 C.ar  1 <1>  -0.1430 
 19 C       -2.7850    -1.6740    -0.6370 C.ar  1 <1>  -0.1500 
 20 C       -0.8120     0.5290    -2.9000 C.3   1 <1>   0.1200 
 21 C        0.6020     0.2670    -2.3910 C.3   1 <1>  -0.1600 
 22 C       -6.4460    -2.5750    -0.3970 C.3   1 <1>  -0.0160 
 23 C       -4.4570    -3.7300    -1.4160 C.ar  1 <1>  -0.1500 
 24 C       -2.2740    -2.7540    -1.3340 C.ar  1 <1>  -0.1500 
 25 C       -3.1020    -3.7900    -1.7260 C.ar  1 <1>   0.0820 
 26 O       -2.5230    -4.8130    -2.4040 O.3   1 <1>  -0.3620 
 27 C       -3.2730    -5.9290    -2.8270 C.3   1 <1>   0.0400 
 28 H       -1.7940     4.6080     1.5500 H     1 <1>   0.0800 
 29 H       -3.3830     4.6750     0.8410 H     1 <1>   0.0800 
 30 H       -4.6610     3.0310    -0.0660 H     1 <1>   0.0800 
 31 H       -5.9300     2.1280     0.7170 H     1 <1>   0.0800 
 32 H       -5.4860     0.9160     2.8290 H     1 <1>   0.0800 
 33 H       -3.9050     0.9860     3.5620 H     1 <1>   0.0800 
 34 H       -3.4590     1.0090    -0.5750 H     1 <1>   0.0800 
 35 H       -5.0440     0.8820    -1.2290 H     1 <1>   0.0800 
 36 H       -4.2530    -1.1920     2.4200 H     1 <1>   0.0800 
 37 H       -2.9420    -0.2890     1.7370 H     1 <1>   0.0800 
 38 H       -1.2470     1.7970     0.6530 H     1 <1>   0.0800 
 39 H       -0.1780     3.1840     0.5370 H     1 <1>   0.0800 
 40 H       -0.2580     2.9600    -1.9720 H     1 <1>   0.0800 
 41 H        0.7430     0.6790    -0.2920 H     1 <1>   0.0800 
 42 H        1.6740     1.7940    -1.2740 H     1 <1>   0.0800 
 43 H       -6.7520    -0.5720    -1.1470 H     1 <1>   0.0800 
 44 H       -7.8860    -1.0540     0.1010 H     1 <1>   0.0800 
 45 H       -2.1160    -0.8800    -0.3540 H     1 <1>   0.1500 
 46 H       -0.7990     1.0780    -3.8260 H     1 <1>   0.0800 
 47 H       -1.3870    -0.3740    -3.0130 H     1 <1>   0.0800 
 48 H        0.7050    -0.7560    -2.0730 H     1 <1>   0.0800 
 49 H        1.3170     0.4660    -3.1690 H     1 <1>   0.0800 
 50 H       -7.0210    -3.0160    -1.1910 H     1 <1>   0.0800 
 51 H       -6.6480    -3.1150     0.5100 H     1 <1>   0.0800 
 52 H       -5.1230    -4.5170    -1.7110 H     1 <1>   0.1500 
 53 H       -1.2290    -2.7980    -1.5770 H     1 <1>   0.1500 
 54 H       -2.6080    -6.6080    -3.3270 H     1 <1>   0.0800 
 55 H       -4.0370    -5.5970    -3.5070 H     1 <1>   0.0800 
 56 H       -3.7040    -6.4060    -1.9650 H     1 <1>   0.0800 
@<TRIPOS>BOND
  1   1   2  2   
  2   2   3  am  
  3   2   4  1   
  4   3   5  1   
  5   3   6  1   
  6   4   7  1   
  7   4  28  1   
  8   4  29  1   
  9   5   8  1   
 10   5  30  1   
 11   5  31  1   
 12   6   9  1   
 13   6  32  1   
 14   6  33  1   
 15   7  10  1   
 16   8  11  1   
 17   8  34  1   
 18   8  35  1   
 19   9  11  1   
 20   9  36  1   
 21   9  37  1   
 22  10  12  1   
 23  10  38  1   
 24  10  39  1   
 25  11  13  1   
 26  11  14  1   
 27  12  15  1   
 28  12  16  1   
 29  12  40  1   
 30  13  17  1   
 31  14  18  ar  
 32  14  19  ar  
 33  15  20  1   
 34  16  21  1   
 35  16  41  1   
 36  16  42  1   
 37  17  22  1   
 38  17  43  1   
 39  17  44  1   
 40  18  22  1   
 41  18  23  ar  
 42  19  24  ar  
 43  19  45  1   
 44  20  21  1   
 45  20  46  1   
 46  20  47  1   
 47  21  48  1   
 48  21  49  1   
 49  22  50  1   
 50  22  51  1   
 51  23  25  ar  
 52  23  52  1   
 53  24  25  ar  
 54  24  53  1   
 55  25  26  1   
 56  26  27  1   
 57  27  54  1   
 58  27  55  1   
 59  27  56  1   
@<TRIPOS>SUBSTRUCTURE
  1 ****  19 GROUP 4 **** **** 0

# MOE 2024.06 (io_trps.svl 2023.06)
