@<TRIPOS>MOLECULE
NONAME
50 53 1 0 0 
SMALL
USER_CHARGES


@<TRIPOS>ATOM
  1 O       -0.8950    -0.8460     0.9100 O.3   1 <1>  -0.5600 
  2 C        0.3970    -1.3570     0.7750 C.3   1 <1>   0.1200 
  3 C       -1.8890    -1.6500     0.3420 C.3   1 <1>   0.1200 
  4 C        0.5120    -2.7260     1.4720 C.3   1 <1>   0.2090 
  5 C       -1.9060    -3.0370     1.0080 C.3   1 <1>   0.2090 
  6 N       -0.5390    -3.6800     0.9690 N.pl3 1 <1>  -0.8380 
  7 C       -0.3550    -4.9420     0.4930 C.ar  1 <1>   0.7710 
  8 N       -1.3630    -5.5650    -0.0990 N.ar  1 <1>  -0.6200 
  9 N        0.8430    -5.5330     0.6390 N.ar  1 <1>  -0.1790 
 10 C       -1.1760    -6.7870    -0.5600 C.ar  1 <1>   0.4100 
 11 C        1.0950    -6.7770     0.1670 C.ar  1 <1>   0.2180 
 12 N       -2.2350    -7.4050    -1.1440 N.pl3 1 <1>  -0.8380 
 13 C        0.0760    -7.4210    -0.4500 C.ar  1 <1>  -0.1500 
 14 C        2.4860    -7.3730     0.3490 C.3   1 <1>  -0.0170 
 15 C       -2.5020    -8.8740    -1.0800 C.3   1 <1>   0.3530 
 16 C       -3.4350    -6.6510    -1.6340 C.3   1 <1>   0.2090 
 17 C        3.5600    -6.5730    -0.3990 C.3   1 <1>  -0.2400 
 18 C       -3.8200    -9.1780    -0.3670 C.ar  1 <1>  -0.1440 
 19 C       -4.5900    -6.7680    -0.6270 C.3   1 <1>   0.3430 
 20 C       -4.7970    -8.2050    -0.1480 C.ar  1 <1>  -0.1440 
 21 C       -4.0400   -10.4750     0.0760 C.ar  1 <1>  -0.1500 
 22 O       -5.7550    -6.3450    -1.2440 O.3   1 <1>  -0.6800 
 23 C       -5.9620    -8.5480     0.5290 C.ar  1 <1>  -0.1500 
 24 C       -5.2080   -10.8090     0.7370 C.ar  1 <1>  -0.1500 
 25 C       -6.1690    -9.8430     0.9660 C.ar  1 <1>  -0.1500 
 26 H        1.0730    -0.6510     1.2250 H     1 <1>   0.0800 
 27 H        0.6270    -1.4360    -0.2730 H     1 <1>   0.0800 
 28 H       -1.7070    -1.7360    -0.7150 H     1 <1>   0.0800 
 29 H       -2.8330    -1.1570     0.4900 H     1 <1>   0.0800 
 30 H        0.3810    -2.5800     2.5320 H     1 <1>   0.0800 
 31 H        1.5030    -3.1040     1.3070 H     1 <1>   0.0800 
 32 H       -2.6530    -3.6370     0.5190 H     1 <1>   0.0800 
 33 H       -2.2130    -2.9220     2.0330 H     1 <1>   0.0800 
 34 H        1.5440    -5.0000     1.1330 H     1 <1>   0.4570 
 35 H        0.2030    -8.4000    -0.8690 H     1 <1>   0.1500 
 36 H        2.4910    -8.3850    -0.0220 H     1 <1>   0.0800 
 37 H        2.7280    -7.4170     1.3970 H     1 <1>   0.0800 
 38 H       -1.7110    -9.3760    -0.5540 H     1 <1>   0.0800 
 39 H       -2.5430    -9.2680    -2.0810 H     1 <1>   0.0800 
 40 H       -3.7430    -7.0700    -2.5760 H     1 <1>   0.0800 
 41 H       -3.2010    -5.6130    -1.7910 H     1 <1>   0.0800 
 42 H        3.3290    -6.5210    -1.4500 H     1 <1>   0.0800 
 43 H        4.5150    -7.0600    -0.2930 H     1 <1>   0.0800 
 44 H        3.6520    -5.5730    -0.0130 H     1 <1>   0.0800 
 45 H       -4.4030    -6.1180     0.2100 H     1 <1>   0.0800 
 46 H       -3.3020   -11.2400    -0.0890 H     1 <1>   0.1500 
 47 H       -6.2070    -7.1320    -1.6070 H     1 <1>   0.4000 
 48 H       -6.7150    -7.8030     0.7220 H     1 <1>   0.1500 
 49 H       -5.3690   -11.8180     1.0760 H     1 <1>   0.1500 
 50 H       -7.0770   -10.0980     1.4860 H     1 <1>   0.1500 
@<TRIPOS>BOND
  1   1   2  1   
  2   1   3  1   
  3   2   4  1   
  4   2  26  1   
  5   2  27  1   
  6   3   5  1   
  7   3  28  1   
  8   3  29  1   
  9   4   6  1   
 10   4  30  1   
 11   4  31  1   
 12   5   6  1   
 13   5  32  1   
 14   5  33  1   
 15   6   7  1   
 16   7   8  ar  
 17   7   9  ar  
 18   8  10  ar  
 19   9  11  ar  
 20   9  34  1   
 21  10  12  1   
 22  10  13  ar  
 23  11  13  ar  
 24  11  14  1   
 25  12  15  1   
 26  12  16  1   
 27  13  35  1   
 28  14  17  1   
 29  14  36  1   
 30  14  37  1   
 31  15  18  1   
 32  15  38  1   
 33  15  39  1   
 34  16  19  1   
 35  16  40  1   
 36  16  41  1   
 37  17  42  1   
 38  17  43  1   
 39  17  44  1   
 40  18  20  ar  
 41  18  21  ar  
 42  19  20  1   
 43  19  22  1   
 44  19  45  1   
 45  20  23  ar  
 46  21  24  ar  
 47  21  46  1   
 48  22  47  1   
 49  23  25  ar  
 50  23  48  1   
 51  24  25  ar  
 52  24  49  1   
 53  25  50  1   
@<TRIPOS>SUBSTRUCTURE
  1 ****   8 GROUP 4 **** **** 0

# MOE 2024.06 (io_trps.svl 2023.06)
