@<TRIPOS>MOLECULE
NONAME
50 53 1 0 0 
SMALL
USER_CHARGES


@<TRIPOS>ATOM
  1 S       -1.3720    -0.3300     1.3870 S.3   1 <1>  -0.0800 
  2 C       -1.3010    -1.1430    -0.1710 C.2   1 <1>  -0.1400 
  3 C       -1.1680     1.2390     0.6300 C.2   1 <1>  -0.1100 
  4 C       -1.1290    -0.2440    -1.1600 C.2   1 <1>  -0.1500 
  5 C       -1.4300    -2.6560    -0.1690 C.3   1 <1>   0.3800 
  6 C       -1.0560     1.1110    -0.7040 C.2   1 <1>  -0.1500 
  7 O       -0.6100    -3.1370    -1.1670 O.3   1 <1>  -0.6800 
  8 C       -2.8710    -3.1410    -0.4520 C.3   1 <1>  -0.0800 
  9 C       -3.8890    -2.5940     0.5690 C.3   1 <1>  -0.1600 
 10 C       -2.9650    -4.6810    -0.4920 C.3   1 <1>  -0.1600 
 11 C       -5.3030    -3.1100     0.3020 C.3   1 <1>   0.3430 
 12 C       -4.3920    -5.1620    -0.7440 C.3   1 <1>   0.3430 
 13 N       -5.3010    -4.5980     0.2960 N.4   1 <1>  -0.9590 
 14 C       -6.6900    -5.1640     0.1680 C.3   1 <1>   0.5240 
 15 C       -6.7440    -6.6530     0.5210 C.2   1 <1>   0.3350 
 16 N       -5.9170    -7.2350     1.3020 N.2   1 <1>  -0.4100 
 17 N       -7.6820    -7.4540     0.0100 N.2   1 <1>  -0.5650 
 18 O       -6.3230    -8.4520     1.3100 O.3   1 <1>  -0.0190 
 19 C       -7.3740    -8.5880     0.5450 C.2   1 <1>   0.4250 
 20 C       -8.0250    -9.8710     0.3820 C.ar  1 <1>   0.0530 
 21 C       -9.1450   -10.0090    -0.4380 C.ar  1 <1>  -0.1500 
 22 C       -7.5650   -11.0190     1.0320 C.ar  1 <1>  -0.1500 
 23 C       -9.7740   -11.2290    -0.6040 C.ar  1 <1>  -0.1500 
 24 C       -8.1920   -12.2400     0.8680 C.ar  1 <1>  -0.1500 
 25 C       -9.3000   -12.3540     0.0470 C.ar  1 <1>  -0.1430 
 26 C       -9.9900   -13.6940    -0.1340 C.3   1 <1>  -0.0970 
 27 H       -1.1520     2.1020     1.2720 H     1 <1>   0.1500 
 28 H       -1.0490    -0.4750    -2.2090 H     1 <1>   0.1500 
 29 H       -1.0670    -3.0520     0.7650 H     1 <1>   0.0800 
 30 H       -0.9210     1.9210    -1.4010 H     1 <1>   0.1500 
 31 H        0.2450    -2.6660    -1.1200 H     1 <1>   0.4000 
 32 H       -3.1440    -2.7570    -1.4220 H     1 <1>   0.0800 
 33 H       -3.9170    -1.5190     0.5120 H     1 <1>   0.0800 
 34 H       -3.5930    -2.8560     1.5700 H     1 <1>   0.0800 
 35 H       -2.6020    -5.1020     0.4300 H     1 <1>   0.0800 
 36 H       -2.3400    -5.0600    -1.2820 H     1 <1>   0.0800 
 37 H       -5.6430    -2.7400    -0.6520 H     1 <1>   0.0800 
 38 H       -5.9670    -2.7410     1.0680 H     1 <1>   0.0800 
 39 H       -4.4130    -6.2410    -0.7130 H     1 <1>   0.0800 
 40 H       -4.7100    -4.8440    -1.7240 H     1 <1>   0.0800 
 41 H       -4.9450    -4.9340     1.2040 H     1 <1>   0.4500 
 42 H       -7.0480    -5.0340    -0.8400 H     1 <1>   0.0800 
 43 H       -7.3600    -4.6430     0.8300 H     1 <1>   0.0800 
 44 H       -9.5320    -9.1480    -0.9550 H     1 <1>   0.1500 
 45 H       -6.7060   -10.9630     1.6770 H     1 <1>   0.1500 
 46 H      -10.6370   -11.3000    -1.2440 H     1 <1>   0.1500 
 47 H       -7.8140   -13.1060     1.3830 H     1 <1>   0.1500 
 48 H      -10.4300   -13.7610    -1.1130 H     1 <1>   0.0800 
 49 H      -10.7650   -13.8060     0.6040 H     1 <1>   0.0800 
 50 H       -9.2860   -14.4990    -0.0240 H     1 <1>   0.0800 
@<TRIPOS>BOND
  1   1   2  1   
  2   1   3  1   
  3   2   4  2   
  4   2   5  1   
  5   3   6  2   
  6   3  27  1   
  7   4   6  1   
  8   4  28  1   
  9   5   7  1   
 10   5   8  1   
 11   5  29  1   
 12   6  30  1   
 13   7  31  1   
 14   8   9  1   
 15   8  10  1   
 16   8  32  1   
 17   9  11  1   
 18   9  33  1   
 19   9  34  1   
 20  10  12  1   
 21  10  35  1   
 22  10  36  1   
 23  11  13  1   
 24  11  37  1   
 25  11  38  1   
 26  12  13  1   
 27  12  39  1   
 28  12  40  1   
 29  13  14  1   
 30  13  41  1   
 31  14  15  1   
 32  14  42  1   
 33  14  43  1   
 34  15  16  2   
 35  15  17  1   
 36  16  18  1   
 37  17  19  2   
 38  18  19  1   
 39  19  20  1   
 40  20  21  ar  
 41  20  22  ar  
 42  21  23  ar  
 43  21  44  1   
 44  22  24  ar  
 45  22  45  1   
 46  23  25  ar  
 47  23  46  1   
 48  24  25  ar  
 49  24  47  1   
 50  25  26  1   
 51  26  48  1   
 52  26  49  1   
 53  26  50  1   
@<TRIPOS>SUBSTRUCTURE
  1 ****  13 GROUP 4 **** **** 0

# MOE 2024.06 (io_trps.svl 2023.06)
