@<TRIPOS>MOLECULE
NONAME
53 57 1 0 0 
SMALL
USER_CHARGES


@<TRIPOS>ATOM
  1 O        2.8070    -0.2710    -0.3760 O.3   1 <1>  -0.5600 
  2 C        2.8970    -1.1110     0.7620 C.3   1 <1>   0.4600 
  3 C        1.5260    -0.0230    -0.9140 C.3   1 <1>   0.1200 
  4 C        1.9130    -2.2630     0.6310 C.2   1 <1>  -0.3320 
  5 C        2.6350    -0.2670     2.0140 C.3   1 <1>  -0.1600 
  6 C        4.3420    -1.6270     0.7910 C.3   1 <1>  -0.1600 
  7 C        0.8850    -1.3170    -1.4390 C.3   1 <1>   0.0210 
  8 N        1.7820    -3.3440     1.4640 N.pl3 1 <1>   0.0330 
  9 C        1.0080    -2.3660    -0.3640 C.2   1 <1>  -0.1810 
 10 C        3.5890     0.9270     2.1290 C.3   1 <1>   0.3430 
 11 C        5.3660    -0.5800     1.2460 C.3   1 <1>   0.3430 
 12 C        0.7800    -4.1420     0.9720 C.ar  1 <1>  -0.1520 
 13 C        0.2730    -3.5550    -0.1830 C.ar  1 <1>   0.0000 
 14 N        4.7610     0.7730     1.2140 N.4   1 <1>  -0.9590 
 15 C        0.2630    -5.3510     1.4470 C.ar  1 <1>  -0.1500 
 16 C       -0.7650    -4.1810    -0.8810 C.ar  1 <1>  -0.1500 
 17 C        5.7310     1.8880     1.3060 C.3   1 <1>   0.5240 
 18 C       -0.7590    -5.9550     0.7520 C.ar  1 <1>  -0.1500 
 19 C       -1.2720    -5.3710    -0.4130 C.ar  1 <1>  -0.1500 
 20 C        4.9990     3.1410     0.8910 C.2   1 <1>  -0.1810 
 21 C        4.4630     3.4850    -0.3040 C.2   1 <1>  -0.3320 
 22 C        4.7160     4.2090     1.7320 C.2   1 <1>   0.1390 
 23 N        3.8960     4.7030    -0.1330 N.pl3 1 <1>   0.3140 
 24 C        4.4530     2.7330    -1.6290 C.3   1 <1>  -0.0600 
 25 N        4.0470     5.1360     1.1280 N.2   1 <1>  -0.7070 
 26 C        3.1980     5.5210    -1.1340 C.3   1 <1>   0.0160 
 27 H        1.6310     0.6860    -1.7160 H     1 <1>   0.0800 
 28 H        0.9080     0.4100    -0.1470 H     1 <1>   0.0800 
 29 H        2.7550    -0.8870     2.8820 H     1 <1>   0.0800 
 30 H        1.6170     0.0760     2.0240 H     1 <1>   0.0800 
 31 H        4.5980    -1.9930    -0.1880 H     1 <1>   0.0800 
 32 H        4.4150    -2.4650     1.4590 H     1 <1>   0.0800 
 33 H        1.3850    -1.6470    -2.3310 H     1 <1>   0.0800 
 34 H       -0.1510    -1.1430    -1.6690 H     1 <1>   0.0800 
 35 H        2.3190    -3.5600     2.3090 H     1 <1>   0.2700 
 36 H        3.9210     1.0290     3.1500 H     1 <1>   0.0800 
 37 H        3.0540     1.8260     1.8620 H     1 <1>   0.0800 
 38 H        6.2250    -0.6200     0.5960 H     1 <1>   0.0800 
 39 H        5.6900    -0.8040     2.2490 H     1 <1>   0.0800 
 40 H        4.3300     0.8590     0.2740 H     1 <1>   0.4500 
 41 H        0.6620    -5.7960     2.3410 H     1 <1>   0.1500 
 42 H       -1.1490    -3.7220    -1.7730 H     1 <1>   0.1500 
 43 H        6.5580     1.7220     0.6350 H     1 <1>   0.0800 
 44 H        6.1080     1.9850     2.3110 H     1 <1>   0.0800 
 45 H       -1.1740    -6.8860     1.0960 H     1 <1>   0.1500 
 46 H       -2.0710    -5.8640    -0.9380 H     1 <1>   0.1500 
 47 H        5.0020     4.2850     2.7690 H     1 <1>   0.1500 
 48 H        5.0000     1.8110    -1.5580 H     1 <1>   0.0800 
 49 H        4.9100     3.3340    -2.3960 H     1 <1>   0.0800 
 50 H        3.4430     2.5110    -1.9230 H     1 <1>   0.0800 
 51 H        2.3610     4.9720    -1.5220 H     1 <1>   0.0800 
 52 H        3.8780     5.7660    -1.9270 H     1 <1>   0.0800 
 53 H        2.8500     6.4250    -0.6700 H     1 <1>   0.0800 
@<TRIPOS>BOND
  1   1   2  1   
  2   1   3  1   
  3   2   4  1   
  4   2   5  1   
  5   2   6  1   
  6   3   7  1   
  7   3  27  1   
  8   3  28  1   
  9   4   8  1   
 10   4   9  2   
 11   5  10  1   
 12   5  29  1   
 13   5  30  1   
 14   6  11  1   
 15   6  31  1   
 16   6  32  1   
 17   7   9  1   
 18   7  33  1   
 19   7  34  1   
 20   8  12  1   
 21   8  35  1   
 22   9  13  1   
 23  10  14  1   
 24  10  36  1   
 25  10  37  1   
 26  11  14  1   
 27  11  38  1   
 28  11  39  1   
 29  12  13  ar  
 30  12  15  ar  
 31  13  16  ar  
 32  14  17  1   
 33  14  40  1   
 34  15  18  ar  
 35  15  41  1   
 36  16  19  ar  
 37  16  42  1   
 38  17  20  1   
 39  17  43  1   
 40  17  44  1   
 41  18  19  ar  
 42  18  45  1   
 43  19  46  1   
 44  20  21  2   
 45  20  22  1   
 46  21  23  1   
 47  21  24  1   
 48  22  25  2   
 49  22  47  1   
 50  23  25  1   
 51  23  26  1   
 52  24  48  1   
 53  24  49  1   
 54  24  50  1   
 55  26  51  1   
 56  26  52  1   
 57  26  53  1   
@<TRIPOS>SUBSTRUCTURE
  1 ****   1 GROUP 4 **** **** 0

# MOE 2024.06 (io_trps.svl 2023.06)
