@<TRIPOS>MOLECULE
NONAME
53 56 1 0 0 
SMALL
USER_CHARGES


@<TRIPOS>ATOM
  1 O        2.0620    -0.7070    -2.5230 O.2   1 <1>  -0.5700 
  2 C        1.7540    -1.1030    -1.4220 C.2   1 <1>   0.5690 
  3 N        1.5940    -0.3010    -0.3350 N.am  1 <1>  -0.4930 
  4 C        1.5150    -2.5990    -1.2070 C.3   1 <1>   0.1710 
  5 C        1.6930     1.1050    -0.2050 C.2   1 <1>   0.0630 
  6 N        0.7020    -2.9170     0.0070 N.3   1 <1>  -0.8100 
  7 C        1.3320     1.8740     0.9040 C.2   1 <1>   0.1080 
  8 C        2.1470     2.0020    -1.1010 C.2   1 <1>  -0.3020 
  9 C       -0.7160    -2.5580    -0.1510 C.3   1 <1>   0.1100 
 10 C        0.6990    -4.3620     0.2950 C.3   1 <1>   0.1100 
 11 N        1.5460     3.1400     0.7160 N.2   1 <1>  -0.7070 
 12 C        0.7520     1.3340     2.1920 C.3   1 <1>  -0.0590 
 13 N        2.0500     3.2180    -0.5280 N.pl3 1 <1>   0.3140 
 14 C       -1.4190    -3.3600     0.9370 C.3   1 <1>   0.2000 
 15 C       -0.6730    -4.6940     0.9180 C.3   1 <1>  -0.0800 
 16 C        2.4320     4.4980    -1.1330 C.3   1 <1>   0.0160 
 17 O       -1.1510    -2.7460     2.1460 O.3   1 <1>  -0.6800 
 18 C       -1.4430    -5.7480     0.1010 C.3   1 <1>  -0.0170 
 19 C       -0.7010    -7.0730     0.0480 C.ar  1 <1>   0.1670 
 20 N       -0.0110    -7.3320    -1.0210 N.ar  1 <1>  -0.6200 
 21 C       -0.7900    -7.9430     1.1470 C.ar  1 <1>  -0.1500 
 22 C        0.6600    -8.5120    -1.0700 C.ar  1 <1>   0.3100 
 23 C       -0.1250    -9.1310     1.1250 C.ar  1 <1>  -0.1500 
 24 C        0.6340    -9.4480    -0.0130 C.ar  1 <1>   0.0000 
 25 C        1.4140    -8.8170    -2.2140 C.ar  1 <1>  -0.1500 
 26 C        1.3630   -10.6480    -0.1420 C.ar  1 <1>  -0.1500 
 27 C        2.1150    -9.9880    -2.3210 C.ar  1 <1>  -0.1500 
 28 C        2.0890   -10.9130    -1.2720 C.ar  1 <1>  -0.1500 
 29 H        1.2920    -0.8190     0.4920 H     1 <1>   0.3700 
 30 H        2.4800    -3.0630    -1.1140 H     1 <1>   0.0800 
 31 H        1.0410    -3.0020    -2.0850 H     1 <1>   0.0800 
 32 H        2.5240     1.8360    -2.0930 H     1 <1>   0.1500 
 33 H       -0.8860    -1.5000    -0.0390 H     1 <1>   0.0800 
 34 H       -1.0750    -2.8750    -1.1170 H     1 <1>   0.0800 
 35 H        0.8450    -4.9190    -0.6150 H     1 <1>   0.0800 
 36 H        1.4990    -4.6020     0.9750 H     1 <1>   0.0800 
 37 H       -0.0350     0.6340     1.9800 H     1 <1>   0.0800 
 38 H        0.3490     2.1420     2.7750 H     1 <1>   0.0800 
 39 H        1.5240     0.8470     2.7590 H     1 <1>   0.0800 
 40 H       -2.4850    -3.4340     0.8090 H     1 <1>   0.0800 
 41 H       -0.5450    -5.0700     1.9180 H     1 <1>   0.0800 
 42 H        2.0610     4.5380    -2.1390 H     1 <1>   0.0800 
 43 H        3.5020     4.5810    -1.1300 H     1 <1>   0.0800 
 44 H        2.0060     5.2990    -0.5570 H     1 <1>   0.0800 
 45 H       -0.1810    -2.6180     2.1840 H     1 <1>   0.4000 
 46 H       -1.6000    -5.3940    -0.9030 H     1 <1>   0.0800 
 47 H       -2.4110    -5.9100     0.5410 H     1 <1>   0.0800 
 48 H       -1.3830    -7.6580     1.9970 H     1 <1>   0.1500 
 49 H       -0.1690    -9.8230     1.9480 H     1 <1>   0.1500 
 50 H        1.4200    -8.0950    -3.0090 H     1 <1>   0.1500 
 51 H        1.3380   -11.3550     0.6670 H     1 <1>   0.1500 
 52 H        2.6890   -10.2100    -3.2040 H     1 <1>   0.1500 
 53 H        2.6450   -11.8310    -1.3690 H     1 <1>   0.1500 
@<TRIPOS>BOND
  1   1   2  2   
  2   2   3  am  
  3   2   4  1   
  4   3   5  1   
  5   3  29  1   
  6   4   6  1   
  7   4  30  1   
  8   4  31  1   
  9   5   7  1   
 10   5   8  2   
 11   6   9  1   
 12   6  10  1   
 13   7  11  2   
 14   7  12  1   
 15   8  13  1   
 16   8  32  1   
 17   9  14  1   
 18   9  33  1   
 19   9  34  1   
 20  10  15  1   
 21  10  35  1   
 22  10  36  1   
 23  11  13  1   
 24  12  37  1   
 25  12  38  1   
 26  12  39  1   
 27  13  16  1   
 28  14  15  1   
 29  14  17  1   
 30  14  40  1   
 31  15  18  1   
 32  15  41  1   
 33  16  42  1   
 34  16  43  1   
 35  16  44  1   
 36  17  45  1   
 37  18  19  1   
 38  18  46  1   
 39  18  47  1   
 40  19  20  ar  
 41  19  21  ar  
 42  20  22  ar  
 43  21  23  ar  
 44  21  48  1   
 45  22  24  ar  
 46  22  25  ar  
 47  23  24  ar  
 48  23  49  1   
 49  24  26  ar  
 50  25  27  ar  
 51  25  50  1   
 52  26  28  ar  
 53  26  51  1   
 54  27  28  ar  
 55  27  52  1   
 56  28  53  1   
@<TRIPOS>SUBSTRUCTURE
  1 ****   6 GROUP 4 **** **** 0

# MOE 2024.06 (io_trps.svl 2023.06)
