@<TRIPOS>MOLECULE
NONAME
51 53 1 0 0 
SMALL
USER_CHARGES


@<TRIPOS>ATOM
  1 O        1.6190     0.3480     1.9230 O.2   1 <1>  -0.5700 
  2 C        2.3270     0.0090     0.9930 C.2   1 <1>   0.7160 
  3 N        2.3390     0.7640    -0.1640 N.am  1 <1>  -0.6600 
  4 C        3.1100    -1.1920     1.1200 C.2   1 <1>  -0.0860 
  5 C        2.8910     0.2260    -1.4560 C.3   1 <1>   0.1400 
  6 C        1.7270     2.1260    -0.1860 C.3   1 <1>   0.1400 
  7 C        4.4430    -1.4000     1.1230 C.2   1 <1>  -0.0400 
  8 C        2.6360    -2.4810     1.2840 C.2   1 <1>   0.1080 
  9 C        3.4270     1.2930    -2.4250 C.3   1 <1>   0.1400 
 10 C        2.8050     3.1990     0.0100 C.3   1 <1>  -0.1600 
 11 O        4.7470    -2.6700     1.2440 O.3   1 <1>  -0.0190 
 12 C        5.5710    -0.3920     1.0240 C.3   1 <1>  -0.0600 
 13 N        3.6060    -3.3150     1.3430 N.2   1 <1>  -0.4100 
 14 C        1.1760    -2.8680     1.3850 C.3   1 <1>  -0.0590 
 15 N        4.3270     2.2580    -1.7290 N.am  1 <1>  -0.6600 
 16 C        3.6510     3.4850    -1.2360 C.3   1 <1>   0.1400 
 17 C        5.6670     1.9600    -1.5220 C.2   1 <1>   0.7160 
 18 O        6.1240     1.0150    -2.1490 O.2   1 <1>  -0.5700 
 19 C        6.5480     2.6770    -0.5990 C.2   1 <1>   0.2030 
 20 N        6.2110     3.4210     0.4440 N.2   1 <1>  -0.7070 
 21 C        7.9450     2.6220    -0.7000 C.2   1 <1>  -0.1500 
 22 N        7.3660     3.8300     0.9870 N.pl3 1 <1>   0.3000 
 23 C        8.4330     3.3600     0.3160 C.2   1 <1>  -0.3320 
 24 C        9.8750     3.6480     0.6930 C.3   1 <1>   0.0200 
 25 C       10.2280     2.9840     2.0280 C.3   1 <1>  -0.1600 
 26 C       11.6900     3.2350     2.4130 C.3   1 <1>  -0.2400 
 27 H        2.1180    -0.3330    -1.9530 H     1 <1>   0.0800 
 28 H        3.6970    -0.4560    -1.2560 H     1 <1>   0.0800 
 29 H        1.0070     2.2140     0.6100 H     1 <1>   0.0800 
 30 H        1.1960     2.2810    -1.1090 H     1 <1>   0.0800 
 31 H        2.6050     1.8180    -2.8780 H     1 <1>   0.0800 
 32 H        3.9610     0.8050    -3.2220 H     1 <1>   0.0800 
 33 H        3.4430     2.9280     0.8320 H     1 <1>   0.0800 
 34 H        2.3160     4.1160     0.2850 H     1 <1>   0.0800 
 35 H        5.1790     0.6080     0.9940 H     1 <1>   0.0800 
 36 H        6.1460    -0.5730     0.1340 H     1 <1>   0.0800 
 37 H        6.2160    -0.4820     1.8790 H     1 <1>   0.0800 
 38 H        0.6570    -2.5770     0.4910 H     1 <1>   0.0800 
 39 H        0.7290    -2.3760     2.2290 H     1 <1>   0.0800 
 40 H        1.0840    -3.9320     1.5140 H     1 <1>   0.0800 
 41 H        4.3760     4.2480    -1.0160 H     1 <1>   0.0800 
 42 H        3.0200     3.8740    -2.0160 H     1 <1>   0.0800 
 43 H        8.4820     2.0780    -1.4580 H     1 <1>   0.1500 
 44 H        7.4020     4.4270     1.8230 H     1 <1>   0.2700 
 45 H       10.0280     4.7110     0.7550 H     1 <1>   0.0800 
 46 H       10.5230     3.2650    -0.0780 H     1 <1>   0.0800 
 47 H       10.0590     1.9230     1.9500 H     1 <1>   0.0800 
 48 H        9.5880     3.3640     2.8050 H     1 <1>   0.0800 
 49 H       12.3510     2.8360     1.6640 H     1 <1>   0.0800 
 50 H       11.9110     2.7560     3.3510 H     1 <1>   0.0800 
 51 H       11.8780     4.2900     2.5170 H     1 <1>   0.0800 
@<TRIPOS>BOND
  1   1   2  2   
  2   2   3  am  
  3   2   4  1   
  4   3   5  1   
  5   3   6  1   
  6   4   7  2   
  7   4   8  1   
  8   5   9  1   
  9   5  27  1   
 10   5  28  1   
 11   6  10  1   
 12   6  29  1   
 13   6  30  1   
 14   7  11  1   
 15   7  12  1   
 16   8  13  2   
 17   8  14  1   
 18   9  15  1   
 19   9  31  1   
 20   9  32  1   
 21  10  16  1   
 22  10  33  1   
 23  10  34  1   
 24  11  13  1   
 25  12  35  1   
 26  12  36  1   
 27  12  37  1   
 28  14  38  1   
 29  14  39  1   
 30  14  40  1   
 31  15  16  1   
 32  15  17  am  
 33  16  41  1   
 34  16  42  1   
 35  17  18  2   
 36  17  19  1   
 37  19  20  2   
 38  19  21  1   
 39  20  22  1   
 40  21  23  2   
 41  21  43  1   
 42  22  23  1   
 43  22  44  1   
 44  23  24  1   
 45  24  25  1   
 46  24  45  1   
 47  24  46  1   
 48  25  26  1   
 49  25  47  1   
 50  25  48  1   
 51  26  49  1   
 52  26  50  1   
 53  26  51  1   
@<TRIPOS>SUBSTRUCTURE
  1 ****  12 GROUP 4 **** **** 0

# MOE 2024.06 (io_trps.svl 2023.06)
