@<TRIPOS>MOLECULE
NONAME
53 55 1 0 0 
SMALL
USER_CHARGES


@<TRIPOS>ATOM
  1 CL      -3.8180    -2.1700     4.1730 Cl    1 <1>  -0.1770 
  2 C       -3.6350    -1.2020     2.7290 C.ar  1 <1>   0.1770 
  3 C       -4.7360    -0.9620     1.9270 C.ar  1 <1>  -0.1440 
  4 C       -2.3830    -0.7170     2.4070 C.ar  1 <1>  -0.1500 
  5 C       -4.5670    -0.2030     0.7820 C.ar  1 <1>  -0.1500 
  6 C       -6.0920    -1.5470     2.2440 C.3   1 <1>   0.4870 
  7 C       -2.2050     0.0200     1.2380 C.ar  1 <1>   0.0830 
  8 C       -3.3190     0.2760     0.4210 C.ar  1 <1>   0.0830 
  9 N       -6.2340    -2.7340     1.3750 N.4   1 <1>  -0.9590 
 10 O       -0.9740     0.4690     0.8600 O.3   1 <1>  -0.3620 
 11 O       -3.2940     0.9420    -0.7650 O.3   1 <1>  -0.3620 
 12 C       -7.5950    -3.0600     0.8800 C.3   1 <1>   0.3430 
 13 C       -5.6260    -3.9880     1.8700 C.3   1 <1>   0.3430 
 14 C        0.1840     0.2390     1.6340 C.3   1 <1>   0.0400 
 15 C       -2.4600     2.0670    -0.9390 C.3   1 <1>   0.1200 
 16 C       -7.5540    -4.5520     0.5260 C.3   1 <1>   0.2000 
 17 C       -6.1600    -5.0640     0.9220 C.3   1 <1>  -0.0800 
 18 C       -3.0350     2.9090    -2.0730 C.3   1 <1>  -0.2400 
 19 O       -8.5140    -5.2270     1.2690 O.3   1 <1>  -0.6800 
 20 C       -5.2420    -5.2970    -0.3030 C.3   1 <1>   0.0210 
 21 C       -4.5050    -4.0720    -0.8320 C.2   1 <1>   0.1080 
 22 N       -5.0750    -2.9610    -1.1960 N.2   1 <1>  -0.7070 
 23 C       -3.1240    -4.0240    -0.9810 C.2   1 <1>  -0.1500 
 24 N       -4.0510    -2.1780    -1.6210 N.pl3 1 <1>   0.3000 
 25 C       -2.8650    -2.8000    -1.4830 C.2   1 <1>  -0.3320 
 26 C       -1.5350    -2.1700    -1.8560 C.3   1 <1>  -0.0600 
 27 H       -1.5700    -0.9370     3.0720 H     1 <1>   0.1500 
 28 H       -5.4010     0.0150     0.1370 H     1 <1>   0.1500 
 29 H       -6.8530    -0.8210     2.0100 H     1 <1>   0.0800 
 30 H       -6.1730    -1.8180     3.2830 H     1 <1>   0.0800 
 31 H       -5.6920    -2.5300     0.5030 H     1 <1>   0.4500 
 32 H       -8.3360    -2.8860     1.6420 H     1 <1>   0.0800 
 33 H       -7.8220    -2.4740     0.0050 H     1 <1>   0.0800 
 34 H       -4.5480    -3.9380     1.8510 H     1 <1>   0.0800 
 35 H       -5.9590    -4.1840     2.8760 H     1 <1>   0.0800 
 36 H        1.0180     0.6940     1.1300 H     1 <1>   0.0800 
 37 H        0.3460    -0.8210     1.7190 H     1 <1>   0.0800 
 38 H        0.0560     0.6910     2.6020 H     1 <1>   0.0800 
 39 H       -2.4350     2.6270    -0.0200 H     1 <1>   0.0800 
 40 H       -1.4710     1.7240    -1.1890 H     1 <1>   0.0800 
 41 H       -7.7790    -4.7080    -0.5170 H     1 <1>   0.0800 
 42 H       -6.2400    -6.0030     1.4420 H     1 <1>   0.0800 
 43 H       -4.0280     3.2380    -1.8240 H     1 <1>   0.0800 
 44 H       -3.0600     2.3390    -2.9840 H     1 <1>   0.0800 
 45 H       -2.4180     3.7750    -2.2290 H     1 <1>   0.0800 
 46 H       -8.2840    -5.3030     2.2160 H     1 <1>   0.4000 
 47 H       -5.8060    -5.7340    -1.1090 H     1 <1>   0.0800 
 48 H       -4.4980    -6.0240    -0.0260 H     1 <1>   0.0800 
 49 H       -2.4230    -4.8080    -0.7490 H     1 <1>   0.1500 
 50 H       -4.1730    -1.2190    -1.9800 H     1 <1>   0.2700 
 51 H       -0.7280    -2.8460    -1.6350 H     1 <1>   0.0800 
 52 H       -1.3810    -1.2610    -1.3020 H     1 <1>   0.0800 
 53 H       -1.5130    -1.9430    -2.9070 H     1 <1>   0.0800 
@<TRIPOS>BOND
  1   1   2  1   
  2   2   3  ar  
  3   2   4  ar  
  4   3   5  ar  
  5   3   6  1   
  6   4   7  ar  
  7   4  27  1   
  8   5   8  ar  
  9   5  28  1   
 10   6   9  1   
 11   6  29  1   
 12   6  30  1   
 13   7   8  ar  
 14   7  10  1   
 15   8  11  1   
 16   9  12  1   
 17   9  13  1   
 18   9  31  1   
 19  10  14  1   
 20  11  15  1   
 21  12  16  1   
 22  12  32  1   
 23  12  33  1   
 24  13  17  1   
 25  13  34  1   
 26  13  35  1   
 27  14  36  1   
 28  14  37  1   
 29  14  38  1   
 30  15  18  1   
 31  15  39  1   
 32  15  40  1   
 33  16  17  1   
 34  16  19  1   
 35  16  41  1   
 36  17  20  1   
 37  17  42  1   
 38  18  43  1   
 39  18  44  1   
 40  18  45  1   
 41  19  46  1   
 42  20  21  1   
 43  20  47  1   
 44  20  48  1   
 45  21  22  2   
 46  21  23  1   
 47  22  24  1   
 48  23  25  2   
 49  23  49  1   
 50  24  25  1   
 51  24  50  1   
 52  25  26  1   
 53  26  51  1   
 54  26  52  1   
 55  26  53  1   
@<TRIPOS>SUBSTRUCTURE
  1 ****   5 GROUP 4 **** **** 0

# MOE 2024.06 (io_trps.svl 2023.06)
