@<TRIPOS>MOLECULE
NONAME
40 41 1 0 0 
SMALL
USER_CHARGES


@<TRIPOS>ATOM
  1 O       -1.3350    -1.1240    -0.3540 O.2   1 <1>  -0.5700 
  2 C       -2.0200    -0.1310    -0.2670 C.2   1 <1>   0.5690 
  3 N       -3.1390    -0.1140     0.5270 N.am  1 <1>  -0.6600 
  4 C       -1.5980     1.0710    -1.1000 C.3   1 <1>  -0.0990 
  5 C       -3.5080    -1.3390     1.3000 C.3   1 <1>   0.3200 
  6 C       -4.1760     0.9620     0.5520 C.3   1 <1>   0.1400 
  7 C       -1.0860     2.2630    -0.2680 C.3   1 <1>  -0.0800 
  8 C       -4.2330    -2.3300     0.4070 C.2   1 <1>   0.0060 
  9 C       -4.1480     1.7140     1.8890 C.3   1 <1>   0.1200 
 10 C       -0.6940     3.4320    -1.1850 C.3   1 <1>   0.1200 
 11 C        0.1050     1.8750     0.6250 C.3   1 <1>  -0.1600 
 12 N       -5.4660    -2.7010     0.5470 N.2   1 <1>  -0.5650 
 13 N       -3.6070    -2.9160    -0.6360 N.pl3 1 <1>   0.0330 
 14 O       -4.8860     2.8840     1.7780 O.3   1 <1>  -0.6800 
 15 O       -0.2540     4.5010    -0.4060 O.3   1 <1>  -0.5600 
 16 C        0.6610     3.1230     1.3220 C.3   1 <1>  -0.1600 
 17 C       -5.6530    -3.5760    -0.4610 C.2   1 <1>   0.0770 
 18 C       -4.5280    -3.7200    -1.1950 C.2   1 <1>  -0.3020 
 19 C        0.9150     4.2520     0.3150 C.3   1 <1>   0.1200 
 20 H       -2.4220     1.3740    -1.7180 H     1 <1>   0.0800 
 21 H       -0.8140     0.7530    -1.7650 H     1 <1>   0.0800 
 22 H       -4.1430    -1.0820     2.1290 H     1 <1>   0.0800 
 23 H       -2.6210    -1.8020     1.6980 H     1 <1>   0.0800 
 24 H       -5.1480     0.5190     0.4130 H     1 <1>   0.0800 
 25 H       -4.0130     1.6570    -0.2500 H     1 <1>   0.0800 
 26 H       -1.8830     2.6140     0.3600 H     1 <1>   0.0800 
 27 H       -3.1440     1.9780     2.1720 H     1 <1>   0.0800 
 28 H       -4.5970     1.1190     2.6640 H     1 <1>   0.0800 
 29 H       -1.5420     3.7730    -1.7520 H     1 <1>   0.0800 
 30 H        0.0940     3.1540    -1.8650 H     1 <1>   0.0800 
 31 H        0.8790     1.4330     0.0210 H     1 <1>   0.0800 
 32 H       -0.1940     1.1520     1.3650 H     1 <1>   0.0800 
 33 H       -2.6330    -2.7320    -0.9130 H     1 <1>   0.2700 
 34 H       -4.4000     3.5640     1.2710 H     1 <1>   0.4000 
 35 H        1.5790     2.8810     1.8290 H     1 <1>   0.0800 
 36 H       -0.0390     3.4730     2.0600 H     1 <1>   0.0800 
 37 H       -6.6030    -4.0630    -0.6070 H     1 <1>   0.1500 
 38 H       -4.3380    -4.3320    -2.0580 H     1 <1>   0.1500 
 39 H        1.1870     5.1600     0.8240 H     1 <1>   0.0800 
 40 H        1.6970     3.9900    -0.3770 H     1 <1>   0.0800 
@<TRIPOS>BOND
  1   1   2  2   
  2   2   3  am  
  3   2   4  1   
  4   3   5  1   
  5   3   6  1   
  6   4   7  1   
  7   4  20  1   
  8   4  21  1   
  9   5   8  1   
 10   5  22  1   
 11   5  23  1   
 12   6   9  1   
 13   6  24  1   
 14   6  25  1   
 15   7  10  1   
 16   7  11  1   
 17   7  26  1   
 18   8  12  2   
 19   8  13  1   
 20   9  14  1   
 21   9  27  1   
 22   9  28  1   
 23  10  15  1   
 24  10  29  1   
 25  10  30  1   
 26  11  16  1   
 27  11  31  1   
 28  11  32  1   
 29  12  17  1   
 30  13  18  1   
 31  13  33  1   
 32  14  34  1   
 33  15  19  1   
 34  16  19  1   
 35  16  35  1   
 36  16  36  1   
 37  17  18  2   
 38  17  37  1   
 39  18  38  1   
 40  19  39  1   
 41  19  40  1   
@<TRIPOS>SUBSTRUCTURE
  1 ****   3 GROUP 4 **** **** 0

# MOE 2024.06 (io_trps.svl 2023.06)
