@<TRIPOS>MOLECULE
NONAME
45 46 1 0 0 
SMALL
USER_CHARGES


@<TRIPOS>ATOM
  1 S        0.4230     0.7730    -0.2770 S.3   1 <1>  -0.0800 
  2 C       -1.2150     1.3600     0.0090 C.2   1 <1>  -0.1400 
  3 C       -0.1430    -0.8800    -0.4240 C.2   1 <1>  -0.1100 
  4 C       -2.0860     0.3320    -0.0130 C.2   1 <1>  -0.1500 
  5 C       -1.4340     2.8520     0.2360 C.3   1 <1>   0.6030 
  6 C       -1.4770    -0.9400    -0.2600 C.2   1 <1>  -0.1500 
  7 N       -1.2140     3.6570    -1.0180 N.4   1 <1>  -0.9590 
  8 C       -0.5630     3.3550     1.4270 C.3   1 <1>   0.2090 
  9 C       -2.1380     4.8250    -1.0870 C.3   1 <1>   0.2630 
 10 C       -1.2120     2.9000    -2.3070 C.3   1 <1>   0.2630 
 11 N       -0.4630     4.8520     1.5470 N.pl3 1 <1>  -0.8690 
 12 C        0.5590     5.5610     0.9670 C.ar  1 <1>   0.4100 
 13 N        1.1380     5.0190    -0.0980 N.ar  1 <1>  -0.6200 
 14 C        0.9310     6.7990     1.4840 C.ar  1 <1>  -0.1500 
 15 C        2.1180     5.7220    -0.6450 C.ar  1 <1>   0.1600 
 16 C        1.9470     7.5140     0.8960 C.ar  1 <1>  -0.1500 
 17 C        2.5820     6.9610    -0.2120 C.ar  1 <1>   0.0860 
 18 C        3.6530     7.6160    -0.9250 C.2   1 <1>   0.5440 
 19 O        3.6420     7.5830    -2.1410 O.2   1 <1>  -0.5700 
 20 N        4.6910     8.2640    -0.2820 N.am  1 <1>  -0.6600 
 21 C        5.6210     9.1560    -1.0290 C.3   1 <1>   0.0600 
 22 C        5.1090     7.9780     1.1180 C.3   1 <1>   0.0600 
 23 H        0.5920    -1.6430    -0.6170 H     1 <1>   0.1500 
 24 H       -3.1520     0.3940     0.1350 H     1 <1>   0.1500 
 25 H       -2.4650     2.9700     0.5250 H     1 <1>   0.0800 
 26 H       -2.0680    -1.8400    -0.3020 H     1 <1>   0.1500 
 27 H       -0.2640     4.0630    -0.8630 H     1 <1>   0.4500 
 28 H        0.4320     2.9550     1.3350 H     1 <1>   0.0800 
 29 H       -0.9710     2.9540     2.3380 H     1 <1>   0.0800 
 30 H       -3.1560     4.4940    -1.2110 H     1 <1>   0.0800 
 31 H       -1.8730     5.4570    -1.9190 H     1 <1>   0.0800 
 32 H       -2.0690     5.4110    -0.1850 H     1 <1>   0.0800 
 33 H       -2.1550     2.3970    -2.4480 H     1 <1>   0.0800 
 34 H       -0.4250     2.1640    -2.3110 H     1 <1>   0.0800 
 35 H       -1.0480     3.5720    -3.1330 H     1 <1>   0.0800 
 36 H       -0.7490     5.2050     2.4670 H     1 <1>   0.4000 
 37 H        0.4170     7.1920     2.3410 H     1 <1>   0.1500 
 38 H        2.6040     5.2970    -1.5090 H     1 <1>   0.1500 
 39 H        2.2460     8.4790     1.2680 H     1 <1>   0.1500 
 40 H        5.1750     9.4780    -1.9550 H     1 <1>   0.0800 
 41 H        6.5310     8.6250    -1.2510 H     1 <1>   0.0800 
 42 H        5.8500    10.0260    -0.4400 H     1 <1>   0.0800 
 43 H        4.6080     7.1050     1.4990 H     1 <1>   0.0800 
 44 H        4.8780     8.8210     1.7450 H     1 <1>   0.0800 
 45 H        6.1690     7.7970     1.1510 H     1 <1>   0.0800 
@<TRIPOS>BOND
  1   1   2  1   
  2   1   3  1   
  3   2   4  2   
  4   2   5  1   
  5   3   6  2   
  6   3  23  1   
  7   4   6  1   
  8   4  24  1   
  9   5   7  1   
 10   5   8  1   
 11   5  25  1   
 12   6  26  1   
 13   7   9  1   
 14   7  10  1   
 15   7  27  1   
 16   8  11  1   
 17   8  28  1   
 18   8  29  1   
 19   9  30  1   
 20   9  31  1   
 21   9  32  1   
 22  10  33  1   
 23  10  34  1   
 24  10  35  1   
 25  11  12  1   
 26  11  36  1   
 27  12  13  ar  
 28  12  14  ar  
 29  13  15  ar  
 30  14  16  ar  
 31  14  37  1   
 32  15  17  ar  
 33  15  38  1   
 34  16  17  ar  
 35  16  39  1   
 36  17  18  1   
 37  18  19  2   
 38  18  20  am  
 39  20  21  1   
 40  20  22  1   
 41  21  40  1   
 42  21  41  1   
 43  21  42  1   
 44  22  43  1   
 45  22  44  1   
 46  22  45  1   
@<TRIPOS>SUBSTRUCTURE
  1 ****  13 GROUP 4 **** **** 0

# MOE 2024.06 (io_trps.svl 2023.06)
