@<TRIPOS>MOLECULE
NONAME
54 57 1 0 0 
SMALL
USER_CHARGES


@<TRIPOS>ATOM
  1 O       -0.2900     0.2500     0.8500 O.2   1 <1>  -0.5700 
  2 C       -1.1910     0.7400     0.2090 C.2   1 <1>   0.5690 
  3 N       -2.2980     0.0100    -0.0650 N.am  1 <1>  -0.7300 
  4 C       -1.0520     2.1750    -0.3340 C.3   1 <1>   0.0610 
  5 C       -2.6100    -1.3100     0.4960 C.3   1 <1>   0.3200 
  6 C       -0.4000     3.1110     0.7240 C.3   1 <1>   0.2200 
  7 C       -2.4140     2.9070    -0.5690 C.3   1 <1>  -0.1600 
  8 C       -0.2250     2.0560    -1.6510 C.3   1 <1>  -0.1600 
  9 C       -4.1220    -1.5040     0.4720 C.2   1 <1>   0.0060 
 10 N       -0.9290     4.4130     0.3270 N.am  1 <1>  -0.6600 
 11 C       -1.1000     3.0080     2.0940 C.3   1 <1>  -0.1600 
 12 C       -2.3480     4.1180     0.3690 C.3   1 <1>   0.2200 
 13 C        0.2160     3.3490    -2.3560 C.3   1 <1>  -0.2400 
 14 N       -4.9620    -0.7290    -0.1480 N.2   1 <1>  -0.5650 
 15 N       -4.7200    -2.5330     1.1150 N.pl3 1 <1>   0.0330 
 16 C       -0.2320     5.5800     0.1960 C.2   1 <1>   0.5690 
 17 C       -2.4790     3.6390     1.8200 C.3   1 <1>  -0.1600 
 18 C       -6.1630    -1.2840     0.1040 C.2   1 <1>   0.0770 
 19 C       -6.0350    -2.3860     0.8740 C.2   1 <1>  -0.3020 
 20 O        0.9670     5.6090     0.3470 O.2   1 <1>  -0.5700 
 21 C       -0.9810     6.8700    -0.1550 C.3   1 <1>  -0.0190 
 22 C       -1.3760     6.9000    -1.6410 C.3   1 <1>  -0.1600 
 23 C       -0.1880     8.1490     0.1720 C.3   1 <1>  -0.1600 
 24 C       -2.0700     8.2200    -1.9940 C.3   1 <1>   0.1200 
 25 C       -0.9500     9.3960    -0.2880 C.3   1 <1>   0.1200 
 26 O       -1.2430     9.2860    -1.6470 O.3   1 <1>  -0.5600 
 27 H       -3.1060     0.4000    -0.5620 H     1 <1>   0.3700 
 28 H       -2.1320    -2.0690    -0.0980 H     1 <1>   0.0800 
 29 H       -2.2400    -1.3680     1.5060 H     1 <1>   0.0800 
 30 H        0.6760     3.0630     0.7680 H     1 <1>   0.0800 
 31 H       -3.2810     2.3170    -0.3390 H     1 <1>   0.0800 
 32 H       -2.5120     3.2460    -1.5840 H     1 <1>   0.0800 
 33 H        0.6670     1.4930    -1.4330 H     1 <1>   0.0800 
 34 H       -0.7950     1.4710    -2.3520 H     1 <1>   0.0800 
 35 H       -1.1700     2.0070     2.4770 H     1 <1>   0.0800 
 36 H       -0.5530     3.6000     2.8070 H     1 <1>   0.0800 
 37 H       -2.9970     4.9340     0.1010 H     1 <1>   0.0800 
 38 H        0.9150     3.8920    -1.7450 H     1 <1>   0.0800 
 39 H       -0.6190     3.9860    -2.5800 H     1 <1>   0.0800 
 40 H        0.7110     3.1070    -3.2800 H     1 <1>   0.0800 
 41 H       -4.2700    -3.2670     1.6690 H     1 <1>   0.2700 
 42 H       -2.6480     4.4760     2.4750 H     1 <1>   0.0800 
 43 H       -3.2820     2.9320     1.9370 H     1 <1>   0.0800 
 44 H       -7.0710    -0.8550    -0.2880 H     1 <1>   0.1500 
 45 H       -6.7890    -3.0530     1.2510 H     1 <1>   0.1500 
 46 H       -1.8770     6.8950     0.4370 H     1 <1>   0.0800 
 47 H       -2.0320     6.0810    -1.8700 H     1 <1>   0.0800 
 48 H       -0.4960     6.7960    -2.2520 H     1 <1>   0.0800 
 49 H        0.7660     8.1290    -0.3260 H     1 <1>   0.0800 
 50 H       -0.0040     8.2050     1.2300 H     1 <1>   0.0800 
 51 H       -3.0050     8.3260    -1.4710 H     1 <1>   0.0800 
 52 H       -2.2520     8.2800    -3.0530 H     1 <1>   0.0800 
 53 H       -0.3460    10.2770    -0.1530 H     1 <1>   0.0800 
 54 H       -1.8720     9.5170     0.2540 H     1 <1>   0.0800 
@<TRIPOS>BOND
  1   1   2  2   
  2   2   3  am  
  3   2   4  1   
  4   3   5  1   
  5   3  27  1   
  6   4   6  1   
  7   4   7  1   
  8   4   8  1   
  9   5   9  1   
 10   5  28  1   
 11   5  29  1   
 12   6  10  1   
 13   6  11  1   
 14   6  30  1   
 15   7  12  1   
 16   7  31  1   
 17   7  32  1   
 18   8  13  1   
 19   8  33  1   
 20   8  34  1   
 21   9  14  2   
 22   9  15  1   
 23  10  12  1   
 24  10  16  am  
 25  11  17  1   
 26  11  35  1   
 27  11  36  1   
 28  12  17  1   
 29  12  37  1   
 30  13  38  1   
 31  13  39  1   
 32  13  40  1   
 33  14  18  1   
 34  15  19  1   
 35  15  41  1   
 36  16  20  2   
 37  16  21  1   
 38  17  42  1   
 39  17  43  1   
 40  18  19  2   
 41  18  44  1   
 42  19  45  1   
 43  21  22  1   
 44  21  23  1   
 45  21  46  1   
 46  22  24  1   
 47  22  47  1   
 48  22  48  1   
 49  23  25  1   
 50  23  49  1   
 51  23  50  1   
 52  24  26  1   
 53  24  51  1   
 54  24  52  1   
 55  25  26  1   
 56  25  53  1   
 57  25  54  1   
@<TRIPOS>SUBSTRUCTURE
  1 ****   7 GROUP 4 **** **** 0

# MOE 2024.06 (io_trps.svl 2023.06)
